data_PCOD9123489
_publ_section_title
;
Structure prediction by ZEFSAII (Michael W. Deem and Ramdas Pophale) SiO2 
 PCOD9123489
Probable space group: C 2
;
_chemical_formula_sum "Si O2"
_cell_formula_units_Z 24
_cell_length_a 16.994219
_cell_length_b 8.024652
_cell_length_c 23.487114
_cell_angle_alpha 90.000000
_cell_angle_beta 20.149262
_cell_angle_gamma 90.000000
_cell_volume 1103.328099
_symmetry_space_group_name_H-M "C 2"
_symmetry_group_IT_number 5
_symmetry_cell_setting 'monoclinic'
loop_
_space_group_symop_operation_xyz
x,y,z
-x,y,-z
1/2+x,1/2+y,z
1/2-x,1/2+y,-z
loop_
_atom_site_type_symbol
_atom_site_label
_atom_site_fract_x
_atom_site_fract_y
_atom_site_fract_z
Si Si1 0.373726 0.866130 0.481904
Si Si2 0.362355 0.502148 0.153867
Si Si3 0.763009 0.338230 0.948223
Si Si4 0.478208 0.627125 0.314504
Si Si5 0.037193 0.670704 0.206106
Si Si6 0.261872 0.327211 0.814642
O O1 0.636473 0.893979 0.316937
O O2 0.383522 0.783684 0.412799
O O3 0.216867 0.743946 0.625166
O O4 0.227953 0.035119 0.577293
O O5 0.545342 0.444790 0.075311
O O6 0.268359 0.691900 0.215122
O O7 0.500000 0.476781 0.000000
O O8 0.702254 0.264739 0.050152
O O9 0.959869 0.476423 0.810400
O O10 0.830311 0.190280 0.859450
O O11 0.585073 0.492594 0.286086
O O12 0.137705 0.716731 0.200442
O O13 0.000000 0.383864 0.000000
#
# Coordination Sequence:
#
# PCOD9123489 Si02
#       6
#     4   4   4   4   4   4
#     4  11  22  38  64  98 127 175 223 277 317 401
#     4  11  21  42  67  94 130 175 224 269 327 388
#     4  12  24  44  67  97 137 180 213 278 337 402
#     4  11  22  37  67  98 131 173 228 268 332 390
#     4  11  23  41  64  97 133 173 217 272 336 388
#     4  10  20  38  66  98 125 171 225 269 315 400
#
# _framework density 21.752369000000002
#
# number of rings (size 3 to 8) (size 9 to 14) (size 15 to 20)
#    0.000    1.000    5.000    5.000    2.333    0.667 
#    0.000    0.000    0.000    0.000    0.000    0.000 
#    0.000    0.000    0.000    0.000    0.000    0.000 
#
# Total GULP energy -66967.703024 kJ/mol
# GULP energy per Si atom -5580.641919 kJ/mol
# Density = 2.170286 g / cm^3
# Si number density = 21.752369 Si / 1000 Ang^3
#
#
#
# Elastic Constant Matrix: (Units=GPa)
#
#
# Indices 1 2 3 4 5 6 
#
# 1 26.1901 15.0389 10.2611 -0.0082 -6.1994 0.0094
# 2 15.0389 62.3736 32.7047 -0.0475 -4.2785 0.0101
# 3 10.2611 32.7047 114.0022 -0.0270 -16.5052 0.0129
# 4 -0.0082 -0.0475 -0.0270 11.1535 0.0002 -5.7377
# 5 -6.1994 -4.2785 -16.5052 0.0002 27.2198 -0.0096
# 6 0.0094 0.0101 0.0129 -5.7377 -0.0096 24.7844
#
#
#
# Elastic Compliance Matrix: (Units=1/GPa)
#
#
# Indices 1 2 3 4 5 6 
#
# 1 0.046359 -0.010659 0.000188 -0.000018 0.008997 -0.000014
# 2 -0.010659 0.021325 -0.005508 0.000078 -0.002416 0.000015
# 3 0.000188 -0.005508 0.011199 0.000003 0.005968 -0.000001
# 4 -0.000018 0.000078 0.000003 0.101779 0.000017 0.023562
# 5 0.008997 -0.002416 0.005968 0.000017 0.042026 0.000015
# 6 -0.000014 0.000015 -0.000001 0.023562 0.000015 0.045803
#
#
# Mechanical properties :
#
#
# Convention : Reuss Voigt Hill
#
# Bulk Modulus (GPa) = 21.31083 35.39724 28.35403
# Shear Modulus (GPa) = 15.81827 22.26897 19.04362
#
# Velocity S-wave (km/s) = 2.69959 3.20308 2.96205
# Velocity P-wave (km/s) = 4.41988 5.47611 4.97610
#
# Compressibility (1/GPa) = 0.04692451
#
# Stress axis : x y z
#
# Youngs Moduli (GPa) = 21.57077 46.89387 89.29394
#
# Poissons Ratio (x) = 0.49984 -0.01676
# Poissons Ratio (y) = 0.22992 0.49182
# Poissons Ratio (z) = -0.00405 0.25829
#
# Static dielectric constant tensor:
#      x y z
#    x 1.805650 0.000000 -0.022820 
#    y 0.000000 1.859170 0.000040 
#    z -0.022820 0.000040 1.827660 
# 
# From -- ./inp_files/69136.got.cif
#   From: 2010.05.17/outbox.cif.g08.bks.cpg/sg5_35_cif.got.tgz:69136.got - 2010.06.03 18:56:24.
