data_PCOD9123367
_publ_section_title
;
Structure prediction by ZEFSAII (Michael W. Deem and Ramdas Pophale) SiO2 
 PCOD9123367
Probable space group: C 2
;
_chemical_formula_sum "Si O2"
_cell_formula_units_Z 30
_cell_length_a 9.071218
_cell_length_b 21.753737
_cell_length_c 12.104836
_cell_angle_alpha 90.000000
_cell_angle_beta 141.349870
_cell_angle_gamma 90.000000
_cell_volume 1491.882896
_symmetry_space_group_name_H-M "C 2"
_symmetry_group_IT_number 5
_symmetry_cell_setting 'monoclinic'
loop_
_space_group_symop_operation_xyz
x,y,z
-x,y,-z
1/2+x,1/2+y,z
1/2-x,1/2+y,-z
loop_
_atom_site_type_symbol
_atom_site_label
_atom_site_fract_x
_atom_site_fract_y
_atom_site_fract_z
Si Si1 0.916665 0.950850 0.293891
Si Si2 0.102979 0.617931 0.867900
Si Si3 0.000000 0.207906 0.000000
Si Si4 0.687396 0.483859 0.012498
Si Si5 0.370293 0.901682 0.686837
Si Si6 0.227958 0.270724 0.348003
Si Si7 0.139850 0.092223 0.693591
Si Si8 0.803593 0.639895 0.477934
O O1 0.732772 0.906488 0.248197
O O2 0.171055 0.931219 0.490652
O O3 0.839026 0.018674 0.290573
O O4 0.905970 0.953917 0.155922
O O5 0.306590 0.666591 0.953789
O O6 0.214872 0.551720 0.956213
O O7 0.891369 0.625777 0.833622
O O8 0.943131 0.615288 0.664598
O O9 0.867659 0.246602 0.826478
O O10 0.897901 0.441947 0.180821
O O11 0.500000 0.489898 0.000000
O O12 0.410734 0.829723 0.689356
O O13 0.500000 0.291800 0.500000
O O14 0.241200 0.212136 0.436902
O O15 0.000000 0.109601 0.500000
O O16 0.951854 0.108433 0.679120
O O17 0.000000 0.629908 0.500000
#
# Coordination Sequence:
#
# PCOD9123367 Si02
#       8
#     4   4   2   4   4   4   4   4
#     4  11  22  41  70  93 130 170 224 278 332 393
#     4  11  22  40  62  97 142 167 220 273 342 403
#     4  12  24  40  64 104 130 178 220 282 334 396
#     4  12  27  41  64 103 138 176 215 282 345 403
#     4  11  23  46  69  99 125 177 235 274 328 396
#     4  11  23  42  70  95 128 176 237 269 322 401
#     4  10  20  38  62  98 130 170 215 274 339 400
#     4  10  21  40  65  93 132 176 222 272 324 396
#
# _framework density 20.108816999999998
#
# number of rings (size 3 to 8) (size 9 to 14) (size 15 to 20)
#    0.000    1.067    7.333    1.200    5.600    0.533 
#    0.000    1.333    5.867    0.000    0.000    0.000 
#    0.000    0.000    0.000    0.000    0.000    0.000 
#
# Total GULP energy -83647.443424 kJ/mol
# GULP energy per Si atom -5576.496228 kJ/mol
# Density = 2.006305 g / cm^3
# Si number density = 20.108817 Si / 1000 Ang^3
#
#
#
# Elastic Constant Matrix: (Units=GPa)
#
#
# Indices 1 2 3 4 5 6 
#
# 1 87.8511 15.7825 44.4989 0.0000 30.7814 0.0000
# 2 15.7825 71.1371 31.5471 0.0000 11.0898 0.0000
# 3 44.4989 31.5471 109.4489 0.0000 4.6237 0.0000
# 4 0.0000 0.0000 0.0000 21.4462 0.0000 1.9535
# 5 30.7814 11.0898 4.6237 0.0000 34.0091 0.0000
# 6 0.0000 0.0000 0.0000 1.9535 0.0000 23.7351
#
#
#
# Elastic Compliance Matrix: (Units=1/GPa)
#
#
# Indices 1 2 3 4 5 6 
#
# 1 0.022438 0.002039 -0.008876 0.000000 -0.019767 0.000000
# 2 0.002039 0.017069 -0.005467 0.000000 -0.006669 0.000000
# 3 -0.008876 -0.005467 0.013987 0.000000 0.007914 0.000000
# 4 0.000000 0.000000 0.000000 0.046980 0.000000 -0.003867
# 5 -0.019767 -0.006669 0.007914 0.000000 0.048393 0.000000
# 6 0.000000 0.000000 0.000000 -0.003867 0.000000 0.042450
#
#
# Mechanical properties :
#
#
# Convention : Reuss Voigt Hill
#
# Bulk Modulus (GPa) = 34.61749 50.23266 42.42508
# Shear Modulus (GPa) = 22.16768 27.61201 24.88984
#
# Velocity S-wave (km/s) = 3.32382 3.70960 3.52199
# Velocity P-wave (km/s) = 5.65534 6.58656 6.13863
#
# Compressibility (1/GPa) = 0.02888713
#
# Stress axis : x y z
#
# Youngs Moduli (GPa) = 44.56688 58.58545 71.49620
#
# Poissons Ratio (x) = -0.11948 0.63456
# Poissons Ratio (y) = -0.09089 0.39090
# Poissons Ratio (z) = 0.39555 0.32031
#
# Static dielectric constant tensor:
#      x y z
#    x 1.769920 0.000000 -0.012000 
#    y 0.000000 1.705550 0.000000 
#    z -0.012000 0.000000 1.740270 
# 
# From -- ./inp_files/37549.got.cif
#   From: 2010.05.17/outbox.cif.g08.bks.cpg/sg5_19_cif.got.tgz:37549.got - 2010.06.03 18:56:24.
