data_PCOD9123432
_publ_section_title
;
Structure prediction by ZEFSAII (Michael W. Deem and Ramdas Pophale) SiO2 
 PCOD9123432
Probable space group: C 2
;
_chemical_formula_sum "Si O2"
_cell_formula_units_Z 32
_cell_length_a 13.962405
_cell_length_b 11.445947
_cell_length_c 10.711240
_cell_angle_alpha 90.000000
_cell_angle_beta 71.498680
_cell_angle_gamma 90.000000
_cell_volume 1623.323023
_symmetry_space_group_name_H-M "C 2"
_symmetry_group_IT_number 5
_symmetry_cell_setting 'monoclinic'
loop_
_space_group_symop_operation_xyz
x,y,z
-x,y,-z
1/2+x,1/2+y,z
1/2-x,1/2+y,-z
loop_
_atom_site_type_symbol
_atom_site_label
_atom_site_fract_x
_atom_site_fract_y
_atom_site_fract_z
Si Si1 0.295243 0.714070 0.736864
Si Si2 0.776305 0.799894 0.827805
Si Si3 0.091956 0.246267 0.058777
Si Si4 0.880886 0.403566 0.510989
Si Si5 0.172142 0.493336 0.725499
Si Si6 0.556847 0.019166 0.141188
Si Si7 0.387220 0.251608 0.010031
Si Si8 0.895978 0.632295 0.613590
O O1 0.379682 0.695227 0.813500
O O2 0.332258 0.806143 0.618289
O O3 0.251485 0.599864 0.684194
O O4 0.198553 0.766464 0.851145
O O5 0.719913 0.914504 0.811439
O O6 0.859013 0.823482 0.898529
O O7 0.828753 0.738065 0.688900
O O8 0.691638 0.724086 0.934217
O O9 0.078370 0.385480 0.096237
O O10 0.000000 0.215522 0.000000
O O11 0.856340 0.401576 0.374323
O O12 0.842591 0.536351 0.550605
O O13 0.000000 0.402548 0.500000
O O14 0.063102 0.540636 0.811335
O O15 0.611675 0.116296 0.035789
O O16 0.583758 0.055264 0.270783
O O17 0.500000 0.281911 0.000000
O O18 0.000000 0.666998 0.500000
#
# Coordination Sequence:
#
# PCOD9123432 Si02
#       8
#     4   4   4   4   4   4   4   4
#     4  11  24  39  64  99 130 161 217 263 323 372
#     4  10  24  35  61  99 127 159 211 258 325 372
#     4  11  20  37  64  97 129 163 204 270 313 378
#     4  11  23  42  67  90 118 173 219 268 307 364
#     4  12  22  39  64  96 127 165 211 270 308 385
#     4  11  18  36  69  92 119 158 223 260 307 353
#     4  10  20  38  64  96 126 162 206 276 310 370
#     4  10  20  39  63  89 119 162 216 259 297 369
#
# _framework density 19.712651999999999
#
# number of rings (size 3 to 8) (size 9 to 14) (size 15 to 20)
#    0.000    1.250    6.250    1.125    1.750    0.000 
#    0.000    1.250    0.000    0.000    0.000    0.000 
#    0.000    0.000    0.000    0.000    0.000    0.000 
#
# Total GULP energy -89076.298662 kJ/mol
# GULP energy per Si atom -5567.268666 kJ/mol
# Density = 1.966778 g / cm^3
# Si number density = 19.712652 Si / 1000 Ang^3
#
#
#
# Elastic Constant Matrix: (Units=GPa)
#
#
# Indices 1 2 3 4 5 6 
#
# 1 116.1945 21.8546 21.3022 0.0000 17.6377 0.0000
# 2 21.8546 27.2986 13.5023 0.0000 -0.7269 0.0000
# 3 21.3022 13.5023 81.3494 0.0000 -7.2325 0.0000
# 4 0.0000 0.0000 0.0000 26.6472 0.0000 0.5772
# 5 17.6377 -0.7269 -7.2325 0.0000 31.8086 0.0000
# 6 0.0000 0.0000 0.0000 0.5772 0.0000 30.4895
#
#
#
# Elastic Compliance Matrix: (Units=1/GPa)
#
#
# Indices 1 2 3 4 5 6 
#
# 1 0.011708 -0.008423 -0.002309 0.000000 -0.007210 0.000000
# 2 -0.008423 0.045980 -0.005019 0.000000 0.004580 0.000000
# 3 -0.002309 -0.005019 0.014119 0.000000 0.004376 0.000000
# 4 0.000000 0.000000 0.000000 0.037543 0.000000 -0.000711
# 5 -0.007210 0.004580 0.004376 0.000000 0.036535 0.000000
# 6 0.000000 0.000000 0.000000 -0.000711 0.000000 0.032812
#
#
# Mechanical properties :
#
#
# Convention : Reuss Voigt Hill
#
# Bulk Modulus (GPa) = 24.81049 37.57342 31.19195
# Shear Modulus (GPa) = 22.35797 29.00128 25.67962
#
# Velocity S-wave (km/s) = 3.37143 3.83979 3.61321
# Velocity P-wave (km/s) = 5.26961 6.22580 5.76755
#
# Compressibility (1/GPa) = 0.04030553
#
# Stress axis : x y z
#
# Youngs Moduli (GPa) = 85.41005 21.74872 70.82509
#
# Poissons Ratio (x) = 0.18320 0.16352
# Poissons Ratio (y) = 0.71943 0.35545
# Poissons Ratio (z) = 0.19720 0.10915
#
# Static dielectric constant tensor:
#      x y z
#    x 1.738060 0.000000 0.053060 
#    y 0.000000 1.697510 0.000000 
#    z 0.053060 0.000000 1.812160 
# 
# From -- ./inp_files/42478.got.cif
#   From: 2010.05.17/outbox.cif.g08.bks.cpg/sg5_22_cif.got.tgz:42478.got - 2010.06.03 18:56:24.
