data_PCOD9123618
_publ_section_title
;
Structure prediction by ZEFSAII (Michael W. Deem and Ramdas Pophale) SiO2 
 PCOD9123618
Probable space group: C 2
;
_chemical_formula_sum "Si O2"
_cell_formula_units_Z 24
_cell_length_a 15.584159
_cell_length_b 8.649624
_cell_length_c 12.171067
_cell_angle_alpha 90.000000
_cell_angle_beta 130.575132
_cell_angle_gamma 90.000000
_cell_volume 1246.142566
_symmetry_space_group_name_H-M "C 2"
_symmetry_group_IT_number 5
_symmetry_cell_setting 'monoclinic'
loop_
_space_group_symop_operation_xyz
x,y,z
-x,y,-z
1/2+x,1/2+y,z
1/2-x,1/2+y,-z
loop_
_atom_site_type_symbol
_atom_site_label
_atom_site_fract_x
_atom_site_fract_y
_atom_site_fract_z
Si Si1 0.168962 0.643610 0.315498
Si Si2 0.387836 0.151601 0.333988
Si Si3 0.269384 0.499266 0.614753
Si Si4 0.236624 0.441755 0.189261
Si Si5 0.552982 0.717278 0.153133
Si Si6 0.930618 0.505718 0.134612
O O1 0.197937 0.546133 0.448653
O O2 0.197439 0.821153 0.359179
O O3 0.249271 0.579964 0.285913
O O4 0.036420 0.610417 0.179967
O O5 0.500000 0.169859 0.500000
O O6 0.338414 0.321260 0.262470
O O7 0.300446 0.055563 0.336873
O O8 0.409332 0.058940 0.240202
O O9 0.383247 0.599856 0.715873
O O10 0.141539 0.335793 0.170605
O O11 0.181247 0.511440 0.033523
O O12 0.470168 0.827918 0.152180
O O13 0.500000 0.638989 0.000000
#
# Coordination Sequence:
#
# PCOD9123618 Si02
#       6
#     4   4   4   4   4   4
#     4  11  21  38  62  88 119 159 213 253 306 363
#     4  11  22  39  64  89 127 166 198 251 314 363
#     4  11  22  36  61  91 122 161 205 258 306 367
#     4   9  21  39  60  84 123 161 201 247 306 361
#     4   8  17  36  60  86 119 159 204 246 302 363
#     4  10  20  39  64  87 119 162 199 256 307 366
#
# _framework density 19.259433000000001
#
# number of rings (size 3 to 8) (size 9 to 14) (size 15 to 20)
#    0.000    2.000    1.667    4.500    0.000    2.667 
#    0.000    5.833    3.667    0.000    0.000    0.000 
#    0.000    0.000    0.000    0.000    0.000    0.000 
#
# Total GULP energy -66908.722737 kJ/mol
# GULP energy per Si atom -5575.726895 kJ/mol
# Density = 1.921560 g / cm^3
# Si number density = 19.259433 Si / 1000 Ang^3
#
#
#
# Elastic Constant Matrix: (Units=GPa)
#
#
# Indices 1 2 3 4 5 6 
#
# 1 60.3781 30.7132 34.4670 0.0000 -12.6975 0.0000
# 2 30.7132 99.2678 56.4453 0.0000 -2.7409 0.0000
# 3 34.4670 56.4453 113.9853 0.0000 -20.1768 0.0000
# 4 0.0000 0.0000 0.0000 31.1036 0.0000 3.9515
# 5 -12.6975 -2.7409 -20.1768 0.0000 18.4178 0.0000
# 6 0.0000 0.0000 0.0000 3.9515 0.0000 19.9331
#
#
#
# Elastic Compliance Matrix: (Units=1/GPa)
#
#
# Indices 1 2 3 4 5 6 
#
# 1 0.023350 -0.005811 -0.001844 0.000000 0.013213 0.000000
# 2 -0.005811 0.016201 -0.008123 0.000000 -0.010494 0.000000
# 3 -0.001844 -0.008123 0.016021 0.000000 0.015071 0.000000
# 4 0.000000 0.000000 0.000000 0.032981 0.000000 -0.006538
# 5 0.013213 -0.010494 0.015071 0.000000 0.078353 0.000000
# 6 0.000000 0.000000 0.000000 -0.006538 0.000000 0.051464
#
#
# Mechanical properties :
#
#
# Convention : Reuss Voigt Hill
#
# Bulk Modulus (GPa) = 41.64047 57.43135 49.53591
# Shear Modulus (GPa) = 19.38505 24.02459 21.70482
#
# Velocity S-wave (km/s) = 3.17602 3.53571 3.36068
# Velocity P-wave (km/s) = 5.92598 6.82297 6.39023
#
# Compressibility (1/GPa) = 0.02401510
#
# Stress axis : x y z
#
# Youngs Moduli (GPa) = 42.82743 61.72536 62.41823
#
# Poissons Ratio (x) = 0.35868 0.11511
# Poissons Ratio (y) = 0.24886 0.50703
# Poissons Ratio (z) = 0.07898 0.50140
#
# Static dielectric constant tensor:
#      x y z
#    x 1.698020 0.000000 0.021690 
#    y 0.000000 1.656250 0.000000 
#    z 0.021690 0.000000 1.716360 
# 
# From -- ./inp_files/44096.got.cif
#   From: 2010.05.17/outbox.cif.g08.bks.cpg/sg5_23_cif.got.tgz:44096.got - 2010.06.03 18:56:24.
