data_PCOD9123403
_publ_section_title
;
Structure prediction by ZEFSAII (Michael W. Deem and Ramdas Pophale) SiO2 
 PCOD9123403
Probable space group: C 2
;
_chemical_formula_sum "Si O2"
_cell_formula_units_Z 30
_cell_length_a 25.397971
_cell_length_b 8.009076
_cell_length_c 16.466243
_cell_angle_alpha 90.000000
_cell_angle_beta 24.311191
_cell_angle_gamma 90.000000
_cell_volume 1378.950802
_symmetry_space_group_name_H-M "C 2"
_symmetry_group_IT_number 5
_symmetry_cell_setting 'monoclinic'
loop_
_space_group_symop_operation_xyz
x,y,z
-x,y,-z
1/2+x,1/2+y,z
1/2-x,1/2+y,-z
loop_
_atom_site_type_symbol
_atom_site_label
_atom_site_fract_x
_atom_site_fract_y
_atom_site_fract_z
Si Si1 0.095387 0.883920 0.108484
Si Si2 0.303254 0.072307 0.324398
Si Si3 0.884215 0.261335 0.722439
Si Si4 0.627970 0.770224 0.080311
Si Si5 0.590127 0.360605 0.298421
Si Si6 0.415859 0.942416 0.020548
Si Si7 0.000000 0.141956 0.000000
Si Si8 0.618206 0.393048 0.704907
O O1 0.044798 0.835211 0.269496
O O2 0.009739 0.815329 0.155603
O O3 0.244229 0.830830 0.895598
O O4 0.081246 0.085466 0.123169
O O5 0.312516 0.053958 0.214088
O O6 0.196721 0.966611 0.519328
O O7 0.297956 0.259164 0.364597
O O8 0.441580 0.005556 0.160422
O O9 0.000000 0.304480 0.500000
O O10 0.877585 0.058743 0.738523
O O11 0.918461 0.321059 0.765270
O O12 0.780316 0.758186 0.874788
O O13 0.600308 0.905821 0.050662
O O14 0.500000 0.317453 0.500000
O O15 0.408358 0.762323 0.076447
O O16 0.923439 0.030456 0.171369
#
# Coordination Sequence:
#
# PCOD9123403 Si02
#       8
#     4   4   4   4   4   4   2   4
#     4  10  22  38  64  90 125 161 204 255 313 375
#     4  10  24  40  62  86 129 158 221 258 316 368
#     4   9  20  42  60  93 126 161 203 256 306 379
#     4  10  20  38  64  87 128 160 201 255 313 372
#     4   9  20  38  62  92 121 158 202 251 308 383
#     4  10  21  42  62  91 116 172 204 264 316 375
#     4  10  20  40  62  82 130 148 216 262 312 358
#     4  12  23  43  61  93 123 171 209 272 312 375
#
# _framework density 21.755671
#
# number of rings (size 3 to 8) (size 9 to 14) (size 15 to 20)
#    0.000    2.133    1.333    2.400    3.733    0.533 
#    2.400    0.000    0.000    0.000    0.000    0.000 
#    0.000    0.000    0.000    0.000    0.000    0.000 
#
# Total GULP energy -83782.653907 kJ/mol
# GULP energy per Si atom -5585.510260 kJ/mol
# Density = 2.170615 g / cm^3
# Si number density = 21.755671 Si / 1000 Ang^3
#
#
#
# Elastic Constant Matrix: (Units=GPa)
#
#
# Indices 1 2 3 4 5 6 
#
# 1 78.6530 14.1255 36.2212 0.0000 23.8815 0.0000
# 2 14.1255 35.0237 16.1085 -0.0002 5.3541 0.0001
# 3 36.2212 16.1085 126.8960 -0.0002 37.1540 0.0001
# 4 0.0000 -0.0002 -0.0002 24.6195 0.0001 -5.0681
# 5 23.8815 5.3541 37.1540 0.0001 26.2208 -0.0001
# 6 0.0000 0.0001 0.0001 -5.0681 -0.0001 29.5748
#
#
#
# Elastic Compliance Matrix: (Units=1/GPa)
#
#
# Indices 1 2 3 4 5 6 
#
# 1 0.018389 -0.005009 -0.000015 0.000000 -0.015704 0.000000
# 2 -0.005009 0.031711 -0.003479 0.000000 0.003016 0.000000
# 3 -0.000015 -0.003479 0.013868 0.000000 -0.018926 0.000000
# 4 0.000000 0.000000 0.000000 0.042103 0.000000 0.007215
# 5 -0.015704 0.003016 -0.018926 0.000000 0.078642 0.000000
# 6 0.000000 0.000000 0.000000 0.007215 0.000000 0.035049
#
#
# Mechanical properties :
#
#
# Convention : Reuss Voigt Hill
#
# Bulk Modulus (GPa) = 21.29369 41.49811 31.39590
# Shear Modulus (GPa) = 19.80811 27.69088 23.74949
#
# Velocity S-wave (km/s) = 3.02069 3.57152 3.30759
# Velocity P-wave (km/s) = 4.68775 6.01030 5.38974
#
# Compressibility (1/GPa) = 0.04696226
#
# Stress axis : x y z
#
# Youngs Moduli (GPa) = 54.38086 31.53466 72.10985
#
# Poissons Ratio (x) = 0.15795 0.00108
# Poissons Ratio (y) = 0.27238 0.25086
# Poissons Ratio (z) = 0.00082 0.10971
#
# Static dielectric constant tensor:
#      x y z
#    x 1.810830 0.000000 0.025900 
#    y 0.000000 1.838140 0.000000 
#    z 0.025900 0.000000 1.784000 
# 
# From -- ./inp_files/57595.got.cif
#   From: 2010.05.17/outbox.cif.g08.bks.cpg/sg5_29_cif.got.tgz:57595.got - 2010.06.03 18:56:24.
