data_PCOD9123975
_publ_section_title
;
Structure prediction by ZEFSAII (Michael W. Deem and Ramdas Pophale) SiO2 
 PCOD9123975
Probable space group: C 2
;
_chemical_formula_sum "Si O2"
_cell_formula_units_Z 32
_cell_length_a 21.560883
_cell_length_b 8.792979
_cell_length_c 12.894400
_cell_angle_alpha 90.000000
_cell_angle_beta 146.465538
_cell_angle_gamma 90.000000
_cell_volume 1350.478309
_symmetry_space_group_name_H-M "C 2"
_symmetry_group_IT_number 5
_symmetry_cell_setting 'monoclinic'
loop_
_space_group_symop_operation_xyz
x,y,z
-x,y,-z
1/2+x,1/2+y,z
1/2-x,1/2+y,-z
loop_
_atom_site_type_symbol
_atom_site_label
_atom_site_fract_x
_atom_site_fract_y
_atom_site_fract_z
Si Si1 0.346916 0.722860 0.214684
Si Si2 0.880033 0.769657 0.779314
Si Si3 0.853148 0.275432 0.454043
Si Si4 0.126018 0.266969 0.995725
Si Si5 0.043958 0.507399 0.251161
Si Si6 0.535605 0.516261 0.249379
Si Si7 0.865793 0.877010 0.297996
Si Si8 0.396333 0.253325 0.145622
O O1 0.397346 0.759821 0.399039
O O2 0.381587 0.766961 0.144294
O O3 0.331182 0.538940 0.197984
O O4 0.225938 0.800934 0.059362
O O5 0.780268 0.766441 0.721013
O O6 0.877045 0.619130 0.703437
O O7 0.886065 0.925321 0.721449
O O8 0.000000 0.760165 0.000000
O O9 0.890857 0.427930 0.564360
O O10 0.899147 0.135844 0.588277
O O11 0.028624 0.376554 0.905275
O O12 0.074306 0.101504 0.951177
O O13 0.251639 0.325498 0.201372
O O14 0.944398 0.610085 0.156575
O O15 0.486264 0.384191 0.252767
O O16 0.877910 0.729892 0.241064
O O17 0.000000 0.907416 0.500000
#
# Coordination Sequence:
#
# PCOD9123975 Si02
#       8
#     4   4   4   4   4   4   4   4
#     4  11  22  38  69  94 134 175 220 257 341 403
#     4  11  24  45  69  93 128 178 226 269 339 393
#     4  11  23  41  69 100 126 174 223 278 326 397
#     4  10  22  41  65  96 134 175 214 268 329 402
#     4  10  22  41  66  97 127 170 217 277 325 382
#     4  10  21  40  69  90 131 173 216 277 327 382
#     4  11  22  37  60  94 132 179 213 267 326 395
#     4  10  20  41  57  92 130 175 206 265 329 389
#
# _framework density 23.695307
#
# number of rings (size 3 to 8) (size 9 to 14) (size 15 to 20)
#    0.000    1.500    2.500    3.000    1.750    0.000 
#    6.750    2.500    2.750    0.000    0.000    0.000 
#    0.000    0.000    0.000    0.000    0.000    0.000 
#
# Total GULP energy -89068.900829 kJ/mol
# GULP energy per Si atom -5566.806302 kJ/mol
# Density = 2.364138 g / cm^3
# Si number density = 23.695307 Si / 1000 Ang^3
#
#
#
# Elastic Constant Matrix: (Units=GPa)
#
#
# Indices 1 2 3 4 5 6 
#
# 1 117.2526 24.1108 30.4393 0.0000 19.2532 0.0000
# 2 24.1108 55.5867 17.1932 0.0000 -3.1303 0.0000
# 3 30.4393 17.1932 74.2369 0.0000 15.4087 0.0000
# 4 0.0000 0.0000 0.0000 26.9755 0.0000 0.3539
# 5 19.2532 -3.1303 15.4087 0.0000 40.0139 0.0000
# 6 0.0000 0.0000 0.0000 0.3539 0.0000 0.1125
#
#
#
# Elastic Compliance Matrix: (Units=1/GPa)
#
#
# Indices 1 2 3 4 5 6 
#
# 1 0.010782 -0.004155 -0.002516 0.000000 -0.004544 0.000000
# 2 -0.004155 0.021448 -0.004377 0.000000 0.005362 0.000000
# 3 -0.002516 -0.004377 0.016668 0.000000 -0.005550 0.000000
# 4 0.000000 0.000000 0.000000 0.038666 0.000000 -0.121602
# 5 -0.004544 0.005362 -0.005550 0.000000 0.029735 0.000000
# 6 0.000000 0.000000 0.000000 -0.121602 0.000000 9.269464
#
#
# Mechanical properties :
#
#
# Convention : Reuss Voigt Hill
#
# Bulk Modulus (GPa) = 37.30852 43.39584 40.35218
# Shear Modulus (GPa) = 0.53091 25.10926 12.82008
#
# Velocity S-wave (km/s) = 0.47386 3.25879 2.32855
# Velocity P-wave (km/s) = 4.00982 5.70206 4.92911
#
# Compressibility (1/GPa) = 0.02680353
#
# Stress axis : x y z
#
# Youngs Moduli (GPa) = 92.74585 46.62504 59.99676
#
# Poissons Ratio (x) = 0.19371 0.15093
# Poissons Ratio (y) = 0.38532 0.26259
# Poissons Ratio (z) = 0.23331 0.20407
#
# Static dielectric constant tensor:
#      x y z
#    x 1.907650 0.000000 -0.050370 
#    y 0.000000 1.923270 0.000000 
#    z -0.050370 0.000000 2.078480 
# 
# From -- ./inp_files/58114.got.cif
#   From: 2010.05.17/outbox.cif.g08.bks.cpg/sg5_30_cif.got.tgz:58114.got - 2010.06.03 18:56:24.
