data_PCOD9123808
_publ_section_title
;
Structure prediction by ZEFSAII (Michael W. Deem and Ramdas Pophale) SiO2 
 PCOD9123808
Probable space group: C 2
;
_chemical_formula_sum "Si O2"
_cell_formula_units_Z 26
_cell_length_a 14.476657
_cell_length_b 12.516423
_cell_length_c 18.300718
_cell_angle_alpha 90.000000
_cell_angle_beta 159.827914
_cell_angle_gamma 90.000000
_cell_volume 1143.498124
_symmetry_space_group_name_H-M "C 2"
_symmetry_group_IT_number 5
_symmetry_cell_setting 'monoclinic'
loop_
_space_group_symop_operation_xyz
x,y,z
-x,y,-z
1/2+x,1/2+y,z
1/2-x,1/2+y,-z
loop_
_atom_site_type_symbol
_atom_site_label
_atom_site_fract_x
_atom_site_fract_y
_atom_site_fract_z
Si Si1 0.401133 0.787080 0.692807
Si Si2 0.686394 0.984127 0.853868
Si Si3 0.256615 0.897528 0.265041
Si Si4 0.499741 0.223373 0.266939
Si Si5 0.048357 0.297167 0.111721
Si Si6 0.987539 0.692506 0.096902
Si Si7 0.500000 0.997390 0.000000
O O1 0.470918 0.913006 0.737607
O O2 0.195885 0.751444 0.478246
O O3 0.316324 0.759354 0.713095
O O4 0.684506 0.732105 0.884393
O O5 0.668764 0.949378 0.756381
O O6 0.634674 0.108104 0.822363
O O7 0.990477 0.953192 0.100369
O O8 0.500000 0.906391 0.500000
O O9 0.168873 0.775088 0.186214
O O10 0.620473 0.207824 0.275985
O O11 0.260041 0.310530 0.089643
O O12 0.175176 0.406065 0.173112
O O13 0.000000 0.231300 0.000000
O O14 0.954994 0.579499 0.033099
#
# Coordination Sequence:
#
# PCOD9123808 Si02
#       7
#     4   4   4   4   4   4   2
#     4  10  21  41  61  89 127 164 207 263 320 377
#     4  10  22  38  61  93 122 161 213 263 310 383
#     4  10  21  38  62  90 126 163 208 263 315 372
#     4  11  23  39  64  88 125 165 210 260 323 384
#     4   9  23  40  59  87 124 164 209 263 319 377
#     4  10  21  39  62  91 124 164 209 258 310 384
#     4  10  20  40  64  90 128 168 204 268 322 362
#
# _framework density 22.737247
#
# number of rings (size 3 to 8) (size 9 to 14) (size 15 to 20)
#    0.462    1.538    0.000    3.692    2.154    4.308 
#    0.000    3.077    0.000    0.000    0.000    0.000 
#    0.000    0.000    0.000    0.000    0.000    0.000 
#
# Total GULP energy -72387.018639 kJ/mol
# GULP energy per Si atom -5568.232203 kJ/mol
# Density = 2.268550 g / cm^3
# Si number density = 22.737247 Si / 1000 Ang^3
#
#
#
# Elastic Constant Matrix: (Units=GPa)
#
#
# Indices 1 2 3 4 5 6 
#
# 1 136.2385 15.9054 27.0679 0.0316 -31.9426 -0.0360
# 2 15.9054 87.3106 12.6250 0.1080 -2.9860 -0.0807
# 3 27.0679 12.6250 110.0716 0.0875 -40.7380 -0.0475
# 4 0.0316 0.1080 0.0875 3.3506 -0.0266 7.8405
# 5 -31.9426 -2.9860 -40.7380 -0.0266 38.4734 0.0119
# 6 -0.0360 -0.0807 -0.0475 7.8405 0.0119 21.4058
#
#
#
# Elastic Compliance Matrix: (Units=1/GPa)
#
#
# Indices 1 2 3 4 5 6 
#
# 1 0.009379 -0.001573 0.001169 -0.000105 0.008902 0.000046
# 2 -0.001573 0.011931 -0.001842 -0.003028 -0.002333 0.001149
# 3 0.001169 -0.001842 0.015320 -0.001832 0.017048 0.000691
# 4 -0.000105 -0.003028 -0.001832 2.089701 -0.000579 -0.765429
# 5 0.008902 -0.002333 0.017048 -0.000579 0.051253 0.000228
# 6 0.000046 0.001149 0.000691 -0.765429 0.000228 0.327083
#
#
# Mechanical properties :
#
#
# Convention : Reuss Voigt Hill
#
# Bulk Modulus (GPa) = 31.11609 49.42414 40.27011
# Shear Modulus (GPa) = 1.98423 31.18080 16.58252
#
# Velocity S-wave (km/s) = 0.93519 3.70720 2.70350
# Velocity P-wave (km/s) = 3.85757 6.33314 5.24355
#
# Compressibility (1/GPa) = 0.03213772
#
# Stress axis : x y z
#
# Youngs Moduli (GPa) = 106.62408 83.81309 65.27353
#
# Poissons Ratio (x) = 0.13183 -0.07630
# Poissons Ratio (y) = 0.16771 0.12025
# Poissons Ratio (z) = -0.12464 0.15441
#
# Static dielectric constant tensor:
#      x y z
#    x 1.980540 0.000000 -0.002110 
#    y 0.000000 1.866330 -0.000020 
#    z -0.002110 -0.000020 1.863300 
# 
# From -- ./inp_files/66126.got.cif
#   From: 2010.05.17/outbox.cif.g08.bks.cpg/sg5_34_cif.got.tgz:66126.got - 2010.06.03 18:56:24.
