data_PCOD9123648
_publ_section_title
;
Structure prediction by ZEFSAII (Michael W. Deem and Ramdas Pophale) SiO2 
 PCOD9123648
Probable space group: C 2
;
_chemical_formula_sum "Si O2"
_cell_formula_units_Z 22
_cell_length_a 13.931575
_cell_length_b 5.274676
_cell_length_c 11.463163
_cell_angle_alpha 90.000000
_cell_angle_beta 82.973474
_cell_angle_gamma 90.000000
_cell_volume 836.038829
_symmetry_space_group_name_H-M "C 2"
_symmetry_group_IT_number 5
_symmetry_cell_setting 'monoclinic'
loop_
_space_group_symop_operation_xyz
x,y,z
-x,y,-z
1/2+x,1/2+y,z
1/2-x,1/2+y,-z
loop_
_atom_site_type_symbol
_atom_site_label
_atom_site_fract_x
_atom_site_fract_y
_atom_site_fract_z
Si Si1 0.971415 0.376370 0.317792
Si Si2 0.720355 0.008269 0.573340
Si Si3 0.863546 0.738713 0.714044
Si Si4 0.613201 0.394382 0.020136
Si Si5 0.500000 0.466954 0.500000
Si Si6 0.603121 0.889349 0.922952
O O1 0.891562 0.573748 0.379085
O O2 0.956689 0.153524 0.410005
O O3 0.930283 0.310302 0.199049
O O4 0.083688 0.460409 0.287006
O O5 0.734302 0.781415 0.473396
O O6 0.763680 0.861479 0.681668
O O7 0.880595 0.841065 0.842509
O O8 0.925232 0.825422 0.592345
O O9 0.500000 0.428154 0.000000
O O10 0.658757 0.660724 0.975228
O O11 0.650583 0.162142 0.935362
O O12 0.500000 0.931780 0.000000
#
# Coordination Sequence:
#
# PCOD9123648 Si02
#       6
#     4   4   4   4   2   4
#     4  12  25  44  74 106 145 206 248 309 390 455
#     4  12  28  50  68 110 164 190 252 330 374 460
#     4  12  25  44  74 106 145 206 248 309 390 455
#     4  10  20  39  66 101 139 182 245 309 355 445
#     4  12  22  40  70  98 134 188 254 286 382 452
#     4  10  20  39  66 101 139 182 245 309 355 445
#
# _framework density 26.314567
#
# number of rings (size 3 to 8) (size 9 to 14) (size 15 to 20)
#    0.000    0.727    5.455    4.909    0.000    0.000 
#    0.000    1.818    0.000    0.000    0.000    0.000 
#    0.000    0.000    0.000    0.000    0.000    0.000 
#
# Total GULP energy -61302.666720 kJ/mol
# GULP energy per Si atom -5572.969702 kJ/mol
# Density = 2.625467 g / cm^3
# Si number density = 26.314567 Si / 1000 Ang^3
#
#
#
# Elastic Constant Matrix: (Units=GPa)
#
#
# Indices 1 2 3 4 5 6 
#
# 1 80.4767 -13.6315 3.0307 0.0000 23.2107 0.0000
# 2 -13.6315 115.0094 -7.9559 0.0000 3.3265 0.0000
# 3 3.0307 -7.9559 148.2882 0.0000 27.9516 0.0000
# 4 0.0000 0.0000 0.0000 40.4858 0.0000 6.1346
# 5 23.2107 3.3265 27.9516 0.0000 35.6850 0.0000
# 6 0.0000 0.0000 0.0000 6.1346 0.0000 7.6672
#
#
#
# Elastic Compliance Matrix: (Units=1/GPa)
#
#
# Indices 1 2 3 4 5 6 
#
# 1 0.016392 0.002457 0.002170 0.000000 -0.012591 0.000000
# 2 0.002457 0.009154 0.001059 0.000000 -0.003281 0.000000
# 3 0.002170 0.001059 0.008260 0.000000 -0.007981 0.000000
# 4 0.000000 0.000000 0.000000 0.028108 0.000000 -0.022489
# 5 -0.012591 -0.003281 -0.007981 0.000000 0.042769 0.000000
# 6 0.000000 0.000000 0.000000 -0.022489 0.000000 0.148420
#
#
# Mechanical properties :
#
#
# Convention : Reuss Voigt Hill
#
# Bulk Modulus (GPa) = 22.13378 34.07343 28.10361
# Shear Modulus (GPa) = 19.47117 40.92299 30.19708
#
# Velocity S-wave (km/s) = 2.72313 3.94781 3.39121
# Velocity P-wave (km/s) = 4.27981 5.81007 5.10263
#
# Compressibility (1/GPa) = 0.04517981
#
# Stress axis : x y z
#
# Youngs Moduli (GPa) = 61.00638 109.23736 121.05949
#
# Poissons Ratio (x) = -0.26841 -0.26271
# Poissons Ratio (y) = -0.14990 -0.12826
# Poissons Ratio (z) = -0.13239 -0.11573
#
# Static dielectric constant tensor:
#      x y z
#    x 2.380360 0.000000 -0.002280 
#    y 0.000000 2.227610 0.000000 
#    z -0.002280 0.000000 2.013980 
# 
# From -- ./inp_files/41127.got.cif
#   From: 2010.05.17/outbox.cif.g08.bks.cpg/sg5_21_cif.got.tgz:41127.got - 2010.06.03 18:56:24.
