data_PCOD9123374
_publ_section_title
;
Structure prediction by ZEFSAII (Michael W. Deem and Ramdas Pophale) SiO2 
 PCOD9123374
Probable space group: C 2
;
_chemical_formula_sum "Si O2"
_cell_formula_units_Z 20
_cell_length_a 4.972044
_cell_length_b 23.178479
_cell_length_c 7.840726
_cell_angle_alpha 90.000000
_cell_angle_beta 88.403859
_cell_angle_gamma 90.000000
_cell_volume 903.249297
_symmetry_space_group_name_H-M "C 2"
_symmetry_group_IT_number 5
_symmetry_cell_setting 'monoclinic'
loop_
_space_group_symop_operation_xyz
x,y,z
-x,y,-z
1/2+x,1/2+y,z
1/2-x,1/2+y,-z
loop_
_atom_site_type_symbol
_atom_site_label
_atom_site_fract_x
_atom_site_fract_y
_atom_site_fract_z
Si Si1 0.405782 0.996200 0.807283
Si Si2 0.916504 0.065677 0.698678
Si Si3 0.475621 0.270801 0.705292
Si Si4 0.252576 0.379281 0.115590
Si Si5 0.531719 0.696265 0.293423
O O1 0.370794 0.928728 0.758938
O O2 0.619528 0.038427 0.714010
O O3 0.500000 0.993692 0.000000
O O4 0.116321 0.023901 0.792694
O O5 0.971559 0.130287 0.766187
O O6 0.000000 0.065872 0.500000
O O7 0.500000 0.279243 0.500000
O O8 0.595655 0.327220 0.792535
O O9 0.675819 0.219704 0.751385
O O10 0.184593 0.244781 0.757271
O O11 0.500000 0.405468 0.000000
O O12 0.000000 0.361166 0.000000
O O13 0.500000 0.693939 0.500000
#
# Coordination Sequence:
#
# PCOD9123374 Si02
#       5
#     4   4   4   4   4
#     4  11  23  41  61  86 125 167 201 248 313 364
#     4  11  22  40  65  92 121 158 208 254 299 365
#     4  10  20  38  63  88 117 156 202 249 300 363
#     4  11  23  41  61  85 124 167 204 249 309 366
#     4   9  19  36  60  89 121 154 191 250 315 356
#
# _framework density 22.142278999999998
#
# number of rings (size 3 to 8) (size 9 to 14) (size 15 to 20)
#    0.000    1.600    0.000    6.000    0.000    4.000 
#    0.000   18.000    0.000    0.000    0.000    0.000 
#    0.000    0.000    0.000    0.000    0.000    0.000 
#
# Total GULP energy -55807.932206 kJ/mol
# GULP energy per Si atom -5580.793221 kJ/mol
# Density = 2.209188 g / cm^3
# Si number density = 22.142279 Si / 1000 Ang^3
#
#
#
# Elastic Constant Matrix: (Units=GPa)
#
#
# Indices 1 2 3 4 5 6 
#
# 1 100.0482 17.2955 19.0208 0.0000 16.7277 0.0000
# 2 17.2955 156.7739 39.7467 0.0000 20.3748 0.0000
# 3 19.0208 39.7467 35.5354 0.0000 12.5648 0.0000
# 4 0.0000 0.0000 0.0000 22.9953 0.0000 1.7620
# 5 16.7277 20.3748 12.5648 0.0000 36.6497 0.0000
# 6 0.0000 0.0000 0.0000 1.7620 0.0000 26.7774
#
#
#
# Elastic Compliance Matrix: (Units=1/GPa)
#
#
# Indices 1 2 3 4 5 6 
#
# 1 0.011568 0.000619 -0.005571 0.000000 -0.003714 0.000000
# 2 0.000619 0.009036 -0.009743 0.000000 -0.001966 0.000000
# 3 -0.005571 -0.009743 0.044615 0.000000 -0.007336 0.000000
# 4 0.000000 0.000000 0.000000 0.043708 0.000000 -0.002876
# 5 -0.003714 -0.001966 -0.007336 0.000000 0.032588 0.000000
# 6 0.000000 0.000000 0.000000 -0.002876 0.000000 0.037534
#
#
# Mechanical properties :
#
#
# Convention : Reuss Voigt Hill
#
# Bulk Modulus (GPa) = 27.91088 49.38708 38.64898
# Shear Modulus (GPa) = 22.68786 31.70412 27.19599
#
# Velocity S-wave (km/s) = 3.20447 3.78807 3.50842
# Velocity P-wave (km/s) = 5.13070 6.44092 5.82278
#
# Compressibility (1/GPa) = 0.03582832
#
# Stress axis : x y z
#
# Youngs Moduli (GPa) = 86.44283 110.66922 22.41421
#
# Poissons Ratio (x) = -0.06849 0.12487
# Poissons Ratio (y) = -0.05350 0.21838
# Poissons Ratio (z) = 0.48158 1.07826
#
# Static dielectric constant tensor:
#      x y z
#    x 1.792910 0.000000 -0.016810 
#    y 0.000000 1.832490 0.000000 
#    z -0.016810 0.000000 1.863160 
# 
# From -- ./inp_files/12531.got.cif
#   From: 2010.05.17/outbox.cif.g08.bks.cpg/sg5_7_cif.got.tgz:12531.got - 2010.06.03 18:56:24.
