data_PCOD9123244
_publ_section_title
;
Structure prediction by ZEFSAII (Michael W. Deem and Ramdas Pophale) SiO2 
 PCOD9123244
Probable space group: C 2
;
_chemical_formula_sum "Si O2"
_cell_formula_units_Z 30
_cell_length_a 13.978381
_cell_length_b 20.983105
_cell_length_c 11.302326
_cell_angle_alpha 90.000000
_cell_angle_beta 31.363935
_cell_angle_gamma 90.000000
_cell_volume 1725.408938
_symmetry_space_group_name_H-M "C 2"
_symmetry_group_IT_number 5
_symmetry_cell_setting 'monoclinic'
loop_
_space_group_symop_operation_xyz
x,y,z
-x,y,-z
1/2+x,1/2+y,z
1/2-x,1/2+y,-z
loop_
_atom_site_type_symbol
_atom_site_label
_atom_site_fract_x
_atom_site_fract_y
_atom_site_fract_z
Si Si1 0.217396 0.682080 0.254826
Si Si2 0.859360 0.561463 0.822480
Si Si3 0.267341 0.130865 0.513609
Si Si4 0.396900 0.834521 0.491695
Si Si5 0.500000 0.957887 0.500000
Si Si6 0.934694 0.113679 0.704980
Si Si7 0.946960 0.748765 0.187537
Si Si8 0.322660 0.753109 0.922843
O O1 0.219772 0.617477 0.176449
O O2 0.299380 0.664265 0.294776
O O3 0.000000 0.697392 0.500000
O O4 0.302976 0.735118 0.080856
O O5 0.068144 0.582468 0.630944
O O6 0.876977 0.500325 0.718639
O O7 0.733494 0.568549 0.072926
O O8 0.106365 0.099542 0.609249
O O9 0.354112 0.188776 0.348243
O O10 0.500000 0.806395 0.500000
O O11 0.389382 0.908902 0.531860
O O12 0.200908 0.804431 0.673576
O O13 0.534801 0.810066 0.245789
O O14 0.000000 0.108158 0.500000
O O15 0.883981 0.187782 0.789481
O O16 0.000000 0.728057 0.000000
O O17 0.124914 0.768768 0.074504
#
# Coordination Sequence:
#
# PCOD9123244 Si02
#       8
#     4   4   4   4   2   4   4   4
#     4   9  17  33  53  86 116 151 182 244 301 353
#     4  10  20  38  57  84 120 155 198 241 300 346
#     4  11  20  32  57  89 120 153 191 245 311 360
#     4  10  22  35  55  84 112 157 198 249 275 353
#     4  10  20  44  62  76 130 162 206 248 282 356
#     4  11  22  34  55  92 123 151 190 254 308 362
#     4  12  19  31  54  84 120 150 192 236 309 352
#     4  11  19  33  53  83 126 148 190 245 305 353
#
# _framework density 17.387183
#
# number of rings (size 3 to 8) (size 9 to 14) (size 15 to 20)
#    0.400    1.067    8.667    1.200    0.000    2.133 
#    0.000    4.000    0.000    0.800    6.933    0.000 
#    0.000    0.000    0.000    0.000    0.000    0.000 
#
# Total GULP energy -83562.187322 kJ/mol
# GULP energy per Si atom -5570.812488 kJ/mol
# Density = 1.734761 g / cm^3
# Si number density = 17.387183 Si / 1000 Ang^3
#
#
#
# Elastic Constant Matrix: (Units=GPa)
#
#
# Indices 1 2 3 4 5 6 
#
# 1 95.3181 13.9915 48.6074 -0.0019 5.9042 0.0024
# 2 13.9915 72.8066 35.6004 -0.0003 4.6245 0.0007
# 3 48.6074 35.6004 101.2839 -0.0013 24.4462 0.0022
# 4 -0.0019 -0.0003 -0.0013 11.7592 0.0027 9.1926
# 5 5.9042 4.6245 24.4462 0.0027 32.6605 -0.0029
# 6 0.0024 0.0007 0.0022 9.1926 -0.0029 24.4739
#
#
#
# Elastic Compliance Matrix: (Units=1/GPa)
#
#
# Indices 1 2 3 4 5 6 
#
# 1 0.014193 0.000941 -0.007922 0.000001 0.003230 -0.000001
# 2 0.000941 0.016811 -0.007012 -0.000002 0.002698 0.000001
# 3 -0.007922 -0.007012 0.018984 0.000007 -0.011784 -0.000005
# 4 0.000001 -0.000002 0.000007 0.120389 -0.000020 -0.045219
# 5 0.003230 0.002698 -0.011784 -0.000020 0.038473 0.000013
# 6 -0.000001 0.000001 -0.000005 -0.045219 0.000013 0.057844
#
#
# Mechanical properties :
#
#
# Convention : Reuss Voigt Hill
#
# Bulk Modulus (GPa) = 45.44876 51.75636 48.60256
# Shear Modulus (GPa) = 16.55556 25.19267 20.87412
#
# Velocity S-wave (km/s) = 3.08907 3.81060 3.46865
# Velocity P-wave (km/s) = 6.23852 7.01373 6.63746
#
# Compressibility (1/GPa) = 0.02200280
#
# Stress axis : x y z
#
# Youngs Moduli (GPa) = 70.45927 59.48348 52.67646
#
# Poissons Ratio (x) = -0.05596 0.41728
# Poissons Ratio (y) = -0.06629 0.36935
# Poissons Ratio (z) = 0.55815 0.41708
#
# Static dielectric constant tensor:
#      x y z
#    x 1.622380 0.000000 0.005400 
#    y 0.000000 1.574140 0.000000 
#    z 0.005400 0.000000 1.677100 
# 
# From -- ./inp_files/43437.got.cif
#   From: 2010.05.17/outbox.cif.g08.bks.cpg/sg5_22_cif.got.tgz:43437.got - 2010.06.03 18:56:24.
