data_PCOD9123040
_publ_section_title
;
Structure prediction by ZEFSAII (Michael W. Deem and Ramdas Pophale) SiO2 
 PCOD9123040
Probable space group: C 2
;
_chemical_formula_sum "Si O2"
_cell_formula_units_Z 28
_cell_length_a 8.596811
_cell_length_b 9.743094
_cell_length_c 22.991167
_cell_angle_alpha 90.000000
_cell_angle_beta 137.590832
_cell_angle_gamma 90.000000
_cell_volume 1298.751543
_symmetry_space_group_name_H-M "C 2"
_symmetry_group_IT_number 5
_symmetry_cell_setting 'monoclinic'
loop_
_space_group_symop_operation_xyz
x,y,z
-x,y,-z
1/2+x,1/2+y,z
1/2-x,1/2+y,-z
loop_
_atom_site_type_symbol
_atom_site_label
_atom_site_fract_x
_atom_site_fract_y
_atom_site_fract_z
Si Si1 0.749285 0.147800 0.326909
Si Si2 0.979340 0.876807 0.924751
Si Si3 0.849174 0.443850 0.369577
Si Si4 0.121288 0.711297 0.679328
Si Si5 0.149421 0.943818 0.445484
Si Si6 0.022795 0.427861 0.182708
Si Si7 0.633095 0.075239 0.975754
O O1 0.785490 0.304908 0.319379
O O2 0.578468 0.154646 0.334300
O O3 0.639304 0.056510 0.246584
O O4 0.988000 0.074951 0.410572
O O5 0.101091 0.731385 0.942841
O O6 0.703672 0.885139 0.842399
O O7 0.000000 0.882565 0.000000
O O8 0.113461 0.012783 0.940845
O O9 0.758509 0.579917 0.314604
O O10 0.743613 0.441996 0.405187
O O11 0.126231 0.445908 0.452756
O O12 0.294948 0.805251 0.763489
O O13 0.008798 0.807152 0.597814
O O14 0.964242 0.474109 0.101083
O O15 0.500000 0.069891 0.000000
#
# Coordination Sequence:
#
# PCOD9123040 Si02
#       7
#     4   4   4   4   4   4   4
#     4  10  22  37  57  87 120 160 200 244 301 349
#     4   9  21  40  61  87 116 147 189 239 291 352
#     4  10  20  37  60  84 116 159 205 248 294 348
#     4  10  22  38  57  86 121 158 200 243 296 351
#     4   9  20  38  57  83 119 156 203 256 293 341
#     4  10  23  41  58  87 128 155 188 245 297 354
#     4  10  22  41  65  88 112 151 198 239 292 355
#
# _framework density 21.559166000000001
#
# number of rings (size 3 to 8) (size 9 to 14) (size 15 to 20)
#    0.000    2.286    0.000    0.857    0.000   14.857 
#    0.000    0.000    0.000    0.000    0.000    0.000 
#    0.000    0.000    0.000    0.000    0.000    0.000 
#
# Total GULP energy -78149.023861 kJ/mol
# GULP energy per Si atom -5582.073133 kJ/mol
# Density = 2.151010 g / cm^3
# Si number density = 21.559166 Si / 1000 Ang^3
#
#
#
# Elastic Constant Matrix: (Units=GPa)
#
#
# Indices 1 2 3 4 5 6 
#
# 1 40.7530 35.0915 20.0754 0.0000 16.8082 0.0000
# 2 35.0915 145.2044 28.9534 0.0000 6.8199 0.0000
# 3 20.0754 28.9534 55.6265 0.0000 13.5151 0.0000
# 4 0.0000 0.0000 0.0000 9.9515 0.0000 5.1610
# 5 16.8082 6.8199 13.5151 0.0000 32.0933 0.0000
# 6 0.0000 0.0000 0.0000 5.1610 0.0000 24.4283
#
#
#
# Elastic Compliance Matrix: (Units=1/GPa)
#
#
# Indices 1 2 3 4 5 6 
#
# 1 0.041899 -0.007963 -0.006747 0.000000 -0.017410 0.000000
# 2 -0.007963 0.009198 -0.002732 0.000000 0.003366 0.000000
# 3 -0.006747 -0.002732 0.023209 0.000000 -0.005660 0.000000
# 4 0.000000 0.000000 0.000000 0.112852 0.000000 -0.023842
# 5 -0.017410 0.003366 -0.005660 0.000000 0.041946 0.000000
# 6 0.000000 0.000000 0.000000 -0.023842 0.000000 0.045973
#
#
# Mechanical properties :
#
#
# Convention : Reuss Voigt Hill
#
# Bulk Modulus (GPa) = 25.36539 45.53607 35.45073
# Shear Modulus (GPa) = 15.47514 23.79219 19.63367
#
# Velocity S-wave (km/s) = 2.68208 3.32562 3.02103
# Velocity P-wave (km/s) = 4.62412 5.99280 5.35238
#
# Compressibility (1/GPa) = 0.03942380
#
# Stress axis : x y z
#
# Youngs Moduli (GPa) = 23.86706 108.72227 43.08723
#
# Poissons Ratio (x) = 0.86572 0.29069
# Poissons Ratio (y) = 0.19005 0.11769
# Poissons Ratio (z) = 0.16102 0.29698
#
# Static dielectric constant tensor:
#      x y z
#    x 1.783290 0.000000 0.043850 
#    y 0.000000 1.812540 0.000000 
#    z 0.043850 0.000000 1.836860 
# 
# From -- ./inp_files/59367.got.cif
#   From: 2010.05.17/outbox.cif.g08.bks.cpg/sg5_30_cif.got.tgz:59367.got - 2010.06.03 18:56:24.
