data_PCOD9123320
_publ_section_title
;
Structure prediction by ZEFSAII (Michael W. Deem and Ramdas Pophale) SiO2 
 PCOD9123320
Probable space group: C 2
;
_chemical_formula_sum "Si O2"
_cell_formula_units_Z 32
_cell_length_a 25.625729
_cell_length_b 10.725725
_cell_length_c 6.177208
_cell_angle_alpha 90.000000
_cell_angle_beta 110.349371
_cell_angle_gamma 90.000000
_cell_volume 1591.871144
_symmetry_space_group_name_H-M "C 2"
_symmetry_group_IT_number 5
_symmetry_cell_setting 'monoclinic'
loop_
_space_group_symop_operation_xyz
x,y,z
-x,y,-z
1/2+x,1/2+y,z
1/2-x,1/2+y,-z
loop_
_atom_site_type_symbol
_atom_site_label
_atom_site_fract_x
_atom_site_fract_y
_atom_site_fract_z
Si Si1 0.349118 0.111350 0.863032
Si Si2 0.809517 0.391737 0.111685
Si Si3 0.405840 0.285425 0.300230
Si Si4 0.161014 0.128087 0.978263
Si Si5 0.301769 0.414150 0.290789
Si Si6 0.759295 0.545108 0.420348
Si Si7 0.940545 0.970789 0.000162
Si Si8 0.054230 0.710337 0.224996
O O1 0.294457 0.130682 0.636779
O O2 0.400548 0.107875 0.774987
O O3 0.372216 0.212837 0.064809
O O4 0.335503 0.990216 0.982361
O O5 0.799823 0.463456 0.324405
O O6 0.843414 0.264335 0.133824
O O7 0.747042 0.363926 0.934775
O O8 0.354270 0.325876 0.375534
O O9 0.439128 0.396700 0.228962
O O10 0.445838 0.210768 0.516701
O O11 0.214993 0.119556 0.212400
O O12 0.175057 0.035157 0.801742
O O13 0.108232 0.072422 0.035612
O O14 0.275883 0.451264 0.480857
O O15 0.930543 0.854066 0.822486
O O16 0.000000 0.021480 0.000000
O O17 0.000000 0.686390 0.000000
#
# Coordination Sequence:
#
# PCOD9123320 Si02
#       8
#     4   4   4   4   4   4   4   4
#     4  10  22  37  56  86 119 162 198 250 308 357
#     4  10  22  36  53  84 124 160 203 252 294 366
#     4  10  20  38  61  91 124 149 206 254 310 365
#     4  10  21  39  57  87 125 159 208 254 303 364
#     4   9  21  34  57  86 115 163 193 251 301 366
#     4  10  21  39  55  85 121 164 205 246 310 368
#     4   9  20  38  62  93 121 159 204 258 313 357
#     4  10  21  37  63  90 118 159 199 258 310 364
#
# _framework density 20.102129000000001
#
# number of rings (size 3 to 8) (size 9 to 14) (size 15 to 20)
#    0.000    2.250    0.000    1.500    7.000    7.500 
#    4.500    0.625    0.000    0.000    0.000   10.500 
#    0.000    0.000    0.000    0.000    0.000    0.000 
#
# Total GULP energy -89123.761127 kJ/mol
# GULP energy per Si atom -5570.235070 kJ/mol
# Density = 2.005638 g / cm^3
# Si number density = 20.102129 Si / 1000 Ang^3
#
#
#
# Elastic Constant Matrix: (Units=GPa)
#
#
# Indices 1 2 3 4 5 6 
#
# 1 138.2414 55.8087 36.6164 0.0000 -6.9077 0.0000
# 2 55.8087 39.6787 19.8071 0.0000 1.8075 0.0000
# 3 36.6164 19.8071 98.3427 0.0000 3.3998 0.0000
# 4 0.0000 0.0000 0.0000 10.1510 0.0000 -1.2519
# 5 -6.9077 1.8075 3.3998 0.0000 24.7424 0.0000
# 6 0.0000 0.0000 0.0000 -1.2519 0.0000 27.1049
#
#
#
# Elastic Compliance Matrix: (Units=1/GPa)
#
#
# Indices 1 2 3 4 5 6 
#
# 1 0.018164 -0.024875 -0.002001 0.000000 0.007163 0.000000
# 2 -0.024875 0.062127 -0.002867 0.000000 -0.011089 0.000000
# 3 -0.002001 -0.002867 0.011558 0.000000 -0.001937 0.000000
# 4 0.000000 0.000000 0.000000 0.099077 0.000000 0.004576
# 5 0.007163 -0.011089 -0.001937 0.000000 0.043493 0.000000
# 6 0.000000 0.000000 0.000000 0.004576 0.000000 0.037105
#
#
# Mechanical properties :
#
#
# Convention : Reuss Voigt Hill
#
# Bulk Modulus (GPa) = 30.90093 55.63633 43.26863
# Shear Modulus (GPa) = 14.62857 23.33502 18.98180
#
# Velocity S-wave (km/s) = 2.70054 3.41078 3.07623
# Velocity P-wave (km/s) = 5.01291 6.57633 5.84711
#
# Compressibility (1/GPa) = 0.03236148
#
# Stress axis : x y z
#
# Youngs Moduli (GPa) = 55.05448 16.09619 86.52082
#
# Poissons Ratio (x) = 0.40040 0.17309
# Poissons Ratio (y) = 1.36950 0.24810
# Poissons Ratio (z) = 0.11014 0.04616
#
# Static dielectric constant tensor:
#      x y z
#    x 1.767670 0.000000 -0.021650 
#    y 0.000000 1.710440 0.000000 
#    z -0.021650 0.000000 1.808240 
# 
# From -- ./inp_files/10387.got.cif
#   From: 2010.05.17/outbox.cif.g08.bks.cpg/sg5_6_cif.got.tgz:10387.got - 2010.06.03 18:56:24.
