data_PCOD9123325
_publ_section_title
;
Structure prediction by ZEFSAII (Michael W. Deem and Ramdas Pophale) SiO2 
 PCOD9123325
Probable space group: C 2
;
_chemical_formula_sum "Si O2"
_cell_formula_units_Z 30
_cell_length_a 8.490157
_cell_length_b 12.001927
_cell_length_c 12.538394
_cell_angle_alpha 90.000000
_cell_angle_beta 108.932216
_cell_angle_gamma 90.000000
_cell_volume 1208.523929
_symmetry_space_group_name_H-M "C 2"
_symmetry_group_IT_number 5
_symmetry_cell_setting 'monoclinic'
loop_
_space_group_symop_operation_xyz
x,y,z
-x,y,-z
1/2+x,1/2+y,z
1/2-x,1/2+y,-z
loop_
_atom_site_type_symbol
_atom_site_label
_atom_site_fract_x
_atom_site_fract_y
_atom_site_fract_z
Si Si1 0.000000 0.382440 0.000000
Si Si2 0.730999 0.831675 0.744857
Si Si3 0.077798 0.467130 0.249720
Si Si4 0.047262 0.056704 0.176026
Si Si5 0.736811 0.696201 0.950725
Si Si6 0.560483 0.302537 0.399021
Si Si7 0.130622 0.681166 0.809103
Si Si8 0.552368 0.539590 0.614406
O O1 0.928622 0.447427 0.880542
O O2 0.137338 0.301981 0.978375
O O3 0.542095 0.874307 0.721976
O O4 0.770050 0.735988 0.838819
O O5 0.775766 0.782797 0.637778
O O6 0.857528 0.936903 0.801234
O O7 0.262650 0.489392 0.332894
O O8 0.981245 0.580393 0.255240
O O9 0.179782 0.146747 0.166874
O O10 0.876889 0.083482 0.074781
O O11 0.999204 0.089613 0.285145
O O12 0.883646 0.686598 0.067344
O O13 0.500000 0.251784 0.500000
O O14 0.417982 0.281401 0.278214
O O15 0.571167 0.433405 0.422081
O O16 0.500000 0.609057 0.500000
#
# Coordination Sequence:
#
# PCOD9123325 Si02
#       8
#     2   4   4   4   4   4   4   4
#     4  10  20  38  62 100 136 178 212 276 354 420
#     4   9  23  44  66 103 133 186 230 285 358 428
#     4  10  23  40  68  98 137 172 236 280 350 426
#     4  10  22  43  64  96 143 183 232 281 354 421
#     4  11  21  41  68  96 146 178 228 284 353 421
#     4  10  23  45  67  92 135 175 229 288 356 417
#     4  11  23  40  63 101 135 176 231 284 348 423
#     4  10  23  44  68  92 134 183 230 289 353 415
#
# _framework density 24.823671999999998
#
# number of rings (size 3 to 8) (size 9 to 14) (size 15 to 20)
#    0.000    1.867    1.333    0.800    5.600    1.600 
#   16.800   10.000    0.000    0.000    0.000    0.000 
#    0.000    0.000    0.000    0.000    0.000    0.000 
#
# Total GULP energy -83679.758855 kJ/mol
# GULP energy per Si atom -5578.650590 kJ/mol
# Density = 2.476717 g / cm^3
# Si number density = 24.823672 Si / 1000 Ang^3
#
#
#
# Elastic Constant Matrix: (Units=GPa)
#
#
# Indices 1 2 3 4 5 6 
#
# 1 132.6745 14.5616 65.4437 0.0000 -19.1502 0.0000
# 2 14.5616 55.4270 12.8782 0.0000 5.9942 0.0000
# 3 65.4437 12.8782 158.8634 0.0000 -22.0416 0.0000
# 4 0.0000 0.0000 0.0000 28.1880 0.0000 7.2471
# 5 -19.1502 5.9942 -22.0416 0.0000 45.0227 0.0000
# 6 0.0000 0.0000 0.0000 7.2471 0.0000 21.0848
#
#
#
# Elastic Compliance Matrix: (Units=1/GPa)
#
#
# Indices 1 2 3 4 5 6 
#
# 1 0.009905 -0.002081 -0.003528 0.000000 0.002763 0.000000
# 2 -0.002081 0.019326 -0.001276 0.000000 -0.004083 0.000000
# 3 -0.003528 -0.001276 0.008226 0.000000 0.002696 0.000000
# 4 0.000000 0.000000 0.000000 0.038915 0.000000 -0.013376
# 5 0.002763 -0.004083 0.002696 0.000000 0.025250 0.000000
# 6 0.000000 0.000000 0.000000 -0.013376 0.000000 0.052025
#
#
# Mechanical properties :
#
#
# Convention : Reuss Voigt Hill
#
# Bulk Modulus (GPa) = 42.21824 59.19245 50.70534
# Shear Modulus (GPa) = 28.52051 35.79786 32.15918
#
# Velocity S-wave (km/s) = 3.39326 3.80160 3.60322
# Velocity P-wave (km/s) = 5.69178 6.57012 6.14666
#
# Compressibility (1/GPa) = 0.02368644
#
# Stress axis : x y z
#
# Youngs Moduli (GPa) = 100.96127 51.74250 121.57050
#
# Poissons Ratio (x) = 0.10768 0.42893
# Poissons Ratio (y) = 0.21012 0.15511
# Poissons Ratio (z) = 0.35622 0.06602
#
# Static dielectric constant tensor:
#      x y z
#    x 2.046670 0.000000 -0.018900 
#    y 0.000000 1.974280 0.000000 
#    z -0.018900 0.000000 2.051210 
# 
# From -- ./inp_files/36443.got.cif
#   From: 2010.05.17/outbox.cif.g08.bks.cpg/sg5_19_cif.got.tgz:36443.got - 2010.06.03 18:56:24.
