data_PCOD9123013
_publ_section_title
;
Structure prediction by ZEFSAII (Michael W. Deem and Ramdas Pophale) SiO2 
 PCOD9123013
Probable space group: C 2
;
_chemical_formula_sum "Si O2"
_cell_formula_units_Z 32
_cell_length_a 8.981002
_cell_length_b 16.543670
_cell_length_c 13.145104
_cell_angle_alpha 90.000000
_cell_angle_beta 132.730711
_cell_angle_gamma 90.000000
_cell_volume 1434.638980
_symmetry_space_group_name_H-M "C 2"
_symmetry_group_IT_number 5
_symmetry_cell_setting 'monoclinic'
loop_
_space_group_symop_operation_xyz
x,y,z
-x,y,-z
1/2+x,1/2+y,z
1/2-x,1/2+y,-z
loop_
_atom_site_type_symbol
_atom_site_label
_atom_site_fract_x
_atom_site_fract_y
_atom_site_fract_z
Si Si1 0.403074 0.707200 0.108668
Si Si2 0.725270 0.695832 0.594081
Si Si3 0.018125 0.936763 0.128226
Si Si4 0.215550 0.011955 0.609412
Si Si5 0.343879 0.260983 0.849739
Si Si6 0.167155 0.696388 0.784226
Si Si7 0.074891 0.524976 0.648052
Si Si8 0.262656 0.041855 0.871095
O O1 0.344344 0.775578 0.163500
O O2 0.638281 0.718583 0.192427
O O3 0.361073 0.620242 0.143188
O O4 0.259973 0.709396 0.941183
O O5 0.500000 0.735255 0.500000
O O6 0.695131 0.602748 0.547974
O O7 0.791147 0.697158 0.741450
O O8 0.940444 0.730343 0.650649
O O9 0.057867 0.841204 0.148259
O O10 0.220028 0.975432 0.267619
O O11 0.829641 0.968200 0.105130
O O12 0.000000 0.959366 0.000000
O O13 0.402746 0.977504 0.632264
O O14 0.243434 0.023419 0.742384
O O15 0.000000 0.969153 0.500000
O O16 0.500000 0.223437 0.000000
O O17 0.130950 0.601551 0.744889
O O18 0.000000 0.547664 0.500000
O O19 0.500000 0.049554 0.000000
#
# Coordination Sequence:
#
# PCOD9123013 Si02
#       8
#     4   4   4   4   4   4   4   4
#     4  11  20  36  66  98 129 168 221 282 327 393
#     4  10  20  37  58  91 130 169 215 271 326 397
#     4  11  24  41  60  91 131 171 220 268 328 398
#     4  10  21  35  59  92 123 163 209 266 324 387
#     4  11  22  40  63  86 126 176 220 262 332 401
#     4  10  21  35  62  99 130 163 221 279 336 383
#     4  11  22  39  62  92 134 168 212 269 336 396
#     4  12  21  36  64  95 128 163 215 279 328 382
#
# _framework density 22.305264000000001
#
# number of rings (size 3 to 8) (size 9 to 14) (size 15 to 20)
#    0.000    1.250    3.750    4.125    0.000    1.500 
#    0.000    3.750    0.000    0.000    0.000    3.500 
#    0.000    0.000    0.000    0.000    0.000    0.000 
#
# Total GULP energy -89116.908209 kJ/mol
# GULP energy per Si atom -5569.806763 kJ/mol
# Density = 2.225450 g / cm^3
# Si number density = 22.305264 Si / 1000 Ang^3
#
#
#
# Elastic Constant Matrix: (Units=GPa)
#
#
# Indices 1 2 3 4 5 6 
#
# 1 168.0810 22.6735 11.7136 0.0000 23.9997 0.0000
# 2 22.6735 48.6162 3.8706 0.0000 -0.3403 0.0000
# 3 11.7136 3.8706 59.0956 0.0000 16.0299 0.0000
# 4 0.0000 0.0000 0.0000 0.2831 0.0000 -5.9533
# 5 23.9997 -0.3403 16.0299 0.0000 50.4754 0.0000
# 6 0.0000 0.0000 0.0000 -5.9533 0.0000 23.6190
#
#
#
# Elastic Compliance Matrix: (Units=1/GPa)
#
#
# Indices 1 2 3 4 5 6 
#
# 1 0.006856 -0.003197 -0.000284 0.000000 -0.003191 0.000000
# 2 -0.003197 0.022186 -0.001392 0.000000 0.002112 0.000000
# 3 -0.000284 -0.001392 0.018641 -0.000001 -0.005794 0.000000
# 4 0.000000 0.000000 -0.000001 -0.821400 0.000000 -0.207037
# 5 -0.003191 0.002112 -0.005794 0.000000 0.023183 0.000000
# 6 0.000000 0.000000 0.000000 -0.207037 0.000000 -0.009846
#
#
# Mechanical properties :
#
#
# Convention : Reuss Voigt Hill
#
# Bulk Modulus (GPa) = 26.36001 39.14536 32.75268
# Shear Modulus (GPa) = -6.77520 30.71118 11.96799
#
# Velocity S-wave (km/s) = -1.74473 3.71463 2.31888
# Velocity P-wave (km/s) = 2.79011 5.99882 4.67817
#
# Compressibility (1/GPa) = 0.03793626
#
# Stress axis : x y z
#
# Youngs Moduli (GPa) = 145.85135 45.07333 53.64536
#
# Poissons Ratio (x) = 0.14412 0.01523
# Poissons Ratio (y) = 0.46634 0.07469
# Poissons Ratio (z) = 0.04141 0.06275
#
# Static dielectric constant tensor:
#      x y z
#    x 2.068530 0.000000 0.033510 
#    y 0.000000 1.830620 0.000000 
#    z 0.033510 0.000000 1.846160 
# 
# From -- ./inp_files/37379.got.cif
#   From: 2010.05.17/outbox.cif.g08.bks.cpg/sg5_19_cif.got.tgz:37379.got - 2010.06.03 18:56:24.
