data_PCOD9123584
_publ_section_title
;
Structure prediction by ZEFSAII (Michael W. Deem and Ramdas Pophale) SiO2 
 PCOD9123584
Probable space group: C 2
;
_chemical_formula_sum "Si O2"
_cell_formula_units_Z 28
_cell_length_a 20.820414
_cell_length_b 10.117393
_cell_length_c 12.254005
_cell_angle_alpha 90.000000
_cell_angle_beta 26.896162
_cell_angle_gamma 90.000000
_cell_volume 1167.708932
_symmetry_space_group_name_H-M "C 2"
_symmetry_group_IT_number 5
_symmetry_cell_setting 'monoclinic'
loop_
_space_group_symop_operation_xyz
x,y,z
-x,y,-z
1/2+x,1/2+y,z
1/2-x,1/2+y,-z
loop_
_atom_site_type_symbol
_atom_site_label
_atom_site_fract_x
_atom_site_fract_y
_atom_site_fract_z
Si Si1 0.078286 0.159230 0.704224
Si Si2 0.666523 0.163158 0.543424
Si Si3 0.332092 0.724123 0.944565
Si Si4 0.292675 0.890677 0.629379
Si Si5 0.000000 0.076226 0.500000
Si Si6 0.000000 0.783378 0.000000
Si Si7 0.942890 0.912581 0.398827
Si Si8 0.217535 0.462237 0.113338
O O1 0.168016 0.185720 0.675592
O O2 0.144310 0.256571 0.513631
O O3 0.912544 0.189086 0.935600
O O4 0.107409 0.009219 0.622162
O O5 0.574199 0.196826 0.792112
O O6 0.614846 0.268329 0.533076
O O7 0.653908 0.014887 0.520870
O O8 0.417829 0.663823 0.711060
O O9 0.200357 0.621267 0.138605
O O10 0.331102 0.877478 0.916446
O O11 0.123130 0.872516 0.868103
O O12 0.334852 0.911561 0.690496
O O13 0.097943 0.980681 0.425265
O O14 0.113888 0.922780 0.138706
#
# Coordination Sequence:
#
# PCOD9123584 Si02
#       8
#     4   4   4   4   2   2   4   4
#     4   9  20  38  62  87 125 167 207 262 328 382
#     4  11  22  38  70  97 123 175 215 263 333 392
#     4  10  21  38  61  89 125 169 215 262 329 379
#     4  11  22  37  70  91 128 173 214 269 325 389
#     4   8  18  36  62  80 126 170 202 266 322 378
#     4  10  22  44  64  94 144 166 214 274 338 380
#     4  10  20  39  62  89 129 170 213 264 335 379
#     4  10  21  38  60  91 127 170 209 274 320 384
#
# _framework density 23.978576
#
# number of rings (size 3 to 8) (size 9 to 14) (size 15 to 20)
#    0.000    2.286    1.429    3.429    2.000    3.429 
#    0.000    0.000   22.000    0.857    0.000    0.000 
#    0.000    0.000    0.000    0.000    0.000    0.000 
#
# Total GULP energy -78162.498314 kJ/mol
# GULP energy per Si atom -5583.035594 kJ/mol
# Density = 2.392400 g / cm^3
# Si number density = 23.978576 Si / 1000 Ang^3
#
#
#
# Elastic Constant Matrix: (Units=GPa)
#
#
# Indices 1 2 3 4 5 6 
#
# 1 74.2076 9.9964 13.9927 0.0000 0.4112 0.0000
# 2 9.9964 76.7034 31.3342 0.0000 3.1709 0.0000
# 3 13.9927 31.3342 43.1832 0.0000 10.8394 0.0000
# 4 0.0000 0.0000 0.0000 27.2283 0.0000 1.7944
# 5 0.4112 3.1709 10.8394 0.0000 28.7383 0.0000
# 6 0.0000 0.0000 0.0000 1.7944 0.0000 46.1880
#
#
#
# Elastic Compliance Matrix: (Units=1/GPa)
#
#
# Indices 1 2 3 4 5 6 
#
# 1 0.014431 0.000195 -0.005258 0.000000 0.001755 0.000000
# 2 0.000195 0.018828 -0.014583 0.000000 0.003420 0.000000
# 3 -0.005258 -0.014583 0.038682 0.000000 -0.012906 0.000000
# 4 0.000000 0.000000 0.000000 0.036821 0.000000 -0.001431
# 5 0.001755 0.003420 -0.012906 0.000000 0.039262 0.000000
# 6 0.000000 0.000000 0.000000 -0.001431 0.000000 0.021706
#
#
# Mechanical properties :
#
#
# Convention : Reuss Voigt Hill
#
# Bulk Modulus (GPa) = 30.62978 33.86009 32.24493
# Shear Modulus (GPa) = 22.73693 29.68231 26.20962
#
# Velocity S-wave (km/s) = 3.08266 3.52215 3.30971
# Velocity P-wave (km/s) = 5.04697 5.54007 5.29926
#
# Compressibility (1/GPa) = 0.03264797
#
# Stress axis : x y z
#
# Youngs Moduli (GPa) = 69.29427 53.11248 25.85166
#
# Poissons Ratio (x) = -0.01034 0.13593
# Poissons Ratio (y) = -0.01349 0.37700
# Poissons Ratio (z) = 0.36435 0.77456
#
# Static dielectric constant tensor:
#      x y z
#    x 1.947190 0.000000 -0.049630 
#    y 0.000000 1.918970 0.000000 
#    z -0.049630 0.000000 2.029120 
# 
# From -- ./inp_files/57536.got.cif
#   From: 2010.05.17/outbox.cif.g08.bks.cpg/sg5_29_cif.got.tgz:57536.got - 2010.06.03 18:56:24.
