data_PCOD9123147
_publ_section_title
;
Structure prediction by ZEFSAII (Michael W. Deem and Ramdas Pophale) SiO2 
 PCOD9123147
Probable space group: C 2
;
_chemical_formula_sum "Si O2"
_cell_formula_units_Z 32
_cell_length_a 28.080628
_cell_length_b 5.529760
_cell_length_c 13.451168
_cell_angle_alpha 90.000000
_cell_angle_beta 37.787180
_cell_angle_gamma 90.000000
_cell_volume 1279.800898
_symmetry_space_group_name_H-M "C 2"
_symmetry_group_IT_number 5
_symmetry_cell_setting 'monoclinic'
loop_
_space_group_symop_operation_xyz
x,y,z
-x,y,-z
1/2+x,1/2+y,z
1/2-x,1/2+y,-z
loop_
_atom_site_type_symbol
_atom_site_label
_atom_site_fract_x
_atom_site_fract_y
_atom_site_fract_z
Si Si1 0.380978 0.095100 0.794535
Si Si2 0.448768 0.790063 0.511035
Si Si3 0.407582 0.780202 0.127497
Si Si4 0.154481 0.782476 0.779190
Si Si5 0.225597 0.260329 0.261354
Si Si6 0.491619 0.787177 0.797450
Si Si7 0.238375 0.266998 0.911063
Si Si8 0.473309 0.276364 0.834033
O O1 0.309960 0.260362 0.870934
O O2 0.426725 0.237505 0.807002
O O3 0.425549 0.014521 0.620811
O O4 0.338053 0.846198 0.902319
O O5 0.500000 0.622080 0.500000
O O6 0.366629 0.731853 0.598116
O O7 0.506190 0.821607 0.324165
O O8 0.366266 0.539169 0.234874
O O9 0.365000 0.021480 0.233511
O O10 0.500000 0.774439 0.000000
O O11 0.413492 0.782256 0.994987
O O12 0.239498 0.784781 0.686478
O O13 0.091712 0.785510 0.973959
O O14 0.254420 0.508257 0.157574
O O15 0.254805 0.003929 0.170090
O O16 0.522111 0.519031 0.758325
O O17 0.526336 0.044731 0.769080
#
# Coordination Sequence:
#
# PCOD9123147 Si02
#       8
#     4   4   4   4   4   4   4   4
#     4  11  22  36  56  80 116 163 216 257 293 341
#     4  11  24  39  56  81 124 174 218 241 289 350
#     4  10  21  40  71  97 116 146 190 256 326 382
#     4  10  20  37  63  93 123 143 194 252 317 369
#     4  11  24  40  57  85 120 168 204 259 302 352
#     4  10  23  40  56  87 120 159 195 250 296 368
#     4  11  24  36  55  80 114 158 218 255 298 339
#     4  10  21  35  59  76 116 155 198 246 303 337
#
# _framework density 25.003889000000001
#
# number of rings (size 3 to 8) (size 9 to 14) (size 15 to 20)
#    0.000    1.500    2.500    2.625    5.250    2.000 
#    0.000    0.000    0.000    1.500    0.000    0.000 
#    0.000    0.000    0.000    0.000    0.000    0.000 
#
# Total GULP energy -89085.632885 kJ/mol
# GULP energy per Si atom -5567.852055 kJ/mol
# Density = 2.494698 g / cm^3
# Si number density = 25.003889 Si / 1000 Ang^3
#
#
#
# Elastic Constant Matrix: (Units=GPa)
#
#
# Indices 1 2 3 4 5 6 
#
# 1 137.5466 35.4251 23.4028 0.0247 -32.5379 0.0555
# 2 35.4251 242.8318 4.9593 0.0676 -18.8023 0.1163
# 3 23.4028 4.9593 61.7478 0.0652 -19.3529 0.1001
# 4 0.0247 0.0676 0.0652 -3.1477 0.0125 -19.0973
# 5 -32.5379 -18.8023 -19.3529 0.0125 44.1878 0.0266
# 6 0.0555 0.1163 0.1001 -19.0973 0.0266 -36.3763
#
#
#
# Elastic Compliance Matrix: (Units=1/GPa)
#
#
# Indices 1 2 3 4 5 6 
#
# 1 0.009097 -0.000859 -0.001616 0.000011 0.005626 0.000005
# 2 -0.000859 0.004343 0.000415 -0.000005 0.001397 0.000017
# 3 -0.001616 0.000415 0.019075 -0.000035 0.007341 0.000075
# 4 0.000011 -0.000005 -0.000035 0.145387 -0.000005 -0.076327
# 5 0.005626 0.001397 0.007341 -0.000005 0.030583 0.000058
# 6 0.000005 0.000017 0.000075 -0.076327 0.000058 0.012581
#
#
# Mechanical properties :
#
#
# Convention : Reuss Voigt Hill
#
# Bulk Modulus (GPa) = 35.21710 63.30006 49.25858
# Shear Modulus (GPa) = 21.30830 26.15536 23.73183
#
# Velocity S-wave (km/s) = 2.92241 3.23778 3.08413
# Velocity P-wave (km/s) = 5.05001 6.27285 5.69435
#
# Compressibility (1/GPa) = 0.02839529
#
# Stress axis : x y z
#
# Youngs Moduli (GPa) = 109.92516 230.25312 52.42570
#
# Poissons Ratio (x) = 0.19768 0.08471
# Poissons Ratio (y) = 0.09437 -0.02173
# Poissons Ratio (z) = 0.17761 -0.09544
#
# Static dielectric constant tensor:
#      x y z
#    x 2.473220 0.000100 -0.233360 
#    y 0.000100 2.104430 -0.000070 
#    z -0.233360 -0.000070 2.202610 
# 
# From -- ./inp_files/58308.got.cif
#   From: 2010.05.17/outbox.cif.g08.bks.cpg/sg5_30_cif.got.tgz:58308.got - 2010.06.03 18:56:24.
