data_PCOD9123889
_publ_section_title
;
Structure prediction by ZEFSAII (Michael W. Deem and Ramdas Pophale) SiO2 
 PCOD9123889
Probable space group: C 2
;
_chemical_formula_sum "Si O2"
_cell_formula_units_Z 32
_cell_length_a 8.399918
_cell_length_b 17.959259
_cell_length_c 18.758284
_cell_angle_alpha 90.000000
_cell_angle_beta 148.544048
_cell_angle_gamma 90.000000
_cell_volume 1476.713886
_symmetry_space_group_name_H-M "C 2"
_symmetry_group_IT_number 5
_symmetry_cell_setting 'monoclinic'
loop_
_space_group_symop_operation_xyz
x,y,z
-x,y,-z
1/2+x,1/2+y,z
1/2-x,1/2+y,-z
loop_
_atom_site_type_symbol
_atom_site_label
_atom_site_fract_x
_atom_site_fract_y
_atom_site_fract_z
Si Si1 0.853217 0.914980 0.778555
Si Si2 0.226013 0.200255 0.449930
Si Si3 0.700325 0.372011 0.505247
Si Si4 0.609027 0.292049 0.964036
Si Si5 0.573304 0.560345 0.942654
Si Si6 0.043175 0.667247 0.711664
Si Si7 0.698853 0.341479 0.779832
Si Si8 0.096402 0.646777 0.183629
O O1 0.503687 0.922149 0.619138
O O2 0.862200 0.851191 0.842333
O O3 0.075971 0.884083 0.802122
O O4 0.982227 0.988108 0.864645
O O5 0.500000 0.201540 0.500000
O O6 0.170334 0.286809 0.448570
O O7 0.332532 0.158444 0.562120
O O8 0.942612 0.165329 0.300491
O O9 0.500000 0.381622 0.500000
O O10 0.467319 0.379330 0.350814
O O11 0.600027 0.220900 0.908895
O O12 0.500000 0.266585 0.000000
O O13 0.936686 0.332770 0.088272
O O14 0.368904 0.626764 0.831581
O O15 0.500000 0.554220 0.000000
O O16 0.929285 0.581424 0.078136
O O17 0.086564 0.755648 0.738045
O O18 0.906557 0.635366 0.732484
#
# Coordination Sequence:
#
# PCOD9123889 Si02
#       8
#     4   4   4   4   4   4   4   4
#     4  12  23  42  66 101 139 181 232 296 353 416
#     4  10  21  37  64 104 137 174 235 295 338 411
#     4  10  21  39  66  99 139 179 229 290 352 415
#     4  12  24  38  65  98 133 181 236 289 347 413
#     4  10  24  43  67 100 146 187 229 285 362 425
#     4  10  20  40  67  97 134 178 234 283 343 422
#     4  11  22  39  69 101 134 175 239 294 340 414
#     4  11  21  40  68  98 133 187 229 288 345 417
#
# _framework density 21.669734999999999
#
# number of rings (size 3 to 8) (size 9 to 14) (size 15 to 20)
#    0.000    1.250    3.750    2.250    3.500    2.000 
#    0.000    8.750    0.000    0.000    0.000    0.000 
#    0.000    0.000    0.000    0.000    0.000    0.000 
#
# Total GULP energy -89406.068649 kJ/mol
# GULP energy per Si atom -5587.879291 kJ/mol
# Density = 2.162041 g / cm^3
# Si number density = 21.669735 Si / 1000 Ang^3
#
#
#
# Elastic Constant Matrix: (Units=GPa)
#
#
# Indices 1 2 3 4 5 6 
#
# 1 49.3869 16.3348 36.8562 0.0033 -12.9751 0.0038
# 2 16.3348 63.5242 47.7089 0.0016 -14.6913 0.0028
# 3 36.8562 47.7089 165.3598 0.0099 -5.0969 0.0065
# 4 0.0033 0.0016 0.0099 37.0846 0.0053 -7.8646
# 5 -12.9751 -14.6913 -5.0969 0.0053 33.3156 0.0037
# 6 0.0038 0.0028 0.0065 -7.8646 0.0037 10.7177
#
#
#
# Elastic Compliance Matrix: (Units=1/GPa)
#
#
# Indices 1 2 3 4 5 6 
#
# 1 0.027083 -0.000597 -0.005573 -0.000005 0.009432 -0.000013
# 2 -0.000597 0.022491 -0.006086 -0.000002 0.008754 -0.000006
# 3 -0.005573 -0.006086 0.008938 -0.000001 -0.003487 -0.000002
# 4 -0.000005 -0.000002 -0.000001 0.031935 -0.000011 0.023434
# 5 0.009432 0.008754 -0.003487 -0.000011 0.037016 -0.000024
# 6 -0.000013 -0.000006 -0.000002 0.023434 -0.000024 0.110498
#
#
# Mechanical properties :
#
#
# Convention : Reuss Voigt Hill
#
# Bulk Modulus (GPa) = 29.41261 53.34120 41.37690
# Shear Modulus (GPa) = 18.26096 28.04831 23.15463
#
# Velocity S-wave (km/s) = 2.90607 3.60162 3.27238
# Velocity P-wave (km/s) = 4.98627 6.47800 5.78046
#
# Compressibility (1/GPa) = 0.03399902
#
# Stress axis : x y z
#
# Youngs Moduli (GPa) = 36.92352 44.46203 111.88053
#
# Poissons Ratio (x) = 0.02655 0.62356
# Poissons Ratio (y) = 0.02205 0.68092
# Poissons Ratio (z) = 0.20579 0.27060
#
# Static dielectric constant tensor:
#      x y z
#    x 1.791680 0.000000 0.009140 
#    y 0.000000 1.787860 -0.000010 
#    z 0.009140 -0.000010 1.817100 
# 
# From -- ./inp_files/64798.got.cif
#   From: 2010.05.17/outbox.cif.g08.bks.cpg/sg5_33_cif.got.tgz:64798.got - 2010.06.03 18:56:24.
