data_PCOD9123083
_publ_section_title
;
Structure prediction by ZEFSAII (Michael W. Deem and Ramdas Pophale) SiO2 
 PCOD9123083
Probable space group: C 2
;
_chemical_formula_sum "Si O2"
_cell_formula_units_Z 32
_cell_length_a 23.394246
_cell_length_b 8.478623
_cell_length_c 23.466631
_cell_angle_alpha 90.000000
_cell_angle_beta 159.998801
_cell_angle_gamma 90.000000
_cell_volume 1592.068594
_symmetry_space_group_name_H-M "C 2"
_symmetry_group_IT_number 5
_symmetry_cell_setting 'monoclinic'
loop_
_space_group_symop_operation_xyz
x,y,z
-x,y,-z
1/2+x,1/2+y,z
1/2-x,1/2+y,-z
loop_
_atom_site_type_symbol
_atom_site_label
_atom_site_fract_x
_atom_site_fract_y
_atom_site_fract_z
Si Si1 0.219462 0.746890 0.360550
Si Si2 0.561067 0.228878 0.993355
Si Si3 0.459810 0.690848 0.205064
Si Si4 0.568257 0.364480 0.336839
Si Si5 0.034669 0.348584 0.966798
Si Si6 0.283558 0.177010 0.117934
Si Si7 0.809949 0.376353 0.657657
Si Si8 0.094062 0.351098 0.729076
O O1 0.152114 0.791745 0.359905
O O2 0.224386 0.558072 0.362835
O O3 0.409041 0.810877 0.531879
O O4 0.078047 0.793656 0.181610
O O5 0.744690 0.301859 0.156593
O O6 0.500000 0.259753 0.000000
O O7 0.567741 0.037416 0.992306
O O8 0.581590 0.551651 0.339870
O O9 0.543468 0.837985 0.250525
O O10 0.380585 0.754190 0.188391
O O11 0.346511 0.611012 0.050618
O O12 0.381072 0.307416 0.172221
O O13 0.654074 0.313469 0.476460
O O14 0.874018 0.306859 0.777013
O O15 0.186715 0.257092 0.079601
O O16 0.000000 0.312181 0.000000
O O17 0.394369 0.034336 0.244148
#
# Coordination Sequence:
#
# PCOD9123083 Si02
#       8
#     4   4   4   4   4   4   4   4
#     4  11  23  39  63  93 128 161 200 257 310 372
#     4  10  23  44  67  88 118 163 214 262 308 359
#     4  11  21  37  59  90 127 164 203 249 309 375
#     4  12  21  37  58  92 126 160 195 252 312 364
#     4   9  21  43  65  86 116 161 210 258 308 362
#     4  11  24  36  60  90 127 164 204 252 309 379
#     4  10  20  37  61  90 121 158 196 253 307 361
#     4  12  23  39  61  93 125 166 206 251 314 371
#
# _framework density 20.099634999999999
#
# number of rings (size 3 to 8) (size 9 to 14) (size 15 to 20)
#    0.000    1.250    2.500    3.750    1.750    3.000 
#    0.000    0.625    2.750    0.000    0.000    0.000 
#    0.000    0.000    0.000    0.000    0.000    0.000 
#
# Total GULP energy -89243.937644 kJ/mol
# GULP energy per Si atom -5577.746103 kJ/mol
# Density = 2.005389 g / cm^3
# Si number density = 20.099635 Si / 1000 Ang^3
#
#
#
# Elastic Constant Matrix: (Units=GPa)
#
#
# Indices 1 2 3 4 5 6 
#
# 1 113.4294 31.2368 57.9426 0.0001 -3.6476 0.0000
# 2 31.2368 59.4986 34.0825 0.0000 5.6630 0.0000
# 3 57.9426 34.0825 111.4969 0.0001 -1.3548 0.0000
# 4 0.0001 0.0000 0.0001 29.6956 0.0000 4.0811
# 5 -3.6476 5.6630 -1.3548 0.0000 30.2320 0.0000
# 6 0.0000 0.0000 0.0000 4.0811 0.0000 27.0036
#
#
#
# Elastic Compliance Matrix: (Units=1/GPa)
#
#
# Indices 1 2 3 4 5 6 
#
# 1 0.012680 -0.003740 -0.005422 0.000000 0.001987 0.000000
# 2 -0.003740 0.021998 -0.004839 0.000000 -0.004789 0.000000
# 3 -0.005422 -0.004839 0.013276 0.000000 0.000847 0.000000
# 4 0.000000 0.000000 0.000000 0.034389 0.000000 -0.005197
# 5 0.001987 -0.004789 0.000847 0.000000 0.034252 0.000000
# 6 0.000000 0.000000 0.000000 -0.005197 0.000000 0.037818
#
#
# Mechanical properties :
#
#
# Convention : Reuss Voigt Hill
#
# Bulk Modulus (GPa) = 50.12050 58.99430 54.55740
# Shear Modulus (GPa) = 26.44579 28.13043 27.28811
#
# Velocity S-wave (km/s) = 3.63124 3.74511 3.68862
# Velocity P-wave (km/s) = 6.52467 6.93656 6.73377
#
# Compressibility (1/GPa) = 0.01995192
#
# Stress axis : x y z
#
# Youngs Moduli (GPa) = 78.86698 45.45779 75.32393
#
# Poissons Ratio (x) = 0.17002 0.40840
# Poissons Ratio (y) = 0.29497 0.36450
# Poissons Ratio (z) = 0.42761 0.21997
#
# Static dielectric constant tensor:
#      x y z
#    x 1.661410 0.000000 -0.009850 
#    y 0.000000 1.709140 0.000000 
#    z -0.009850 0.000000 1.781860 
# 
# From -- ./inp_files/69651.got.cif
#   From: 2010.05.17/outbox.cif.g08.bks.cpg/sg5_35_cif.got.tgz:69651.got - 2010.06.03 18:56:24.
