data_PCOD9123903
_publ_section_title
;
Structure prediction by ZEFSAII (Michael W. Deem and Ramdas Pophale) SiO2 
 PCOD9123903
Probable space group: C 2
;
_chemical_formula_sum "Si O2"
_cell_formula_units_Z 30
_cell_length_a 10.560322
_cell_length_b 9.342477
_cell_length_c 15.906349
_cell_angle_alpha 90.000000
_cell_angle_beta 67.099285
_cell_angle_gamma 90.000000
_cell_volume 1445.621053
_symmetry_space_group_name_H-M "C 2"
_symmetry_group_IT_number 5
_symmetry_cell_setting 'monoclinic'
loop_
_space_group_symop_operation_xyz
x,y,z
-x,y,-z
1/2+x,1/2+y,z
1/2-x,1/2+y,-z
loop_
_atom_site_type_symbol
_atom_site_label
_atom_site_fract_x
_atom_site_fract_y
_atom_site_fract_z
Si Si1 0.780002 0.562660 0.400724
Si Si2 0.447078 0.022655 0.884603
Si Si3 0.944489 0.304839 0.730220
Si Si4 0.891612 0.568113 0.652824
Si Si5 0.000000 0.306149 0.000000
Si Si6 0.222512 0.237705 0.565722
Si Si7 0.752428 0.055255 0.791999
Si Si8 0.759092 0.731702 0.841967
O O1 0.738517 0.404701 0.444029
O O2 0.702797 0.678224 0.477453
O O3 0.749468 0.562021 0.309530
O O4 0.944360 0.588847 0.373926
O O5 0.468405 0.922366 0.796660
O O6 0.598236 0.083168 0.863231
O O7 0.345436 0.150758 0.891010
O O8 0.406846 0.912656 0.967825
O O9 0.873319 0.398465 0.674352
O O10 0.853647 0.180101 0.791777
O O11 0.083328 0.239224 0.656664
O O12 0.834605 0.635441 0.581877
O O13 0.802338 0.649094 0.746637
O O14 0.899557 0.223634 0.088635
O O15 0.791101 0.897637 0.814584
#
# Coordination Sequence:
#
# PCOD9123903 Si02
#       8
#     4   4   4   4   2   4   4   4
#     4  11  23  38  61  90 124 166 219 255 309 357
#     4  10  21  45  63  91 129 165 198 251 317 372
#     4  10  23  39  64  89 123 167 208 247 310 369
#     4  10  20  43  64  82 125 171 198 255 317 363
#     4  10  22  36  68  98 122 152 204 262 306 372
#     4  11  22  40  56  90 129 160 212 269 302 352
#     4  11  21  40  63  88 120 169 211 246 303 373
#     4  10  20  40  68  86 126 163 198 252 312 372
#
# _framework density 20.752327000000001
#
# number of rings (size 3 to 8) (size 9 to 14) (size 15 to 20)
#    0.000    1.600    5.333    1.200    1.867    4.800 
#    2.400    2.667    0.000    1.600    0.000    0.000 
#    0.000    0.000    0.000    0.000    0.000    0.000 
#
# Total GULP energy -83684.952618 kJ/mol
# GULP energy per Si atom -5578.996841 kJ/mol
# Density = 2.070509 g / cm^3
# Si number density = 20.752327 Si / 1000 Ang^3
#
#
#
# Elastic Constant Matrix: (Units=GPa)
#
#
# Indices 1 2 3 4 5 6 
#
# 1 59.2029 44.2400 16.8552 0.0000 -4.6855 0.0000
# 2 44.2400 64.2478 16.6081 0.0000 -18.6370 0.0000
# 3 16.8552 16.6081 72.7840 0.0000 -1.2113 0.0000
# 4 0.0000 0.0000 0.0000 27.0893 0.0000 1.2736
# 5 -4.6855 -18.6370 -1.2113 0.0000 20.9588 0.0000
# 6 0.0000 0.0000 0.0000 1.2736 0.0000 39.0880
#
#
#
# Elastic Compliance Matrix: (Units=1/GPa)
#
#
# Indices 1 2 3 4 5 6 
#
# 1 0.041174 -0.033909 -0.002148 0.000000 -0.021072 0.000000
# 2 -0.033909 0.050470 -0.003046 0.000000 0.037122 0.000000
# 3 -0.002148 -0.003046 0.014893 0.000000 -0.002328 0.000000
# 4 0.000000 0.000000 0.000000 0.036972 0.000000 -0.001205
# 5 -0.021072 0.037122 -0.002328 0.000000 0.075877 0.000000
# 6 0.000000 0.000000 0.000000 -0.001205 0.000000 0.025623
#
#
# Mechanical properties :
#
#
# Convention : Reuss Voigt Hill
#
# Bulk Modulus (GPa) = 35.29783 39.07127 37.18455
# Shear Modulus (GPa) = 15.03050 25.32933 20.17992
#
# Velocity S-wave (km/s) = 2.69417 3.49743 3.12174
# Velocity P-wave (km/s) = 5.16953 5.93108 5.56335
#
# Compressibility (1/GPa) = 0.02833035
#
# Stress axis : x y z
#
# Youngs Moduli (GPa) = 24.28735 19.81390 67.14542
#
# Poissons Ratio (x) = 0.67187 0.14424
# Poissons Ratio (y) = 0.82356 0.20452
# Poissons Ratio (z) = 0.05217 0.06035
#
# Static dielectric constant tensor:
#      x y z
#    x 1.782930 0.000000 0.036840 
#    y 0.000000 1.725360 0.000000 
#    z 0.036840 0.000000 1.776470 
# 
# From -- ./inp_files/60304.got.cif
#   From: 2010.05.17/outbox.cif.g08.bks.cpg/sg5_31_cif.got.tgz:60304.got - 2010.06.03 18:56:24.
