data_PCOD9123526
_publ_section_title
;
Structure prediction by ZEFSAII (Michael W. Deem and Ramdas Pophale) SiO2 
 PCOD9123526
Probable space group: C 2
;
_chemical_formula_sum "Si O2"
_cell_formula_units_Z 28
_cell_length_a 5.687510
_cell_length_b 29.621625
_cell_length_c 7.769041
_cell_angle_alpha 90.000000
_cell_angle_beta 62.421396
_cell_angle_gamma 90.000000
_cell_volume 1160.156860
_symmetry_space_group_name_H-M "C 2"
_symmetry_group_IT_number 5
_symmetry_cell_setting 'monoclinic'
loop_
_space_group_symop_operation_xyz
x,y,z
-x,y,-z
1/2+x,1/2+y,z
1/2-x,1/2+y,-z
loop_
_atom_site_type_symbol
_atom_site_label
_atom_site_fract_x
_atom_site_fract_y
_atom_site_fract_z
Si Si1 0.734638 0.987040 0.206859
Si Si2 0.875727 0.385756 0.763643
Si Si3 0.500000 0.040581 0.000000
Si Si4 0.000000 0.697263 0.000000
Si Si5 0.449576 0.571553 0.314202
Si Si6 0.533322 0.668369 0.696106
Si Si7 0.646238 0.353737 0.202923
Si Si8 0.146748 0.753345 0.273825
O O1 0.660592 0.936959 0.284931
O O2 0.512793 0.007884 0.159163
O O3 0.792555 0.026191 0.323537
O O4 0.000000 0.983048 0.000000
O O5 0.674726 0.356621 0.711508
O O6 0.184989 0.374081 0.694855
O O7 0.752626 0.379058 0.996714
O O8 0.226631 0.067317 0.115256
O O9 0.744665 0.666826 0.111384
O O10 0.995781 0.728957 0.169430
O O11 0.500000 0.572822 0.500000
O O12 0.322675 0.620608 0.315095
O O13 0.500000 0.672263 0.500000
O O14 0.658254 0.713916 0.728530
O O15 0.731739 0.301403 0.171490
O O16 0.000000 0.765514 0.500000
#
# Coordination Sequence:
#
# PCOD9123526 Si02
#       8
#     4   4   2   2   4   4   4   4
#     4  10  20  38  68  99 139 183 244 293 366 443
#     4  10  20  39  69 103 139 190 243 306 372 446
#     4  10  21  38  70  98 134 194 228 298 361 440
#     4  12  25  44  76 102 144 200 242 308 383 440
#     4  10  24  43  67 103 146 187 243 302 364 441
#     4  11  25  47  70 105 147 195 253 310 373 457
#     4  10  22  37  68 100 138 188 242 303 373 439
#     4  12  27  46  72 106 148 196 254 312 378 455
#
# _framework density 24.134667
#
# number of rings (size 3 to 8) (size 9 to 14) (size 15 to 20)
#    0.000    1.429    2.857    2.571    8.000    5.143 
#    0.000    0.714    3.143    0.000    0.000    0.000 
#    0.000    0.000    0.000    0.000    0.000    0.000 
#
# Total GULP energy -78159.437824 kJ/mol
# GULP energy per Si atom -5582.816987 kJ/mol
# Density = 2.407974 g / cm^3
# Si number density = 24.134667 Si / 1000 Ang^3
#
#
#
# Elastic Constant Matrix: (Units=GPa)
#
#
# Indices 1 2 3 4 5 6 
#
# 1 122.8170 55.6872 8.7340 0.0000 12.6845 0.0000
# 2 55.6872 221.4426 8.4142 0.0000 15.8438 0.0000
# 3 8.7340 8.4142 98.0347 0.0000 12.1126 0.0000
# 4 0.0000 0.0000 0.0000 -9.8697 0.0000 9.9589
# 5 12.6845 15.8438 12.1126 0.0000 26.0745 0.0000
# 6 0.0000 0.0000 0.0000 9.9589 0.0000 52.8792
#
#
#
# Elastic Compliance Matrix: (Units=1/GPa)
#
#
# Indices 1 2 3 4 5 6 
#
# 1 0.009460 -0.002142 -0.000266 0.000000 -0.003177 0.000000
# 2 -0.002142 0.005206 0.000006 0.000000 -0.002125 0.000000
# 3 -0.000266 0.000006 0.010830 0.000000 -0.004905 0.000000
# 4 0.000000 0.000000 0.000000 -0.085141 0.000000 0.016035
# 5 -0.003177 -0.002125 -0.004905 0.000000 0.043467 0.000000
# 6 0.000000 0.000000 0.000000 0.016035 0.000000 0.015891
#
#
# Mechanical properties :
#
#
# Convention : Reuss Voigt Hill
#
# Bulk Modulus (GPa) = 48.32559 65.32945 56.82752
# Shear Modulus (GPa) = 438.04012 38.44739 238.24376
#
# Velocity S-wave (km/s) = 13.48675 3.99562 9.94629
# Velocity P-wave (km/s) = 16.20463 6.95802 12.47004
#
# Compressibility (1/GPa) = 0.02069297
#
# Stress axis : x y z
#
# Youngs Moduli (GPa) = 105.70489 192.07985 92.33864
#
# Poissons Ratio (x) = 0.41136 0.02461
# Poissons Ratio (y) = 0.22638 -0.00060
# Poissons Ratio (z) = 0.02817 -0.00124
#
# Static dielectric constant tensor:
#      x y z
#    x 2.006630 0.000000 -0.024880 
#    y 0.000000 1.937730 0.000000 
#    z -0.024880 0.000000 1.881450 
# 
# From -- ./inp_files/13199.got.cif
#   From: 2010.05.17/outbox.cif.g08.bks.cpg/sg5_7_cif.got.tgz:13199.got - 2010.06.03 18:56:24.
