data_PCOD9123704
_publ_section_title
;
Structure prediction by ZEFSAII (Michael W. Deem and Ramdas Pophale) SiO2 
 PCOD9123704
Probable space group: C 2
;
_chemical_formula_sum "Si O2"
_cell_formula_units_Z 22
_cell_length_a 17.107255
_cell_length_b 9.291267
_cell_length_c 11.934985
_cell_angle_alpha 90.000000
_cell_angle_beta 28.973899
_cell_angle_gamma 90.000000
_cell_volume 918.948700
_symmetry_space_group_name_H-M "C 2"
_symmetry_group_IT_number 5
_symmetry_cell_setting 'monoclinic'
loop_
_space_group_symop_operation_xyz
x,y,z
-x,y,-z
1/2+x,1/2+y,z
1/2-x,1/2+y,-z
loop_
_atom_site_type_symbol
_atom_site_label
_atom_site_fract_x
_atom_site_fract_y
_atom_site_fract_z
Si Si1 0.260497 0.572030 0.131695
Si Si2 0.500000 0.421839 0.000000
Si Si3 0.609271 0.168173 0.700589
Si Si4 0.000000 0.436590 0.000000
Si Si5 0.500000 0.845289 0.500000
Si Si6 0.655787 0.301197 0.413060
Si Si7 0.440951 0.608218 0.398418
O O1 0.365944 0.517010 0.106177
O O2 0.131951 0.445763 0.274838
O O3 0.168139 0.716002 0.282593
O O4 0.386905 0.607081 0.876961
O O5 0.427779 0.315261 0.185405
O O6 0.588295 0.200741 0.596882
O O7 0.792987 0.121140 0.496631
O O8 0.498192 0.044332 0.895128
O O9 0.842305 0.341048 0.207171
O O10 0.421419 0.740019 0.507654
O O11 0.574925 0.456174 0.520056
#
# Coordination Sequence:
#
# PCOD9123704 Si02
#       7
#     4   2   4   2   2   4   4
#     4  12  26  45  73 102 135 181 232 285 342 409
#     4  11  19  42  74 104 134 172 224 280 348 400
#     4  10  20  39  70 104 136 170 218 283 346 401
#     4   9  21  34  58 104 138 162 206 274 342 398
#     4  12  30  48  66  96 142 192 230 280 342 406
#     4  11  23  39  69 104 134 172 225 286 340 403
#     4  11  25  46  69  95 140 187 227 281 340 411
#
# _framework density 23.9404
#
# number of rings (size 3 to 8) (size 9 to 14) (size 15 to 20)
#    0.000    1.091    3.636    2.727    2.545    5.091 
#    0.000    0.000    0.000    0.000    0.000    0.000 
#    0.000    0.000    0.000    0.000    0.000    0.000 
#
# Total GULP energy -61636.916852 kJ/mol
# GULP energy per Si atom -5603.356077 kJ/mol
# Density = 2.388591 g / cm^3
# Si number density = 23.940400 Si / 1000 Ang^3
#
#
#
# Elastic Constant Matrix: (Units=GPa)
#
#
# Indices 1 2 3 4 5 6 
#
# 1 52.5770 11.0619 -1.1458 0.0000 4.3126 0.0000
# 2 11.0619 136.5672 41.6255 0.0000 13.9813 0.0000
# 3 -1.1458 41.6255 121.7745 0.0000 20.5085 0.0000
# 4 0.0000 0.0000 0.0000 64.3049 0.0000 9.9680
# 5 4.3126 13.9813 20.5085 0.0000 25.5793 0.0000
# 6 0.0000 0.0000 0.0000 9.9680 0.0000 27.3794
#
#
#
# Elastic Compliance Matrix: (Units=1/GPa)
#
#
# Indices 1 2 3 4 5 6 
#
# 1 0.019681 -0.001644 0.001335 0.000000 -0.003490 0.000000
# 2 -0.001644 0.008461 -0.002515 0.000000 -0.002331 0.000000
# 3 0.001335 -0.002515 0.010278 0.000000 -0.007091 0.000000
# 4 0.000000 0.000000 0.000000 0.016481 0.000000 -0.006000
# 5 -0.003490 -0.002331 -0.007091 0.000000 0.046642 0.000000
# 6 0.000000 0.000000 0.000000 -0.006000 0.000000 0.038708
#
#
# Mechanical properties :
#
#
# Convention : Reuss Voigt Hill
#
# Bulk Modulus (GPa) = 30.51363 46.00022 38.25692
# Shear Modulus (GPa) = 31.88299 40.74450 36.31374
#
# Velocity S-wave (km/s) = 3.65329 4.12990 3.89889
# Velocity P-wave (km/s) = 5.52890 6.48056 6.02355
#
# Compressibility (1/GPa) = 0.03277225
#
# Stress axis : x y z
#
# Youngs Moduli (GPa) = 50.81070 118.19285 97.29143
#
# Poissons Ratio (x) = 0.19427 -0.12986
# Poissons Ratio (y) = 0.08352 0.24469
# Poissons Ratio (z) = -0.06782 0.29725
#
# Static dielectric constant tensor:
#      x y z
#    x 1.915400 0.000000 -0.027140 
#    y 0.000000 1.866290 0.000000 
#    z -0.027140 0.000000 1.876960 
# 
# From -- ./inp_files/28861.got.cif
#   From: 2010.05.17/outbox.cif.g08.bks.cpg/sg5_15_cif.got.tgz:28861.got - 2010.06.03 18:56:24.
