data_PCOD9123230
_publ_section_title
;
Structure prediction by ZEFSAII (Michael W. Deem and Ramdas Pophale) SiO2 
 PCOD9123230
Probable space group: C 2
;
_chemical_formula_sum "Si O2"
_cell_formula_units_Z 30
_cell_length_a 13.429027
_cell_length_b 5.481675
_cell_length_c 18.321871
_cell_angle_alpha 90.000000
_cell_angle_beta 125.829725
_cell_angle_gamma 90.000000
_cell_volume 1093.503282
_symmetry_space_group_name_H-M "C 2"
_symmetry_group_IT_number 5
_symmetry_cell_setting 'monoclinic'
loop_
_space_group_symop_operation_xyz
x,y,z
-x,y,-z
1/2+x,1/2+y,z
1/2-x,1/2+y,-z
loop_
_atom_site_type_symbol
_atom_site_label
_atom_site_fract_x
_atom_site_fract_y
_atom_site_fract_z
Si Si1 0.854246 0.437910 0.703603
Si Si2 0.045262 0.811690 0.781611
Si Si3 0.000000 0.805128 0.000000
Si Si4 0.367924 0.574933 0.818710
Si Si5 0.318987 0.066933 0.037744
Si Si6 0.254091 0.118405 0.456922
Si Si7 0.596170 0.533171 0.659684
Si Si8 0.398594 0.025103 0.378138
O O1 0.890117 0.352550 0.801043
O O2 0.846175 0.205166 0.647127
O O3 0.719173 0.541701 0.662456
O O4 0.942129 0.631907 0.705565
O O5 0.137821 0.633298 0.862291
O O6 0.110610 0.988262 0.752210
O O7 0.969178 0.942371 0.812102
O O8 0.920085 0.638399 0.020230
O O9 0.094617 0.978421 0.086189
O O10 0.226916 0.527466 0.729024
O O11 0.217432 0.282823 0.981634
O O12 0.272874 0.377135 0.507151
O O13 0.357753 0.033903 0.443970
O O14 0.532022 0.782477 0.613691
O O15 0.538450 0.281235 0.610012
#
# Coordination Sequence:
#
# PCOD9123230 Si02
#       8
#     4   4   2   4   4   4   4   4
#     4  10  23  41  65 104 134 178 239 279 342 436
#     4  11  24  40  68  95 136 187 233 290 349 415
#     4  10  24  46  68  94 142 194 228 314 358 394
#     4   9  21  40  64  90 135 175 235 277 349 407
#     4  11  29  45  65 101 139 185 252 294 359 425
#     4  10  20  37  69 104 137 178 226 284 348 420
#     4  10  22  37  65  92 135 173 222 287 332 401
#     4  10  21  40  62  98 133 173 224 276 336 415
#
# _framework density 27.434759
#
# number of rings (size 3 to 8) (size 9 to 14) (size 15 to 20)
#    0.000    2.133    1.333    1.600   13.067    0.533 
#    0.000    0.000    0.000    3.200   13.867    0.000 
#    0.000    0.000    0.000    0.000    0.000    0.000 
#
# Total GULP energy -83850.805322 kJ/mol
# GULP energy per Si atom -5590.053688 kJ/mol
# Density = 2.737232 g / cm^3
# Si number density = 27.434759 Si / 1000 Ang^3
#
#
#
# Elastic Constant Matrix: (Units=GPa)
#
#
# Indices 1 2 3 4 5 6 
#
# 1 110.6427 39.8576 40.4542 0.0000 -13.7811 0.0000
# 2 39.8576 161.2239 29.7337 0.0000 -14.3130 0.0000
# 3 40.4542 29.7337 117.1642 0.0000 -9.2194 0.0000
# 4 0.0000 0.0000 0.0000 48.3849 0.0000 -3.7871
# 5 -13.7811 -14.3130 -9.2194 0.0000 39.9721 0.0000
# 6 0.0000 0.0000 0.0000 -3.7871 0.0000 30.5477
#
#
#
# Elastic Compliance Matrix: (Units=1/GPa)
#
#
# Indices 1 2 3 4 5 6 
#
# 1 0.011213 -0.001970 -0.003181 0.000000 0.002427 0.000000
# 2 -0.001970 0.007012 -0.000973 0.000000 0.001607 0.000000
# 3 -0.003181 -0.000973 0.009947 0.000000 0.000849 0.000000
# 4 0.000000 0.000000 0.000000 0.020870 0.000000 0.002587
# 5 0.002427 0.001607 0.000849 0.000000 0.026626 0.000000
# 6 0.000000 0.000000 0.000000 0.002587 0.000000 0.033057
#
#
# Mechanical properties :
#
#
# Convention : Reuss Voigt Hill
#
# Bulk Modulus (GPa) = 62.79549 67.68018 65.23784
# Shear Modulus (GPa) = 39.59489 42.37994 40.98741
#
# Velocity S-wave (km/s) = 3.80312 3.93460 3.86942
# Velocity P-wave (km/s) = 6.49797 6.73532 6.61771
#
# Compressibility (1/GPa) = 0.01592471
#
# Stress axis : x y z
#
# Youngs Moduli (GPa) = 89.18214 142.61965 100.53335
#
# Poissons Ratio (x) = 0.28096 0.31977
# Poissons Ratio (y) = 0.17569 0.09779
# Poissons Ratio (z) = 0.28366 0.13873
#
# Static dielectric constant tensor:
#      x y z
#    x 2.138000 0.000000 0.074040 
#    y 0.000000 2.191650 0.000000 
#    z 0.074040 0.000000 2.248820 
# 
# From -- ./inp_files/65697.got.cif
#   From: 2010.05.17/outbox.cif.g08.bks.cpg/sg5_33_cif.got.tgz:65697.got - 2010.06.03 18:56:24.
