data_PCOD9123469
_publ_section_title
;
Structure prediction by ZEFSAII (Michael W. Deem and Ramdas Pophale) SiO2 
 PCOD9123469
Probable space group: C 2
;
_chemical_formula_sum "Si O2"
_cell_formula_units_Z 30
_cell_length_a 11.414201
_cell_length_b 18.917114
_cell_length_c 13.729684
_cell_angle_alpha 90.000000
_cell_angle_beta 33.216280
_cell_angle_gamma 90.000000
_cell_volume 1623.991408
_symmetry_space_group_name_H-M "C 2"
_symmetry_group_IT_number 5
_symmetry_cell_setting 'monoclinic'
loop_
_space_group_symop_operation_xyz
x,y,z
-x,y,-z
1/2+x,1/2+y,z
1/2-x,1/2+y,-z
loop_
_atom_site_type_symbol
_atom_site_label
_atom_site_fract_x
_atom_site_fract_y
_atom_site_fract_z
Si Si1 0.626957 0.385640 0.511102
Si Si2 0.350144 0.132608 0.788553
Si Si3 0.566993 0.625827 0.793839
Si Si4 0.768465 0.039473 0.493161
Si Si5 0.983077 0.279241 0.772895
Si Si6 0.500000 0.625715 0.500000
Si Si7 0.797408 0.745510 0.209007
Si Si8 0.929245 0.788770 0.807267
O O1 0.500000 0.400836 0.500000
O O2 0.720836 0.456923 0.492098
O O3 0.473223 0.346780 0.695478
O O4 0.819048 0.331275 0.356444
O O5 0.236734 0.135463 0.762502
O O6 0.534495 0.074492 0.661409
O O7 0.438392 0.210398 0.753711
O O8 0.164289 0.116097 0.995921
O O9 0.633840 0.561853 0.678472
O O10 0.556499 0.698347 0.739327
O O11 0.909767 0.078187 0.476648
O O12 0.872181 0.283046 0.744004
O O13 0.800374 0.294873 0.980303
O O14 0.685506 0.676621 0.330457
O O15 0.891473 0.790641 0.232726
O O16 0.000000 0.726314 0.000000
#
# Coordination Sequence:
#
# PCOD9123469 Si02
#       8
#     4   4   4   4   4   2   4   4
#     4  12  26  41  58  85 123 162 196 236 295 360
#     4  10  21  40  66  91 115 151 200 250 296 342
#     4  10  21  40  66  91 115 151 200 250 296 342
#     4  12  24  39  59  88 123 158 195 238 296 355
#     4  10  21  40  65  90 117 152 199 247 292 345
#     4  12  20  36  62  90 120 150 192 244 294 352
#     4  10  20  38  66  92 114 149 196 250 298 337
#     4  10  21  40  65  90 117 152 199 247 292 345
#
# _framework density 18.473004
#
# number of rings (size 3 to 8) (size 9 to 14) (size 15 to 20)
#    0.000    1.333    3.333    2.800    0.000    2.667 
#    4.800    0.000    0.000    0.000    0.000    0.000 
#    0.000    0.000    0.000    0.000    0.000    0.000 
#
# Total GULP energy -83833.051270 kJ/mol
# GULP energy per Si atom -5588.870085 kJ/mol
# Density = 1.843096 g / cm^3
# Si number density = 18.473004 Si / 1000 Ang^3
#
#
#
# Elastic Constant Matrix: (Units=GPa)
#
#
# Indices 1 2 3 4 5 6 
#
# 1 86.5895 9.7707 16.3382 0.0284 10.7415 -0.0165
# 2 9.7707 56.2642 13.6769 0.0373 12.1474 -0.0110
# 3 16.3382 13.6769 31.5514 0.0425 9.8905 -0.0161
# 4 0.0284 0.0373 0.0425 8.7523 -0.0100 5.8042
# 5 10.7415 12.1474 9.8905 -0.0100 25.7989 0.0078
# 6 -0.0165 -0.0110 -0.0161 5.8042 0.0078 22.0253
#
#
#
# Elastic Compliance Matrix: (Units=1/GPa)
#
#
# Indices 1 2 3 4 5 6 
#
# 1 0.013033 -0.000203 -0.005671 -0.000026 -0.003157 0.000014
# 2 -0.000203 0.021006 -0.006736 -0.000085 -0.007224 0.000030
# 3 -0.005671 -0.006736 0.040709 -0.000217 -0.010074 0.000083
# 4 -0.000026 -0.000085 -0.000217 0.138455 0.000199 -0.036487
# 5 -0.003157 -0.007224 -0.010074 0.000199 0.047339 -0.000082
# 6 0.000014 0.000030 0.000083 -0.036487 -0.000082 0.055018
#
#
# Mechanical properties :
#
#
# Convention : Reuss Voigt Hill
#
# Bulk Modulus (GPa) = 20.19084 28.21963 24.20524
# Shear Modulus (GPa) = 13.99427 20.28990 17.14209
#
# Velocity S-wave (km/s) = 2.75535 3.31774 3.04954
# Velocity P-wave (km/s) = 4.59089 5.47593 5.05283
#
# Compressibility (1/GPa) = 0.04952740
#
# Stress axis : x y z
#
# Youngs Moduli (GPa) = 76.72611 47.60644 24.56455
#
# Poissons Ratio (x) = 0.00967 0.13931
# Poissons Ratio (y) = 0.01559 0.16546
# Poissons Ratio (z) = 0.43514 0.32066
#
# Static dielectric constant tensor:
#      x y z
#    x 1.649590 0.000000 0.007730 
#    y 0.000000 1.587300 0.000000 
#    z 0.007730 0.000000 1.639030 
# 
# From -- ./inp_files/53401.got.cif
#   From: 2010.05.17/outbox.cif.g08.bks.cpg/sg5_27_cif.got.tgz:53401.got - 2010.06.03 18:56:24.
