data_PCOD9123579
_publ_section_title
;
Structure prediction by ZEFSAII (Michael W. Deem and Ramdas Pophale) SiO2 
 PCOD9123579
Probable space group: C 2
;
_chemical_formula_sum "Si O2"
_cell_formula_units_Z 30
_cell_length_a 9.312579
_cell_length_b 9.027697
_cell_length_c 15.997668
_cell_angle_alpha 90.000000
_cell_angle_beta 104.357140
_cell_angle_gamma 90.000000
_cell_volume 1302.938215
_symmetry_space_group_name_H-M "C 2"
_symmetry_group_IT_number 5
_symmetry_cell_setting 'monoclinic'
loop_
_space_group_symop_operation_xyz
x,y,z
-x,y,-z
1/2+x,1/2+y,z
1/2-x,1/2+y,-z
loop_
_atom_site_type_symbol
_atom_site_label
_atom_site_fract_x
_atom_site_fract_y
_atom_site_fract_z
Si Si1 0.822910 0.938080 0.972284
Si Si2 0.850961 0.272441 0.922713
Si Si3 0.697884 0.915603 0.673475
Si Si4 0.546386 0.466428 0.748931
Si Si5 0.500000 0.409365 0.500000
Si Si6 0.028767 0.695209 0.660266
Si Si7 0.584843 0.773945 0.826550
Si Si8 0.202768 0.113344 0.611535
O O1 0.727119 0.827687 0.900154
O O2 0.794326 0.104327 0.932165
O O3 0.758821 0.893018 0.053986
O O4 0.000000 0.914837 0.000000
O O5 0.925279 0.311359 0.844498
O O6 0.000000 0.278142 0.000000
O O7 0.870065 0.937643 0.720574
O O8 0.641495 0.075788 0.643235
O O9 0.611185 0.853915 0.742178
O O10 0.672234 0.788300 0.601497
O O11 0.594753 0.293552 0.746347
O O12 0.578860 0.595171 0.819856
O O13 0.612586 0.546037 0.676256
O O14 0.493730 0.305631 0.579457
O O15 0.642912 0.516770 0.526633
O O16 0.876298 0.610235 0.657900
#
# Coordination Sequence:
#
# PCOD9123579 Si02
#       8
#     4   4   4   4   2   4   4   4
#     4  10  21  40  62  88 120 155 202 252 302 363
#     4   9  20  39  59  83 117 152 194 249 301 360
#     4  10  21  39  62  88 119 160 209 253 299 362
#     4   9  20  40  59  85 124 156 198 250 298 358
#     4  10  22  36  58  90 126 162 198 248 310 358
#     4  10  22  39  61  91 122 159 207 252 297 359
#     4  10  20  39  62  85 121 163 197 248 315 361
#     4   9  21  39  59  85 120 159 199 247 299 356
#
# _framework density 23.024882999999999
#
# number of rings (size 3 to 8) (size 9 to 14) (size 15 to 20)
#    0.000    2.400    0.000    0.800    0.000   10.667 
#    0.000   32.000    0.000    0.000    0.000    0.000 
#    0.000    0.000    0.000    0.000    0.000    0.000 
#
# Total GULP energy -83617.247929 kJ/mol
# GULP energy per Si atom -5574.483195 kJ/mol
# Density = 2.297248 g / cm^3
# Si number density = 23.024883 Si / 1000 Ang^3
#
#
#
# Elastic Constant Matrix: (Units=GPa)
#
#
# Indices 1 2 3 4 5 6 
#
# 1 108.4570 62.4578 22.7225 0.0000 -10.9795 0.0000
# 2 62.4578 121.6037 22.6885 0.0000 6.6341 0.0000
# 3 22.7225 22.6885 39.7643 0.0000 -8.1619 0.0000
# 4 0.0000 0.0000 0.0000 43.0633 0.0000 4.4980
# 5 -10.9795 6.6341 -8.1619 0.0000 27.3034 0.0000
# 6 0.0000 0.0000 0.0000 4.4980 0.0000 38.0866
#
#
#
# Elastic Compliance Matrix: (Units=1/GPa)
#
#
# Indices 1 2 3 4 5 6 
#
# 1 0.014802 -0.007463 -0.002777 0.000000 0.006935 0.000000
# 2 -0.007463 0.013407 -0.004975 0.000000 -0.007746 0.000000
# 3 -0.002777 -0.004975 0.031527 0.000000 0.009517 0.000000
# 4 0.000000 0.000000 0.000000 0.023512 0.000000 -0.002777
# 5 0.006935 -0.007746 0.009517 0.000000 0.044141 0.000000
# 6 0.000000 0.000000 0.000000 -0.002777 0.000000 0.026584
#
#
# Mechanical properties :
#
#
# Convention : Reuss Voigt Hill
#
# Bulk Modulus (GPa) = 34.12182 53.95141 44.03661
# Shear Modulus (GPa) = 25.75051 32.48774 29.11912
#
# Velocity S-wave (km/s) = 3.34784 3.76038 3.56009
# Velocity P-wave (km/s) = 5.45855 6.50666 6.00551
#
# Compressibility (1/GPa) = 0.02930676
#
# Stress axis : x y z
#
# Youngs Moduli (GPa) = 67.56003 74.58633 31.71884
#
# Poissons Ratio (x) = 0.55662 0.08807
# Poissons Ratio (y) = 0.50418 0.15781
# Poissons Ratio (z) = 0.18758 0.37109
#
# Static dielectric constant tensor:
#      x y z
#    x 1.854970 0.000000 -0.015800 
#    y 0.000000 1.890500 0.000000 
#    z -0.015800 0.000000 2.012590 
# 
# From -- ./inp_files/64325.got.cif
#   From: 2010.05.17/outbox.cif.g08.bks.cpg/sg5_33_cif.got.tgz:64325.got - 2010.06.03 18:56:24.
