data_PCOD9123267
_publ_section_title
;
Structure prediction by ZEFSAII (Michael W. Deem and Ramdas Pophale) SiO2 
 PCOD9123267
Probable space group: C 2
;
_chemical_formula_sum "Si O2"
_cell_formula_units_Z 22
_cell_length_a 7.285718
_cell_length_b 29.192493
_cell_length_c 8.847138
_cell_angle_alpha 90.000000
_cell_angle_beta 33.348829
_cell_angle_gamma 90.000000
_cell_volume 1034.426566
_symmetry_space_group_name_H-M "C 2"
_symmetry_group_IT_number 5
_symmetry_cell_setting 'monoclinic'
loop_
_space_group_symop_operation_xyz
x,y,z
-x,y,-z
1/2+x,1/2+y,z
1/2-x,1/2+y,-z
loop_
_atom_site_type_symbol
_atom_site_label
_atom_site_fract_x
_atom_site_fract_y
_atom_site_fract_z
Si Si1 0.711502 0.532220 0.008496
Si Si2 0.712351 0.091146 0.509471
Si Si3 0.500000 0.390094 0.500000
Si Si4 0.580810 0.251724 0.115578
Si Si5 0.500000 0.826033 0.000000
Si Si6 0.317792 0.692692 0.393120
Si Si7 0.500000 0.954786 0.000000
O O1 0.469125 0.549921 0.306702
O O2 0.500000 0.524497 0.000000
O O3 0.955105 0.575074 0.811905
O O4 0.912221 0.487710 0.920463
O O5 0.500000 0.093119 0.500000
O O6 0.863639 0.141337 0.422620
O O7 0.186204 0.354745 0.737875
O O8 0.338382 0.425541 0.734150
O O9 0.727081 0.293842 0.109081
O O10 0.859861 0.211774 0.912950
O O11 0.500000 0.265243 0.000000
O O12 0.278786 0.228812 0.412230
O O13 0.000000 0.692559 0.500000
#
# Coordination Sequence:
#
# PCOD9123267 Si02
#       7
#     4   4   2   4   2   4   2
#     4  10  20  38  59  85 119 163 195 244 300 355
#     4   9  19  34  57  84 122 165 210 238 281 350
#     4  10  24  42  68  90 114 150 200 268 304 402
#     4  12  24  40  63  93 123 165 209 254 310 373
#     4  11  22  46  66  84 122 160 200 250 340 355
#     4  11  20  39  61  88 128 175 212 252 297 350
#     4  11  22  42  62  92 118 148 204 250 324 359
#
# _framework density 21.267824000000001
#
# number of rings (size 3 to 8) (size 9 to 14) (size 15 to 20)
#    0.000    1.455    1.818    3.818    0.000    2.909 
#    9.818    5.455    0.000    0.000    0.000    0.000 
#    0.000    0.000    0.000    0.000    0.000    0.000 
#
# Total GULP energy -61312.603828 kJ/mol
# GULP energy per Si atom -5573.873075 kJ/mol
# Density = 2.121942 g / cm^3
# Si number density = 21.267824 Si / 1000 Ang^3
#
#
#
# Elastic Constant Matrix: (Units=GPa)
#
#
# Indices 1 2 3 4 5 6 
#
# 1 82.8408 18.9959 -1.6202 0.0000 8.5256 0.0000
# 2 18.9959 102.5388 15.6129 0.0000 -0.8227 0.0000
# 3 -1.6202 15.6129 86.1929 0.0000 -5.2328 0.0000
# 4 0.0000 0.0000 0.0000 -583.4671 0.0000 -253.3314
# 5 8.5256 -0.8227 -5.2328 0.0000 22.5676 0.0000
# 6 0.0000 0.0000 0.0000 -253.3314 0.0000 -116.8474
#
#
#
# Elastic Compliance Matrix: (Units=1/GPa)
#
#
# Indices 1 2 3 4 5 6 
#
# 1 0.013174 -0.002542 0.000406 0.000000 -0.004975 0.000000
# 2 -0.002542 0.010520 -0.001898 0.000000 0.000904 0.000000
# 3 0.000406 -0.001898 0.012110 0.000000 0.002585 0.000000
# 4 0.000000 0.000000 0.000000 -0.029213 0.000000 0.063336
# 5 -0.004975 0.000904 0.002585 0.000000 0.046823 0.000000
# 6 0.000000 0.000000 0.000000 0.063336 0.000000 -0.145873
#
#
# Mechanical properties :
#
#
# Convention : Reuss Voigt Hill
#
# Bulk Modulus (GPa) = 36.05559 37.50553 36.78056
# Shear Modulus (GPa) = -66.53866 -119.64379 -93.09122
#
# Velocity S-wave (km/s) = -5.59946 -7.50852 -6.62314
# Velocity P-wave (km/s) = 4.98151 7.58270 6.41532
#
# Compressibility (1/GPa) = 0.02773495
#
# Stress axis : x y z
#
# Youngs Moduli (GPa) = 75.90521 95.05963 82.57393
#
# Poissons Ratio (x) = 0.24168 -0.03353
# Poissons Ratio (y) = 0.19298 0.15676
# Poissons Ratio (z) = -0.03083 0.18047
#
# Static dielectric constant tensor:
#      x y z
#    x 2.045330 0.000000 0.310620 
#    y 0.000000 1.764780 0.000000 
#    z 0.310620 0.000000 2.149370 
# 
# From -- ./inp_files/17627.got.cif
#   From: 2010.05.17/outbox.cif.g08.bks.cpg/sg5_9_cif.got.tgz:17627.got - 2010.06.03 18:56:24.
