data_PCOD9123834
_publ_section_title
;
Structure prediction by ZEFSAII (Michael W. Deem and Ramdas Pophale) SiO2 
 PCOD9123834
Probable space group: C 2
;
_chemical_formula_sum "Si O2"
_cell_formula_units_Z 20
_cell_length_a 6.379590
_cell_length_b 12.989173
_cell_length_c 12.412213
_cell_angle_alpha 90.000000
_cell_angle_beta 75.372450
_cell_angle_gamma 90.000000
_cell_volume 995.208090
_symmetry_space_group_name_H-M "C 2"
_symmetry_group_IT_number 5
_symmetry_cell_setting 'monoclinic'
loop_
_space_group_symop_operation_xyz
x,y,z
-x,y,-z
1/2+x,1/2+y,z
1/2-x,1/2+y,-z
loop_
_atom_site_type_symbol
_atom_site_label
_atom_site_fract_x
_atom_site_fract_y
_atom_site_fract_z
Si Si1 0.500000 0.832541 0.500000
Si Si2 0.205113 0.677003 0.403557
Si Si3 0.428212 0.932568 0.896341
Si Si4 0.727800 0.470314 0.702989
Si Si5 0.139949 0.805959 0.201978
Si Si6 0.000000 0.799806 0.000000
O O1 0.341006 0.757961 0.454817
O O2 0.369906 0.902330 0.602076
O O3 0.332273 0.576411 0.347502
O O4 0.126614 0.735722 0.307559
O O5 0.000000 0.642208 0.500000
O O6 0.366642 0.990987 0.794148
O O7 0.618645 0.851113 0.843858
O O8 0.500000 0.985839 0.000000
O O9 0.210205 0.870256 0.952738
O O10 0.518433 0.403496 0.761108
O O11 0.058051 0.746931 0.105273
#
# Coordination Sequence:
#
# PCOD9123834 Si02
#       6
#     2   4   4   4   4   2
#     4  12  24  40  60  88 128 166 208 258 298 356
#     4  12  25  39  63  93 123 168 212 244 308 367
#     4   9  18  38  68  90 122 163 198 256 316 358
#     4  11  23  40  63  90 126 164 207 255 304 360
#     4  10  20  40  65  90 127 161 203 259 305 361
#     4   8  18  36  68  92 118 164 200 252 320 360
#
# _framework density 20.096298999999998
#
# number of rings (size 3 to 8) (size 9 to 14) (size 15 to 20)
#    0.000    1.600    5.000    0.000    0.000    3.200 
#    1.800    0.000   35.200    0.000    0.000    0.000 
#    0.000    0.000    0.000    0.000    0.000    0.000 
#
# Total GULP energy -55774.673063 kJ/mol
# GULP energy per Si atom -5577.467306 kJ/mol
# Density = 2.005056 g / cm^3
# Si number density = 20.096299 Si / 1000 Ang^3
#
#
#
# Elastic Constant Matrix: (Units=GPa)
#
#
# Indices 1 2 3 4 5 6 
#
# 1 88.1854 13.9292 40.3569 0.0000 -5.8675 0.0000
# 2 13.9292 65.5226 32.7854 0.0000 10.9003 0.0000
# 3 40.3569 32.7854 138.7890 0.0000 21.1187 0.0000
# 4 0.0000 0.0000 0.0000 5.7943 0.0000 -1.3922
# 5 -5.8675 10.9003 21.1187 0.0000 42.7227 0.0000
# 6 0.0000 0.0000 0.0000 -1.3922 0.0000 14.5298
#
#
#
# Elastic Compliance Matrix: (Units=1/GPa)
#
#
# Indices 1 2 3 4 5 6 
#
# 1 0.013865 -0.001509 -0.004351 0.000000 0.004440 0.000000
# 2 -0.001509 0.017741 -0.003278 0.000000 -0.003113 0.000000
# 3 -0.004351 -0.003278 0.009957 0.000000 -0.004683 0.000000
# 4 0.000000 0.000000 0.000000 0.176649 0.000000 0.016926
# 5 0.004440 -0.003113 -0.004683 0.000000 0.027126 0.000000
# 6 0.000000 0.000000 0.000000 0.016926 0.000000 0.070446
#
#
# Mechanical properties :
#
#
# Convention : Reuss Voigt Hill
#
# Bulk Modulus (GPa) = 42.94289 51.84887 47.39588
# Shear Modulus (GPa) = 14.62751 26.30439 20.46595
#
# Velocity S-wave (km/s) = 2.70083 3.62182 3.19469
# Velocity P-wave (km/s) = 5.58041 6.58379 6.10276
#
# Compressibility (1/GPa) = 0.02328674
#
# Stress axis : x y z
#
# Youngs Moduli (GPa) = 72.12661 56.36654 100.42906
#
# Poissons Ratio (x) = 0.08506 0.43693
# Poissons Ratio (y) = 0.10885 0.32924
# Poissons Ratio (z) = 0.31379 0.18479
#
# Static dielectric constant tensor:
#      x y z
#    x 1.691890 0.000000 0.035020 
#    y 0.000000 1.650660 0.000000 
#    z 0.035020 0.000000 1.753480 
# 
# From -- ./inp_files/33088.got.cif
#   From: 2010.05.17/outbox.cif.g08.bks.cpg/sg5_17_cif.got.tgz:33088.got - 2010.06.03 18:56:24.
