data_PCOD9123596
_publ_section_title
;
Structure prediction by ZEFSAII (Michael W. Deem and Ramdas Pophale) SiO2 
 PCOD9123596
Probable space group: C 2
;
_chemical_formula_sum "Si O2"
_cell_formula_units_Z 28
_cell_length_a 32.427888
_cell_length_b 8.457284
_cell_length_c 6.943885
_cell_angle_alpha 90.000000
_cell_angle_beta 132.917988
_cell_angle_gamma 90.000000
_cell_volume 1394.628129
_symmetry_space_group_name_H-M "C 2"
_symmetry_group_IT_number 5
_symmetry_cell_setting 'monoclinic'
loop_
_space_group_symop_operation_xyz
x,y,z
-x,y,-z
1/2+x,1/2+y,z
1/2-x,1/2+y,-z
loop_
_atom_site_type_symbol
_atom_site_label
_atom_site_fract_x
_atom_site_fract_y
_atom_site_fract_z
Si Si1 0.829721 0.493550 0.097970
Si Si2 0.561596 0.207110 0.634494
Si Si3 0.250883 0.029689 0.199791
Si Si4 0.557188 0.458855 0.292494
Si Si5 0.367226 0.641502 0.204790
Si Si6 0.378510 0.450144 0.890181
Si Si7 0.250294 0.343096 0.460141
O O1 0.885039 0.591719 0.218326
O O2 0.794585 0.559143 0.167555
O O3 0.850198 0.316144 0.206942
O O4 0.786035 0.465020 0.784324
O O5 0.500000 0.142256 0.500000
O O6 0.554330 0.299377 0.409098
O O7 0.581313 0.334193 0.858512
O O8 0.247655 0.176651 0.339946
O O9 0.268069 0.873883 0.376577
O O10 0.186213 0.025775 0.917821
O O11 0.577582 0.589234 0.507735
O O12 0.601972 0.456547 0.264676
O O13 0.500000 0.491948 0.000000
O O14 0.377650 0.612779 0.010122
O O15 0.315513 0.386114 0.683016
#
# Coordination Sequence:
#
# PCOD9123596 Si02
#       7
#     4   4   4   4   4   4   4
#     4  11  23  40  61  93 131 161 196 257 315 369
#     4  11  23  41  61  94 123 162 210 257 304 357
#     4  10  21  38  61  91 127 158 205 243 310 372
#     4  11  21  40  66  84 113 165 212 253 295 365
#     4   9  23  38  59  93 121 159 200 256 306 364
#     4  10  20  39  63  88 120 156 213 249 293 369
#     4  10  21  37  62  92 120 167 196 252 305 362
#
# _framework density 20.077037000000001
#
# number of rings (size 3 to 8) (size 9 to 14) (size 15 to 20)
#    0.000    1.714    1.429    2.571    0.000   11.429 
#    2.571    0.714    0.000    0.000    0.000    0.000 
#    0.000    0.000    0.000    0.000    0.000    0.000 
#
# Total GULP energy -78077.996196 kJ/mol
# GULP energy per Si atom -5576.999728 kJ/mol
# Density = 2.003134 g / cm^3
# Si number density = 20.077037 Si / 1000 Ang^3
#
#
#
# Elastic Constant Matrix: (Units=GPa)
#
#
# Indices 1 2 3 4 5 6 
#
# 1 84.5974 10.8516 13.7608 0.0000 -6.6056 0.0000
# 2 10.8516 48.6109 21.7880 0.0000 -0.3830 0.0000
# 3 13.7608 21.7880 107.7662 0.0000 13.3458 0.0000
# 4 0.0000 0.0000 0.0000 22.6122 0.0000 3.1971
# 5 -6.6056 -0.3830 13.3458 0.0000 35.8400 0.0000
# 6 0.0000 0.0000 0.0000 3.1971 0.0000 25.1293
#
#
#
# Elastic Compliance Matrix: (Units=1/GPa)
#
#
# Indices 1 2 3 4 5 6 
#
# 1 0.012563 -0.002094 -0.001536 0.000000 0.002865 0.000000
# 2 -0.002094 0.023113 -0.004601 0.000000 0.001574 0.000000
# 3 -0.001536 -0.004601 0.010952 0.000000 -0.004410 0.000000
# 4 0.000000 0.000000 0.000000 0.045034 0.000000 -0.005730
# 5 0.002865 0.001574 -0.004410 0.000000 0.030089 0.000000
# 6 0.000000 0.000000 0.000000 -0.005730 0.000000 0.040523
#
#
# Mechanical properties :
#
#
# Convention : Reuss Voigt Hill
#
# Bulk Modulus (GPa) = 33.14759 37.08615 35.11687
# Shear Modulus (GPa) = 26.48449 29.68791 28.08620
#
# Velocity S-wave (km/s) = 3.63594 3.84956 3.74427
# Velocity P-wave (km/s) = 5.84575 6.18634 6.01846
#
# Compressibility (1/GPa) = 0.03016810
#
# Stress axis : x y z
#
# Youngs Moduli (GPa) = 79.60044 43.26504 91.30946
#
# Poissons Ratio (x) = 0.09058 0.14022
# Poissons Ratio (y) = 0.16665 0.42008
# Poissons Ratio (z) = 0.12224 0.19905
#
# Static dielectric constant tensor:
#      x y z
#    x 1.795380 0.000000 -0.013320 
#    y 0.000000 1.749970 0.000000 
#    z -0.013320 0.000000 1.722320 
# 
# From -- ./inp_files/11279.got.cif
#   From: 2010.05.17/outbox.cif.g08.bks.cpg/sg5_6_cif.got.tgz:11279.got - 2010.06.03 18:56:24.
