data_PCOD9123629
_publ_section_title
;
Structure prediction by ZEFSAII (Michael W. Deem and Ramdas Pophale) SiO2 
 PCOD9123629
Probable space group: C 2
;
_chemical_formula_sum "Si O2"
_cell_formula_units_Z 28
_cell_length_a 8.367947
_cell_length_b 11.785757
_cell_length_c 12.385586
_cell_angle_alpha 90.000000
_cell_angle_beta 108.847199
_cell_angle_gamma 90.000000
_cell_volume 1156.006047
_symmetry_space_group_name_H-M "C 2"
_symmetry_group_IT_number 5
_symmetry_cell_setting 'monoclinic'
loop_
_space_group_symop_operation_xyz
x,y,z
-x,y,-z
1/2+x,1/2+y,z
1/2-x,1/2+y,-z
loop_
_atom_site_type_symbol
_atom_site_label
_atom_site_fract_x
_atom_site_fract_y
_atom_site_fract_z
Si Si1 0.010673 0.196920 0.371582
Si Si2 0.477438 0.380333 0.612963
Si Si3 0.788841 0.995605 0.212174
Si Si4 0.726868 0.358019 0.230789
Si Si5 0.396152 0.147333 0.392484
Si Si6 0.682200 0.531299 0.023293
Si Si7 0.976258 0.641956 0.169150
O O1 0.907283 0.090444 0.296661
O O2 0.909037 0.303199 0.297183
O O3 0.000000 0.202259 0.500000
O O4 0.206973 0.180448 0.384816
O O5 0.500000 0.435175 0.500000
O O6 0.659348 0.386417 0.709837
O O7 0.339322 0.415913 0.671034
O O8 0.458170 0.247265 0.586807
O O9 0.601559 0.037669 0.179355
O O10 0.827774 0.976238 0.096440
O O11 0.715624 0.437695 0.123477
O O12 0.590482 0.254496 0.186722
O O13 0.500000 0.068630 0.500000
O O14 0.391792 0.116513 0.266483
O O15 0.824719 0.627941 0.052564
O O16 0.500000 0.585885 0.000000
#
# Coordination Sequence:
#
# PCOD9123629 Si02
#       7
#     4   4   4   4   4   4   4
#     4  11  22  42  71 101 135 182 236 290 372 429
#     4  10  20  39  64  94 135 170 221 288 353 415
#     4  11  23  41  66  95 130 179 228 290 352 419
#     4  10  24  44  69 102 137 185 228 300 359 428
#     4  10  21  40  65  97 137 174 225 289 354 433
#     4  12  24  44  68  96 140 178 242 291 347 437
#     4  10  24  45  65  96 137 184 235 287 360 424
#
# _framework density 24.221325
#
# number of rings (size 3 to 8) (size 9 to 14) (size 15 to 20)
#    0.000    1.429    1.429    5.143    2.000    2.286 
#    0.000    0.000    0.000    0.000    0.000    0.000 
#    0.000    0.000    0.000    0.000    0.000    0.000 
#
# Total GULP energy -78101.526582 kJ/mol
# GULP energy per Si atom -5578.680470 kJ/mol
# Density = 2.416620 g / cm^3
# Si number density = 24.221325 Si / 1000 Ang^3
#
#
#
# Elastic Constant Matrix: (Units=GPa)
#
#
# Indices 1 2 3 4 5 6 
#
# 1 156.5079 19.4459 48.4626 0.0000 13.9728 0.0000
# 2 19.4459 39.6729 23.3188 0.0000 8.7060 0.0000
# 3 48.4626 23.3188 160.2697 0.0000 -7.7000 0.0000
# 4 0.0000 0.0000 0.0000 27.1060 0.0000 -0.1771
# 5 13.9728 8.7060 -7.7000 0.0000 56.3896 0.0000
# 6 0.0000 0.0000 0.0000 -0.1771 0.0000 25.0183
#
#
#
# Elastic Compliance Matrix: (Units=1/GPa)
#
#
# Indices 1 2 3 4 5 6 
#
# 1 0.007436 -0.002052 -0.002037 0.000000 -0.001804 0.000000
# 2 -0.002052 0.029504 -0.003892 0.000000 -0.004578 0.000000
# 3 -0.002037 -0.003892 0.007524 0.000000 0.002133 0.000000
# 4 0.000000 0.000000 0.000000 0.036894 0.000000 0.000261
# 5 -0.001804 -0.004578 0.002133 0.000000 0.019179 0.000000
# 6 0.000000 0.000000 0.000000 0.000261 0.000000 0.039973
#
#
# Mechanical properties :
#
#
# Convention : Reuss Voigt Hill
#
# Bulk Modulus (GPa) = 35.08421 59.87835 47.48128
# Shear Modulus (GPa) = 30.12546 39.38432 34.75489
#
# Velocity S-wave (km/s) = 3.53052 4.03677 3.79210
# Velocity P-wave (km/s) = 5.57994 6.81926 6.23049
#
# Compressibility (1/GPa) = 0.02850285
#
# Stress axis : x y z
#
# Youngs Moduli (GPa) = 134.47912 33.89334 132.90580
#
# Poissons Ratio (x) = 0.06955 0.27068
# Poissons Ratio (y) = 0.27594 0.51731
# Poissons Ratio (z) = 0.27389 0.13192
#
# Static dielectric constant tensor:
#      x y z
#    x 1.915360 0.000000 -0.015330 
#    y 0.000000 2.071230 0.000000 
#    z -0.015330 0.000000 2.054630 
# 
# From -- ./inp_files/36181.got.cif
#   From: 2010.05.17/outbox.cif.g08.bks.cpg/sg5_19_cif.got.tgz:36181.got - 2010.06.03 18:56:24.
