data_PCOD9123617
_publ_section_title
;
Structure prediction by ZEFSAII (Michael W. Deem and Ramdas Pophale) SiO2 
 PCOD9123617
Probable space group: C 2
;
_chemical_formula_sum "Si O2"
_cell_formula_units_Z 18
_cell_length_a 5.569381
_cell_length_b 16.056571
_cell_length_c 9.318951
_cell_angle_alpha 90.000000
_cell_angle_beta 59.891745
_cell_angle_gamma 90.000000
_cell_volume 720.912588
_symmetry_space_group_name_H-M "C 2"
_symmetry_group_IT_number 5
_symmetry_cell_setting 'monoclinic'
loop_
_space_group_symop_operation_xyz
x,y,z
-x,y,-z
1/2+x,1/2+y,z
1/2-x,1/2+y,-z
loop_
_atom_site_type_symbol
_atom_site_label
_atom_site_fract_x
_atom_site_fract_y
_atom_site_fract_z
Si Si1 0.312633 0.906620 0.427554
Si Si2 0.355098 0.096733 0.365350
Si Si3 0.000000 0.277121 0.000000
Si Si4 0.579420 0.651522 0.718663
Si Si5 0.292053 0.929978 0.958034
O O1 0.500000 0.872382 0.500000
O O2 0.516054 0.904380 0.231518
O O3 0.000000 0.872939 0.500000
O O4 0.276835 0.007063 0.455661
O O5 0.240403 0.163205 0.517177
O O6 0.686722 0.099875 0.263696
O O7 0.202871 0.112605 0.260678
O O8 0.017983 0.223996 0.849896
O O9 0.744835 0.342673 0.057966
O O10 0.500000 0.979500 0.000000
O O11 0.000000 0.965538 0.000000
#
# Coordination Sequence:
#
# PCOD9123617 Si02
#       5
#     4   4   2   4   4
#     4  12  21  43  70  95 133 162 222 269 321 389
#     4  10  20  40  61  98 117 162 205 271 321 375
#     4  10  26  44  60  90 134 174 220 254 314 390
#     4  10  20  39  64  86 130 157 210 258 321 375
#     4  10  25  46  62  93 134 177 216 264 319 379
#
# _framework density 24.968354000000001
#
# number of rings (size 3 to 8) (size 9 to 14) (size 15 to 20)
#    0.667    0.889    4.444    1.333    3.111    0.000 
#   14.000    0.000    0.000    0.000    0.000    0.000 
#    0.000    0.000    0.000    0.000    0.000    0.000 
#
# Total GULP energy -50105.852682 kJ/mol
# GULP energy per Si atom -5567.316965 kJ/mol
# Density = 2.491153 g / cm^3
# Si number density = 24.968354 Si / 1000 Ang^3
#
#
#
# Elastic Constant Matrix: (Units=GPa)
#
#
# Indices 1 2 3 4 5 6 
#
# 1 304.0203 20.1327 64.1279 0.0000 6.6951 0.0000
# 2 20.1327 51.3624 21.6343 0.0000 -1.5212 0.0000
# 3 64.1279 21.6343 123.3223 0.0000 8.8607 0.0000
# 4 0.0000 0.0000 0.0000 11.9503 0.0000 2.7210
# 5 6.6951 -1.5212 8.8607 0.0000 28.4908 0.0000
# 6 0.0000 0.0000 0.0000 2.7210 0.0000 108.8735
#
#
#
# Elastic Compliance Matrix: (Units=1/GPa)
#
#
# Indices 1 2 3 4 5 6 
#
# 1 0.003721 -0.000718 -0.001783 0.000000 -0.000358 0.000000
# 2 -0.000718 0.021313 -0.003538 0.000000 0.002407 0.000000
# 3 -0.001783 -0.003538 0.009861 0.000000 -0.002837 0.000000
# 4 0.000000 0.000000 0.000000 0.084159 0.000000 -0.002103
# 5 -0.000358 0.002407 -0.002837 0.000000 0.036194 0.000000
# 6 0.000000 0.000000 0.000000 -0.002103 0.000000 0.009238
#
#
# Mechanical properties :
#
#
# Convention : Reuss Voigt Hill
#
# Bulk Modulus (GPa) = 43.83094 76.72164 60.27629
# Shear Modulus (GPa) = 27.14907 54.71694 40.93301
#
# Velocity S-wave (km/s) = 3.30106 4.68637 4.05334
# Velocity P-wave (km/s) = 5.66763 7.75094 6.78966
#
# Compressibility (1/GPa) = 0.02281493
#
# Stress axis : x y z
#
# Youngs Moduli (GPa) = 268.75866 46.92048 101.41346
#
# Poissons Ratio (x) = 0.03369 0.18083
# Poissons Ratio (y) = 0.19297 0.35885
# Poissons Ratio (z) = 0.47923 0.16603
#
# Static dielectric constant tensor:
#      x y z
#    x 2.042690 0.000000 0.046150 
#    y 0.000000 2.024760 0.000000 
#    z 0.046150 0.000000 1.928610 
# 
# From -- ./inp_files/12218.got.cif
#   From: 2010.05.17/outbox.cif.g08.bks.cpg/sg5_7_cif.got.tgz:12218.got - 2010.06.03 18:56:24.
