data_PCOD9123873
_publ_section_title
;
Structure prediction by ZEFSAII (Michael W. Deem and Ramdas Pophale) SiO2 
 PCOD9123873
Probable space group: C 2
;
_chemical_formula_sum "Si O2"
_cell_formula_units_Z 24
_cell_length_a 9.779160
_cell_length_b 16.427625
_cell_length_c 9.695546
_cell_angle_alpha 90.000000
_cell_angle_beta 133.456962
_cell_angle_gamma 90.000000
_cell_volume 1130.629079
_symmetry_space_group_name_H-M "C 2"
_symmetry_group_IT_number 5
_symmetry_cell_setting 'monoclinic'
loop_
_space_group_symop_operation_xyz
x,y,z
-x,y,-z
1/2+x,1/2+y,z
1/2-x,1/2+y,-z
loop_
_atom_site_type_symbol
_atom_site_label
_atom_site_fract_x
_atom_site_fract_y
_atom_site_fract_z
Si Si1 0.144034 0.021300 0.978650
Si Si2 0.794906 0.838320 0.328768
Si Si3 0.691040 0.710909 0.042880
Si Si4 0.624300 0.563584 0.450083
Si Si5 0.534575 0.986451 0.165654
Si Si6 0.547218 0.748121 0.372179
O O1 0.225984 0.114187 0.054481
O O2 0.005764 0.020103 0.752158
O O3 0.000000 0.001526 0.000000
O O4 0.332125 0.968771 0.092014
O O5 0.653356 0.910021 0.192056
O O6 0.697655 0.805263 0.401174
O O7 0.000000 0.872315 0.500000
O O8 0.818044 0.769275 0.226020
O O9 0.638543 0.745250 0.855251
O O10 0.500000 0.715422 0.000000
O O11 0.500000 0.563728 0.500000
O O12 0.827104 0.527757 0.627707
O O13 0.635969 0.658042 0.417297
O O14 0.500000 0.037651 0.000000
O O15 0.500000 0.764123 0.500000
#
# Coordination Sequence:
#
# PCOD9123873 Si02
#       6
#     4   4   4   4   4   4
#     4  10  22  41  66  97 129 162 216 276 322 376
#     4  11  24  41  65  93 131 177 223 258 317 396
#     4   8  17  39  64  91 122 168 216 260 314 389
#     4  10  20  40  66  98 127 170 217 264 320 394
#     4  12  24  40  67  95 132 175 216 259 329 391
#     4   9  19  39  64  91 128 163 217 273 320 376
#
# _framework density 21.227119999999999
#
# number of rings (size 3 to 8) (size 9 to 14) (size 15 to 20)
#    0.000    2.000    1.667    3.000    2.333    0.667 
#    3.000    0.833    0.000    0.000    0.000    0.000 
#    0.000    0.000    0.000    0.000    0.000    0.000 
#
# Total GULP energy -66909.446386 kJ/mol
# GULP energy per Si atom -5575.787199 kJ/mol
# Density = 2.117881 g / cm^3
# Si number density = 21.227120 Si / 1000 Ang^3
#
#
#
# Elastic Constant Matrix: (Units=GPa)
#
#
# Indices 1 2 3 4 5 6 
#
# 1 93.8348 11.5436 49.1795 0.0000 11.1052 0.0000
# 2 11.5436 41.5209 25.6022 0.0000 8.8588 0.0000
# 3 49.1795 25.6022 121.9210 0.0000 9.4357 0.0000
# 4 0.0000 0.0000 0.0000 27.9862 0.0000 -2.1206
# 5 11.1052 8.8588 9.4357 0.0000 42.6226 0.0000
# 6 0.0000 0.0000 0.0000 -2.1206 0.0000 30.2496
#
#
#
# Elastic Compliance Matrix: (Units=1/GPa)
#
#
# Indices 1 2 3 4 5 6 
#
# 1 0.013750 -0.000007 -0.005360 0.000000 -0.002395 0.000000
# 2 -0.000007 0.028559 -0.005631 0.000000 -0.004687 0.000000
# 3 -0.005360 -0.005631 0.011546 0.000000 0.000011 0.000000
# 4 0.000000 0.000000 0.000000 0.035923 0.000000 0.002518
# 5 -0.002395 -0.004687 0.000011 0.000000 0.025057 0.000000
# 6 0.000000 0.000000 0.000000 0.002518 0.000000 0.033235
#
#
# Mechanical properties :
#
#
# Convention : Reuss Voigt Hill
#
# Bulk Modulus (GPa) = 31.38905 47.76971 39.57938
# Shear Modulus (GPa) = 27.67239 31.56843 29.62041
#
# Velocity S-wave (km/s) = 3.61450 3.86057 3.73956
# Velocity P-wave (km/s) = 5.67793 6.51345 6.10999
#
# Compressibility (1/GPa) = 0.03185824
#
# Stress axis : x y z
#
# Youngs Moduli (GPa) = 72.72535 35.01567 86.61243
#
# Poissons Ratio (x) = 0.00025 0.46422
# Poissons Ratio (y) = 0.00052 0.48775
# Poissons Ratio (z) = 0.38979 0.19719
#
# Static dielectric constant tensor:
#      x y z
#    x 1.719690 0.000000 0.011100 
#    y 0.000000 1.879770 0.000000 
#    z 0.011100 0.000000 1.675870 
# 
# From -- ./inp_files/16862.got.cif
#   From: 2010.05.17/outbox.cif.g08.bks.cpg/sg5_9_cif.got.tgz:16862.got - 2010.06.03 18:56:24.
