data_PCOD9123067
_publ_section_title
;
Structure prediction by ZEFSAII (Michael W. Deem and Ramdas Pophale) SiO2 
 PCOD9123067
Probable space group: C 2
;
_chemical_formula_sum "Si O2"
_cell_formula_units_Z 20
_cell_length_a 17.523055
_cell_length_b 9.284660
_cell_length_c 11.199658
_cell_angle_alpha 90.000000
_cell_angle_beta 31.660998
_cell_angle_gamma 90.000000
_cell_volume 956.424847
_symmetry_space_group_name_H-M "C 2"
_symmetry_group_IT_number 5
_symmetry_cell_setting 'monoclinic'
loop_
_space_group_symop_operation_xyz
x,y,z
-x,y,-z
1/2+x,1/2+y,z
1/2-x,1/2+y,-z
loop_
_atom_site_type_symbol
_atom_site_label
_atom_site_fract_x
_atom_site_fract_y
_atom_site_fract_z
Si Si1 0.445380 0.663940 0.708489
Si Si2 0.782202 0.305269 0.237371
Si Si3 0.835709 0.852723 0.850424
Si Si4 0.914627 0.342080 0.297933
Si Si5 0.943216 0.587470 0.449788
O O1 0.500000 0.024572 0.500000
O O2 0.420127 0.713231 0.386610
O O3 0.440699 0.816251 0.971221
O O4 0.382751 0.508967 0.833685
O O5 0.813587 0.280966 0.901400
O O6 0.788175 0.351759 0.367567
O O7 0.719703 0.144567 0.316453
O O8 0.814326 0.881073 0.736039
O O9 0.000000 0.161891 0.500000
O O10 0.956057 0.728043 0.707277
O O11 0.939687 0.482980 0.343291
#
# Coordination Sequence:
#
# PCOD9123067 Si02
#       5
#     4   4   4   4   4
#     4  11  22  37  61  88 114 148 193 238 281 334
#     4   9  20  37  57  83 117 150 184 232 286 335
#     4  10  21  38  60  85 115 151 193 234 281 341
#     4  10  21  37  59  85 116 151 190 235 285 338
#     4  10  20  37  61  86 114 152 192 234 283 337
#
# _framework density 20.911211000000002
#
# number of rings (size 3 to 8) (size 9 to 14) (size 15 to 20)
#    0.000    2.000    0.000    4.800    0.000    6.400 
#    0.000    1.000    0.000   19.200    0.000    0.000 
#    0.000    0.000    0.000    0.000    0.000    0.000 
#
# Total GULP energy -55716.157480 kJ/mol
# GULP energy per Si atom -5571.615748 kJ/mol
# Density = 2.086362 g / cm^3
# Si number density = 20.911211 Si / 1000 Ang^3
#
#
#
# Elastic Constant Matrix: (Units=GPa)
#
#
# Indices 1 2 3 4 5 6 
#
# 1 133.9504 58.6214 26.3837 0.0000 36.1982 0.0000
# 2 58.6214 105.3139 35.0159 0.0000 11.8458 0.0000
# 3 26.3837 35.0159 77.1730 0.0000 17.2042 0.0000
# 4 0.0000 0.0000 0.0000 49.4763 0.0000 11.1781
# 5 36.1982 11.8458 17.2042 0.0000 30.9025 0.0000
# 6 0.0000 0.0000 0.0000 11.1781 0.0000 16.5390
#
#
#
# Elastic Compliance Matrix: (Units=1/GPa)
#
#
# Indices 1 2 3 4 5 6 
#
# 1 0.014085 -0.006680 0.001510 0.000000 -0.014779 0.000000
# 2 -0.006680 0.014427 -0.005450 0.000000 0.005329 0.000000
# 3 0.001510 -0.005450 0.016946 0.000000 -0.009114 0.000000
# 4 0.000000 0.000000 0.000000 0.023854 0.000000 -0.016122
# 5 -0.014779 0.005329 -0.009114 0.000000 0.052703 0.000000
# 6 0.000000 0.000000 0.000000 -0.016122 0.000000 0.071360
#
#
# Mechanical properties :
#
#
# Convention : Reuss Voigt Hill
#
# Bulk Modulus (GPa) = 41.29087 61.83103 51.56095
# Shear Modulus (GPa) = 22.45297 32.47798 27.46547
#
# Velocity S-wave (km/s) = 3.28033 3.94526 3.62806
# Velocity P-wave (km/s) = 5.84261 7.09831 6.50085
#
# Compressibility (1/GPa) = 0.02421843
#
# Stress axis : x y z
#
# Youngs Moduli (GPa) = 70.99579 69.31686 59.01000
#
# Poissons Ratio (x) = 0.46305 -0.08912
# Poissons Ratio (y) = 0.47426 0.32160
# Poissons Ratio (z) = -0.10723 0.37777
#
# Static dielectric constant tensor:
#      x y z
#    x 1.841330 0.000000 -0.009550 
#    y 0.000000 1.782750 0.000000 
#    z -0.009550 0.000000 1.793970 
# 
# From -- ./inp_files/22998.got.cif
#   From: 2010.05.17/outbox.cif.g08.bks.cpg/sg5_12_cif.got.tgz:22998.got - 2010.06.03 18:56:24.
