data_PCOD9123169
_publ_section_title
;
Structure prediction by ZEFSAII (Michael W. Deem and Ramdas Pophale) SiO2 
 PCOD9123169
Probable space group: C 2
;
_chemical_formula_sum "Si O2"
_cell_formula_units_Z 32
_cell_length_a 13.742249
_cell_length_b 10.024145
_cell_length_c 18.378939
_cell_angle_alpha 90.000000
_cell_angle_beta 34.531995
_cell_angle_gamma 90.000000
_cell_volume 1435.179663
_symmetry_space_group_name_H-M "C 2"
_symmetry_group_IT_number 5
_symmetry_cell_setting 'monoclinic'
loop_
_space_group_symop_operation_xyz
x,y,z
-x,y,-z
1/2+x,1/2+y,z
1/2-x,1/2+y,-z
loop_
_atom_site_type_symbol
_atom_site_label
_atom_site_fract_x
_atom_site_fract_y
_atom_site_fract_z
Si Si1 0.817259 0.940490 0.617762
Si Si2 0.139537 0.676495 0.508582
Si Si3 0.451234 0.973245 0.818728
Si Si4 0.331618 0.014852 0.053561
Si Si5 0.444043 0.896370 0.610131
Si Si6 0.819101 0.021530 0.143942
Si Si7 0.517906 0.708847 0.275461
Si Si8 0.685073 0.298990 0.231288
O O1 0.842769 0.797781 0.560699
O O2 0.790150 0.904474 0.718698
O O3 0.000000 0.012137 0.500000
O O4 0.651576 0.014091 0.687620
O O5 0.337274 0.633189 0.393647
O O6 0.038648 0.540504 0.553990
O O7 0.012162 0.747865 0.645373
O O8 0.322524 0.012455 0.833499
O O9 0.467661 0.812187 0.801022
O O10 0.382019 0.022728 0.938212
O O11 0.184880 0.118466 0.167597
O O12 0.248000 0.870056 0.120259
O O13 0.500000 0.029846 0.000000
O O14 0.500000 0.835280 0.500000
O O15 0.491031 0.802926 0.648159
O O16 0.245821 0.932799 0.748765
O O17 0.808723 0.175167 0.172947
O O18 0.000000 0.981459 0.000000
#
# Coordination Sequence:
#
# PCOD9123169 Si02
#       8
#     4   4   4   4   4   4   4   4
#     4   9  17  36  65  97 125 169 214 284 335 389
#     4   9  19  38  67  94 125 162 221 280 332 383
#     4  10  23  42  63  95 132 179 225 272 337 408
#     4  12  25  42  64  95 139 183 224 271 342 414
#     4  10  21  43  66  93 127 168 221 272 338 401
#     4  10  22  39  66  98 131 174 228 282 329 401
#     4  10  25  42  63  95 137 171 220 282 333 407
#     4  10  20  37  64  95 124 166 225 276 323 397
#
# _framework density 22.296859999999999
#
# number of rings (size 3 to 8) (size 9 to 14) (size 15 to 20)
#    0.000    2.000    1.250    2.250    3.500    4.000 
#    2.250    5.625    0.000    0.000    0.000    0.000 
#    0.000    0.000    0.000    0.000    0.000    0.000 
#
# Total GULP energy -89232.602098 kJ/mol
# GULP energy per Si atom -5577.037631 kJ/mol
# Density = 2.224611 g / cm^3
# Si number density = 22.296860 Si / 1000 Ang^3
#
#
#
# Elastic Constant Matrix: (Units=GPa)
#
#
# Indices 1 2 3 4 5 6 
#
# 1 74.6840 10.1450 64.6364 -0.0001 -12.7543 0.0000
# 2 10.1450 33.1028 25.1867 -0.0002 -7.8593 0.0001
# 3 64.6364 25.1867 167.6663 -0.0003 -21.4049 0.0002
# 4 -0.0001 -0.0002 -0.0003 23.5482 0.0001 -0.4225
# 5 -12.7543 -7.8593 -21.4049 0.0001 45.7684 -0.0001
# 6 0.0000 0.0001 0.0002 -0.4225 -0.0001 6.5911
#
#
#
# Elastic Compliance Matrix: (Units=1/GPa)
#
#
# Indices 1 2 3 4 5 6 
#
# 1 0.020286 0.000036 -0.007554 0.000000 0.002126 0.000000
# 2 0.000036 0.034700 -0.004748 0.000000 0.003748 0.000000
# 3 -0.007554 -0.004748 0.009802 0.000000 0.001664 0.000000
# 4 0.000000 0.000000 0.000000 0.042515 0.000000 0.002725
# 5 0.002126 0.003748 0.001664 0.000000 0.023863 0.000000
# 6 0.000000 0.000000 0.000000 0.002725 0.000000 0.151894
#
#
# Mechanical properties :
#
#
# Convention : Reuss Voigt Hill
#
# Bulk Modulus (GPa) = 24.84152 52.82103 38.83127
# Shear Modulus (GPa) = 15.57575 26.88055 21.22815
#
# Velocity S-wave (km/s) = 2.64590 3.47591 3.08891
# Velocity P-wave (km/s) = 4.52767 6.31273 5.49320
#
# Compressibility (1/GPa) = 0.04025519
#
# Stress axis : x y z
#
# Youngs Moduli (GPa) = 49.29517 28.81817 102.01940
#
# Poissons Ratio (x) = -0.00102 0.77068
# Poissons Ratio (y) = -0.00175 0.48437
# Poissons Ratio (z) = 0.37239 0.13682
#
# Static dielectric constant tensor:
#      x y z
#    x 1.887180 0.000000 -0.010980 
#    y 0.000000 1.841620 0.000000 
#    z -0.010980 0.000000 1.851230 
# 
# From -- ./inp_files/61699.got.cif
#   From: 2010.05.17/outbox.cif.g08.bks.cpg/sg5_31_cif.got.tgz:61699.got - 2010.06.03 18:56:24.
