data_PCOD9123365
_publ_section_title
;
Structure prediction by ZEFSAII (Michael W. Deem and Ramdas Pophale) SiO2 
 PCOD9123365
Probable space group: C 2
;
_chemical_formula_sum "Si O2"
_cell_formula_units_Z 32
_cell_length_a 8.965790
_cell_length_b 15.906452
_cell_length_c 9.621330
_cell_angle_alpha 90.000000
_cell_angle_beta 99.361541
_cell_angle_gamma 90.000000
_cell_volume 1353.860783
_symmetry_space_group_name_H-M "C 2"
_symmetry_group_IT_number 5
_symmetry_cell_setting 'monoclinic'
loop_
_space_group_symop_operation_xyz
x,y,z
-x,y,-z
1/2+x,1/2+y,z
1/2-x,1/2+y,-z
loop_
_atom_site_type_symbol
_atom_site_label
_atom_site_fract_x
_atom_site_fract_y
_atom_site_fract_z
Si Si1 0.901184 0.983890 0.666913
Si Si2 0.284875 0.757422 0.730319
Si Si3 0.821073 0.669395 0.001575
Si Si4 0.560779 0.056942 0.353867
Si Si5 0.821102 0.149066 0.488857
Si Si6 0.300209 0.998562 0.111680
Si Si7 0.300265 0.422858 0.383151
Si Si8 0.404498 0.804578 0.122808
O O1 0.844107 0.910367 0.552707
O O2 0.077714 0.985937 0.664524
O O3 0.829634 0.065445 0.585581
O O4 0.847186 0.984440 0.815176
O O5 0.232795 0.700672 0.851509
O O6 0.248366 0.717700 0.577013
O O7 0.197527 0.844765 0.718434
O O8 0.463539 0.781569 0.748998
O O9 0.777699 0.569150 0.988501
O O10 0.730688 0.737318 0.893439
O O11 0.000000 0.677239 0.000000
O O12 0.500000 0.071542 0.500000
O O13 0.696757 0.124231 0.353739
O O14 0.428011 0.046315 0.223364
O O15 0.639110 0.965854 0.360757
O O16 0.000000 0.168188 0.500000
O O17 0.355751 0.902326 0.098223
O O18 0.500000 0.785358 0.000000
#
# Coordination Sequence:
#
# PCOD9123365 Si02
#       8
#     4   4   4   4   4   4   4   4
#     4  10  20  39  62  96 134 175 214 252 338 428
#     4  11  23  43  66  97 137 181 214 288 344 387
#     4  11  26  47  64  98 136 172 246 299 330 396
#     4  11  19  35  64  98 131 172 217 259 333 432
#     4  11  21  38  61  98 142 169 214 266 329 429
#     4  12  22  43  74  92 132 184 224 287 354 394
#     4  10  20  38  62  97 142 165 213 264 326 424
#     4  10  25  46  68  94 128 173 240 291 338 397
#
# _framework density 23.636108
#
# number of rings (size 3 to 8) (size 9 to 14) (size 15 to 20)
#    0.000    1.250    7.500    0.375    1.750    2.500 
#    6.750    1.875    0.000    0.000    0.000    0.000 
#    0.000    0.000    0.000    0.000    0.000    0.000 
#
# Total GULP energy -89134.254047 kJ/mol
# GULP energy per Si atom -5570.890878 kJ/mol
# Density = 2.358231 g / cm^3
# Si number density = 23.636108 Si / 1000 Ang^3
#
#
#
# Elastic Constant Matrix: (Units=GPa)
#
#
# Indices 1 2 3 4 5 6 
#
# 1 112.6418 45.2898 15.7065 0.0000 -16.1754 0.0000
# 2 45.2898 123.4553 26.0099 0.0000 3.9577 0.0000
# 3 15.7065 26.0099 28.7479 0.0000 -1.1320 0.0000
# 4 0.0000 0.0000 0.0000 24.1735 0.0000 -9.1586
# 5 -16.1754 3.9577 -1.1320 0.0000 26.5486 0.0000
# 6 0.0000 0.0000 0.0000 -9.1586 0.0000 23.5099
#
#
#
# Elastic Compliance Matrix: (Units=1/GPa)
#
#
# Indices 1 2 3 4 5 6 
#
# 1 0.012012 -0.004126 -0.002521 0.000000 0.007826 0.000000
# 2 -0.004126 0.011520 -0.008349 0.000000 -0.004587 0.000000
# 3 -0.002521 -0.008349 0.043779 0.000000 0.001575 0.000000
# 4 0.000000 0.000000 0.000000 0.048530 0.000000 0.018906
# 5 0.007826 -0.004587 0.001575 0.000000 0.043186 0.000000
# 6 0.000000 0.000000 0.000000 0.018906 0.000000 0.049900
#
#
# Mechanical properties :
#
#
# Convention : Reuss Voigt Hill
#
# Bulk Modulus (GPa) = 26.79720 48.76195 37.77958
# Shear Modulus (GPa) = 19.89179 26.70232 23.29706
#
# Velocity S-wave (km/s) = 2.90416 3.36479 3.14292
# Velocity P-wave (km/s) = 4.75474 5.98087 5.40270
#
# Compressibility (1/GPa) = 0.03731733
#
# Stress axis : x y z
#
# Youngs Moduli (GPa) = 83.24840 86.80626 22.84224
#
# Poissons Ratio (x) = 0.35820 0.05759
# Poissons Ratio (y) = 0.34352 0.19071
# Poissons Ratio (z) = 0.20990 0.72474
#
# Static dielectric constant tensor:
#      x y z
#    x 1.946470 0.000000 0.084770 
#    y 0.000000 1.913340 0.000000 
#    z 0.084770 0.000000 2.033360 
# 
# From -- ./inp_files/36420.got.cif
#   From: 2010.05.17/outbox.cif.g08.bks.cpg/sg5_19_cif.got.tgz:36420.got - 2010.06.03 18:56:24.
