data_PCOD9123461
_publ_section_title
;
Structure prediction by ZEFSAII (Michael W. Deem and Ramdas Pophale) SiO2 
 PCOD9123461
Probable space group: C 2
;
_chemical_formula_sum "Si O2"
_cell_formula_units_Z 32
_cell_length_a 14.489608
_cell_length_b 21.607414
_cell_length_c 8.766040
_cell_angle_alpha 90.000000
_cell_angle_beta 31.336259
_cell_angle_gamma 90.000000
_cell_volume 1427.302788
_symmetry_space_group_name_H-M "C 2"
_symmetry_group_IT_number 5
_symmetry_cell_setting 'monoclinic'
loop_
_space_group_symop_operation_xyz
x,y,z
-x,y,-z
1/2+x,1/2+y,z
1/2-x,1/2+y,-z
loop_
_atom_site_type_symbol
_atom_site_label
_atom_site_fract_x
_atom_site_fract_y
_atom_site_fract_z
Si Si1 0.012213 0.850750 0.812479
Si Si2 0.810442 0.283513 0.842773
Si Si3 0.174542 0.322425 0.852152
Si Si4 0.988074 0.569945 0.335015
Si Si5 0.824311 0.664381 0.143940
Si Si6 0.381860 0.612478 0.290671
Si Si7 0.705503 0.962786 0.926994
Si Si8 0.470154 0.486503 0.298969
O O1 0.156567 0.819364 0.498351
O O2 0.057118 0.923425 0.755435
O O3 0.000000 0.825420 0.000000
O O4 0.822124 0.839583 0.006342
O O5 0.726489 0.224378 0.879560
O O6 0.000000 0.295484 0.500000
O O7 0.818554 0.277364 0.013236
O O8 0.172283 0.391853 0.928013
O O9 0.000000 0.313687 0.000000
O O10 0.000000 0.577690 0.500000
O O11 0.800883 0.591684 0.531730
O O12 0.132950 0.610740 0.038765
O O13 0.032958 0.499310 0.225873
O O14 0.669255 0.647348 0.482101
O O15 0.000000 0.672732 0.000000
O O16 0.488196 0.550151 0.185044
O O17 0.500000 0.648177 0.000000
O O18 0.794458 0.992738 0.651056
O O19 0.859092 0.973018 0.836364
#
# Coordination Sequence:
#
# PCOD9123461 Si02
#       8
#     4   4   4   4   4   4   4   4
#     4  11  23  43  68 102 142 184 242 291 359 427
#     4  12  26  47  71 102 140 190 249 304 356 425
#     4  11  25  44  71 102 142 189 241 300 365 429
#     4  11  24  41  67 106 144 190 236 291 359 429
#     4  10  25  49  75 101 140 190 244 306 360 424
#     4  11  23  43  70 106 146 182 240 290 361 432
#     4  10  21  38  64 100 145 184 228 283 357 428
#     4  10  20  38  66 100 142 188 222 289 350 426
#
# _framework density 22.419910000000002
#
# number of rings (size 3 to 8) (size 9 to 14) (size 15 to 20)
#    0.000    1.250    2.500    2.625    3.500    3.500 
#    2.250    5.625    0.000    0.000    0.000    0.000 
#    0.000    0.000    0.000    0.000    0.000    0.000 
#
# Total GULP energy -89515.047049 kJ/mol
# GULP energy per Si atom -5594.690441 kJ/mol
# Density = 2.236888 g / cm^3
# Si number density = 22.419910 Si / 1000 Ang^3
#
#
#
# Elastic Constant Matrix: (Units=GPa)
#
#
# Indices 1 2 3 4 5 6 
#
# 1 130.1008 31.4136 47.5787 0.0015 34.4818 -0.0001
# 2 31.4136 72.1603 36.4310 0.0014 19.2248 -0.0001
# 3 47.5787 36.4310 138.2413 0.0025 34.0205 -0.0002
# 4 0.0015 0.0014 0.0025 -83.0852 -0.0020 14.1996
# 5 34.4818 19.2248 34.0205 -0.0020 41.1179 0.0002
# 6 -0.0001 -0.0001 -0.0002 14.1996 0.0002 33.7033
#
#
#
# Elastic Compliance Matrix: (Units=1/GPa)
#
#
# Indices 1 2 3 4 5 6 
#
# 1 0.010464 -0.002070 -0.001425 0.000000 -0.006629 0.000000
# 2 -0.002070 0.017260 -0.002860 0.000000 -0.003968 0.000000
# 3 -0.001425 -0.002860 0.009863 0.000000 -0.005629 0.000000
# 4 0.000000 0.000000 0.000000 -0.011227 -0.000001 0.004730
# 5 -0.006629 -0.003968 -0.005629 -0.000001 0.036392 0.000000
# 6 0.000000 0.000000 0.000000 0.004730 0.000000 0.027678
#
#
# Mechanical properties :
#
#
# Convention : Reuss Voigt Hill
#
# Bulk Modulus (GPa) = 40.19564 63.48322 51.83943
# Shear Modulus (GPa) = 44.87115 13.35247 29.11181
#
# Velocity S-wave (km/s) = 4.47855 2.44306 3.60735
# Velocity P-wave (km/s) = 6.68661 6.02786 6.36576
#
# Compressibility (1/GPa) = 0.02487832
#
# Stress axis : x y z
#
# Youngs Moduli (GPa) = 95.56559 57.93715 101.39083
#
# Poissons Ratio (x) = 0.11993 0.14444
# Poissons Ratio (y) = 0.19783 0.28994
# Poissons Ratio (z) = 0.13614 0.16568
#
# Static dielectric constant tensor:
#      x y z
#    x 1.971610 0.000000 0.112170 
#    y 0.000000 1.834740 0.000000 
#    z 0.112170 0.000000 1.885710 
# 
# From -- ./inp_files/25625.got.cif
#   From: 2010.05.17/outbox.cif.g08.bks.cpg/sg5_13_cif.got.tgz:25625.got - 2010.06.03 18:56:24.
