data_PCOD9123168
_publ_section_title
;
Structure prediction by ZEFSAII (Michael W. Deem and Ramdas Pophale) SiO2 
 PCOD9123168
Probable space group: C 2
;
_chemical_formula_sum "Si O2"
_cell_formula_units_Z 20
_cell_length_a 23.896336
_cell_length_b 4.850816
_cell_length_c 16.298172
_cell_angle_alpha 90.000000
_cell_angle_beta 24.289399
_cell_angle_gamma 90.000000
_cell_volume 777.127001
_symmetry_space_group_name_H-M "C 2"
_symmetry_group_IT_number 5
_symmetry_cell_setting 'monoclinic'
loop_
_space_group_symop_operation_xyz
x,y,z
-x,y,-z
1/2+x,1/2+y,z
1/2-x,1/2+y,-z
loop_
_atom_site_type_symbol
_atom_site_label
_atom_site_fract_x
_atom_site_fract_y
_atom_site_fract_z
Si Si1 0.662710 0.186300 0.096416
Si Si2 0.935295 0.002546 0.501875
Si Si3 0.898823 0.314818 0.215060
Si Si4 0.773849 0.515374 0.672438
Si Si5 0.973430 0.821022 0.891157
O O1 0.546980 0.324975 0.305679
O O2 0.793085 0.385612 0.933400
O O3 0.604676 0.204160 0.082447
O O4 0.818966 0.768383 0.671343
O O5 0.000000 0.101988 0.500000
O O6 0.880923 0.267843 0.526151
O O7 0.762491 0.177932 0.362223
O O8 0.000000 0.309795 0.000000
O O9 0.908063 0.621511 0.235240
O O10 0.960578 0.121246 0.203228
O O11 0.641795 0.363215 0.885419
#
# Coordination Sequence:
#
# PCOD9123168 Si02
#       5
#     4   4   4   4   4
#     4  12  25  43  64  92 127 168 211 260 316 377
#     4  12  24  41  64  95 128 166 209 261 317 372
#     4  10  20  37  64  94 123 162 208 252 303 370
#     4  11  22  40  65  94 127 165 210 260 308 369
#     4  11  21  39  65  93 124 165 209 253 304 370
#
# _framework density 25.735817999999998
#
# number of rings (size 3 to 8) (size 9 to 14) (size 15 to 20)
#    0.000    0.800    0.000   10.800    0.000    0.000 
#    0.000    4.000    0.000    4.800    0.000    0.000 
#    0.000    0.000    0.000    0.000    0.000    0.000 
#
# Total GULP energy -56024.922230 kJ/mol
# GULP energy per Si atom -5602.492223 kJ/mol
# Density = 2.567724 g / cm^3
# Si number density = 25.735818 Si / 1000 Ang^3
#
#
#
# Elastic Constant Matrix: (Units=GPa)
#
#
# Indices 1 2 3 4 5 6 
#
# 1 119.8239 23.4725 6.9507 0.0042 -7.9443 -0.0135
# 2 23.4725 132.7211 14.9372 -0.0126 -12.2075 -0.0008
# 3 6.9507 14.9372 52.2094 -0.0042 -5.0533 -0.0050
# 4 0.0042 -0.0126 -0.0042 27.7799 0.0004 -23.5133
# 5 -7.9443 -12.2075 -5.0533 0.0004 28.6220 0.0040
# 6 -0.0135 -0.0008 -0.0050 -23.5133 0.0040 48.6793
#
#
#
# Elastic Compliance Matrix: (Units=1/GPa)
#
#
# Indices 1 2 3 4 5 6 
#
# 1 0.008756 -0.001317 -0.000619 0.000000 0.001759 0.000002
# 2 -0.001317 0.008241 -0.001910 0.000005 0.002812 0.000002
# 3 -0.000619 -0.001910 0.020029 0.000006 0.002550 0.000005
# 4 0.000000 0.000005 0.000006 0.060893 -0.000002 0.029413
# 5 0.001759 0.002812 0.002550 -0.000002 0.037076 -0.000003
# 6 0.000002 0.000002 0.000005 0.029413 -0.000003 0.034750
#
#
# Mechanical properties :
#
#
# Convention : Reuss Voigt Hill
#
# Bulk Modulus (GPa) = 34.08944 43.94170 39.01557
# Shear Modulus (GPa) = 26.70723 38.30917 32.50820
#
# Velocity S-wave (km/s) = 3.22490 3.86236 3.55794
# Velocity P-wave (km/s) = 5.20973 6.08290 5.66317
#
# Compressibility (1/GPa) = 0.02933460
#
# Stress axis : x y z
#
# Youngs Moduli (GPa) = 114.20585 121.34183 49.92682
#
# Poissons Ratio (x) = 0.15982 0.03088
# Poissons Ratio (y) = 0.15042 0.09537
# Poissons Ratio (z) = 0.07065 0.23180
#
# Static dielectric constant tensor:
#      x y z
#    x 2.029930 0.000000 -0.047700 
#    y 0.000000 1.944700 0.000020 
#    z -0.047700 0.000020 2.102470 
# 
# From -- ./inp_files/56451.got.cif
#   From: 2010.05.17/outbox.cif.g08.bks.cpg/sg5_29_cif.got.tgz:56451.got - 2010.06.03 18:56:24.
