data_PCOD9123993
_publ_section_title
;
Structure prediction by ZEFSAII (Michael W. Deem and Ramdas Pophale) SiO2 
 PCOD9123993
Probable space group: C 2
;
_chemical_formula_sum "Si O2"
_cell_formula_units_Z 28
_cell_length_a 24.021284
_cell_length_b 5.284432
_cell_length_c 25.345337
_cell_angle_alpha 90.000000
_cell_angle_beta 157.549408
_cell_angle_gamma 90.000000
_cell_volume 1228.646705
_symmetry_space_group_name_H-M "C 2"
_symmetry_group_IT_number 5
_symmetry_cell_setting 'monoclinic'
loop_
_space_group_symop_operation_xyz
x,y,z
-x,y,-z
1/2+x,1/2+y,z
1/2-x,1/2+y,-z
loop_
_atom_site_type_symbol
_atom_site_label
_atom_site_fract_x
_atom_site_fract_y
_atom_site_fract_z
Si Si1 0.973425 0.378440 0.323117
Si Si2 0.294799 0.268913 0.463732
Si Si3 0.335629 0.246175 0.062949
Si Si4 0.830856 0.006199 0.948800
Si Si5 0.859048 0.484447 0.912776
Si Si6 0.970245 0.993113 0.411450
Si Si7 0.560285 0.530299 0.315343
O O1 0.841394 0.569428 0.201292
O O2 0.126135 0.509820 0.451072
O O3 0.946140 0.184809 0.251500
O O4 0.971936 0.252562 0.379335
O O5 0.392250 0.349735 0.497794
O O6 0.328487 0.464345 0.540051
O O7 0.127085 0.192298 0.325595
O O8 0.482692 0.282718 0.225328
O O9 0.277287 0.959721 0.012741
O O10 0.373434 0.371403 0.039980
O O11 0.895573 0.273675 0.989244
O O12 0.847686 0.774404 0.922461
O O13 0.700619 0.412006 0.747746
O O14 0.000000 0.472218 0.000000
O O15 0.000000 0.008393 0.500000
#
# Coordination Sequence:
#
# PCOD9123993 Si02
#       7
#     4   4   4   4   4   4   4
#     4  10  20  41  62  88 129 171 210 261 330 399
#     4  11  21  40  65  93 131 171 215 266 334 398
#     4  12  25  40  65 100 138 174 221 268 325 401
#     4  11  22  43  66  94 127 176 211 264 335 395
#     4  11  24  45  69  92 127 171 225 276 335 393
#     4  10  24  42  64  92 124 172 221 276 326 390
#     4  11  23  37  65  99 132 175 216 268 329 407
#
# _framework density 22.789304000000001
#
# number of rings (size 3 to 8) (size 9 to 14) (size 15 to 20)
#    0.000    1.143    4.286    2.143    2.000    1.714 
#    2.571    0.000    0.000    0.000    0.000    0.000 
#    0.000    0.000    0.000    0.000    0.000    0.000 
#
# Total GULP energy -77951.121505 kJ/mol
# GULP energy per Si atom -5567.937250 kJ/mol
# Density = 2.273743 g / cm^3
# Si number density = 22.789304 Si / 1000 Ang^3
#
#
#
# Elastic Constant Matrix: (Units=GPa)
#
#
# Indices 1 2 3 4 5 6 
#
# 1 155.0300 16.6401 46.5177 -0.0013 9.7739 -0.0035
# 2 16.6401 68.7225 5.3562 -0.0121 8.2725 -0.0201
# 3 46.5177 5.3562 44.6913 -0.0014 0.7264 -0.0046
# 4 -0.0013 -0.0121 -0.0014 26.7936 -0.0001 5.5739
# 5 9.7739 8.2725 0.7264 -0.0001 29.2292 -0.0016
# 6 -0.0035 -0.0201 -0.0046 5.5739 -0.0016 27.7561
#
#
#
# Elastic Compliance Matrix: (Units=1/GPa)
#
#
# Indices 1 2 3 4 5 6 
#
# 1 0.009735 -0.001264 -0.009939 0.000000 -0.002651 -0.000001
# 2 -0.001264 0.015364 -0.000463 0.000005 -0.003914 0.000010
# 3 -0.009939 -0.000463 0.032733 0.000000 0.002641 0.000004
# 4 0.000000 0.000005 0.000000 0.038949 -0.000002 -0.007822
# 5 -0.002651 -0.003914 0.002641 -0.000002 0.036141 0.000000
# 6 -0.000001 0.000010 0.000004 -0.007822 0.000000 0.037599
#
#
# Mechanical properties :
#
#
# Convention : Reuss Voigt Hill
#
# Bulk Modulus (GPa) = 28.98282 45.05244 37.01763
# Shear Modulus (GPa) = 24.34837 30.08443 27.21640
#
# Velocity S-wave (km/s) = 3.27220 3.63728 3.45956
# Velocity P-wave (km/s) = 5.19825 6.11978 5.67774
#
# Compressibility (1/GPa) = 0.03450320
#
# Stress axis : x y z
#
# Youngs Moduli (GPa) = 102.71980 65.08518 30.55029
#
# Poissons Ratio (x) = 0.08224 0.30363
# Poissons Ratio (y) = 0.12979 0.01413
# Poissons Ratio (z) = 1.02088 0.03011
#
# Static dielectric constant tensor:
#      x y z
#    x 1.903990 0.000000 0.057090 
#    y 0.000000 1.897270 0.000010 
#    z 0.057090 0.000010 1.974380 
# 
# From -- ./inp_files/69348.got.cif
#   From: 2010.05.17/outbox.cif.g08.bks.cpg/sg5_35_cif.got.tgz:69348.got - 2010.06.03 18:56:24.
