data_PCOD9123140
_publ_section_title
;
Structure prediction by ZEFSAII (Michael W. Deem and Ramdas Pophale) SiO2 
 PCOD9123140
Probable space group: C 2
;
_chemical_formula_sum "Si O2"
_cell_formula_units_Z 30
_cell_length_a 14.789112
_cell_length_b 9.372104
_cell_length_c 26.820701
_cell_angle_alpha 90.000000
_cell_angle_beta 23.405206
_cell_angle_gamma 90.000000
_cell_volume 1476.701647
_symmetry_space_group_name_H-M "C 2"
_symmetry_group_IT_number 5
_symmetry_cell_setting 'monoclinic'
loop_
_space_group_symop_operation_xyz
x,y,z
-x,y,-z
1/2+x,1/2+y,z
1/2-x,1/2+y,-z
loop_
_atom_site_type_symbol
_atom_site_label
_atom_site_fract_x
_atom_site_fract_y
_atom_site_fract_z
Si Si1 0.927955 0.963910 0.888086
Si Si2 0.388408 0.761389 0.244409
Si Si3 0.670965 0.430466 0.262209
Si Si4 0.500000 0.111996 0.500000
Si Si5 0.156556 0.801976 0.167318
Si Si6 0.377795 0.028150 0.861312
Si Si7 0.716336 0.858888 0.449841
Si Si8 0.727494 0.712063 0.285800
O O1 0.806702 0.881272 0.903629
O O2 0.140944 0.859612 0.792828
O O3 0.993346 0.117624 0.833699
O O4 0.779199 0.994104 0.011853
O O5 0.297870 0.845547 0.241574
O O6 0.186572 0.710028 0.380977
O O7 0.542264 0.873603 0.196575
O O8 0.759754 0.379648 0.163233
O O9 0.403373 0.386024 0.398076
O O10 0.687569 0.600165 0.261221
O O11 0.604833 0.006055 0.488273
O O12 0.225619 0.637656 0.126040
O O13 0.884927 0.811823 0.319435
O O14 0.596899 0.119356 0.769543
O O15 0.513496 0.752737 0.567092
#
# Coordination Sequence:
#
# PCOD9123140 Si02
#       8
#     4   4   4   2   4   4   4   4
#     4  11  20  39  64  84 123 165 215 251 293 368
#     4  11  21  37  58  95 119 158 205 254 309 366
#     4   9  23  37  61  95 123 156 201 258 326 366
#     4  12  20  36  60  88 122 160 198 248 306 372
#     4   9  20  41  63  86 121 164 200 258 313 365
#     4  10  22  37  60  90 120 164 214 253 295 365
#     4  10  20  37  63  91 121 156 201 253 320 373
#     4  10  20  38  62  92 120 164 204 251 319 370
#
# _framework density 20.315545
#
# number of rings (size 3 to 8) (size 9 to 14) (size 15 to 20)
#    0.800    1.067    2.667    2.400    1.867    2.133 
#    0.000    8.667    0.000    3.200    0.000    0.000 
#    0.000    0.000    0.000    0.000    0.000    0.000 
#
# Total GULP energy -83588.183978 kJ/mol
# GULP energy per Si atom -5572.545599 kJ/mol
# Density = 2.026931 g / cm^3
# Si number density = 20.315545 Si / 1000 Ang^3
#
#
#
# Elastic Constant Matrix: (Units=GPa)
#
#
# Indices 1 2 3 4 5 6 
#
# 1 34.0034 19.4974 2.6805 -0.0034 2.7620 0.0012
# 2 19.4974 151.3182 39.8277 -0.0007 11.8123 -0.0039
# 3 2.6805 39.8277 85.4057 -0.0061 9.2889 -0.0238
# 4 -0.0034 -0.0007 -0.0061 53.6985 -0.0036 -0.6592
# 5 2.7620 11.8123 9.2889 -0.0036 31.3667 0.0023
# 6 0.0012 -0.0039 -0.0238 -0.6592 0.0023 49.9639
#
#
#
# Elastic Compliance Matrix: (Units=1/GPa)
#
#
# Indices 1 2 3 4 5 6 
#
# 1 0.031907 -0.004299 0.001171 0.000002 -0.001537 0.000000
# 2 -0.004299 0.008219 -0.003515 -0.000001 -0.001675 -0.000001
# 3 0.001171 -0.003515 0.013617 0.000001 -0.002812 0.000006
# 4 0.000002 -0.000001 0.000001 0.018625 0.000002 0.000246
# 5 -0.001537 -0.001675 -0.002812 0.000002 0.033480 -0.000003
# 6 0.000000 -0.000001 0.000006 0.000246 -0.000003 0.020018
#
#
# Mechanical properties :
#
#
# Convention : Reuss Voigt Hill
#
# Bulk Modulus (GPa) = 24.71921 43.85980 34.28951
# Shear Modulus (GPa) = 32.75710 40.92060 36.83885
#
# Velocity S-wave (km/s) = 4.01985 4.49291 4.26294
# Velocity P-wave (km/s) = 5.80858 6.96786 6.41446
#
# Compressibility (1/GPa) = 0.04045437
#
# Stress axis : x y z
#
# Youngs Moduli (GPa) = 31.34145 121.67469 73.43602
#
# Poissons Ratio (x) = 0.52312 -0.08597
# Poissons Ratio (y) = 0.13475 0.25816
# Poissons Ratio (z) = -0.03669 0.42775
#
# Static dielectric constant tensor:
#      x y z
#    x 1.768660 0.000000 -0.030400 
#    y 0.000000 1.723410 0.000000 
#    z -0.030400 0.000000 1.692540 
# 
# From -- ./inp_files/72115.got.cif
#   From: 2010.05.17/outbox.cif.g08.bks.cpg/sg5_37_cif.got.tgz:72115.got - 2010.06.03 18:56:24.
