data_PCOD9123105
_publ_section_title
;
Structure prediction by ZEFSAII (Michael W. Deem and Ramdas Pophale) SiO2 
 PCOD9123105
Probable space group: C 2
;
_chemical_formula_sum "Si O2"
_cell_formula_units_Z 32
_cell_length_a 8.240223
_cell_length_b 16.541491
_cell_length_c 12.034787
_cell_angle_alpha 90.000000
_cell_angle_beta 96.115071
_cell_angle_gamma 90.000000
_cell_volume 1631.074564
_symmetry_space_group_name_H-M "C 2"
_symmetry_group_IT_number 5
_symmetry_cell_setting 'monoclinic'
loop_
_space_group_symop_operation_xyz
x,y,z
-x,y,-z
1/2+x,1/2+y,z
1/2-x,1/2+y,-z
loop_
_atom_site_type_symbol
_atom_site_label
_atom_site_fract_x
_atom_site_fract_y
_atom_site_fract_z
Si Si1 0.860935 0.528850 0.855010
Si Si2 0.781044 0.177484 0.787192
Si Si3 0.859265 0.080593 0.357971
Si Si4 0.883760 0.248958 0.258204
Si Si5 0.735101 0.559259 0.411689
Si Si6 0.676631 0.512713 0.066881
Si Si7 0.373311 0.932366 0.260529
Si Si8 0.963831 0.713636 0.873161
O O1 0.710383 0.546618 0.761685
O O2 0.948482 0.615853 0.868746
O O3 0.975820 0.465742 0.800814
O O4 0.801053 0.505869 0.972719
O O5 0.740603 0.138636 0.663394
O O6 0.807153 0.100625 0.872024
O O7 0.625676 0.229846 0.813045
O O8 0.952127 0.224984 0.796759
O O9 0.874334 0.177680 0.348282
O O10 0.743411 0.065362 0.454863
O O11 0.039958 0.045148 0.385349
O O12 0.897247 0.340665 0.297212
O O13 0.712352 0.243295 0.180005
O O14 0.838996 0.489533 0.362474
O O15 0.721719 0.448023 0.164886
O O16 0.500000 0.504162 0.000000
O O17 0.000000 0.740934 0.000000
#
# Coordination Sequence:
#
# PCOD9123105 Si02
#       8
#     4   4   4   4   4   4   4   4
#     4  11  19  36  58  88 117 155 207 243 285 354
#     4  10  20  37  62  88 112 161 204 246 292 353
#     4   9  20  39  64  85 108 158 206 243 286 363
#     4  10  24  40  56  93 125 151 194 255 308 351
#     4   9  18  39  65  83 113 151 205 244 292 359
#     4  11  20  36  62  85 116 165 208 242 287 354
#     4  11  22  39  57  88 127 149 189 254 311 347
#     4  11  19  37  60  84 118 162 206 241 285 360
#
# _framework density 19.618969
#
# number of rings (size 3 to 8) (size 9 to 14) (size 15 to 20)
#    0.000    1.750    3.750    3.375    0.000    1.000 
#    9.000    5.000    2.750    0.000    0.000    0.000 
#    0.000    0.000    0.000    0.000    0.000    0.000 
#
# Total GULP energy -89255.427574 kJ/mol
# GULP energy per Si atom -5578.464223 kJ/mol
# Density = 1.957432 g / cm^3
# Si number density = 19.618969 Si / 1000 Ang^3
#
#
#
# Elastic Constant Matrix: (Units=GPa)
#
#
# Indices 1 2 3 4 5 6 
#
# 1 92.5480 19.3712 7.4182 0.0000 -20.3141 0.0000
# 2 19.3712 67.9420 4.7148 0.0000 -8.0186 0.0000
# 3 7.4182 4.7148 74.3525 0.0000 -27.5103 0.0000
# 4 0.0000 0.0000 0.0000 5.5479 0.0000 -3.3258
# 5 -20.3141 -8.0186 -27.5103 0.0000 30.0989 0.0000
# 6 0.0000 0.0000 0.0000 -3.3258 0.0000 14.2360
#
#
#
# Elastic Compliance Matrix: (Units=1/GPa)
#
#
# Indices 1 2 3 4 5 6 
#
# 1 0.013589 -0.002766 0.002932 0.000000 0.011114 0.000000
# 2 -0.002766 0.015791 0.000212 0.000000 0.002534 0.000000
# 3 0.002932 0.000212 0.020997 0.000000 0.021227 0.000000
# 4 0.000000 0.000000 0.000000 0.209605 0.000000 0.048968
# 5 0.011114 0.002534 0.021227 0.000000 0.060801 0.000000
# 6 0.000000 0.000000 0.000000 0.048968 0.000000 0.081684
#
#
# Mechanical properties :
#
#
# Convention : Reuss Voigt Hill
#
# Bulk Modulus (GPa) = 19.55678 33.09453 26.32566
# Shear Modulus (GPa) = 11.94013 23.53243 17.73628
#
# Velocity S-wave (km/s) = 2.46966 3.46710 3.00998
# Velocity P-wave (km/s) = 4.25702 5.73872 5.05248
#
# Compressibility (1/GPa) = 0.05113316
#
# Stress axis : x y z
#
# Youngs Moduli (GPa) = 73.59090 63.32543 47.62518
#
# Poissons Ratio (x) = 0.17516 -0.13962
# Poissons Ratio (y) = 0.20356 -0.01011
# Poissons Ratio (z) = -0.21575 -0.01344
#
# Static dielectric constant tensor:
#      x y z
#    x 1.745150 0.000000 0.000360 
#    y 0.000000 1.662050 0.000000 
#    z 0.000360 0.000000 1.702500 
# 
# From -- ./inp_files/36841.got.cif
#   From: 2010.05.17/outbox.cif.g08.bks.cpg/sg5_19_cif.got.tgz:36841.got - 2010.06.03 18:56:24.
