data_PCOD9123634
_publ_section_title
;
Structure prediction by ZEFSAII (Michael W. Deem and Ramdas Pophale) SiO2 
 PCOD9123634
Probable space group: C 2
;
_chemical_formula_sum "Si O2"
_cell_formula_units_Z 26
_cell_length_a 26.393856
_cell_length_b 5.546718
_cell_length_c 16.607456
_cell_angle_alpha 90.000000
_cell_angle_beta 156.034539
_cell_angle_gamma 90.000000
_cell_volume 987.567633
_symmetry_space_group_name_H-M "C 2"
_symmetry_group_IT_number 5
_symmetry_cell_setting 'monoclinic'
loop_
_space_group_symop_operation_xyz
x,y,z
-x,y,-z
1/2+x,1/2+y,z
1/2-x,1/2+y,-z
loop_
_atom_site_type_symbol
_atom_site_label
_atom_site_fract_x
_atom_site_fract_y
_atom_site_fract_z
Si Si1 0.000000 0.475900 0.000000
Si Si2 0.481986 0.941687 0.715558
Si Si3 0.147597 0.001900 0.725511
Si Si4 0.013305 0.078128 0.886123
Si Si5 0.394252 0.000581 0.276750
Si Si6 0.663706 0.179317 0.113779
Si Si7 0.727332 0.379184 0.421505
O O1 0.977968 0.299901 0.892322
O O2 0.875800 0.599522 0.854532
O O3 0.533955 0.996342 0.703647
O O4 0.332067 0.961194 0.508806
O O5 0.504101 0.670557 0.781828
O O6 0.565702 0.099152 0.900128
O O7 0.178321 0.247291 0.818562
O O8 0.211646 0.050836 0.732874
O O9 0.000000 0.993515 0.500000
O O10 0.180733 0.747839 0.814685
O O11 0.923553 0.877917 0.795752
O O12 0.150862 0.967650 0.095724
O O13 0.500000 0.993335 0.500000
O O14 0.761712 0.112328 0.502096
#
# Coordination Sequence:
#
# PCOD9123634 Si02
#       7
#     2   4   4   4   4   4   4
#     4  10  24  42  66 106 134 184 222 292 356 424
#     4  10  23  40  69  98 137 183 230 289 349 411
#     4  10  25  46  70  98 139 183 240 289 349 410
#     4  10  22  41  66 100 140 182 230 285 350 420
#     4  10  24  46  67 102 134 180 235 289 350 409
#     4  11  23  44  69  98 140 184 235 288 352 415
#     4  10  20  39  64  99 136 174 226 275 345 419
#
# _framework density 26.327311000000002
#
# number of rings (size 3 to 8) (size 9 to 14) (size 15 to 20)
#    0.000    1.846    1.538    0.462    6.462    3.692 
#    8.308    0.000    0.000    0.000    0.000    0.000 
#    0.000    0.000    0.000    0.000    0.000    0.000 
#
# Total GULP energy -72505.197059 kJ/mol
# GULP energy per Si atom -5577.322851 kJ/mol
# Density = 2.626739 g / cm^3
# Si number density = 26.327311 Si / 1000 Ang^3
#
#
#
# Elastic Constant Matrix: (Units=GPa)
#
#
# Indices 1 2 3 4 5 6 
#
# 1 229.7483 61.7083 28.3993 0.0000 29.3378 0.0000
# 2 61.7083 135.1079 -2.1191 0.0000 23.3839 0.0000
# 3 28.3993 -2.1191 68.7715 0.0000 10.1520 0.0000
# 4 0.0000 0.0000 0.0000 22.7277 0.0000 13.0098
# 5 29.3378 23.3839 10.1520 0.0000 49.7364 0.0000
# 6 0.0000 0.0000 0.0000 13.0098 0.0000 36.2924
#
#
#
# Elastic Compliance Matrix: (Units=1/GPa)
#
#
# Indices 1 2 3 4 5 6 
#
# 1 0.005421 -0.002207 -0.002049 0.000000 -0.001742 0.000000
# 2 -0.002207 0.009002 0.001672 0.000000 -0.003272 0.000000
# 3 -0.002049 0.001672 0.015854 0.000000 -0.002813 0.000000
# 4 0.000000 0.000000 0.000000 0.055359 0.000000 -0.019845
# 5 -0.001742 -0.003272 -0.002813 0.000000 0.023246 0.000000
# 6 0.000000 0.000000 0.000000 -0.019845 0.000000 0.034668
#
#
# Mechanical properties :
#
#
# Convention : Reuss Voigt Hill
#
# Bulk Modulus (GPa) = 39.82816 67.73386 53.78101
# Shear Modulus (GPa) = 31.82938 44.79391 38.31164
#
# Velocity S-wave (km/s) = 3.48082 4.12931 3.81885
# Velocity P-wave (km/s) = 5.59605 6.96551 6.31799
#
# Compressibility (1/GPa) = 0.02510787
#
# Stress axis : x y z
#
# Youngs Moduli (GPa) = 184.46640 111.08842 63.07547
#
# Poissons Ratio (x) = 0.24513 0.12927
# Poissons Ratio (y) = 0.40705 -0.10544
# Poissons Ratio (z) = 0.37806 -0.18570
#
# Static dielectric constant tensor:
#      x y z
#    x 2.027390 0.000000 0.039640 
#    y 0.000000 2.212300 0.000000 
#    z 0.039640 0.000000 2.198420 
# 
# From -- ./inp_files/45423.got.cif
#   From: 2010.05.17/outbox.cif.g08.bks.cpg/sg5_23_cif.got.tgz:45423.got - 2010.06.03 18:56:24.
