data_PCOD9123317
_publ_section_title
;
Structure prediction by ZEFSAII (Michael W. Deem and Ramdas Pophale) SiO2 
 PCOD9123317
Probable space group: C 2
;
_chemical_formula_sum "Si O2"
_cell_formula_units_Z 28
_cell_length_a 16.421169
_cell_length_b 8.523419
_cell_length_c 14.381075
_cell_angle_alpha 90.000000
_cell_angle_beta 128.633686
_cell_angle_gamma 90.000000
_cell_volume 1572.337110
_symmetry_space_group_name_H-M "C 2"
_symmetry_group_IT_number 5
_symmetry_cell_setting 'monoclinic'
loop_
_space_group_symop_operation_xyz
x,y,z
-x,y,-z
1/2+x,1/2+y,z
1/2-x,1/2+y,-z
loop_
_atom_site_type_symbol
_atom_site_label
_atom_site_fract_x
_atom_site_fract_y
_atom_site_fract_z
Si Si1 0.865732 0.261100 0.114372
Si Si2 0.000375 0.708489 0.258003
Si Si3 0.526287 0.972913 0.117962
Si Si4 0.404246 0.342263 0.502105
Si Si5 0.801762 0.214499 0.740945
Si Si6 0.050649 0.054564 0.303858
Si Si7 0.771908 0.563161 0.123192
O O1 0.929014 0.370464 0.086620
O O2 0.793516 0.379560 0.121016
O O3 0.955252 0.176834 0.239259
O O4 0.800190 0.135158 0.009346
O O5 0.047770 0.599930 0.212404
O O6 0.884037 0.649506 0.195321
O O7 0.066007 0.709501 0.400284
O O8 0.003136 0.890969 0.231538
O O9 0.620862 0.852967 0.173047
O O10 0.500000 0.046288 0.000000
O O11 0.500000 0.357146 0.500000
O O12 0.301411 0.293623 0.374793
O O13 0.401119 0.499878 0.563159
O O14 0.862794 0.120844 0.703882
O O15 0.775007 0.106382 0.810078
#
# Coordination Sequence:
#
# PCOD9123317 Si02
#       7
#     4   4   4   4   4   4   4
#     4  10  21  38  60  90 125 156 206 246 312 361
#     4   9  21  38  58  87 118 159 201 241 299 359
#     4  10  20  38  61  90 123 158 195 251 309 362
#     4  10  21  40  63  79 120 163 199 244 301 360
#     4  11  21  38  63  87 119 160 203 249 310 354
#     4   9  22  40  57  89 117 159 199 258 297 356
#     4  11  20  37  62  89 119 167 195 253 304 369
#
# _framework density 17.807886
#
# number of rings (size 3 to 8) (size 9 to 14) (size 15 to 20)
#    0.857    1.143    2.857    0.857    2.000    0.000 
#    7.714    1.429    0.000    0.000    0.000    0.000 
#    0.000    0.000    0.000    0.000    0.000    0.000 
#
# Total GULP energy -77998.567611 kJ/mol
# GULP energy per Si atom -5571.326258 kJ/mol
# Density = 1.776735 g / cm^3
# Si number density = 17.807886 Si / 1000 Ang^3
#
#
#
# Elastic Constant Matrix: (Units=GPa)
#
#
# Indices 1 2 3 4 5 6 
#
# 1 98.8664 47.6646 51.9872 0.0000 -12.4671 0.0000
# 2 47.6646 78.5787 16.7388 0.0000 -12.8083 0.0000
# 3 51.9872 16.7388 67.2301 0.0000 -18.7056 0.0000
# 4 0.0000 0.0000 0.0000 20.9999 0.0000 -3.8506
# 5 -12.4671 -12.8083 -18.7056 0.0000 21.9901 0.0000
# 6 0.0000 0.0000 0.0000 -3.8506 0.0000 31.1476
#
#
#
# Elastic Compliance Matrix: (Units=1/GPa)
#
#
# Indices 1 2 3 4 5 6 
#
# 1 0.024785 -0.012556 -0.018556 0.000000 -0.009046 0.000000
# 2 -0.012556 0.020554 0.007784 0.000000 0.011475 0.000000
# 3 -0.018556 0.007784 0.033563 0.000000 0.022564 0.000000
# 4 0.000000 0.000000 0.000000 0.048724 0.000000 0.006023
# 5 -0.009046 0.011475 0.022564 0.000000 0.066224 0.000000
# 6 0.000000 0.000000 0.000000 0.006023 0.000000 0.032850
#
#
# Mechanical properties :
#
#
# Convention : Reuss Voigt Hill
#
# Bulk Modulus (GPa) = 31.01073 53.05072 42.03072
# Shear Modulus (GPa) = 17.59919 23.37982 20.48950
#
# Velocity S-wave (km/s) = 3.14710 3.62731 3.39571
# Velocity P-wave (km/s) = 5.53692 6.88465 6.24724
#
# Compressibility (1/GPa) = 0.03224690
#
# Stress axis : x y z
#
# Youngs Moduli (GPa) = 40.34772 48.65127 29.79459
#
# Poissons Ratio (x) = 0.61085 0.55287
# Poissons Ratio (y) = 0.50659 -0.23193
# Poissons Ratio (z) = 0.74870 -0.37871
#
# Static dielectric constant tensor:
#      x y z
#    x 1.595640 0.000000 -0.003250 
#    y 0.000000 1.605770 0.000000 
#    z -0.003250 0.000000 1.603170 
# 
# From -- ./inp_files/54209.got.cif
#   From: 2010.05.17/outbox.cif.g08.bks.cpg/sg5_28_cif.got.tgz:54209.got - 2010.06.03 18:56:24.
