data_PCOD9123570
_publ_section_title
;
Structure prediction by ZEFSAII (Michael W. Deem and Ramdas Pophale) SiO2 
 PCOD9123570
Probable space group: C 2
;
_chemical_formula_sum "Si O2"
_cell_formula_units_Z 30
_cell_length_a 26.466214
_cell_length_b 12.483946
_cell_length_c 7.748955
_cell_angle_alpha 90.000000
_cell_angle_beta 33.492116
_cell_angle_gamma 90.000000
_cell_volume 1412.817406
_symmetry_space_group_name_H-M "C 2"
_symmetry_group_IT_number 5
_symmetry_cell_setting 'monoclinic'
loop_
_space_group_symop_operation_xyz
x,y,z
-x,y,-z
1/2+x,1/2+y,z
1/2-x,1/2+y,-z
loop_
_atom_site_type_symbol
_atom_site_label
_atom_site_fract_x
_atom_site_fract_y
_atom_site_fract_z
Si Si1 0.506620 0.229420 0.271660
Si Si2 0.322708 0.858405 0.667038
Si Si3 0.000000 0.312126 0.000000
Si Si4 0.477216 0.465888 0.359907
Si Si5 0.657909 0.646069 0.166612
Si Si6 0.895574 0.148123 0.066707
Si Si7 0.293449 0.214373 0.216007
Si Si8 0.843295 0.583292 0.732581
O O1 0.500000 0.229001 0.500000
O O2 0.467310 0.344521 0.324010
O O3 0.441974 0.131061 0.400437
O O4 0.615374 0.224232 0.928956
O O5 0.342855 0.749472 0.711546
O O6 0.235979 0.827293 0.793787
O O7 0.324774 0.957269 0.789393
O O8 0.411262 0.879866 0.297792
O O9 0.034923 0.233220 0.050215
O O10 0.500000 0.457510 0.500000
O O11 0.389969 0.545026 0.602749
O O12 0.560614 0.530425 0.033262
O O13 0.609621 0.664500 0.122999
O O14 0.764314 0.622602 0.828178
O O15 0.796892 0.170434 0.432055
O O16 0.318512 0.134802 0.987839
#
# Coordination Sequence:
#
# PCOD9123570 Si02
#       8
#     4   4   2   4   4   4   4   4
#     4   9  19  39  60  87 117 166 202 247 308 377
#     4  10  21  39  62  87 122 163 209 257 315 370
#     4  10  20  40  60  86 122 158 204 260 312 370
#     4   9  18  33  64  87 116 156 203 244 301 368
#     4  10  21  37  62  92 119 156 210 260 303 376
#     4  10  20  39  61  92 121 156 207 263 307 366
#     4   9  21  41  61  87 126 163 213 248 319 377
#     4  10  22  39  62  87 122 165 206 253 314 375
#
# _framework density 21.234165999999998
#
# number of rings (size 3 to 8) (size 9 to 14) (size 15 to 20)
#    0.000    2.400    1.333    0.000    9.333    0.000 
#   12.000    0.000    0.000    0.000    0.000    0.000 
#    0.000    0.000    0.000    0.000    0.000    0.000 
#
# Total GULP energy -83617.429013 kJ/mol
# GULP energy per Si atom -5574.495268 kJ/mol
# Density = 2.118584 g / cm^3
# Si number density = 21.234166 Si / 1000 Ang^3
#
#
#
# Elastic Constant Matrix: (Units=GPa)
#
#
# Indices 1 2 3 4 5 6 
#
# 1 61.0634 18.0058 21.9475 0.0000 -24.6050 0.0000
# 2 18.0058 99.2015 30.4407 0.0000 -23.1007 0.0000
# 3 21.9475 30.4407 91.9079 0.0000 -35.5576 0.0000
# 4 0.0000 0.0000 0.0000 17.8599 0.0000 -4.3184
# 5 -24.6050 -23.1007 -35.5576 0.0000 33.1284 0.0000
# 6 0.0000 0.0000 0.0000 -4.3184 0.0000 17.7336
#
#
#
# Elastic Compliance Matrix: (Units=1/GPa)
#
#
# Indices 1 2 3 4 5 6 
#
# 1 0.023586 -0.000377 0.001998 0.000000 0.019399 0.000000
# 2 -0.000377 0.012127 -0.001305 0.000000 0.006776 0.000000
# 3 0.001998 -0.001305 0.018910 0.000000 0.020870 0.000000
# 4 0.000000 0.000000 0.000000 0.059494 0.000000 0.014488
# 5 0.019399 0.006776 0.020870 0.000000 0.071719 0.000000
# 6 0.000000 0.000000 0.000000 0.014488 0.000000 0.059918
#
#
# Mechanical properties :
#
#
# Convention : Reuss Voigt Hill
#
# Bulk Modulus (GPa) = 18.09789 43.66231 30.88010
# Shear Modulus (GPa) = 18.97231 25.86296 22.41764
#
# Velocity S-wave (km/s) = 2.99236 3.49375 3.25273
# Velocity P-wave (km/s) = 4.52553 6.07306 5.35549
#
# Compressibility (1/GPa) = 0.05525507
#
# Stress axis : x y z
#
# Youngs Moduli (GPa) = 42.39746 82.45907 52.88194
#
# Poissons Ratio (x) = 0.03105 -0.10564
# Poissons Ratio (y) = 0.01597 0.06903
# Poissons Ratio (z) = -0.08470 0.10764
#
# Static dielectric constant tensor:
#      x y z
#    x 1.780080 0.000000 -0.024080 
#    y 0.000000 1.800590 0.000000 
#    z -0.024080 0.000000 1.843310 
# 
# From -- ./inp_files/32602.got.cif
#   From: 2010.05.17/outbox.cif.g08.bks.cpg/sg5_17_cif.got.tgz:32602.got - 2010.06.03 18:56:24.
