data_PCOD9123483
_publ_section_title
;
Structure prediction by ZEFSAII (Michael W. Deem and Ramdas Pophale) SiO2 
 PCOD9123483
Probable space group: C 2
;
_chemical_formula_sum "Si O2"
_cell_formula_units_Z 20
_cell_length_a 25.784593
_cell_length_b 4.944016
_cell_length_c 12.894601
_cell_angle_alpha 90.000000
_cell_angle_beta 30.026650
_cell_angle_gamma 90.000000
_cell_volume 822.560316
_symmetry_space_group_name_H-M "C 2"
_symmetry_group_IT_number 5
_symmetry_cell_setting 'monoclinic'
loop_
_space_group_symop_operation_xyz
x,y,z
-x,y,-z
1/2+x,1/2+y,z
1/2-x,1/2+y,-z
loop_
_atom_site_type_symbol
_atom_site_label
_atom_site_fract_x
_atom_site_fract_y
_atom_site_fract_z
Si Si1 0.270222 0.428630 0.030208
Si Si2 0.976532 0.898038 0.800241
Si Si3 0.810110 0.501847 0.422545
Si Si4 0.592538 0.910184 0.954758
Si Si5 0.686030 0.669708 0.375895
O O1 0.195823 0.328056 0.251160
O O2 0.251315 0.736153 0.030477
O O3 0.386863 0.385615 0.869143
O O4 0.083961 0.989705 0.564558
O O5 0.936886 0.119267 0.951750
O O6 0.979861 0.624030 0.860267
O O7 0.787630 0.819652 0.450953
O O8 0.895680 0.424083 0.189484
O O9 0.817464 0.387204 0.524690
O O10 0.708091 0.998859 0.793643
#
# Coordination Sequence:
#
# PCOD9123483 Si02
#       5
#     4   4   4   4   4
#     4  11  24  45  67  92 129 167 216 279 326 373
#     4  11  24  43  69  96 127 171 215 262 324 385
#     4  10  20  38  66  95 133 177 207 252 318 379
#     4  10  22  42  64  98 136 166 210 260 312 384
#     4  10  24  44  68  95 131 171 216 264 318 381
#
# _framework density 24.314325
#
# number of rings (size 3 to 8) (size 9 to 14) (size 15 to 20)
#    0.000    1.600    0.000    6.000    0.000   11.200 
#    0.000   12.000    0.000    0.000    0.000    0.000 
#    0.000    0.000    0.000    0.000    0.000    0.000 
#
# Total GULP energy -56063.770833 kJ/mol
# GULP energy per Si atom -5606.377083 kJ/mol
# Density = 2.425898 g / cm^3
# Si number density = 24.314325 Si / 1000 Ang^3
#
#
#
# Elastic Constant Matrix: (Units=GPa)
#
#
# Indices 1 2 3 4 5 6 
#
# 1 88.7084 9.2536 26.6080 -0.0009 11.2070 -0.0031
# 2 9.2536 71.3854 -6.9085 -0.0149 -2.7416 -0.0555
# 3 26.6080 -6.9085 144.9143 -0.0114 -10.6657 -0.0225
# 4 -0.0009 -0.0149 -0.0114 54.6009 -0.0018 5.9835
# 5 11.2070 -2.7416 -10.6657 -0.0018 32.9165 -0.0126
# 6 -0.0031 -0.0555 -0.0225 5.9835 -0.0126 42.3138
#
#
#
# Elastic Compliance Matrix: (Units=1/GPa)
#
#
# Indices 1 2 3 4 5 6 
#
# 1 0.013082 -0.002192 -0.002917 -0.000001 -0.005582 -0.000005
# 2 -0.002192 0.014506 0.001268 0.000002 0.002366 0.000020
# 3 -0.002917 0.001268 0.007763 0.000001 0.003614 0.000006
# 4 -0.000001 0.000002 0.000001 0.018603 0.000001 -0.002631
# 5 -0.005582 0.002366 0.003614 0.000001 0.033648 0.000014
# 6 -0.000005 0.000020 0.000006 -0.002631 0.000014 0.024005
#
#
# Mechanical properties :
#
#
# Convention : Reuss Voigt Hill
#
# Bulk Modulus (GPa) = 36.14321 40.32381 38.23351
# Shear Modulus (GPa) = 38.90660 44.36993 41.63826
#
# Velocity S-wave (km/s) = 4.00453 4.27646 4.14272
# Velocity P-wave (km/s) = 6.02320 6.40348 6.21625
#
# Compressibility (1/GPa) = 0.02766771
#
# Stress axis : x y z
#
# Youngs Moduli (GPa) = 76.44192 68.93568 128.82027
#
# Poissons Ratio (x) = 0.15114 0.37581
# Poissons Ratio (y) = 0.16760 -0.16337
# Poissons Ratio (z) = 0.22301 -0.08743
#
# Static dielectric constant tensor:
#      x y z
#    x 1.995910 0.000010 -0.071130 
#    y 0.000010 1.872630 0.000010 
#    z -0.071130 0.000010 1.925030 
# 
# From -- ./inp_files/47754.got.cif
#   From: 2010.05.17/outbox.cif.g08.bks.cpg/sg5_24_cif.got.tgz:47754.got - 2010.06.03 18:56:24.
