data_PCOD9123719
_publ_section_title
;
Structure prediction by ZEFSAII (Michael W. Deem and Ramdas Pophale) SiO2 
 PCOD9123719
Probable space group: C 2
;
_chemical_formula_sum "Si O2"
_cell_formula_units_Z 32
_cell_length_a 10.769388
_cell_length_b 9.062218
_cell_length_c 16.951463
_cell_angle_alpha 90.000000
_cell_angle_beta 92.466251
_cell_angle_gamma 90.000000
_cell_volume 1652.837889
_symmetry_space_group_name_H-M "C 2"
_symmetry_group_IT_number 5
_symmetry_cell_setting 'monoclinic'
loop_
_space_group_symop_operation_xyz
x,y,z
-x,y,-z
1/2+x,1/2+y,z
1/2-x,1/2+y,-z
loop_
_atom_site_type_symbol
_atom_site_label
_atom_site_fract_x
_atom_site_fract_y
_atom_site_fract_z
Si Si1 0.053127 0.094030 0.696385
Si Si2 0.458077 0.279899 0.631990
Si Si3 0.371701 0.602720 0.464875
Si Si4 0.690571 0.291721 0.536063
Si Si5 0.458778 0.804499 0.825704
Si Si6 0.862024 0.104370 0.962257
Si Si7 0.264517 0.803867 0.098369
Si Si8 0.672264 0.102407 0.232135
O O1 0.093238 0.176509 0.616468
O O2 0.185343 0.061989 0.741555
O O3 0.973971 0.196852 0.751076
O O4 0.984238 0.942278 0.670025
O O5 0.590550 0.234783 0.596440
O O6 0.365381 0.283121 0.554378
O O7 0.401349 0.173383 0.696244
O O8 0.500000 0.535763 0.500000
O O9 0.285381 0.462785 0.445172
O O10 0.314946 0.700336 0.531490
O O11 0.382882 0.716703 0.890383
O O12 0.597675 0.832688 0.862833
O O13 0.395446 0.956811 0.800336
O O14 0.796805 0.954587 0.932923
O O15 0.784723 0.188489 0.027654
O O16 0.000000 0.071556 0.000000
O O17 0.184033 0.725372 0.164092
#
# Coordination Sequence:
#
# PCOD9123719 Si02
#       8
#     4   4   4   4   4   4   4   4
#     4  10  21  38  57  81 117 155 194 244 301 349
#     4  10  20  40  57  80 119 151 193 252 297 347
#     4  11  21  40  60  82 115 155 198 251 303 352
#     4  10  21  39  58  83 113 150 198 250 300 353
#     4  10  23  38  58  89 120 153 198 240 288 350
#     4  10  21  40  62  89 122 154 193 237 286 348
#     4  10  22  39  62  90 121 156 192 239 287 347
#     4  11  22  38  60  86 121 155 197 245 291 354
#
# _framework density 19.360641000000001
#
# number of rings (size 3 to 8) (size 9 to 14) (size 15 to 20)
#    0.000    1.750    3.750    1.500    0.000    5.000 
#    2.250    0.000    0.000    0.000    0.000    0.000 
#    0.000    0.000    0.000    0.000    0.000    0.000 
#
# Total GULP energy -89286.399526 kJ/mol
# GULP energy per Si atom -5580.399970 kJ/mol
# Density = 1.931658 g / cm^3
# Si number density = 19.360641 Si / 1000 Ang^3
#
#
#
# Elastic Constant Matrix: (Units=GPa)
#
#
# Indices 1 2 3 4 5 6 
#
# 1 51.5511 51.7080 34.2499 0.0000 -9.1043 0.0000
# 2 51.7080 101.4885 51.7799 0.0000 1.4382 0.0000
# 3 34.2499 51.7799 114.2231 0.0000 -25.1915 0.0000
# 4 0.0000 0.0000 0.0000 38.2848 0.0000 1.4881
# 5 -9.1043 1.4382 -25.1915 0.0000 19.5566 0.0000
# 6 0.0000 0.0000 0.0000 1.4881 0.0000 27.3263
#
#
#
# Elastic Compliance Matrix: (Units=1/GPa)
#
#
# Indices 1 2 3 4 5 6 
#
# 1 0.050635 -0.028761 0.004917 0.000000 0.032021 0.000000
# 2 -0.028761 0.031440 -0.012699 0.000000 -0.032059 0.000000
# 3 0.004917 -0.012699 0.019204 0.000000 0.027960 0.000000
# 4 0.000000 0.000000 0.000000 0.026175 0.000000 -0.001425
# 5 0.032021 -0.032059 0.027960 0.000000 0.104414 0.000000
# 6 0.000000 0.000000 0.000000 -0.001425 0.000000 0.036672
#
#
# Mechanical properties :
#
#
# Convention : Reuss Voigt Hill
#
# Bulk Modulus (GPa) = 35.46972 60.30425 47.88699
# Shear Modulus (GPa) = 14.24405 25.66854 19.95629
#
# Velocity S-wave (km/s) = 2.71536 3.64512 3.21404
# Velocity P-wave (km/s) = 5.30954 6.99509 6.20977
#
# Compressibility (1/GPa) = 0.02819306
#
# Stress axis : x y z
#
# Youngs Moduli (GPa) = 19.74933 31.80632 52.07324
#
# Poissons Ratio (x) = 0.91477 -0.25605
# Poissons Ratio (y) = 0.56800 0.66129
# Poissons Ratio (z) = -0.09711 0.40392
#
# Static dielectric constant tensor:
#      x y z
#    x 1.674210 0.000000 0.006930 
#    y 0.000000 1.639260 0.000000 
#    z 0.006930 0.000000 1.702910 
# 
# From -- ./inp_files/52452.got.cif
#   From: 2010.05.17/outbox.cif.g08.bks.cpg/sg5_27_cif.got.tgz:52452.got - 2010.06.03 18:56:24.
