data_PCOD9123510
_publ_section_title
;
Structure prediction by ZEFSAII (Michael W. Deem and Ramdas Pophale) SiO2 
 PCOD9123510
Probable space group: C 2
;
_chemical_formula_sum "Si O2"
_cell_formula_units_Z 28
_cell_length_a 11.744791
_cell_length_b 14.605915
_cell_length_c 9.024743
_cell_angle_alpha 90.000000
_cell_angle_beta 127.833350
_cell_angle_gamma 90.000000
_cell_volume 1222.714334
_symmetry_space_group_name_H-M "C 2"
_symmetry_group_IT_number 5
_symmetry_cell_setting 'monoclinic'
loop_
_space_group_symop_operation_xyz
x,y,z
-x,y,-z
1/2+x,1/2+y,z
1/2-x,1/2+y,-z
loop_
_atom_site_type_symbol
_atom_site_label
_atom_site_fract_x
_atom_site_fract_y
_atom_site_fract_z
Si Si1 0.324864 0.131140 0.628708
Si Si2 0.000000 0.093997 0.000000
Si Si3 0.051684 0.022263 0.360211
Si Si4 0.617126 0.347716 0.282492
Si Si5 0.276089 0.378201 0.946245
Si Si6 0.241752 0.707648 0.904204
Si Si7 0.276207 0.045844 0.884394
Si Si8 0.500000 0.167750 0.500000
O O1 0.159385 0.106142 0.467197
O O2 0.344422 0.240452 0.666809
O O3 0.360577 0.067720 0.799743
O O4 0.416468 0.108863 0.555800
O O5 0.011392 0.032261 0.153001
O O6 0.137436 0.157069 0.092786
O O7 0.892978 0.033008 0.303747
O O8 0.126796 0.922008 0.424199
O O9 0.444615 0.350913 0.112522
O O10 0.717712 0.382926 0.226409
O O11 0.196481 0.292067 0.955379
O O12 0.214448 0.462866 0.991170
O O13 0.114251 0.726224 0.685857
O O14 0.197271 0.635523 0.995250
#
# Coordination Sequence:
#
# PCOD9123510 Si02
#       8
#     4   2   4   4   4   4   4   2
#     4  12  23  41  66 104 141 175 225 291 342 401
#     4  10  20  40  68  90 136 184 228 276 336 410
#     4  10  21  40  68  96 131 178 236 277 335 412
#     4  10  20  38  68 101 131 178 226 286 338 409
#     4  10  20  39  69  97 128 177 237 276 334 416
#     4  11  21  42  67  94 134 179 226 281 340 406
#     4  10  23  41  70  98 131 179 234 280 339 409
#     4  12  26  38  64 100 142 178 212 282 352 400
#
# _framework density 22.899868999999999
#
# number of rings (size 3 to 8) (size 9 to 14) (size 15 to 20)
#    0.000    1.429    4.286    3.000    0.000    1.714 
#    0.000    1.429    6.286    0.000    0.000    0.000 
#    0.000    0.000    0.000    0.000    0.000    0.000 
#
# Total GULP energy -78040.841726 kJ/mol
# GULP energy per Si atom -5574.345838 kJ/mol
# Density = 2.284775 g / cm^3
# Si number density = 22.899869 Si / 1000 Ang^3
#
#
#
# Elastic Constant Matrix: (Units=GPa)
#
#
# Indices 1 2 3 4 5 6 
#
# 1 120.5120 36.9263 22.3983 0.0000 -53.6132 0.0000
# 2 36.9263 140.8044 22.7149 0.0000 -21.4058 0.0000
# 3 22.3983 22.7149 46.5357 0.0000 -10.4294 0.0000
# 4 0.0000 0.0000 0.0000 31.2678 0.0000 -16.7719
# 5 -53.6132 -21.4058 -10.4294 0.0000 43.3769 0.0000
# 6 0.0000 0.0000 0.0000 -16.7719 0.0000 -5.7728
#
#
#
# Elastic Compliance Matrix: (Units=1/GPa)
#
#
# Indices 1 2 3 4 5 6 
#
# 1 0.019293 -0.001045 -0.003749 0.000000 0.022429 0.000000
# 2 -0.001045 0.008171 -0.003035 0.000000 0.002011 0.000000
# 3 -0.003749 -0.003035 0.024733 0.000000 -0.000185 0.000000
# 4 0.000000 0.000000 0.000000 0.012501 0.000000 -0.036318
# 5 0.022429 0.002011 -0.000185 0.000000 0.051723 0.000000
# 6 0.000000 0.000000 0.000000 -0.036318 0.000000 -0.067708
#
#
# Mechanical properties :
#
#
# Convention : Reuss Voigt Hill
#
# Bulk Modulus (GPa) = 27.36765 52.43678 39.90222
# Shear Modulus (GPa) = 65.31505 28.82855 47.07180
#
# Velocity S-wave (km/s) = 5.34639 3.55194 4.53873
# Velocity P-wave (km/s) = 7.07735 6.30632 6.70293
#
# Compressibility (1/GPa) = 0.03653949
#
# Stress axis : x y z
#
# Youngs Moduli (GPa) = 51.83211 122.37721 40.43114
#
# Poissons Ratio (x) = 0.12789 0.15159
# Poissons Ratio (y) = 0.05417 0.12270
# Poissons Ratio (z) = 0.19433 0.37140
#
# Static dielectric constant tensor:
#      x y z
#    x 1.878430 0.000000 -0.023580 
#    y 0.000000 1.885420 0.000000 
#    z -0.023580 0.000000 2.047660 
# 
# From -- ./inp_files/20502.got.cif
#   From: 2010.05.17/outbox.cif.g08.bks.cpg/sg5_11_cif.got.tgz:20502.got - 2010.06.03 18:56:24.
