data_PCOD9123852
_publ_section_title
;
Structure prediction by ZEFSAII (Michael W. Deem and Ramdas Pophale) SiO2 
 PCOD9123852
Probable space group: C 2
;
_chemical_formula_sum "Si O2"
_cell_formula_units_Z 28
_cell_length_a 12.605128
_cell_length_b 16.650747
_cell_length_c 9.216870
_cell_angle_alpha 90.000000
_cell_angle_beta 127.944689
_cell_angle_gamma 90.000000
_cell_volume 1525.540763
_symmetry_space_group_name_H-M "C 2"
_symmetry_group_IT_number 5
_symmetry_cell_setting 'monoclinic'
loop_
_space_group_symop_operation_xyz
x,y,z
-x,y,-z
1/2+x,1/2+y,z
1/2-x,1/2+y,-z
loop_
_atom_site_type_symbol
_atom_site_label
_atom_site_fract_x
_atom_site_fract_y
_atom_site_fract_z
Si Si1 0.213133 0.066010 0.225779
Si Si2 0.852796 0.728479 0.316084
Si Si3 0.000000 0.367839 0.000000
Si Si4 0.338916 0.890966 0.361640
Si Si5 0.960260 0.097222 0.206818
Si Si6 0.669613 0.768563 0.904984
Si Si7 0.000000 0.978710 0.500000
Si Si8 0.757220 0.375731 0.620966
O O1 0.323637 0.135450 0.316497
O O2 0.111820 0.087494 0.272506
O O3 0.274778 0.978007 0.280924
O O4 0.130029 0.073763 0.007163
O O5 0.756791 0.785802 0.329482
O O6 0.000000 0.747307 0.500000
O O7 0.805416 0.748542 0.111349
O O8 0.881851 0.414083 0.815544
O O9 0.071982 0.315226 0.935551
O O10 0.500000 0.896524 0.500000
O O11 0.302664 0.825932 0.207940
O O12 0.287913 0.869024 0.478362
O O13 0.909782 0.186907 0.203353
O O14 0.946037 0.036066 0.327062
O O15 0.878554 0.924096 0.458180
#
# Coordination Sequence:
#
# PCOD9123852 Si02
#       8
#     4   4   2   4   4   4   2   4
#     4  10  22  40  61  93 126 167 210 264 319 384
#     4  10  21  41  65  85 125 172 213 258 328 386
#     4  10  20  40  66  86 128 164 214 252 310 394
#     4  12  24  39  64  99 128 162 216 271 319 370
#     4  10  22  39  62  90 127 165 210 259 320 382
#     4  10  22  39  66  94 122 171 214 260 313 390
#     4  12  24  38  64  94 124 168 212 268 324 376
#     4  11  23  40  61  96 124 171 215 261 322 381
#
# _framework density 18.354147000000001
#
# number of rings (size 3 to 8) (size 9 to 14) (size 15 to 20)
#    0.000    1.429    3.571    3.000    5.000    0.000 
#    0.000    0.000    0.000    0.000    0.000    0.000 
#    0.000    0.000    0.000    0.000    0.000    0.000 
#
# Total GULP energy -78081.564244 kJ/mol
# GULP energy per Si atom -5577.254589 kJ/mol
# Density = 1.831237 g / cm^3
# Si number density = 18.354147 Si / 1000 Ang^3
#
#
#
# Elastic Constant Matrix: (Units=GPa)
#
#
# Indices 1 2 3 4 5 6 
#
# 1 100.3985 45.0977 64.2211 0.0000 -10.0845 0.0000
# 2 45.0977 124.9319 59.7838 0.0000 -15.7969 0.0000
# 3 64.2211 59.7838 83.2442 0.0000 -2.8220 0.0000
# 4 0.0000 0.0000 0.0000 23.8123 0.0000 -1.7869
# 5 -10.0845 -15.7969 -2.8220 0.0000 38.9195 0.0000
# 6 0.0000 0.0000 0.0000 -1.7869 0.0000 14.4730
#
#
#
# Elastic Compliance Matrix: (Units=1/GPa)
#
#
# Indices 1 2 3 4 5 6 
#
# 1 0.020386 0.001012 -0.016302 0.000000 0.004511 0.000000
# 2 0.001012 0.013018 -0.009967 0.000000 0.004824 0.000000
# 3 -0.016302 -0.009967 0.031544 0.000000 -0.005982 0.000000
# 4 0.000000 0.000000 0.000000 0.042388 0.000000 0.005233
# 5 0.004511 0.004824 -0.005982 0.000000 0.028387 0.000000
# 6 0.000000 0.000000 0.000000 0.005233 0.000000 0.069740
#
#
# Mechanical properties :
#
#
# Convention : Reuss Voigt Hill
#
# Bulk Modulus (GPa) = 69.26874 71.86441 70.56657
# Shear Modulus (GPa) = 19.17263 24.73910 21.95587
#
# Velocity S-wave (km/s) = 3.23552 3.67533 3.46241
# Velocity P-wave (km/s) = 7.19585 7.56637 7.38343
#
# Compressibility (1/GPa) = 0.01443653
#
# Stress axis : x y z
#
# Youngs Moduli (GPa) = 49.05261 76.81492 31.70143
#
# Poissons Ratio (x) = -0.07776 0.51678
# Poissons Ratio (y) = -0.04965 0.31596
# Poissons Ratio (z) = 0.79964 0.76560
#
# Static dielectric constant tensor:
#      x y z
#    x 1.634370 0.000000 0.032450 
#    y 0.000000 1.617410 0.000000 
#    z 0.032450 0.000000 1.662960 
# 
# From -- ./inp_files/20499.got.cif
#   From: 2010.05.17/outbox.cif.g08.bks.cpg/sg5_11_cif.got.tgz:20499.got - 2010.06.03 18:56:24.
