data_PCOD9123348
_publ_section_title
;
Structure prediction by ZEFSAII (Michael W. Deem and Ramdas Pophale) SiO2 
 PCOD9123348
Probable space group: C 2
;
_chemical_formula_sum "Si O2"
_cell_formula_units_Z 32
_cell_length_a 16.585126
_cell_length_b 5.066094
_cell_length_c 16.868423
_cell_angle_alpha 90.000000
_cell_angle_beta 94.820784
_cell_angle_gamma 90.000000
_cell_volume 1412.301548
_symmetry_space_group_name_H-M "C 2"
_symmetry_group_IT_number 5
_symmetry_cell_setting 'monoclinic'
loop_
_space_group_symop_operation_xyz
x,y,z
-x,y,-z
1/2+x,1/2+y,z
1/2-x,1/2+y,-z
loop_
_atom_site_type_symbol
_atom_site_label
_atom_site_fract_x
_atom_site_fract_y
_atom_site_fract_z
Si Si1 0.288329 0.463740 0.969645
Si Si2 0.974346 0.998837 0.218056
Si Si3 0.753528 0.661736 0.446407
Si Si4 0.828545 0.398123 0.166582
Si Si5 0.559457 0.238099 0.941037
Si Si6 0.017575 0.438273 0.414005
Si Si7 0.903526 0.957843 0.642654
Si Si8 0.628684 0.131581 0.676565
O O1 0.256944 0.349537 0.883012
O O2 0.263606 0.769614 0.976491
O O3 0.380843 0.427386 0.003568
O O4 0.897781 0.185901 0.192360
O O5 0.057763 0.062127 0.270958
O O6 0.991601 0.874221 0.133490
O O7 0.932998 0.810540 0.279476
O O8 0.774997 0.420976 0.508026
O O9 0.688978 0.527684 0.381621
O O10 0.826727 0.748642 0.395384
O O11 0.878250 0.564519 0.104911
O O12 0.812763 0.535010 0.249162
O O13 0.500000 0.106368 0.000000
O O14 0.054691 0.149143 0.418375
O O15 0.000000 0.539649 0.500000
O O16 0.931612 0.411256 0.362576
O O17 0.074082 0.653819 0.373985
#
# Coordination Sequence:
#
# PCOD9123348 Si02
#       8
#     4   4   4   4   4   4   4   4
#     4  10  20  38  62  88 127 171 210 253 310 378
#     4  10  21  41  65  90 126 166 212 261 309 382
#     4  12  27  45  63  96 134 165 208 270 320 370
#     4  10  20  40  63  90 126 168 213 258 312 380
#     4  10  22  39  62  96 129 164 211 265 314 369
#     4  11  21  38  63  92 120 165 214 255 308 380
#     4  11  23  40  63  91 127 165 206 262 319 366
#     4  10  23  39  65  89 125 168 212 257 315 378
#
# _framework density 22.658049999999999
#
# number of rings (size 3 to 8) (size 9 to 14) (size 15 to 20)
#    0.000    1.500    2.500    2.625    1.750    2.500 
#    0.000    1.250    0.000    0.000    0.000    0.000 
#    0.000    0.000    0.000    0.000    0.000    0.000 
#
# Total GULP energy -89082.819968 kJ/mol
# GULP energy per Si atom -5567.676248 kJ/mol
# Density = 2.260648 g / cm^3
# Si number density = 22.658050 Si / 1000 Ang^3
#
#
#
# Elastic Constant Matrix: (Units=GPa)
#
#
# Indices 1 2 3 4 5 6 
#
# 1 53.4560 -6.8075 48.8885 0.0000 17.2761 0.0000
# 2 -6.8075 51.5553 22.6801 0.0000 1.5267 0.0000
# 3 48.8885 22.6801 120.7058 0.0000 5.7963 0.0000
# 4 0.0000 0.0000 0.0000 24.4725 0.0000 13.1880
# 5 17.2761 1.5267 5.7963 0.0000 50.7824 0.0000
# 6 0.0000 0.0000 0.0000 13.1880 0.0000 19.5586
#
#
#
# Elastic Compliance Matrix: (Units=1/GPa)
#
#
# Indices 1 2 3 4 5 6 
#
# 1 0.042113 0.014358 -0.019151 0.000000 -0.012573 0.000000
# 2 0.014358 0.026041 -0.010494 0.000000 -0.004470 0.000000
# 3 -0.019151 -0.010494 0.017782 0.000000 0.004801 0.000000
# 4 0.000000 0.000000 0.000000 0.064184 0.000000 -0.043278
# 5 -0.012573 -0.004470 0.004801 0.000000 0.023555 0.000000
# 6 0.000000 0.000000 0.000000 -0.043278 0.000000 0.080310
#
#
# Mechanical properties :
#
#
# Convention : Reuss Voigt Hill
#
# Bulk Modulus (GPa) = 18.06251 39.47102 28.76676
# Shear Modulus (GPa) = 16.50091 29.69312 23.09701
#
# Velocity S-wave (km/s) = 2.70155 3.62399 3.19623
# Velocity P-wave (km/s) = 4.20955 5.91348 5.13271
#
# Compressibility (1/GPa) = 0.05536330
#
# Stress axis : x y z
#
# Youngs Moduli (GPa) = 23.74564 38.40076 56.23601
#
# Poissons Ratio (x) = -0.55135 1.07696
# Poissons Ratio (y) = -0.34093 0.59012
# Poissons Ratio (z) = 0.45475 0.40296
#
# Static dielectric constant tensor:
#      x y z
#    x 1.968690 0.000000 0.117240 
#    y 0.000000 1.905850 0.000000 
#    z 0.117240 0.000000 1.917700 
# 
# From -- ./inp_files/55458.got.cif
#   From: 2010.05.17/outbox.cif.g08.bks.cpg/sg5_28_cif.got.tgz:55458.got - 2010.06.03 18:56:24.
