data_PCOD9123746
_publ_section_title
;
Structure prediction by ZEFSAII (Michael W. Deem and Ramdas Pophale) SiO2 
 PCOD9123746
Probable space group: C 2
;
_chemical_formula_sum "Si O2"
_cell_formula_units_Z 26
_cell_length_a 9.515483
_cell_length_b 14.200074
_cell_length_c 14.859782
_cell_angle_alpha 90.000000
_cell_angle_beta 140.250588
_cell_angle_gamma 90.000000
_cell_volume 1283.889499
_symmetry_space_group_name_H-M "C 2"
_symmetry_group_IT_number 5
_symmetry_cell_setting 'monoclinic'
loop_
_space_group_symop_operation_xyz
x,y,z
-x,y,-z
1/2+x,1/2+y,z
1/2-x,1/2+y,-z
loop_
_atom_site_type_symbol
_atom_site_label
_atom_site_fract_x
_atom_site_fract_y
_atom_site_fract_z
Si Si1 0.461648 0.319020 0.373210
Si Si2 0.451413 0.824331 0.567140
Si Si3 0.896157 0.178923 0.208712
Si Si4 0.168014 0.155407 0.163398
Si Si5 0.149196 0.949969 0.209646
Si Si6 0.747274 0.477082 0.839778
Si Si7 0.000000 0.793824 0.000000
O O1 0.500000 0.306387 0.500000
O O2 0.697980 0.349294 0.451779
O O3 0.374521 0.225677 0.277437
O O4 0.294223 0.401911 0.260378
O O5 0.500000 0.768243 0.500000
O O6 0.506881 0.755213 0.676091
O O7 0.614012 0.913728 0.639987
O O8 0.064180 0.161117 0.211878
O O9 0.807879 0.085001 0.213372
O O10 0.690051 0.226918 0.059032
O O11 0.197768 0.042520 0.173058
O O12 0.000000 0.183575 0.000000
O O13 0.943362 0.961339 0.177329
O O14 0.078553 0.861851 0.115728
O O15 0.000000 0.470060 0.000000
#
# Coordination Sequence:
#
# PCOD9123746 Si02
#       7
#     4   4   4   4   4   4   2
#     4  12  26  44  68  98 138 179 230 281 333 402
#     4  11  23  45  68  97 131 190 223 276 341 407
#     4  10  23  41  67  96 136 170 230 278 335 402
#     4  11  24  43  67 101 133 182 224 283 338 401
#     4  10  23  41  69  93 132 178 226 269 336 411
#     4  11  24  43  67 101 133 176 223 286 337 396
#     4  10  20  40  60  98 126 166 210 276 326 394
#
# _framework density 20.250964
#
# number of rings (size 3 to 8) (size 9 to 14) (size 15 to 20)
#    0.000    1.231    4.615    0.462    4.308    2.462 
#    0.000    0.000    0.000    0.000    0.000    0.000 
#    0.000    0.000    0.000    0.000    0.000    0.000 
#
# Total GULP energy -72373.388463 kJ/mol
# GULP energy per Si atom -5567.183728 kJ/mol
# Density = 2.020487 g / cm^3
# Si number density = 20.250964 Si / 1000 Ang^3
#
#
#
# Elastic Constant Matrix: (Units=GPa)
#
#
# Indices 1 2 3 4 5 6 
#
# 1 48.6611 -10.3704 16.4212 0.0001 13.5931 0.0000
# 2 -10.3704 74.1968 19.7866 0.0000 14.0743 0.0000
# 3 16.4212 19.7866 108.1166 0.0005 16.0497 0.0002
# 4 0.0001 0.0000 0.0005 147.7461 0.0009 23.8417
# 5 13.5931 14.0743 16.0497 0.0009 37.6630 0.0003
# 6 0.0000 0.0000 0.0002 23.8417 0.0003 23.8825
#
#
#
# Elastic Compliance Matrix: (Units=1/GPa)
#
#
# Indices 1 2 3 4 5 6 
#
# 1 0.026054 0.006565 -0.003628 0.000000 -0.010310 0.000000
# 2 0.006565 0.016566 -0.002944 0.000000 -0.007305 0.000000
# 3 -0.003628 -0.002944 0.010656 0.000000 -0.002131 0.000000
# 4 0.000000 0.000000 0.000000 0.008068 0.000000 -0.008054
# 5 -0.010310 -0.007305 -0.002131 0.000000 0.033910 0.000000
# 6 0.000000 0.000000 0.000000 -0.008054 0.000000 0.049912
#
#
# Mechanical properties :
#
#
# Convention : Reuss Voigt Hill
#
# Bulk Modulus (GPa) = 18.77584 31.40549 25.09066
# Shear Modulus (GPa) = 30.68712 55.53413 43.11062
#
# Velocity S-wave (km/s) = 3.89696 5.24237 4.61892
# Velocity P-wave (km/s) = 5.43508 7.22393 6.39239
#
# Compressibility (1/GPa) = 0.05325995
#
# Stress axis : x y z
#
# Youngs Moduli (GPa) = 38.38220 60.36412 93.84799
#
# Poissons Ratio (x) = -0.39628 0.34048
# Poissons Ratio (y) = -0.25197 0.27633
# Poissons Ratio (z) = 0.13925 0.17774
#
# Static dielectric constant tensor:
#      x y z
#    x 1.726150 0.000000 0.022110 
#    y 0.000000 1.757290 0.000000 
#    z 0.022110 0.000000 1.817350 
# 
# From -- ./inp_files/51123.got.cif
#   From: 2010.05.17/outbox.cif.g08.bks.cpg/sg5_26_cif.got.tgz:51123.got - 2010.06.03 18:56:24.
