data_PCOD9123955
_publ_section_title
;
Structure prediction by ZEFSAII (Michael W. Deem and Ramdas Pophale) SiO2 
 PCOD9123955
Probable space group: C 2
;
_chemical_formula_sum "Si O2"
_cell_formula_units_Z 24
_cell_length_a 22.047656
_cell_length_b 8.758835
_cell_length_c 5.506111
_cell_angle_alpha 90.000000
_cell_angle_beta 114.333418
_cell_angle_gamma 90.000000
_cell_volume 968.835083
_symmetry_space_group_name_H-M "C 2"
_symmetry_group_IT_number 5
_symmetry_cell_setting 'monoclinic'
loop_
_space_group_symop_operation_xyz
x,y,z
-x,y,-z
1/2+x,1/2+y,z
1/2-x,1/2+y,-z
loop_
_atom_site_type_symbol
_atom_site_label
_atom_site_fract_x
_atom_site_fract_y
_atom_site_fract_z
Si Si1 0.500000 0.381920 0.500000
Si Si2 0.435798 0.592968 0.991070
Si Si3 0.608536 0.310032 0.363931
Si Si4 0.500000 0.085765 0.000000
Si Si5 0.756691 0.212030 0.721169
Si Si6 0.434135 0.860088 0.278453
Si Si7 0.702575 0.875470 0.703190
O O1 0.473968 0.478665 0.232738
O O2 0.566356 0.295814 0.539996
O O3 0.397540 0.722574 0.071386
O O4 0.500000 0.682966 0.000000
O O5 0.396532 0.484046 0.744101
O O6 0.563556 0.196111 0.135158
O O7 0.682661 0.263481 0.522006
O O8 0.471371 0.984466 0.173848
O O9 0.795695 0.274991 0.542950
O O10 0.747357 0.028273 0.737312
O O11 0.770095 0.289225 0.009089
O O12 0.500000 0.782847 0.500000
O O13 0.375520 0.915273 0.362322
#
# Coordination Sequence:
#
# PCOD9123955 Si02
#       7
#     2   4   4   2   4   4   4
#     4  10  20  40  72 110 144 198 260 326 392 474
#     4  10  21  43  68 111 150 200 258 328 406 480
#     4  11  26  44  78 108 162 209 273 331 414 488
#     4  12  26  44  74 120 162 206 272 348 414 488
#     4  12  31  57  81 122 165 230 275 350 402 529
#     4  12  28  47  80 116 162 208 271 354 415 486
#     4  12  32  56  88 120 168 222 291 331 439 483
#
# _framework density 24.772017000000002
#
# number of rings (size 3 to 8) (size 9 to 14) (size 15 to 20)
#    0.000    0.667    4.167    2.000   15.167    1.333 
#    0.000    0.000    0.000    0.000    0.000    0.000 
#    0.000    0.000    0.000    0.000    0.000    0.000 
#
# Total GULP energy -66907.955988 kJ/mol
# GULP energy per Si atom -5575.662999 kJ/mol
# Density = 2.471564 g / cm^3
# Si number density = 24.772017 Si / 1000 Ang^3
#
#
#
# Elastic Constant Matrix: (Units=GPa)
#
#
# Indices 1 2 3 4 5 6 
#
# 1 145.7591 48.3650 43.4096 0.0000 -17.1836 0.0000
# 2 48.3650 132.1900 56.6262 0.0000 -18.4276 0.0000
# 3 43.4096 56.6262 132.7542 0.0000 -6.1827 0.0000
# 4 0.0000 0.0000 0.0000 61.9265 0.0000 -7.3993
# 5 -17.1836 -18.4276 -6.1827 0.0000 41.6281 0.0000
# 6 0.0000 0.0000 0.0000 -7.3993 0.0000 38.7044
#
#
#
# Elastic Compliance Matrix: (Units=1/GPa)
#
#
# Indices 1 2 3 4 5 6 
#
# 1 0.008310 -0.001960 -0.001774 0.000000 0.002299 0.000000
# 2 -0.001960 0.010266 -0.003589 0.000000 0.003202 0.000000
# 3 -0.001774 -0.003589 0.009602 0.000000 -0.000895 0.000000
# 4 0.000000 0.000000 0.000000 0.016526 0.000000 0.003159
# 5 0.002299 0.003202 -0.000895 0.000000 0.026256 0.000000
# 6 0.000000 0.000000 0.000000 0.003159 0.000000 0.026441
#
#
# Mechanical properties :
#
#
# Convention : Reuss Voigt Hill
#
# Bulk Modulus (GPa) = 73.89909 78.61167 76.25538
# Shear Modulus (GPa) = 42.89720 45.93861 44.41791
#
# Velocity S-wave (km/s) = 4.16586 4.31101 4.23906
# Velocity P-wave (km/s) = 7.28256 7.52215 7.40332
#
# Compressibility (1/GPa) = 0.01353197
#
# Stress axis : x y z
#
# Youngs Moduli (GPa) = 120.32984 97.41155 104.14455
#
# Poissons Ratio (x) = 0.19093 0.18479
# Poissons Ratio (y) = 0.23585 0.37375
# Poissons Ratio (z) = 0.21351 0.34959
#
# Static dielectric constant tensor:
#      x y z
#    x 2.034760 0.000000 -0.085620 
#    y 0.000000 2.139040 0.000000 
#    z -0.085620 0.000000 1.857320 
# 
# From -- ./inp_files/10206.got.cif
#   From: 2010.05.17/outbox.cif.g08.bks.cpg/sg5_6_cif.got.tgz:10206.got - 2010.06.03 18:56:24.
