data_PCOD9123154
_publ_section_title
;
Structure prediction by ZEFSAII (Michael W. Deem and Ramdas Pophale) SiO2 
 PCOD9123154
Probable space group: C 2
;
_chemical_formula_sum "Si O2"
_cell_formula_units_Z 30
_cell_length_a 16.594055
_cell_length_b 9.145460
_cell_length_c 29.540994
_cell_angle_alpha 90.000000
_cell_angle_beta 19.907727
_cell_angle_gamma 90.000000
_cell_volume 1526.540768
_symmetry_space_group_name_H-M "C 2"
_symmetry_group_IT_number 5
_symmetry_cell_setting 'monoclinic'
loop_
_space_group_symop_operation_xyz
x,y,z
-x,y,-z
1/2+x,1/2+y,z
1/2-x,1/2+y,-z
loop_
_atom_site_type_symbol
_atom_site_label
_atom_site_fract_x
_atom_site_fract_y
_atom_site_fract_z
Si Si1 0.834400 0.057690 0.671148
Si Si2 0.156671 0.478152 0.630606
Si Si3 0.866908 0.014225 0.870069
Si Si4 0.304693 0.802400 0.762182
Si Si5 0.897146 0.304438 0.250001
Si Si6 0.649170 0.474981 0.018750
Si Si7 0.500000 0.169526 0.000000
Si Si8 0.434589 0.184972 0.814849
O O1 0.830251 0.155762 0.718646
O O2 0.648784 0.134267 0.734872
O O3 0.747193 0.887651 0.713496
O O4 0.098633 0.052479 0.512326
O O5 0.189674 0.369083 0.656155
O O6 0.980824 0.602323 0.743347
O O7 0.042601 0.387704 0.649669
O O8 0.936069 0.857683 0.814006
O O9 0.776214 0.001128 0.969258
O O10 0.081633 0.130858 0.758960
O O11 0.656530 0.074059 0.950736
O O12 0.113286 0.911225 0.841079
O O13 0.182172 0.763422 0.874512
O O14 0.169097 0.357722 0.098613
O O15 0.698574 0.619400 0.963120
#
# Coordination Sequence:
#
# PCOD9123154 Si02
#       8
#     4   4   4   4   4   4   2   4
#     4  10  22  44  65  86 126 179 227 264 316 400
#     4  10  22  43  64  86 127 180 222 262 328 385
#     4  12  21  36  62 103 129 165 209 277 337 401
#     4  12  21  42  67  94 130 175 210 279 336 395
#     4  10  20  38  66  92 124 174 216 264 332 395
#     4  10  20  37  63  95 129 163 213 260 344 396
#     4  12  22  38  64  98 138 150 208 276 344 390
#     4  10  21  39  66  96 128 171 220 272 332 399
#
# _framework density 19.652276000000001
#
# number of rings (size 3 to 8) (size 9 to 14) (size 15 to 20)
#    0.000    1.600    4.000    4.800    0.000    1.067 
#    4.800    2.667    0.000    0.000    0.000    0.000 
#    0.000    0.000    0.000    0.000    0.000    0.000 
#
# Total GULP energy -83671.548007 kJ/mol
# GULP energy per Si atom -5578.103200 kJ/mol
# Density = 1.960755 g / cm^3
# Si number density = 19.652276 Si / 1000 Ang^3
#
#
#
# Elastic Constant Matrix: (Units=GPa)
#
#
# Indices 1 2 3 4 5 6 
#
# 1 79.4943 24.1927 16.7813 -0.0042 3.5594 -0.0045
# 2 24.1927 130.0387 18.5703 -0.0024 4.5964 -0.0024
# 3 16.7813 18.5703 63.5079 -0.0515 5.2857 -0.0316
# 4 -0.0042 -0.0024 -0.0515 12.7774 0.0173 -3.9708
# 5 3.5594 4.5964 5.2857 0.0173 19.8489 0.0135
# 6 -0.0045 -0.0024 -0.0316 -3.9708 0.0135 35.1256
#
#
#
# Elastic Compliance Matrix: (Units=1/GPa)
#
#
# Indices 1 2 3 4 5 6 
#
# 1 0.013903 -0.002122 -0.002952 -0.000007 -0.001216 -0.000001
# 2 -0.002122 0.008380 -0.001800 -0.000005 -0.001081 -0.000002
# 3 -0.002952 -0.001800 0.017358 0.000082 -0.003676 0.000026
# 4 -0.000007 -0.000005 0.000082 0.081113 -0.000096 0.009170
# 5 -0.001216 -0.001081 -0.003676 -0.000096 0.051828 -0.000034
# 6 -0.000001 -0.000002 0.000026 0.009170 -0.000034 0.029506
#
#
# Mechanical properties :
#
#
# Convention : Reuss Voigt Hill
#
# Bulk Modulus (GPa) = 38.61926 43.56997 41.09461
# Shear Modulus (GPa) = 22.27495 27.78349 25.02922
#
# Velocity S-wave (km/s) = 3.37033 3.76407 3.57263
# Velocity P-wave (km/s) = 5.90250 6.41167 6.16235
#
# Compressibility (1/GPa) = 0.02589382
#
# Stress axis : x y z
#
# Youngs Moduli (GPa) = 71.92737 119.33154 57.60887
#
# Poissons Ratio (x) = 0.25322 0.17006
# Poissons Ratio (y) = 0.15263 0.10368
# Poissons Ratio (z) = 0.21233 0.21476
#
# Static dielectric constant tensor:
#      x y z
#    x 1.735030 0.000000 -0.002550 
#    y 0.000000 1.738450 0.000000 
#    z -0.002550 0.000000 1.689400 
# 
# From -- ./inp_files/72111.got.cif
#   From: 2010.05.17/outbox.cif.g08.bks.cpg/sg5_37_cif.got.tgz:72111.got - 2010.06.03 18:56:24.
