data_PCOD9123926
_publ_section_title
;
Structure prediction by ZEFSAII (Michael W. Deem and Ramdas Pophale) SiO2 
 PCOD9123926
Probable space group: C 2
;
_chemical_formula_sum "Si O2"
_cell_formula_units_Z 28
_cell_length_a 14.711544
_cell_length_b 11.115859
_cell_length_c 9.379375
_cell_angle_alpha 90.000000
_cell_angle_beta 121.997970
_cell_angle_gamma 90.000000
_cell_volume 1300.784287
_symmetry_space_group_name_H-M "C 2"
_symmetry_group_IT_number 5
_symmetry_cell_setting 'monoclinic'
loop_
_space_group_symop_operation_xyz
x,y,z
-x,y,-z
1/2+x,1/2+y,z
1/2-x,1/2+y,-z
loop_
_atom_site_type_symbol
_atom_site_label
_atom_site_fract_x
_atom_site_fract_y
_atom_site_fract_z
Si Si1 0.031868 0.082940 0.865017
Si Si2 0.400273 0.828640 0.991340
Si Si3 0.687623 0.058929 0.368191
Si Si4 0.269462 0.789091 0.604276
Si Si5 0.764970 0.541318 0.928699
Si Si6 0.046635 0.904983 0.395362
Si Si7 0.468953 0.197706 0.137655
O O1 0.149271 0.045496 0.904416
O O2 0.043113 0.226717 0.869418
O O3 0.942237 0.018254 0.697559
O O4 0.000000 0.052766 0.000000
O O5 0.331557 0.770482 0.804860
O O6 0.323044 0.915591 0.010798
O O7 0.500000 0.898276 0.000000
O O8 0.753756 0.166951 0.500339
O O9 0.732815 0.048952 0.242872
O O10 0.564750 0.106460 0.261844
O O11 0.688214 0.919212 0.424044
O O12 0.147751 0.829212 0.528394
O O13 0.850654 0.641914 0.047125
O O14 0.000000 0.955869 0.500000
O O15 0.976197 0.812158 0.245855
O O16 0.500000 0.230831 0.000000
#
# Coordination Sequence:
#
# PCOD9123926 Si02
#       7
#     4   4   4   4   4   4   4
#     4  11  26  42  64  99 133 175 226 279 329 404
#     4  10  22  42  66  96 134 176 220 275 342 401
#     4   9  19  37  63 102 131 177 220 281 343 404
#     4  10  21  37  64  94 135 177 216 278 345 397
#     4  10  20  40  69  90 131 178 227 269 340 400
#     4  11  23  40  64  94 135 174 223 273 339 400
#     4   9  19  38  66  98 128 170 227 276 323 411
#
# _framework density 21.525476000000001
#
# number of rings (size 3 to 8) (size 9 to 14) (size 15 to 20)
#    0.000    2.000    0.000    4.286    8.000    0.000 
#    0.000    0.000    0.000    0.000    0.000    0.000 
#    0.000    0.000    0.000    0.000    0.000    0.000 
#
# Total GULP energy -78010.472941 kJ/mol
# GULP energy per Si atom -5572.176639 kJ/mol
# Density = 2.147648 g / cm^3
# Si number density = 21.525476 Si / 1000 Ang^3
#
#
#
# Elastic Constant Matrix: (Units=GPa)
#
#
# Indices 1 2 3 4 5 6 
#
# 1 97.0582 -1.2362 -5.6573 0.0000 4.0448 0.0000
# 2 -1.2362 101.4904 20.4839 0.0000 2.8436 0.0000
# 3 -5.6573 20.4839 46.1206 0.0000 1.1110 0.0000
# 4 0.0000 0.0000 0.0000 42.4602 0.0000 14.0028
# 5 4.0448 2.8436 1.1110 0.0000 25.7097 0.0000
# 6 0.0000 0.0000 0.0000 14.0028 0.0000 31.5795
#
#
#
# Elastic Compliance Matrix: (Units=1/GPa)
#
#
# Indices 1 2 3 4 5 6 
#
# 1 0.010452 -0.000101 0.001368 0.000000 -0.001692 0.000000
# 2 -0.000101 0.010850 -0.004808 0.000000 -0.000976 0.000000
# 3 0.001368 -0.004808 0.024003 0.000000 -0.000721 0.000000
# 4 0.000000 0.000000 0.000000 0.027585 0.000000 -0.012232
# 5 -0.001692 -0.000976 -0.000721 0.000000 0.039301 0.000000
# 6 0.000000 0.000000 0.000000 -0.012232 0.000000 0.037090
#
#
# Mechanical properties :
#
#
# Convention : Reuss Voigt Hill
#
# Bulk Modulus (GPa) = 26.16287 30.20555 28.18421
# Shear Modulus (GPa) = 29.56767 35.35513 32.46140
#
# Velocity S-wave (km/s) = 3.71025 4.05715 3.88757
# Velocity P-wave (km/s) = 5.52588 6.00085 5.76826
#
# Compressibility (1/GPa) = 0.03822211
#
# Stress axis : x y z
#
# Youngs Moduli (GPa) = 95.67494 92.16937 41.66203
#
# Poissons Ratio (x) = 0.00934 -0.05699
# Poissons Ratio (y) = 0.00970 0.20030
# Poissons Ratio (z) = -0.13087 0.44312
#
# Static dielectric constant tensor:
#      x y z
#    x 1.798300 0.000000 0.044790 
#    y 0.000000 1.846210 0.000000 
#    z 0.044790 0.000000 1.795710 
# 
# From -- ./inp_files/23937.got.cif
#   From: 2010.05.17/outbox.cif.g08.bks.cpg/sg5_12_cif.got.tgz:23937.got - 2010.06.03 18:56:24.
