data_PCOD9123101
_publ_section_title
;
Structure prediction by ZEFSAII (Michael W. Deem and Ramdas Pophale) SiO2 
 PCOD9123101
Probable space group: C 2
;
_chemical_formula_sum "Si O2"
_cell_formula_units_Z 30
_cell_length_a 14.002884
_cell_length_b 17.295688
_cell_length_c 5.951660
_cell_angle_alpha 90.000000
_cell_angle_beta 98.809657
_cell_angle_gamma 90.000000
_cell_volume 1424.424488
_symmetry_space_group_name_H-M "C 2"
_symmetry_group_IT_number 5
_symmetry_cell_setting 'monoclinic'
loop_
_space_group_symop_operation_xyz
x,y,z
-x,y,-z
1/2+x,1/2+y,z
1/2-x,1/2+y,-z
loop_
_atom_site_type_symbol
_atom_site_label
_atom_site_fract_x
_atom_site_fract_y
_atom_site_fract_z
Si Si1 0.908578 0.409780 0.303472
Si Si2 0.750245 0.179802 0.236011
Si Si3 0.816315 0.544033 0.058582
Si Si4 0.159799 0.943486 0.748369
Si Si5 0.500000 0.517869 0.000000
Si Si6 0.760119 0.320628 0.535588
Si Si7 0.394294 0.765688 0.964044
Si Si8 0.843361 0.067642 0.622494
O O1 0.903738 0.494669 0.191303
O O2 0.810843 0.388460 0.407427
O O3 0.908539 0.344610 0.111553
O O4 0.000000 0.403017 0.500000
O O5 0.715050 0.254405 0.362320
O O6 0.817692 0.213162 0.065034
O O7 0.819562 0.131324 0.427786
O O8 0.675421 0.119396 0.096698
O O9 0.748024 0.565900 0.244059
O O10 0.755051 0.481796 0.892108
O O11 0.185874 0.856832 0.687138
O O12 0.073885 0.963938 0.886989
O O13 0.141747 0.989141 0.511687
O O14 0.437603 0.570646 0.810105
O O15 0.849084 0.284367 0.707027
O O16 0.500000 0.730334 0.000000
#
# Coordination Sequence:
#
# PCOD9123101 Si02
#       8
#     4   4   4   4   2   4   4   4
#     4  11  21  36  64  96 129 164 213 264 311 377
#     4  10  24  38  57  89 129 175 204 251 314 390
#     4  10  20  39  59  87 130 166 214 252 309 385
#     4  10  20  37  62  85 125 161 206 263 310 378
#     4  10  22  36  60  94 126 150 216 268 310 366
#     4  11  21  39  60  88 131 167 208 252 326 380
#     4  11  22  40  56  92 135 162 202 256 325 386
#     4  10  20  41  55  89 128 162 204 250 314 377
#
# _framework density 21.061139000000001
#
# number of rings (size 3 to 8) (size 9 to 14) (size 15 to 20)
#    0.000    1.600    4.000    1.200    0.000    0.000 
#   28.800    0.000    0.000    0.000    0.000   18.667 
#    0.000    0.000    0.000    0.000    0.000    0.000 
#
# Total GULP energy -83771.147139 kJ/mol
# GULP energy per Si atom -5584.743143 kJ/mol
# Density = 2.101320 g / cm^3
# Si number density = 21.061139 Si / 1000 Ang^3
#
#
#
# Elastic Constant Matrix: (Units=GPa)
#
#
# Indices 1 2 3 4 5 6 
#
# 1 22.1360 22.0006 3.2909 0.0000 -5.7571 0.0000
# 2 22.0006 109.7489 34.4350 0.0000 0.8649 0.0000
# 3 3.2909 34.4350 86.8639 0.0000 2.6073 0.0000
# 4 0.0000 0.0000 0.0000 46.7172 0.0000 2.2874
# 5 -5.7571 0.8649 2.6073 0.0000 23.1249 0.0000
# 6 0.0000 0.0000 0.0000 2.2874 0.0000 12.2960
#
#
#
# Elastic Compliance Matrix: (Units=1/GPa)
#
#
# Indices 1 2 3 4 5 6 
#
# 1 0.062171 -0.013362 0.002470 0.000000 0.015699 0.000000
# 2 -0.013362 0.013278 -0.004658 0.000000 -0.003298 0.000000
# 3 0.002470 -0.004658 0.013287 0.000000 -0.000709 0.000000
# 4 0.000000 0.000000 0.000000 0.021602 0.000000 -0.004019
# 5 0.015699 -0.003298 -0.000709 0.000000 0.047355 0.000000
# 6 0.000000 0.000000 0.000000 -0.004019 0.000000 0.082075
#
#
# Mechanical properties :
#
#
# Convention : Reuss Voigt Hill
#
# Bulk Modulus (GPa) = 17.35032 37.57798 27.46415
# Shear Modulus (GPa) = 17.23665 27.02912 22.13288
#
# Velocity S-wave (km/s) = 2.86389 3.58629 3.24526
# Velocity P-wave (km/s) = 4.38084 5.91859 5.20680
#
# Compressibility (1/GPa) = 0.05763581
#
# Stress axis : x y z
#
# Youngs Moduli (GPa) = 16.08464 75.31310 75.26327
#
# Poissons Ratio (x) = 1.00632 -0.18593
# Poissons Ratio (y) = 0.21492 0.35061
# Poissons Ratio (z) = -0.03973 0.35085
#
# Static dielectric constant tensor:
#      x y z
#    x 1.745290 0.000000 -0.014550 
#    y 0.000000 1.797410 0.000000 
#    z -0.014550 0.000000 1.791220 
# 
# From -- ./inp_files/7215.got.cif
#   From: 2010.05.17/outbox.cif.g08.bks.cpg/sg5_4_cif.got.tgz:7215.got - 2010.06.03 18:56:24.
