data_PCOD9123031
_publ_section_title
;
Structure prediction by ZEFSAII (Michael W. Deem and Ramdas Pophale) SiO2 
 PCOD9123031
Probable space group: C 2
;
_chemical_formula_sum "Si O2"
_cell_formula_units_Z 30
_cell_length_a 21.797064
_cell_length_b 8.136275
_cell_length_c 9.177096
_cell_angle_alpha 90.000000
_cell_angle_beta 119.995414
_cell_angle_gamma 90.000000
_cell_volume 1409.547100
_symmetry_space_group_name_H-M "C 2"
_symmetry_group_IT_number 5
_symmetry_cell_setting 'monoclinic'
loop_
_space_group_symop_operation_xyz
x,y,z
-x,y,-z
1/2+x,1/2+y,z
1/2-x,1/2+y,-z
loop_
_atom_site_type_symbol
_atom_site_label
_atom_site_fract_x
_atom_site_fract_y
_atom_site_fract_z
Si Si1 0.126658 0.155920 0.970502
Si Si2 0.123576 0.508014 0.063128
Si Si3 0.776293 0.731473 0.001002
Si Si4 0.500000 0.261858 0.000000
Si Si5 0.596318 0.407939 0.699853
Si Si6 0.789615 0.936011 0.731010
Si Si7 0.172287 0.622785 0.416608
Si Si8 0.044340 0.809811 0.354885
O O1 0.086354 0.064561 0.792067
O O2 0.096800 0.329889 0.985018
O O3 0.205156 0.187888 0.998482
O O4 0.142786 0.033184 0.123632
O O5 0.161932 0.502336 0.266248
O O6 0.062084 0.642689 0.013862
O O7 0.178846 0.578599 0.010154
O O8 0.828615 0.831242 0.169658
O O9 0.760712 0.838873 0.838212
O O10 0.529445 0.361062 0.171601
O O11 0.583312 0.432463 0.513410
O O12 0.534053 0.283371 0.674088
O O13 0.808308 0.798311 0.633492
O O14 0.732084 0.057856 0.594952
O O15 0.096993 0.654677 0.405693
#
# Coordination Sequence:
#
# PCOD9123031 Si02
#       8
#     4   4   4   2   4   4   4   4
#     4  11  22  36  59  92 127 158 205 261 317 360
#     4  10  20  37  59  89 123 166 204 257 308 373
#     4  10  20  38  63  88 122 164 207 254 311 368
#     4  10  20  40  64  90 116 168 214 246 316 374
#     4  10  21  39  61  92 117 163 216 249 306 375
#     4  10  21  36  57  93 120 161 204 248 305 371
#     4  10  21  37  62  90 125 161 206 253 309 369
#     4  10  21  38  66  84 118 162 213 252 297 379
#
# _framework density 21.283432999999999
#
# number of rings (size 3 to 8) (size 9 to 14) (size 15 to 20)
#    0.000    1.867    1.333    3.200    1.867    2.133 
#    2.400    0.000   14.667    0.000    0.000    0.000 
#    0.000    0.000    0.000    0.000    0.000    0.000 
#
# Total GULP energy -83717.303310 kJ/mol
# GULP energy per Si atom -5581.153554 kJ/mol
# Density = 2.123499 g / cm^3
# Si number density = 21.283433 Si / 1000 Ang^3
#
#
#
# Elastic Constant Matrix: (Units=GPa)
#
#
# Indices 1 2 3 4 5 6 
#
# 1 84.2681 7.8363 10.9650 0.0000 -1.8197 0.0000
# 2 7.8363 79.5298 51.7476 0.0000 -15.5490 0.0000
# 3 10.9650 51.7476 185.8160 0.0000 -2.9804 0.0000
# 4 0.0000 0.0000 0.0000 31.9332 0.0000 -1.1294
# 5 -1.8197 -15.5490 -2.9804 0.0000 16.2029 0.0000
# 6 0.0000 0.0000 0.0000 -1.1294 0.0000 14.3126
#
#
#
# Elastic Compliance Matrix: (Units=1/GPa)
#
#
# Indices 1 2 3 4 5 6 
#
# 1 0.012013 -0.000763 -0.000488 0.000000 0.000527 0.000000
# 2 -0.000763 0.019388 -0.005072 0.000000 0.017587 0.000000
# 3 -0.000488 -0.005072 0.006764 0.000000 -0.003678 0.000000
# 4 0.000000 0.000000 0.000000 0.031403 0.000000 0.002478
# 5 0.000527 0.017587 -0.003678 0.000000 0.077977 0.000000
# 6 0.000000 0.000000 0.000000 0.002478 0.000000 0.070064
#
#
# Mechanical properties :
#
#
# Convention : Reuss Voigt Hill
#
# Bulk Modulus (GPa) = 39.18785 54.52353 46.85569
# Shear Modulus (GPa) = 20.94145 31.09408 26.01777
#
# Velocity S-wave (km/s) = 3.14017 3.82639 3.50014
# Velocity P-wave (km/s) = 5.62138 6.72273 6.19657
#
# Compressibility (1/GPa) = 0.02551811
#
# Stress axis : x y z
#
# Youngs Moduli (GPa) = 83.24510 51.57875 147.84142
#
# Poissons Ratio (x) = 0.03936 0.07213
# Poissons Ratio (y) = 0.06353 0.74988
# Poissons Ratio (z) = 0.04061 0.26162
#
# Static dielectric constant tensor:
#      x y z
#    x 1.801390 0.000000 -0.019660 
#    y 0.000000 1.790900 0.000000 
#    z -0.019660 0.000000 1.796410 
# 
# From -- ./inp_files/30688.got.cif
#   From: 2010.05.17/outbox.cif.g08.bks.cpg/sg5_16_cif.got.tgz:30688.got - 2010.06.03 18:56:24.
