data_PCOD9123349
_publ_section_title
;
Structure prediction by ZEFSAII (Michael W. Deem and Ramdas Pophale) SiO2 
 PCOD9123349
Probable space group: C 2
;
_chemical_formula_sum "Si O2"
_cell_formula_units_Z 32
_cell_length_a 15.680753
_cell_length_b 15.204970
_cell_length_c 21.425821
_cell_angle_alpha 90.000000
_cell_angle_beta 17.521253
_cell_angle_gamma 90.000000
_cell_volume 1537.950493
_symmetry_space_group_name_H-M "C 2"
_symmetry_group_IT_number 5
_symmetry_cell_setting 'monoclinic'
loop_
_space_group_symop_operation_xyz
x,y,z
-x,y,-z
1/2+x,1/2+y,z
1/2-x,1/2+y,-z
loop_
_atom_site_type_symbol
_atom_site_label
_atom_site_fract_x
_atom_site_fract_y
_atom_site_fract_z
Si Si1 0.687871 0.743520 0.711833
Si Si2 0.627123 0.405588 0.501388
Si Si3 0.605874 0.307675 0.080873
Si Si4 0.355864 0.283175 0.391368
Si Si5 0.108979 0.523383 0.853007
Si Si6 0.155708 0.500638 0.093205
Si Si7 0.349723 0.654671 0.045209
Si Si8 0.252376 0.216414 0.224476
O O1 0.783834 0.831513 0.609850
O O2 0.000000 0.694893 0.500000
O O3 0.377651 0.740010 0.891106
O O4 0.558768 0.729629 0.870806
O O5 0.631703 0.358950 0.565449
O O6 0.322217 0.442965 0.697961
O O7 0.848696 0.484967 0.338905
O O8 0.485542 0.312123 0.234739
O O9 0.365053 0.273279 0.203309
O O10 0.695901 0.406416 0.000582
O O11 0.557236 0.201090 0.268671
O O12 0.037007 0.251402 0.602630
O O13 0.269755 0.616356 0.736446
O O14 0.888348 0.517769 0.949928
O O15 0.000000 0.518935 0.000000
O O16 0.304283 0.581057 0.024307
O O17 0.500000 0.614171 0.000000
O O18 0.500000 0.219000 0.000000
#
# Coordination Sequence:
#
# PCOD9123349 Si02
#       8
#     4   4   4   4   4   4   4   4
#     4  10  20  38  62  89 120 159 209 261 318 378
#     4  11  22  38  64  92 123 165 213 269 328 385
#     4  10  22  40  64  92 127 171 216 268 325 385
#     4  11  23  41  65  94 126 167 219 269 328 394
#     4  11  23  39  64  97 130 166 216 274 327 385
#     4  11  23  41  62  92 131 169 217 269 322 389
#     4  11  25  42  64  92 129 172 214 266 326 396
#     4  11  23  41  65  94 131 173 217 268 329 394
#
# _framework density 20.806912000000001
#
# number of rings (size 3 to 8) (size 9 to 14) (size 15 to 20)
#    0.000    1.250    0.000    7.500    0.000    6.000 
#    0.000    5.000    0.000    0.000    0.000    0.000 
#    0.000    0.000    0.000    0.000    0.000    0.000 
#
# Total GULP energy -89170.409129 kJ/mol
# GULP energy per Si atom -5573.150571 kJ/mol
# Density = 2.075955 g / cm^3
# Si number density = 20.806912 Si / 1000 Ang^3
#
#
#
# Elastic Constant Matrix: (Units=GPa)
#
#
# Indices 1 2 3 4 5 6 
#
# 1 151.4739 55.3167 41.9150 0.0137 -10.5600 -0.0454
# 2 55.3167 68.8911 15.8711 -0.2179 3.7671 -0.0489
# 3 41.9150 15.8711 101.1604 -0.2971 -11.1863 -0.1011
# 4 0.0137 -0.2179 -0.2971 22.6818 -0.0038 -1.1452
# 5 -10.5600 3.7671 -11.1863 -0.0038 26.2597 0.0208
# 6 -0.0454 -0.0489 -0.1011 -1.1452 0.0208 41.7839
#
#
#
# Elastic Compliance Matrix: (Units=1/GPa)
#
#
# Indices 1 2 3 4 5 6 
#
# 1 0.010607 -0.008145 -0.002641 -0.000119 0.004309 -0.000010
# 2 -0.008145 0.021596 -0.000753 0.000203 -0.006694 0.000023
# 3 -0.002641 -0.000753 0.011536 0.000147 0.003960 0.000026
# 4 -0.000119 0.000203 0.000147 0.044153 -0.000009 0.001211
# 5 0.004309 -0.006694 0.003960 -0.000009 0.042461 -0.000015
# 6 -0.000010 0.000023 0.000026 0.001211 -0.000015 0.023966
#
#
# Mechanical properties :
#
#
# Convention : Reuss Voigt Hill
#
# Bulk Modulus (GPa) = 48.39959 60.85899 54.62929
# Shear Modulus (GPa) = 27.13184 32.03993 29.58589
#
# Velocity S-wave (km/s) = 3.61499 3.92837 3.77493
# Velocity P-wave (km/s) = 6.38247 7.06322 6.73146
#
# Compressibility (1/GPa) = 0.02066133
#
# Stress axis : x y z
#
# Youngs Moduli (GPa) = 94.27317 46.30517 86.68409
#
# Poissons Ratio (x) = 0.37715 0.22894
# Poissons Ratio (y) = 0.76785 0.06528
# Poissons Ratio (z) = 0.24899 0.03487
#
# Static dielectric constant tensor:
#      x y z
#    x 1.795500 -0.000080 0.012480 
#    y -0.000080 1.752060 0.000000 
#    z 0.012480 0.000000 1.837710 
# 
# From -- ./inp_files/66250.got.cif
#   From: 2010.05.17/outbox.cif.g08.bks.cpg/sg5_34_cif.got.tgz:66250.got - 2010.06.03 18:56:24.
