data_PCOD9123815
_publ_section_title
;
Structure prediction by ZEFSAII (Michael W. Deem and Ramdas Pophale) SiO2 
 PCOD9123815
Probable space group: C 2
;
_chemical_formula_sum "Si O2"
_cell_formula_units_Z 30
_cell_length_a 11.543463
_cell_length_b 8.487263
_cell_length_c 15.266426
_cell_angle_alpha 90.000000
_cell_angle_beta 124.017921
_cell_angle_gamma 90.000000
_cell_volume 1239.720294
_symmetry_space_group_name_H-M "C 2"
_symmetry_group_IT_number 5
_symmetry_cell_setting 'monoclinic'
loop_
_space_group_symop_operation_xyz
x,y,z
-x,y,-z
1/2+x,1/2+y,z
1/2-x,1/2+y,-z
loop_
_atom_site_type_symbol
_atom_site_label
_atom_site_fract_x
_atom_site_fract_y
_atom_site_fract_z
Si Si1 0.971126 0.254600 0.706937
Si Si2 0.315519 0.406403 0.976133
Si Si3 0.328583 0.866902 0.436102
Si Si4 0.716581 0.829266 0.216378
Si Si5 0.500000 0.656544 0.000000
Si Si6 0.254529 0.587215 0.109251
Si Si7 0.157260 0.524292 0.735989
Si Si8 0.373646 0.532498 0.509334
O O1 0.099433 0.181155 0.816658
O O2 0.019748 0.423114 0.691168
O O3 0.840950 0.294838 0.712405
O O4 0.943898 0.133343 0.617783
O O5 0.343274 0.225032 0.970173
O O6 0.244600 0.474843 0.858871
O O7 0.439790 0.527998 0.042010
O O8 0.237770 0.443152 0.033481
O O9 0.500000 0.892508 0.500000
O O10 0.307392 0.677659 0.425462
O O11 0.276350 0.957755 0.326284
O O12 0.239911 0.928244 0.483913
O O13 0.601602 0.760258 0.101016
O O14 0.850173 0.713365 0.265080
O O15 0.732336 0.007976 0.193957
O O16 0.500000 0.463352 0.500000
#
# Coordination Sequence:
#
# PCOD9123815 Si02
#       8
#     4   4   4   4   2   4   4   4
#     4  11  22  45  68  94 136 182 227 290 346 421
#     4  10  21  40  64  95 137 178 229 284 337 420
#     4  11  23  46  69 102 139 181 231 295 361 420
#     4  11  23  41  66  97 135 178 230 284 345 416
#     4  10  20  40  64  92 136 180 222 286 340 404
#     4  11  24  42  66  99 137 181 233 280 351 412
#     4  10  21  42  67  92 135 180 221 285 350 406
#     4  11  24  45  74  99 142 180 236 294 360 422
#
# _framework density 24.199007000000002
#
# number of rings (size 3 to 8) (size 9 to 14) (size 15 to 20)
#    0.000    1.333    5.333    1.600    1.867    2.133 
#    4.800    0.000    0.000    0.000    0.000    0.000 
#    0.000    0.000    0.000    0.000    0.000    0.000 
#
# Total GULP energy -83539.052906 kJ/mol
# GULP energy per Si atom -5569.270194 kJ/mol
# Density = 2.414393 g / cm^3
# Si number density = 24.199007 Si / 1000 Ang^3
#
#
#
# Elastic Constant Matrix: (Units=GPa)
#
#
# Indices 1 2 3 4 5 6 
#
# 1 114.1564 37.3197 26.7561 0.0000 -28.6861 0.0000
# 2 37.3197 80.6783 12.9951 0.0000 -14.7712 0.0000
# 3 26.7561 12.9951 75.5174 0.0000 -26.2988 0.0000
# 4 0.0000 0.0000 0.0000 35.7627 0.0000 -8.0327
# 5 -28.6861 -14.7712 -26.2988 0.0000 36.2858 0.0000
# 6 0.0000 0.0000 0.0000 -8.0327 0.0000 -4.6764
#
#
#
# Elastic Compliance Matrix: (Units=1/GPa)
#
#
# Indices 1 2 3 4 5 6 
#
# 1 0.012166 -0.004144 -0.001117 0.000000 0.007121 0.000000
# 2 -0.004144 0.014821 -0.000163 0.000000 0.002639 0.000000
# 3 -0.001117 -0.000163 0.017837 0.000000 0.011978 0.000000
# 4 0.000000 0.000000 0.000000 0.020177 0.000000 -0.034659
# 5 0.007121 0.002639 0.011978 0.000000 0.042944 0.000000
# 6 0.000000 0.000000 0.000000 -0.034659 0.000000 -0.154305
#
#
# Mechanical properties :
#
#
# Convention : Reuss Voigt Hill
#
# Bulk Modulus (GPa) = 29.43288 47.16599 38.29943
# Shear Modulus (GPa) = -206.74791 26.35981 -90.19405
#
# Velocity S-wave (km/s) = -9.25322 3.30402 -6.11169
# Velocity P-wave (km/s) = 10.09819 5.83855 5.82601
#
# Compressibility (1/GPa) = 0.03397561
#
# Stress axis : x y z
#
# Youngs Moduli (GPa) = 82.19630 67.47072 56.06221
#
# Poissons Ratio (x) = 0.27959 0.06264
# Poissons Ratio (y) = 0.34061 0.00915
# Poissons Ratio (z) = 0.09185 0.01101
#
# Static dielectric constant tensor:
#      x y z
#    x 2.719850 0.000000 -0.509220 
#    y 0.000000 1.924350 0.000000 
#    z -0.509220 0.000000 2.395420 
# 
# From -- ./inp_files/52473.got.cif
#   From: 2010.05.17/outbox.cif.g08.bks.cpg/sg5_27_cif.got.tgz:52473.got - 2010.06.03 18:56:24.
