data_PCOD9123277
_publ_section_title
;
Structure prediction by ZEFSAII (Michael W. Deem and Ramdas Pophale) SiO2 
 PCOD9123277
Probable space group: C 2
;
_chemical_formula_sum "Si O2"
_cell_formula_units_Z 24
_cell_length_a 16.092471
_cell_length_b 9.264416
_cell_length_c 17.832320
_cell_angle_alpha 90.000000
_cell_angle_beta 28.115672
_cell_angle_gamma 90.000000
_cell_volume 1252.861023
_symmetry_space_group_name_H-M "C 2"
_symmetry_group_IT_number 5
_symmetry_cell_setting 'monoclinic'
loop_
_space_group_symop_operation_xyz
x,y,z
-x,y,-z
1/2+x,1/2+y,z
1/2-x,1/2+y,-z
loop_
_atom_site_type_symbol
_atom_site_label
_atom_site_fract_x
_atom_site_fract_y
_atom_site_fract_z
Si Si1 0.628393 0.897430 0.197159
Si Si2 0.866040 0.222547 0.317138
Si Si3 0.039041 0.712462 0.321394
Si Si4 0.800040 0.643768 0.138321
Si Si5 0.862802 0.966883 0.868394
Si Si6 0.824468 0.361899 0.191571
O O1 0.444908 0.828179 0.317219
O O2 0.699808 0.792984 0.205524
O O3 0.608187 0.061431 0.236119
O O4 0.757695 0.899667 0.021879
O O5 0.661756 0.193437 0.493978
O O6 0.880132 0.308316 0.228193
O O7 0.988536 0.079966 0.222435
O O8 0.055752 0.837630 0.245461
O O9 0.169557 0.761993 0.283461
O O10 0.764165 0.556587 0.088361
O O11 0.751542 0.525559 0.240391
O O12 0.000000 0.679075 0.000000
O O13 0.000000 0.354513 0.000000
#
# Coordination Sequence:
#
# PCOD9123277 Si02
#       6
#     4   4   4   4   4   4
#     4  11  21  36  60  87 115 153 197 245 292 354
#     4  11  22  38  59  86 118 155 196 246 300 348
#     4  11  22  37  58  88 121 152 192 249 301 345
#     4   9  19  35  56  83 112 146 194 242 285 341
#     4  10  21  38  60  86 116 156 199 238 292 358
#     4  10  20  38  60  82 113 156 199 240 291 356
#
# _framework density 19.156155999999999
#
# number of rings (size 3 to 8) (size 9 to 14) (size 15 to 20)
#    0.000    1.667    0.000    7.500    0.000    2.000 
#    0.000    0.000    0.000   12.000    0.000    0.000 
#    0.000    0.000    0.000    0.000    0.000    0.000 
#
# Total GULP energy -66964.873667 kJ/mol
# GULP energy per Si atom -5580.406139 kJ/mol
# Density = 1.911256 g / cm^3
# Si number density = 19.156156 Si / 1000 Ang^3
#
#
#
# Elastic Constant Matrix: (Units=GPa)
#
#
# Indices 1 2 3 4 5 6 
#
# 1 103.0117 56.3471 32.4000 0.0000 -24.3336 0.0000
# 2 56.3471 119.4691 12.1686 0.0001 -6.4200 0.0000
# 3 32.4000 12.1686 68.6337 0.0001 -16.9308 -0.0001
# 4 0.0000 0.0001 0.0001 21.9474 0.0000 -5.8326
# 5 -24.3336 -6.4200 -16.9308 0.0000 30.5308 0.0000
# 6 0.0000 0.0000 -0.0001 -5.8326 0.0000 31.3726
#
#
#
# Elastic Compliance Matrix: (Units=1/GPa)
#
#
# Indices 1 2 3 4 5 6 
#
# 1 0.017400 -0.007219 -0.004504 0.000000 0.009853 0.000000
# 2 -0.007219 0.011551 0.000625 0.000000 -0.002978 0.000000
# 3 -0.004504 0.000625 0.018226 0.000000 0.006649 0.000000
# 4 0.000000 0.000000 0.000000 0.047932 0.000000 0.008911
# 5 0.009853 -0.002978 0.006649 0.000000 0.043668 0.000000
# 6 0.000000 0.000000 0.000000 0.008911 0.000000 0.033532
#
#
# Mechanical properties :
#
#
# Convention : Reuss Voigt Hill
#
# Bulk Modulus (GPa) = 40.02789 54.77176 47.39982
# Shear Modulus (GPa) = 24.65122 29.45008 27.05065
#
# Velocity S-wave (km/s) = 3.59117 3.92518 3.76189
# Velocity P-wave (km/s) = 6.17546 7.01406 6.60808
#
# Compressibility (1/GPa) = 0.02498258
#
# Stress axis : x y z
#
# Youngs Moduli (GPa) = 57.47082 86.57061 54.86812
#
# Poissons Ratio (x) = 0.62491 0.24711
# Poissons Ratio (y) = 0.41485 -0.03430
# Poissons Ratio (z) = 0.25884 -0.05412
#
# Static dielectric constant tensor:
#      x y z
#    x 1.660340 0.000000 0.003720 
#    y 0.000000 1.675810 0.000000 
#    z 0.003720 0.000000 1.654330 
# 
# From -- ./inp_files/22859.got.cif
#   From: 2010.05.17/outbox.cif.g08.bks.cpg/sg5_12_cif.got.tgz:22859.got - 2010.06.03 18:56:24.
