data_PCOD9123127
_publ_section_title
;
Structure prediction by ZEFSAII (Michael W. Deem and Ramdas Pophale) SiO2 
 PCOD9123127
Probable space group: C 2
;
_chemical_formula_sum "Si O2"
_cell_formula_units_Z 32
_cell_length_a 15.300057
_cell_length_b 11.712806
_cell_length_c 19.681826
_cell_angle_alpha 90.000000
_cell_angle_beta 25.533145
_cell_angle_gamma 90.000000
_cell_volume 1520.302711
_symmetry_space_group_name_H-M "C 2"
_symmetry_group_IT_number 5
_symmetry_cell_setting 'monoclinic'
loop_
_space_group_symop_operation_xyz
x,y,z
-x,y,-z
1/2+x,1/2+y,z
1/2-x,1/2+y,-z
loop_
_atom_site_type_symbol
_atom_site_label
_atom_site_fract_x
_atom_site_fract_y
_atom_site_fract_z
Si Si1 0.239630 0.468160 0.846958
Si Si2 0.158147 0.607147 0.444553
Si Si3 0.167785 0.683944 0.822441
Si Si4 0.595454 0.250336 0.732250
Si Si5 0.503557 0.860704 0.600737
Si Si6 0.788999 0.997324 0.113493
Si Si7 0.584981 0.219766 0.280757
Si Si8 0.080583 0.001516 0.129423
O O1 0.295274 0.576352 0.760835
O O2 0.344610 0.348346 0.755257
O O3 0.296851 0.499549 0.884989
O O4 0.000000 0.453388 0.000000
O O5 0.393589 0.590913 0.263739
O O6 0.000000 0.653884 0.500000
O O7 0.077273 0.478840 0.516020
O O8 0.118567 0.686549 0.536826
O O9 0.084204 0.667795 0.805138
O O10 0.311906 0.791889 0.706986
O O11 0.000000 0.701699 0.000000
O O12 0.453529 0.209200 0.771710
O O13 0.512469 0.374413 0.811070
O O14 0.810240 0.275788 0.544057
O O15 0.398829 0.909660 0.742950
O O16 0.739551 0.116381 0.187386
O O17 0.812860 0.016713 0.017154
O O18 0.000000 0.956692 0.000000
#
# Coordination Sequence:
#
# PCOD9123127 Si02
#       8
#     4   4   4   4   4   4   4   4
#     4  10  24  42  59  88 140 181 215 262 334 409
#     4  10  20  38  65  93 124 158 215 279 336 387
#     4  11  22  36  64  90 127 168 219 269 332 389
#     4  10  21  39  60  90 129 169 212 273 326 393
#     4  10  20  37  62  95 119 153 206 274 332 373
#     4  11  21  37  68  96 120 156 218 278 329 386
#     4  10  23  40  62  87 129 171 215 259 332 397
#     4  10  21  39  66  97 128 168 219 283 330 385
#
# _framework density 21.048438999999998
#
# number of rings (size 3 to 8) (size 9 to 14) (size 15 to 20)
#    0.000    1.750    0.000    5.625    5.250    0.000 
#    0.000    2.500    0.000    0.000    0.000    0.000 
#    0.000    0.000    0.000    0.000    0.000    0.000 
#
# Total GULP energy -89079.645847 kJ/mol
# GULP energy per Si atom -5567.477865 kJ/mol
# Density = 2.100053 g / cm^3
# Si number density = 21.048439 Si / 1000 Ang^3
#
#
#
# Elastic Constant Matrix: (Units=GPa)
#
#
# Indices 1 2 3 4 5 6 
#
# 1 95.3755 36.4103 20.8670 0.0048 9.9835 -0.0017
# 2 36.4103 64.1939 31.0264 0.0116 7.6536 -0.0022
# 3 20.8670 31.0264 101.2820 0.0076 3.2530 -0.0009
# 4 0.0048 0.0116 0.0076 22.0739 -0.0041 0.0081
# 5 9.9835 7.6536 3.2530 -0.0041 25.0645 0.0022
# 6 -0.0017 -0.0022 -0.0009 0.0081 0.0022 21.0669
#
#
#
# Elastic Compliance Matrix: (Units=1/GPa)
#
#
# Indices 1 2 3 4 5 6 
#
# 1 0.013647 -0.007102 -0.000534 0.000000 -0.003198 0.000001
# 2 -0.007102 0.022594 -0.005350 -0.000009 -0.003376 0.000002
# 3 -0.000534 -0.005350 0.011611 -0.000001 0.000339 0.000000
# 4 0.000000 -0.000009 -0.000001 0.045302 0.000010 -0.000018
# 5 -0.003198 -0.003376 0.000339 0.000010 0.042158 -0.000005
# 6 0.000001 0.000002 0.000000 -0.000018 -0.000005 0.047468
#
#
# Mechanical properties :
#
#
# Convention : Reuss Voigt Hill
#
# Bulk Modulus (GPa) = 45.69782 48.60654 47.15218
# Shear Modulus (GPa) = 23.14335 25.14425 24.14380
#
# Velocity S-wave (km/s) = 3.31951 3.46003 3.39050
# Velocity P-wave (km/s) = 6.03739 6.25342 6.14636
#
# Compressibility (1/GPa) = 0.02188288
#
# Stress axis : x y z
#
# Youngs Moduli (GPa) = 73.27379 44.25964 86.12298
#
# Poissons Ratio (x) = 0.31431 0.04595
# Poissons Ratio (y) = 0.52036 0.46074
# Poissons Ratio (z) = 0.03910 0.23678
#
# Static dielectric constant tensor:
#      x y z
#    x 1.823800 0.000000 -0.007190 
#    y 0.000000 1.780910 0.000000 
#    z -0.007190 0.000000 1.807370 
# 
# From -- ./inp_files/61694.got.cif
#   From: 2010.05.17/outbox.cif.g08.bks.cpg/sg5_31_cif.got.tgz:61694.got - 2010.06.03 18:56:24.
