data_PCOD9123653
_publ_section_title
;
Structure prediction by ZEFSAII (Michael W. Deem and Ramdas Pophale) SiO2 
 PCOD9123653
Probable space group: C 2
;
_chemical_formula_sum "Si O2"
_cell_formula_units_Z 28
_cell_length_a 15.422610
_cell_length_b 9.165835
_cell_length_c 24.939030
_cell_angle_alpha 90.000000
_cell_angle_beta 21.754642
_cell_angle_gamma 90.000000
_cell_volume 1306.631690
_symmetry_space_group_name_H-M "C 2"
_symmetry_group_IT_number 5
_symmetry_cell_setting 'monoclinic'
loop_
_space_group_symop_operation_xyz
x,y,z
-x,y,-z
1/2+x,1/2+y,z
1/2-x,1/2+y,-z
loop_
_atom_site_type_symbol
_atom_site_label
_atom_site_fract_x
_atom_site_fract_y
_atom_site_fract_z
Si Si1 0.173036 0.044830 0.131320
Si Si2 0.717578 0.227905 0.094164
Si Si3 0.902778 0.673003 0.181137
Si Si4 0.916713 0.846902 0.448849
Si Si5 0.397662 0.704875 0.207125
Si Si6 0.995939 0.151963 0.660362
Si Si7 0.599739 0.971902 0.724993
O O1 0.965830 0.071339 0.206653
O O2 0.106834 0.139356 0.220872
O O3 0.204052 0.878135 0.133017
O O4 0.415161 0.089349 0.962623
O O5 0.567319 0.262796 0.126188
O O6 0.592341 0.083693 0.188456
O O7 0.970442 0.192106 0.925198
O O8 0.695366 0.736386 0.265622
O O9 0.785059 0.566047 0.293137
O O10 0.739613 0.736909 0.520667
O O11 0.772266 0.911087 0.582059
O O12 0.982264 0.986974 0.375016
O O13 0.504357 0.838571 0.181234
O O14 0.865868 0.752675 0.653648
#
# Coordination Sequence:
#
# PCOD9123653 Si02
#       7
#     4   4   4   4   4   4   4
#     4  11  21  37  68  94 116 152 212 264 300 360
#     4   9  19  38  69  94 114 152 216 262 294 358
#     4   9  21  39  65  89 117 159 201 254 310 365
#     4  12  26  41  61  89 127 173 200 250 312 382
#     4  11  19  41  66  92 117 162 211 251 303 371
#     4  12  26  39  58  87 131 162 200 249 322 376
#     4  10  20  39  66  88 118 166 206 246 310 371
#
# _framework density 21.429145999999999
#
# number of rings (size 3 to 8) (size 9 to 14) (size 15 to 20)
#    0.857    0.571    4.286    0.857    2.000    1.143 
#    0.000    0.000    0.000    0.000    0.000    0.000 
#    0.000    0.000    0.000    0.000    0.000    0.000 
#
# Total GULP energy -77983.633815 kJ/mol
# GULP energy per Si atom -5570.259558 kJ/mol
# Density = 2.138037 g / cm^3
# Si number density = 21.429146 Si / 1000 Ang^3
#
#
#
# Elastic Constant Matrix: (Units=GPa)
#
#
# Indices 1 2 3 4 5 6 
#
# 1 52.4035 -1.6980 36.1953 -0.0009 -10.5376 0.0006
# 2 -1.6980 36.2846 17.5772 -0.0011 -7.0317 0.0008
# 3 36.1953 17.5772 90.7401 -0.0195 -12.4491 -0.0013
# 4 -0.0009 -0.0011 -0.0195 30.5047 0.0002 2.5033
# 5 -10.5376 -7.0317 -12.4491 0.0002 22.1260 0.0020
# 6 0.0006 0.0008 -0.0013 2.5033 0.0020 18.0260
#
#
#
# Elastic Compliance Matrix: (Units=1/GPa)
#
#
# Indices 1 2 3 4 5 6 
#
# 1 0.030010 0.009399 -0.012376 -0.000006 0.010316 -0.000003
# 2 0.009399 0.034356 -0.008986 -0.000004 0.010339 -0.000003
# 3 -0.012376 -0.008986 0.017877 0.000011 0.001309 0.000001
# 4 -0.000006 -0.000004 0.000011 0.033160 0.000002 -0.004605
# 5 0.010316 0.010339 0.001309 0.000002 0.054131 -0.000007
# 6 -0.000003 -0.000003 0.000001 -0.004605 -0.000007 0.056115
#
#
# Mechanical properties :
#
#
# Convention : Reuss Voigt Hill
#
# Bulk Modulus (GPa) = 17.14759 31.50860 24.32810
# Shear Modulus (GPa) = 18.58643 22.62159 20.60401
#
# Velocity S-wave (km/s) = 2.94826 3.25260 3.10416
# Velocity P-wave (km/s) = 4.42821 5.37042 4.92191
#
# Compressibility (1/GPa) = 0.05831722
#
# Stress axis : x y z
#
# Youngs Moduli (GPa) = 33.32267 29.10685 55.93693
#
# Poissons Ratio (x) = -0.27356 0.69227
# Poissons Ratio (y) = -0.31319 0.50263
# Poissons Ratio (z) = 0.41240 0.26155
#
# Static dielectric constant tensor:
#      x y z
#    x 1.802930 -0.000010 -0.013000 
#    y -0.000010 1.820380 0.000000 
#    z -0.013000 0.000000 1.765570 
# 
# From -- ./inp_files/72216.got.cif
#   From: 2010.05.17/outbox.cif.g08.bks.cpg/sg5_37_cif.got.tgz:72216.got - 2010.06.03 18:56:24.
