data_PCOD9123060
_publ_section_title
;
Structure prediction by ZEFSAII (Michael W. Deem and Ramdas Pophale) SiO2 
 PCOD9123060
Probable space group: C 2
;
_chemical_formula_sum "Si O2"
_cell_formula_units_Z 26
_cell_length_a 19.833107
_cell_length_b 7.953173
_cell_length_c 9.114727
_cell_angle_alpha 90.000000
_cell_angle_beta 56.803048
_cell_angle_gamma 90.000000
_cell_volume 1203.076150
_symmetry_space_group_name_H-M "C 2"
_symmetry_group_IT_number 5
_symmetry_cell_setting 'monoclinic'
loop_
_space_group_symop_operation_xyz
x,y,z
-x,y,-z
1/2+x,1/2+y,z
1/2-x,1/2+y,-z
loop_
_atom_site_type_symbol
_atom_site_label
_atom_site_fract_x
_atom_site_fract_y
_atom_site_fract_z
Si Si1 0.939278 0.938660 0.791620
Si Si2 0.500000 0.639770 0.000000
Si Si3 0.705135 0.376576 0.855674
Si Si4 0.710890 0.082089 0.631462
Si Si5 0.374343 0.940692 0.559571
Si Si6 0.174176 0.225884 0.733076
Si Si7 0.000000 0.193606 0.500000
Si Si8 0.000000 0.693098 0.500000
O O1 0.997353 0.801631 0.650473
O O2 0.939652 0.081598 0.667308
O O3 0.851895 0.865196 0.936062
O O4 0.976580 0.019773 0.892628
O O5 0.578550 0.746367 0.863327
O O6 0.677801 0.234246 0.770140
O O7 0.801425 0.362408 0.740748
O O8 0.693955 0.569192 0.814537
O O9 0.792949 0.155722 0.462254
O O10 0.658446 0.022048 0.552504
O O11 0.717788 0.904383 0.708127
O O12 0.445839 0.806321 0.457243
O O13 0.419230 0.085452 0.595523
#
# Coordination Sequence:
#
# PCOD9123060 Si02
#       8
#     4   2   4   4   4   4   2   2
#     4  10  23  42  64  98 128 177 221 272 334 391
#     4  10  22  38  66  96 136 160 228 282 324 386
#     4  10  23  41  63 100 128 169 225 275 322 388
#     4  11  20  39  66  96 130 168 217 274 327 383
#     4  10  22  41  66  92 134 176 221 261 336 406
#     4  10  20  37  60  96 129 164 209 271 333 371
#     4  10  22  46  68  90 138 184 212 266 342 406
#     4  10  24  42  64  94 132 180 216 264 338 406
#
# _framework density 21.611267999999999
#
# number of rings (size 3 to 8) (size 9 to 14) (size 15 to 20)
#    0.000    1.846    3.077    0.923    4.308    1.231 
#   19.385    0.000    0.000    0.000    0.000    0.000 
#    0.000    0.000    0.000    0.000    0.000    0.000 
#
# Total GULP energy -72444.376011 kJ/mol
# GULP energy per Si atom -5572.644309 kJ/mol
# Density = 2.156208 g / cm^3
# Si number density = 21.611268 Si / 1000 Ang^3
#
#
#
# Elastic Constant Matrix: (Units=GPa)
#
#
# Indices 1 2 3 4 5 6 
#
# 1 52.7685 23.6912 26.8366 0.0000 -10.1914 0.0000
# 2 23.6912 90.0502 31.9366 0.0000 -4.4389 0.0000
# 3 26.8366 31.9366 129.4863 0.0000 -19.3731 0.0000
# 4 0.0000 0.0000 0.0000 15.6104 0.0000 -1.9458
# 5 -10.1914 -4.4389 -19.3731 0.0000 36.9752 0.0000
# 6 0.0000 0.0000 0.0000 -1.9458 0.0000 20.0190
#
#
#
# Elastic Compliance Matrix: (Units=1/GPa)
#
#
# Indices 1 2 3 4 5 6 
#
# 1 0.023521 -0.004905 -0.003020 0.000000 0.004312 0.000000
# 2 -0.004905 0.013193 -0.002390 0.000000 -0.001020 0.000000
# 3 -0.003020 -0.002390 0.009517 0.000000 0.003867 0.000000
# 4 0.000000 0.000000 0.000000 0.064846 0.000000 0.006303
# 5 0.004312 -0.001020 0.003867 0.000000 0.030137 0.000000
# 6 0.000000 0.000000 0.000000 0.006303 0.000000 0.050565
#
#
# Mechanical properties :
#
#
# Convention : Reuss Voigt Hill
#
# Bulk Modulus (GPa) = 39.06035 48.58155 43.82095
# Shear Modulus (GPa) = 22.63036 27.17693 24.90365
#
# Velocity S-wave (km/s) = 3.23949 3.55002 3.39830
# Velocity P-wave (km/s) = 5.66619 6.27153 5.97653
#
# Compressibility (1/GPa) = 0.02560141
#
# Stress axis : x y z
#
# Youngs Moduli (GPa) = 42.51445 75.80018 105.07755
#
# Poissons Ratio (x) = 0.37177 0.31735
# Poissons Ratio (y) = 0.20852 0.25113
# Poissons Ratio (z) = 0.12840 0.18116
#
# Static dielectric constant tensor:
#      x y z
#    x 1.805870 0.000000 -0.008090 
#    y 0.000000 1.831150 0.000000 
#    z -0.008090 0.000000 1.808500 
# 
# From -- ./inp_files/28912.got.cif
#   From: 2010.05.17/outbox.cif.g08.bks.cpg/sg5_15_cif.got.tgz:28912.got - 2010.06.03 18:56:24.
