data_PCOD9123055
_publ_section_title
;
Structure prediction by ZEFSAII (Michael W. Deem and Ramdas Pophale) SiO2 
 PCOD9123055
Probable space group: C 2
;
_chemical_formula_sum "Si O2"
_cell_formula_units_Z 28
_cell_length_a 13.071594
_cell_length_b 6.733282
_cell_length_c 15.416314
_cell_angle_alpha 90.000000
_cell_angle_beta 116.875131
_cell_angle_gamma 90.000000
_cell_volume 1210.313141
_symmetry_space_group_name_H-M "C 2"
_symmetry_group_IT_number 5
_symmetry_cell_setting 'monoclinic'
loop_
_space_group_symop_operation_xyz
x,y,z
-x,y,-z
1/2+x,1/2+y,z
1/2-x,1/2+y,-z
loop_
_atom_site_type_symbol
_atom_site_label
_atom_site_fract_x
_atom_site_fract_y
_atom_site_fract_z
Si Si1 0.000000 0.304840 0.000000
Si Si2 0.880366 0.264537 0.545422
Si Si3 0.653312 0.511065 0.871840
Si Si4 0.182788 0.269271 0.195682
Si Si5 0.500000 0.407013 0.500000
Si Si6 0.808798 0.606766 0.395067
Si Si7 0.512265 0.876843 0.755312
Si Si8 0.862733 0.610445 0.067421
O O1 0.907933 0.186630 0.908919
O O2 0.068088 0.456427 0.964502
O O3 0.935095 0.056511 0.538894
O O4 0.848094 0.398613 0.450578
O O5 0.770914 0.209362 0.561809
O O6 0.969515 0.383993 0.640690
O O7 0.729969 0.406388 0.825853
O O8 0.562859 0.659139 0.795470
O O9 0.596689 0.334786 0.905579
O O10 0.739155 0.618315 0.973199
O O11 0.238183 0.105919 0.279129
O O12 0.102906 0.401059 0.230277
O O13 0.411495 0.260941 0.419685
O O14 0.612963 0.020275 0.827531
#
# Coordination Sequence:
#
# PCOD9123055 Si02
#       8
#     2   4   4   4   2   4   4   4
#     4   8  18  40  60  92 134 172 218 276 324 402
#     4  11  24  43  69  99 138 180 237 287 346 408
#     4  11  20  39  63  94 133 172 216 273 327 406
#     4   9  21  40  66  91 131 173 214 273 332 391
#     4  12  24  42  72  98 136 182 222 292 346 408
#     4  11  23  45  68 100 138 179 234 289 343 416
#     4  10  22  41  62  94 129 176 221 273 336 398
#     4  10  20  37  60  89 129 171 219 269 327 397
#
# _framework density 23.134506999999999
#
# number of rings (size 3 to 8) (size 9 to 14) (size 15 to 20)
#    0.000    1.714    2.857    1.286    0.000    3.429 
#    2.571    0.000    0.000    0.000    0.000    0.000 
#    0.000    0.000    0.000    0.000    0.000    0.000 
#
# Total GULP energy -78192.770310 kJ/mol
# GULP energy per Si atom -5585.197879 kJ/mol
# Density = 2.308185 g / cm^3
# Si number density = 23.134507 Si / 1000 Ang^3
#
#
#
# Elastic Constant Matrix: (Units=GPa)
#
#
# Indices 1 2 3 4 5 6 
#
# 1 85.7852 35.4144 34.5472 0.0000 -6.6733 0.0000
# 2 35.4144 80.6274 25.5508 0.0000 4.7214 0.0000
# 3 34.5472 25.5508 96.7894 0.0000 13.3858 0.0000
# 4 0.0000 0.0000 0.0000 36.6067 0.0000 -1.6415
# 5 -6.6733 4.7214 13.3858 0.0000 27.2111 0.0000
# 6 0.0000 0.0000 0.0000 -1.6415 0.0000 31.2430
#
#
#
# Elastic Compliance Matrix: (Units=1/GPa)
#
#
# Indices 1 2 3 4 5 6 
#
# 1 0.017085 -0.006209 -0.005566 0.000000 0.008005 0.000000
# 2 -0.006209 0.015802 -0.001465 0.000000 -0.003544 0.000000
# 3 -0.005566 -0.001465 0.013797 0.000000 -0.007898 0.000000
# 4 0.000000 0.000000 0.000000 0.027382 0.000000 0.001439
# 5 0.008005 -0.003544 -0.007898 0.000000 0.043213 0.000000
# 6 0.000000 0.000000 0.000000 0.001439 0.000000 0.032083
#
#
# Mechanical properties :
#
#
# Convention : Reuss Voigt Hill
#
# Bulk Modulus (GPa) = 49.49662 50.46967 49.98315
# Shear Modulus (GPa) = 27.38582 30.19147 28.78865
#
# Velocity S-wave (km/s) = 3.44432 3.61645 3.53144
# Velocity P-wave (km/s) = 6.10405 6.26909 6.18712
#
# Compressibility (1/GPa) = 0.02020340
#
# Stress axis : x y z
#
# Youngs Moduli (GPa) = 58.53244 63.28408 72.47711
#
# Poissons Ratio (x) = 0.39293 0.40341
# Poissons Ratio (y) = 0.36343 0.10619
# Poissons Ratio (z) = 0.32579 0.09272
#
# Static dielectric constant tensor:
#      x y z
#    x 1.954930 0.000000 -0.004090 
#    y 0.000000 1.810980 0.000000 
#    z -0.004090 0.000000 1.902730 
# 
# From -- ./inp_files/61166.got.cif
#   From: 2010.05.17/outbox.cif.g08.bks.cpg/sg5_31_cif.got.tgz:61166.got - 2010.06.03 18:56:24.
