data_PCOD9123324
_publ_section_title
;
Structure prediction by ZEFSAII (Michael W. Deem and Ramdas Pophale) SiO2 
 PCOD9123324
Probable space group: C 2
;
_chemical_formula_sum "Si O2"
_cell_formula_units_Z 30
_cell_length_a 15.094010
_cell_length_b 11.114514
_cell_length_c 8.610418
_cell_angle_alpha 90.000000
_cell_angle_beta 113.418435
_cell_angle_gamma 90.000000
_cell_volume 1325.517398
_symmetry_space_group_name_H-M "C 2"
_symmetry_group_IT_number 5
_symmetry_cell_setting 'monoclinic'
loop_
_space_group_symop_operation_xyz
x,y,z
-x,y,-z
1/2+x,1/2+y,z
1/2-x,1/2+y,-z
loop_
_atom_site_type_symbol
_atom_site_label
_atom_site_fract_x
_atom_site_fract_y
_atom_site_fract_z
Si Si1 0.813872 0.899300 0.292912
Si Si2 0.847662 0.789277 0.847644
Si Si3 0.500000 0.926574 0.000000
Si Si4 0.610722 0.580180 0.411966
Si Si5 0.982634 0.862820 0.215937
Si Si6 0.131265 0.341863 0.362500
Si Si7 0.321878 0.049735 0.016274
Si Si8 0.789428 0.497996 0.341452
O O1 0.857979 0.015168 0.409336
O O2 0.908029 0.827851 0.300399
O O3 0.739850 0.840270 0.363575
O O4 0.750693 0.949828 0.105430
O O5 0.758357 0.868607 0.733177
O O6 0.925020 0.778559 0.759529
O O7 0.912728 0.860703 0.018261
O O8 0.811446 0.670442 0.908048
O O9 0.563382 0.853655 0.165647
O O10 0.428782 0.007095 0.050811
O O11 0.527388 0.494648 0.282400
O O12 0.596209 0.721052 0.421386
O O13 0.703223 0.568989 0.363777
O O14 0.131266 0.458266 0.475983
O O15 0.312777 0.059158 0.194400
#
# Coordination Sequence:
#
# PCOD9123324 Si02
#       8
#     4   4   2   4   4   4   4   4
#     4  10  21  41  65  93 128 170 225 265 314 398
#     4  10  21  38  65  98 131 163 210 273 330 377
#     4  10  24  42  60  92 130 174 222 276 316 406
#     4  10  22  40  63  96 133 169 211 275 327 378
#     4  10  20  38  61  97 130 162 216 267 314 389
#     4  10  23  43  64  92 135 171 219 274 330 382
#     4  11  22  41  66  90 130 173 218 264 335 381
#     4  10  22  40  66  95 126 171 221 266 320 406
#
# _framework density 22.632673
#
# number of rings (size 3 to 8) (size 9 to 14) (size 15 to 20)
#    0.000    1.867    1.333    2.000    1.867    2.667 
#    7.200    1.333    5.867    0.000    0.000    0.000 
#    0.000    0.000    0.000    0.000    0.000    0.000 
#
# Total GULP energy -83713.363560 kJ/mol
# GULP energy per Si atom -5580.890904 kJ/mol
# Density = 2.258116 g / cm^3
# Si number density = 22.632673 Si / 1000 Ang^3
#
#
#
# Elastic Constant Matrix: (Units=GPa)
#
#
# Indices 1 2 3 4 5 6 
#
# 1 77.0503 14.9889 23.9127 0.0000 -25.5130 0.0000
# 2 14.9889 57.1268 -0.5962 0.0000 -0.4266 0.0000
# 3 23.9127 -0.5962 70.8723 0.0000 -2.9400 0.0000
# 4 0.0000 0.0000 0.0000 22.3478 0.0000 4.0124
# 5 -25.5130 -0.4266 -2.9400 0.0000 44.0779 0.0000
# 6 0.0000 0.0000 0.0000 4.0124 0.0000 -5.7713
#
#
#
# Elastic Compliance Matrix: (Units=1/GPa)
#
#
# Indices 1 2 3 4 5 6 
#
# 1 0.019457 -0.005089 -0.006160 0.000000 0.010802 0.000000
# 2 -0.005089 0.018839 0.001766 0.000000 -0.002645 0.000000
# 3 -0.006160 0.001766 0.016100 0.000000 -0.002474 0.000000
# 4 0.000000 0.000000 0.000000 0.039781 0.000000 0.027658
# 5 0.010802 -0.002645 -0.002474 0.000000 0.028749 0.000000
# 6 0.000000 0.000000 0.000000 0.027658 0.000000 -0.154043
#
#
# Mechanical properties :
#
#
# Convention : Reuss Voigt Hill
#
# Bulk Modulus (GPa) = 28.22400 31.29558 29.75979
# Shear Modulus (GPa) = -14616.55139 23.24715 -7296.65212
#
# Velocity S-wave (km/s) = -80.44989 3.20839 -56.84140
# Velocity P-wave (km/s) = 92.82823 5.25192 65.53434
#
# Compressibility (1/GPa) = 0.03543084
#
# Stress axis : x y z
#
# Youngs Moduli (GPa) = 51.39587 53.08204 62.11039
#
# Poissons Ratio (x) = 0.27012 0.38257
# Poissons Ratio (y) = 0.26154 -0.10967
# Poissons Ratio (z) = 0.31658 -0.09373
#
# Static dielectric constant tensor:
#      x y z
#    x 1.898820 0.000000 -0.049760 
#    y 0.000000 1.866190 0.000000 
#    z -0.049760 0.000000 1.917070 
# 
# From -- ./inp_files/23916.got.cif
#   From: 2010.05.17/outbox.cif.g08.bks.cpg/sg5_12_cif.got.tgz:23916.got - 2010.06.03 18:56:24.
