data_PCOD9123574
_publ_section_title
;
Structure prediction by ZEFSAII (Michael W. Deem and Ramdas Pophale) SiO2 
 PCOD9123574
Probable space group: C 2
;
_chemical_formula_sum "Si O2"
_cell_formula_units_Z 26
_cell_length_a 11.282476
_cell_length_b 14.498254
_cell_length_c 11.185141
_cell_angle_alpha 90.000000
_cell_angle_beta 141.688837
_cell_angle_gamma 90.000000
_cell_volume 1134.241631
_symmetry_space_group_name_H-M "C 2"
_symmetry_group_IT_number 5
_symmetry_cell_setting 'monoclinic'
loop_
_space_group_symop_operation_xyz
x,y,z
-x,y,-z
1/2+x,1/2+y,z
1/2-x,1/2+y,-z
loop_
_atom_site_type_symbol
_atom_site_label
_atom_site_fract_x
_atom_site_fract_y
_atom_site_fract_z
Si Si1 0.809782 0.339440 0.924721
Si Si2 0.000000 0.173100 0.500000
Si Si3 0.667147 0.810728 0.779340
Si Si4 0.500000 0.354738 0.500000
Si Si5 0.566816 0.021878 0.678960
Si Si6 0.234536 0.052183 0.935236
Si Si7 0.673044 0.524887 0.506276
Si Si8 0.000000 0.691566 0.000000
O O1 0.632161 0.306590 0.702536
O O2 0.797520 0.450712 0.937008
O O3 0.800941 0.303829 0.053544
O O4 0.000000 0.318942 0.000000
O O5 0.001139 0.241612 0.389465
O O6 0.831217 0.099477 0.390144
O O7 0.627472 0.914917 0.711371
O O8 0.836940 0.766289 0.835016
O O9 0.635095 0.424786 0.532250
O O10 0.500000 0.062790 0.500000
O O11 0.373350 0.024345 0.601984
O O12 0.732459 0.060552 0.896054
O O13 0.378523 0.127070 0.992856
O O14 0.010317 0.053248 0.720360
#
# Coordination Sequence:
#
# PCOD9123574 Si02
#       8
#     4   2   4   2   4   4   4   2
#     4  10  20  39  61  95 129 172 217 271 328 400
#     4  11  20  44  66 102 123 172 234 285 330 380
#     4  11  24  38  66 100 140 170 215 290 344 389
#     4   9  18  34  64  94 117 162 236 267 308 384
#     4  11  24  41  61  97 140 177 214 269 339 420
#     4  10  21  39  70  96 123 176 232 280 313 398
#     4  10  21  38  70  95 122 176 235 273 321 394
#     4  12  22  44  70 100 132 168 234 284 338 384
#
# _framework density 22.922803999999999
#
# number of rings (size 3 to 8) (size 9 to 14) (size 15 to 20)
#    0.000    1.538    3.077    2.769    2.154    4.308 
#    2.769    1.538    1.692    0.000    2.000    0.000 
#    0.000    0.000    0.000    0.000    0.000    0.000 
#
# Total GULP energy -72505.257053 kJ/mol
# GULP energy per Si atom -5577.327466 kJ/mol
# Density = 2.287063 g / cm^3
# Si number density = 22.922804 Si / 1000 Ang^3
#
#
#
# Elastic Constant Matrix: (Units=GPa)
#
#
# Indices 1 2 3 4 5 6 
#
# 1 25.5625 1.8944 25.6633 0.0000 -1.8248 0.0000
# 2 1.8944 64.3289 12.2647 0.0000 3.1745 0.0000
# 3 25.6633 12.2647 167.4010 0.0000 -33.8546 0.0000
# 4 0.0000 0.0000 0.0000 12.5885 0.0000 -19.8719
# 5 -1.8248 3.1745 -33.8546 0.0000 36.5361 0.0000
# 6 0.0000 0.0000 0.0000 -19.8719 0.0000 5.7318
#
#
#
# Elastic Compliance Matrix: (Units=1/GPa)
#
#
# Indices 1 2 3 4 5 6 
#
# 1 0.047080 0.000473 -0.008350 0.000000 -0.005427 0.000000
# 2 0.000473 0.016042 -0.001877 0.000000 -0.003109 0.000000
# 3 -0.008350 -0.001877 0.009032 0.000000 0.008116 0.000000
# 4 0.000000 0.000000 0.000000 -0.017760 0.000000 -0.061573
# 5 -0.005427 -0.003109 0.008116 0.000000 0.034889 0.000000
# 6 0.000000 0.000000 0.000000 -0.061573 0.000000 -0.039005
#
#
# Mechanical properties :
#
#
# Convention : Reuss Voigt Hill
#
# Bulk Modulus (GPa) = 18.99385 37.43746 28.21565
# Shear Modulus (GPa) = 57.25104 25.46928 41.36016
#
# Velocity S-wave (km/s) = 5.00298 3.33692 4.25234
# Velocity P-wave (km/s) = 6.45578 5.58696 6.03702
#
# Compressibility (1/GPa) = 0.05264863
#
# Stress axis : x y z
#
# Youngs Moduli (GPa) = 21.24042 62.33477 110.71143
#
# Poissons Ratio (x) = -0.02950 0.92441
# Poissons Ratio (y) = -0.01005 0.20777
# Poissons Ratio (z) = 0.17735 0.11698
#
# Static dielectric constant tensor:
#      x y z
#    x 1.836340 0.000000 -0.017930 
#    y 0.000000 1.873520 0.000000 
#    z -0.017930 0.000000 2.176590 
# 
# From -- ./inp_files/40399.got.cif
#   From: 2010.05.17/outbox.cif.g08.bks.cpg/sg5_21_cif.got.tgz:40399.got - 2010.06.03 18:56:24.
