data_PCOD9123439
_publ_section_title
;
Structure prediction by ZEFSAII (Michael W. Deem and Ramdas Pophale) SiO2 
 PCOD9123439
Probable space group: C 2
;
_chemical_formula_sum "Si O2"
_cell_formula_units_Z 30
_cell_length_a 14.950636
_cell_length_b 16.876539
_cell_length_c 12.296254
_cell_angle_alpha 90.000000
_cell_angle_beta 151.551294
_cell_angle_gamma 90.000000
_cell_volume 1477.957458
_symmetry_space_group_name_H-M "C 2"
_symmetry_group_IT_number 5
_symmetry_cell_setting 'monoclinic'
loop_
_space_group_symop_operation_xyz
x,y,z
-x,y,-z
1/2+x,1/2+y,z
1/2-x,1/2+y,-z
loop_
_atom_site_type_symbol
_atom_site_label
_atom_site_fract_x
_atom_site_fract_y
_atom_site_fract_z
Si Si1 0.163197 0.051550 0.266048
Si Si2 0.428341 0.442422 0.130277
Si Si3 0.489742 0.931454 0.648406
Si Si4 0.283488 0.217770 0.481530
Si Si5 0.488901 0.857452 0.867769
Si Si6 0.910013 0.812228 0.284129
Si Si7 0.500000 0.334997 0.000000
Si Si8 0.633973 0.755452 0.556107
O O1 0.240915 0.138379 0.371023
O O2 0.339529 0.991797 0.436402
O O3 0.050742 0.020761 0.251868
O O4 0.000000 0.050826 0.000000
O O5 0.452157 0.394435 0.266586
O O6 0.508820 0.388151 0.117589
O O7 0.207646 0.454538 0.870072
O O8 0.453201 0.922975 0.738247
O O9 0.460566 0.840802 0.576744
O O10 0.499424 0.243879 0.694629
O O11 0.204867 0.214848 0.520779
O O12 0.171023 0.291412 0.309327
O O13 0.500000 0.891336 0.000000
O O14 0.685068 0.812849 0.051507
O O15 0.000000 0.807762 0.500000
O O16 0.319965 0.281049 0.817485
O O17 0.500000 0.713438 0.500000
#
# Coordination Sequence:
#
# PCOD9123439 Si02
#       8
#     4   4   4   4   4   4   2   4
#     4  12  25  40  60  87 133 169 197 252 317 385
#     4  11  21  39  62  95 118 161 213 265 311 360
#     4  10  22  37  61  93 121 155 211 263 302 362
#     4  11  24  41  57  91 132 163 203 249 314 384
#     4  10  20  38  65  91 118 161 213 257 307 355
#     4  11  22  38  66  94 122 163 214 263 304 361
#     4  12  18  34  64  90 116 142 210 272 310 348
#     4  11  21  37  66  89 115 156 210 267 306 350
#
# _framework density 20.298283999999999
#
# number of rings (size 3 to 8) (size 9 to 14) (size 15 to 20)
#    0.000    1.067    6.000    1.200    0.000    1.067 
#    0.000    0.667    1.467    0.000    0.000    0.000 
#    0.000    0.000    0.000    0.000    0.000    0.000 
#
# Total GULP energy -83729.261588 kJ/mol
# GULP energy per Si atom -5581.950773 kJ/mol
# Density = 2.025208 g / cm^3
# Si number density = 20.298284 Si / 1000 Ang^3
#
#
#
# Elastic Constant Matrix: (Units=GPa)
#
#
# Indices 1 2 3 4 5 6 
#
# 1 114.2101 10.5852 23.9912 0.0000 -3.0710 0.0000
# 2 10.5852 43.4505 18.9718 0.0000 8.2676 0.0000
# 3 23.9912 18.9718 76.1533 0.0000 15.5082 0.0000
# 4 0.0000 0.0000 0.0000 20.6287 0.0000 -3.3083
# 5 -3.0710 8.2676 15.5082 0.0000 46.3214 0.0000
# 6 0.0000 0.0000 0.0000 -3.3083 0.0000 8.7968
#
#
#
# Elastic Compliance Matrix: (Units=1/GPa)
#
#
# Indices 1 2 3 4 5 6 
#
# 1 0.009577 -0.001356 -0.003067 0.000000 0.001904 0.000000
# 2 -0.001356 0.026319 -0.005532 0.000000 -0.002935 0.000000
# 3 -0.003067 -0.005532 0.016437 0.000000 -0.004719 0.000000
# 4 0.000000 0.000000 0.000000 0.051588 0.000000 0.019401
# 5 0.001904 -0.002935 -0.004719 0.000000 0.023818 0.000000
# 6 0.000000 0.000000 0.000000 0.019401 0.000000 0.120974
#
#
# Mechanical properties :
#
#
# Convention : Reuss Voigt Hill
#
# Bulk Modulus (GPa) = 30.84246 37.87895 34.36070
# Shear Modulus (GPa) = 17.89358 27.16708 22.53033
#
# Velocity S-wave (km/s) = 2.97228 3.66237 3.33522
# Velocity P-wave (km/s) = 5.19681 6.04861 5.63882
#
# Compressibility (1/GPa) = 0.03242284
#
# Stress axis : x y z
#
# Youngs Moduli (GPa) = 104.41765 37.99543 60.83952
#
# Poissons Ratio (x) = 0.05153 0.18659
# Poissons Ratio (y) = 0.14161 0.33655
# Poissons Ratio (z) = 0.32024 0.21018
#
# Static dielectric constant tensor:
#      x y z
#    x 1.791540 0.000000 0.009030 
#    y 0.000000 1.693420 0.000000 
#    z 0.009030 0.000000 1.748680 
# 
# From -- ./inp_files/43341.got.cif
#   From: 2010.05.17/outbox.cif.g08.bks.cpg/sg5_22_cif.got.tgz:43341.got - 2010.06.03 18:56:24.
