data_PCOD9123199
_publ_section_title
;
Structure prediction by ZEFSAII (Michael W. Deem and Ramdas Pophale) SiO2 
 PCOD9123199
Probable space group: C 2
;
_chemical_formula_sum "Si O2"
_cell_formula_units_Z 28
_cell_length_a 6.564820
_cell_length_b 15.709695
_cell_length_c 16.204730
_cell_angle_alpha 90.000000
_cell_angle_beta 124.129488
_cell_angle_gamma 90.000000
_cell_volume 1383.384617
_symmetry_space_group_name_H-M "C 2"
_symmetry_group_IT_number 5
_symmetry_cell_setting 'monoclinic'
loop_
_space_group_symop_operation_xyz
x,y,z
-x,y,-z
1/2+x,1/2+y,z
1/2-x,1/2+y,-z
loop_
_atom_site_type_symbol
_atom_site_label
_atom_site_fract_x
_atom_site_fract_y
_atom_site_fract_z
Si Si1 0.500000 0.309070 0.500000
Si Si2 0.975578 0.277519 0.331322
Si Si3 0.654052 0.479125 0.799876
Si Si4 0.431782 0.144999 0.810669
Si Si5 0.630990 0.544089 0.111672
Si Si6 0.257487 0.910385 0.411078
Si Si7 0.000000 0.740151 0.000000
Si Si8 0.082920 0.367896 0.858714
O O1 0.259751 0.256712 0.416356
O O2 0.594680 0.369568 0.447060
O O3 0.772745 0.204221 0.276861
O O4 0.877559 0.336670 0.382492
O O5 0.973306 0.329215 0.244446
O O6 0.807663 0.553930 0.794190
O O7 0.565740 0.516310 0.866032
O O8 0.419356 0.460753 0.690058
O O9 0.828436 0.395975 0.844351
O O10 0.491478 0.185127 0.914187
O O11 0.681719 0.119278 0.819636
O O12 0.766052 0.455349 0.119695
O O13 0.500000 0.576028 0.000000
O O14 0.500000 0.958561 0.500000
O O15 0.758872 0.800793 0.944281
#
# Coordination Sequence:
#
# PCOD9123199 Si02
#       8
#     2   4   4   4   4   4   2   4
#     4  10  20  38  70  92 124 156 220 266 320 376
#     4  10  20  40  61  95 121 162 207 265 317 379
#     4  11  22  41  64  92 123 174 208 263 324 378
#     4  10  24  39  61  89 136 162 206 262 325 377
#     4  11  22  40  59  92 129 169 208 261 310 383
#     4  10  21  37  67  93 120 162 216 264 316 381
#     4  10  20  44  58  96 130 172 218 264 308 384
#     4  10  20  37  66  87 123 160 219 259 306 376
#
# _framework density 20.240214000000002
#
# number of rings (size 3 to 8) (size 9 to 14) (size 15 to 20)
#    0.000    1.714    3.571    0.857    0.000    2.857 
#    3.857    1.429    4.714    0.000    0.000    0.000 
#    0.000    0.000    0.000    0.000    0.000    0.000 
#
# Total GULP energy -78118.521017 kJ/mol
# GULP energy per Si atom -5579.894358 kJ/mol
# Density = 2.019415 g / cm^3
# Si number density = 20.240214 Si / 1000 Ang^3
#
#
#
# Elastic Constant Matrix: (Units=GPa)
#
#
# Indices 1 2 3 4 5 6 
#
# 1 98.1407 9.7806 27.9753 0.0000 5.6972 0.0000
# 2 9.7806 46.0549 16.7136 0.0000 19.7574 0.0000
# 3 27.9753 16.7136 97.6514 0.0000 22.6287 0.0000
# 4 0.0000 0.0000 0.0000 38.1306 0.0000 27.3797
# 5 5.6972 19.7574 22.6287 0.0000 29.3418 0.0000
# 6 0.0000 0.0000 0.0000 27.3797 0.0000 34.8431
#
#
#
# Elastic Compliance Matrix: (Units=1/GPa)
#
#
# Indices 1 2 3 4 5 6 
#
# 1 0.011214 -0.001888 -0.003263 0.000000 0.001610 0.000000
# 2 -0.001888 0.030877 -0.000013 0.000000 -0.020414 0.000000
# 3 -0.003263 -0.000013 0.013428 0.000000 -0.009714 0.000000
# 4 0.000000 0.000000 0.000000 0.060184 0.000000 -0.047293
# 5 0.001610 -0.020414 -0.009714 0.000000 0.055006 0.000000
# 6 0.000000 0.000000 0.000000 -0.047293 0.000000 0.065863
#
#
# Mechanical properties :
#
#
# Convention : Reuss Voigt Hill
#
# Bulk Modulus (GPa) = 22.12829 38.97621 30.55225
# Shear Modulus (GPa) = 19.08659 32.95491 26.02075
#
# Velocity S-wave (km/s) = 3.07417 4.03946 3.58941
# Velocity P-wave (km/s) = 4.85358 6.40741 5.68385
#
# Compressibility (1/GPa) = 0.04519103
#
# Stress axis : x y z
#
# Youngs Moduli (GPa) = 89.17286 32.38693 74.46899
#
# Poissons Ratio (x) = 0.06116 0.24296
# Poissons Ratio (y) = 0.16839 0.00098
# Poissons Ratio (z) = 0.29093 0.00043
#
# Static dielectric constant tensor:
#      x y z
#    x 1.788200 0.000000 0.048730 
#    y 0.000000 1.692540 0.000000 
#    z 0.048730 0.000000 1.758050 
# 
# From -- ./inp_files/49098.got.cif
#   From: 2010.05.17/outbox.cif.g08.bks.cpg/sg5_25_cif.got.tgz:49098.got - 2010.06.03 18:56:24.
