data_PCOD9123997
_publ_section_title
;
Structure prediction by ZEFSAII (Michael W. Deem and Ramdas Pophale) SiO2 
 PCOD9123997
Probable space group: C 2
;
_chemical_formula_sum "Si O2"
_cell_formula_units_Z 30
_cell_length_a 19.404046
_cell_length_b 9.033814
_cell_length_c 7.971789
_cell_angle_alpha 90.000000
_cell_angle_beta 103.663529
_cell_angle_gamma 90.000000
_cell_volume 1357.848431
_symmetry_space_group_name_H-M "C 2"
_symmetry_group_IT_number 5
_symmetry_cell_setting 'monoclinic'
loop_
_space_group_symop_operation_xyz
x,y,z
-x,y,-z
1/2+x,1/2+y,z
1/2-x,1/2+y,-z
loop_
_atom_site_type_symbol
_atom_site_label
_atom_site_fract_x
_atom_site_fract_y
_atom_site_fract_z
Si Si1 0.806035 0.840830 0.231832
Si Si2 0.812909 0.152658 0.370424
Si Si3 0.183636 0.171399 0.250710
Si Si4 0.473696 0.369862 0.297242
Si Si5 0.964103 0.205083 0.303693
Si Si6 0.395142 0.914354 0.022242
Si Si7 0.253804 0.902677 0.141729
Si Si8 0.500000 0.164750 0.000000
O O1 0.765637 0.723795 0.322500
O O2 0.889494 0.845338 0.266495
O O3 0.779812 0.000851 0.284158
O O4 0.776042 0.809446 0.030190
O O5 0.840340 0.138649 0.575424
O O6 0.881719 0.176403 0.296122
O O7 0.766129 0.296921 0.307196
O O8 0.195113 0.026277 0.146016
O O9 0.137799 0.297116 0.130828
O O10 0.500000 0.338614 0.500000
O O11 0.491657 0.542535 0.268258
O O12 0.501883 0.265998 0.166748
O O13 0.958456 0.330206 0.160048
O O14 0.000000 0.251024 0.500000
O O15 0.330589 0.955336 0.113841
O O16 0.430665 0.060034 0.967815
#
# Coordination Sequence:
#
# PCOD9123997 Si02
#       8
#     4   4   4   4   4   4   4   2
#     4  10  20  41  63  86 130 165 205 261 329 381
#     4  10  21  36  61  98 119 161 214 264 318 380
#     4  11  21  38  61  96 125 161 214 258 323 388
#     4  10  23  47  65  96 131 175 220 273 329 390
#     4   9  20  42  67  88 131 172 218 268 329 387
#     4  10  24  41  65  97 127 176 212 270 325 392
#     4  10  20  41  65  88 128 165 205 265 324 380
#     4  12  26  44  64  98 132 178 226 262 332 400
#
# _framework density 22.093775999999998
#
# number of rings (size 3 to 8) (size 9 to 14) (size 15 to 20)
#    0.000    1.867    0.000    4.800    1.867    2.133 
#   24.000    0.000    0.000    0.000    0.000    0.000 
#    0.000    0.000    0.000    0.000    0.000    0.000 
#
# Total GULP energy -83739.612601 kJ/mol
# GULP energy per Si atom -5582.640840 kJ/mol
# Density = 2.204349 g / cm^3
# Si number density = 22.093776 Si / 1000 Ang^3
#
#
#
# Elastic Constant Matrix: (Units=GPa)
#
#
# Indices 1 2 3 4 5 6 
#
# 1 48.9421 20.0256 18.0711 0.0000 4.8560 0.0000
# 2 20.0256 83.0696 49.3305 0.0000 -12.2414 0.0000
# 3 18.0711 49.3305 106.3454 0.0000 -2.6670 0.0000
# 4 0.0000 0.0000 0.0000 24.0658 0.0000 4.6199
# 5 4.8560 -12.2414 -2.6670 0.0000 35.1822 0.0000
# 6 0.0000 0.0000 0.0000 4.6199 0.0000 24.9136
#
#
#
# Elastic Compliance Matrix: (Units=1/GPa)
#
#
# Indices 1 2 3 4 5 6 
#
# 1 0.023839 -0.005591 -0.001592 0.000000 -0.005356 0.000000
# 2 -0.005591 0.018936 -0.007664 0.000000 0.006779 0.000000
# 3 -0.001592 -0.007664 0.013193 0.000000 -0.001447 0.000000
# 4 0.000000 0.000000 0.000000 0.043087 0.000000 -0.007990
# 5 -0.005356 0.006779 -0.001447 0.000000 0.031412 0.000000
# 6 0.000000 0.000000 0.000000 -0.007990 0.000000 0.041620
#
#
# Mechanical properties :
#
#
# Convention : Reuss Voigt Hill
#
# Bulk Modulus (GPa) = 38.05952 45.91238 41.98595
# Shear Modulus (GPa) = 23.74866 26.89429 25.32147
#
# Velocity S-wave (km/s) = 3.28213 3.49274 3.38907
# Velocity P-wave (km/s) = 5.62378 6.09027 5.86167
#
# Compressibility (1/GPa) = 0.02627463
#
# Stress axis : x y z
#
# Youngs Moduli (GPa) = 41.94776 52.80923 75.80045
#
# Poissons Ratio (x) = 0.29526 0.12066
# Poissons Ratio (y) = 0.23453 0.58092
# Poissons Ratio (z) = 0.06677 0.40472
#
# Static dielectric constant tensor:
#      x y z
#    x 1.853130 0.000000 -0.017140 
#    y 0.000000 1.859440 0.000000 
#    z -0.017140 0.000000 1.794290 
# 
# From -- ./inp_files/28974.got.cif
#   From: 2010.05.17/outbox.cif.g08.bks.cpg/sg5_15_cif.got.tgz:28974.got - 2010.06.03 18:56:24.
