data_PCOD9123087
_publ_section_title
;
Structure prediction by ZEFSAII (Michael W. Deem and Ramdas Pophale) SiO2 
 PCOD9123087
Probable space group: C 2
;
_chemical_formula_sum "Si O2"
_cell_formula_units_Z 32
_cell_length_a 24.533514
_cell_length_b 16.121392
_cell_length_c 9.496284
_cell_angle_alpha 90.000000
_cell_angle_beta 26.464797
_cell_angle_gamma 90.000000
_cell_volume 1673.816440
_symmetry_space_group_name_H-M "C 2"
_symmetry_group_IT_number 5
_symmetry_cell_setting 'monoclinic'
loop_
_space_group_symop_operation_xyz
x,y,z
-x,y,-z
1/2+x,1/2+y,z
1/2-x,1/2+y,-z
loop_
_atom_site_type_symbol
_atom_site_label
_atom_site_fract_x
_atom_site_fract_y
_atom_site_fract_z
Si Si1 0.913032 0.261090 0.331439
Si Si2 0.282869 0.599996 0.741436
Si Si3 0.490171 0.880943 0.667855
Si Si4 0.782133 0.907587 0.281107
Si Si5 0.472976 0.315822 0.224056
Si Si6 0.187304 0.520643 0.252140
Si Si7 0.764305 0.939188 0.645897
Si Si8 0.486393 0.150362 0.700440
O O1 0.863139 0.181980 0.532742
O O2 0.800978 0.324507 0.552134
O O3 0.996200 0.318820 0.236421
O O4 0.000000 0.236466 0.000000
O O5 0.332251 0.521243 0.541920
O O6 0.258408 0.566017 0.958047
O O7 0.153865 0.622423 0.962910
O O8 0.500000 0.831779 0.500000
O O9 0.602889 0.944603 0.394994
O O10 0.367695 0.932206 0.977535
O O11 0.749196 0.939523 0.513126
O O12 0.760531 0.977141 0.210703
O O13 0.922476 0.879384 0.967175
O O14 0.343035 0.360960 0.516056
O O15 0.484046 0.238081 0.299892
O O16 0.500000 0.290678 0.000000
O O17 0.085125 0.586988 0.535820
O O18 0.500000 0.153282 0.500000
#
# Coordination Sequence:
#
# PCOD9123087 Si02
#       8
#     4   4   4   4   4   4   4   4
#     4  11  23  39  67  96 130 168 213 267 333 378
#     4  11  22  41  63  94 131 165 205 269 326 378
#     4  11  20  39  66  95 125 169 219 264 314 388
#     4  10  22  42  63  93 126 169 219 261 315 395
#     4  10  23  40  60  90 127 166 207 256 321 384
#     4  10  21  38  65  95 122 160 222 261 317 380
#     4  11  22  40  64  90 131 169 214 263 322 385
#     4  10  20  37  61  92 123 158 207 261 315 377
#
# _framework density 19.117985999999998
#
# number of rings (size 3 to 8) (size 9 to 14) (size 15 to 20)
#    0.000    1.500    5.000    0.375    0.000    5.500 
#    0.000    3.750    0.000    0.000    0.000    0.000 
#    0.000    0.000    0.000    0.000    0.000    0.000 
#
# Total GULP energy -89165.218288 kJ/mol
# GULP energy per Si atom -5572.826143 kJ/mol
# Density = 1.907447 g / cm^3
# Si number density = 19.117986 Si / 1000 Ang^3
#
#
#
# Elastic Constant Matrix: (Units=GPa)
#
#
# Indices 1 2 3 4 5 6 
#
# 1 74.3394 18.9404 26.5615 0.0000 2.9951 0.0000
# 2 18.9404 78.6203 23.0401 0.0000 12.7158 0.0000
# 3 26.5615 23.0401 45.6086 0.0000 9.7034 0.0000
# 4 0.0000 0.0000 0.0000 3.4619 0.0000 -3.4953
# 5 2.9951 12.7158 9.7034 0.0000 13.5536 0.0000
# 6 0.0000 0.0000 0.0000 -3.4953 0.0000 28.1741
#
#
#
# Elastic Compliance Matrix: (Units=1/GPa)
#
#
# Indices 1 2 3 4 5 6 
#
# 1 0.017426 -0.002071 -0.010259 0.000000 0.005437 0.000000
# 2 -0.002071 0.016462 -0.004626 0.000000 -0.011675 0.000000
# 3 -0.010259 -0.004626 0.034012 0.000000 -0.017743 0.000000
# 4 0.000000 0.000000 0.000000 0.330218 0.000000 0.040968
# 5 0.005437 -0.011675 -0.017743 0.000000 0.096236 0.000000
# 6 0.000000 0.000000 0.000000 0.040968 0.000000 0.040576
#
#
# Mechanical properties :
#
#
# Convention : Reuss Voigt Hill
#
# Bulk Modulus (GPa) = 29.42219 37.29472 33.35845
# Shear Modulus (GPa) = 8.61813 17.70636 13.16225
#
# Velocity S-wave (km/s) = 2.12548 3.04659 2.62673
# Velocity P-wave (km/s) = 4.63106 5.65028 5.16587
#
# Compressibility (1/GPa) = 0.03398795
#
# Stress axis : x y z
#
# Youngs Moduli (GPa) = 57.38560 60.74493 29.40114
#
# Poissons Ratio (x) = 0.12580 0.30163
# Poissons Ratio (y) = 0.11884 0.13602
# Poissons Ratio (z) = 0.58872 0.28102
#
# Static dielectric constant tensor:
#      x y z
#    x 1.719960 0.000000 -0.005690 
#    y 0.000000 1.646050 0.000000 
#    z -0.005690 0.000000 1.682210 
# 
# From -- ./inp_files/31038.got.cif
#   From: 2010.05.17/outbox.cif.g08.bks.cpg/sg5_16_cif.got.tgz:31038.got - 2010.06.03 18:56:24.
