data_PCOD9123371
_publ_section_title
;
Structure prediction by ZEFSAII (Michael W. Deem and Ramdas Pophale) SiO2 
 PCOD9123371
Probable space group: C 2
;
_chemical_formula_sum "Si O2"
_cell_formula_units_Z 24
_cell_length_a 16.629061
_cell_length_b 9.846919
_cell_length_c 13.783298
_cell_angle_alpha 90.000000
_cell_angle_beta 28.974793
_cell_angle_gamma 90.000000
_cell_volume 1093.320764
_symmetry_space_group_name_H-M "C 2"
_symmetry_group_IT_number 5
_symmetry_cell_setting 'monoclinic'
loop_
_space_group_symop_operation_xyz
x,y,z
-x,y,-z
1/2+x,1/2+y,z
1/2-x,1/2+y,-z
loop_
_atom_site_type_symbol
_atom_site_label
_atom_site_fract_x
_atom_site_fract_y
_atom_site_fract_z
Si Si1 0.735526 0.111350 0.374876
Si Si2 0.813788 0.818778 0.239168
Si Si3 0.002189 0.734161 0.768267
Si Si4 0.305361 0.616402 0.793672
Si Si5 0.918262 0.021619 0.371937
Si Si6 0.691351 0.898562 0.776704
O O1 0.568061 0.156134 0.605114
O O2 0.790092 0.236793 0.250766
O O3 0.729422 0.964984 0.332950
O O4 0.862272 0.088303 0.330813
O O5 0.851652 0.753528 0.304759
O O6 0.714489 0.720696 0.273569
O O7 0.000000 0.836697 0.000000
O O8 0.969014 0.890079 0.774150
O O9 0.850685 0.653974 0.974473
O O10 0.471178 0.620689 0.680553
O O11 0.291845 0.469079 0.757389
O O12 0.766662 0.959505 0.596558
O O13 0.500000 0.936197 0.000000
#
# Coordination Sequence:
#
# PCOD9123371 Si02
#       6
#     4   4   4   4   4   4
#     4  10  20  38  63  87 113 153 198 237 285 351
#     4   9  18  36  61  86 116 155 193 235 289 352
#     4   9  20  38  60  84 118 157 194 234 287 352
#     4  11  21  38  60  86 119 154 189 241 294 335
#     4  10  22  39  60  88 120 151 194 247 288 335
#     4  11  22  37  62  89 117 156 196 234 289 355
#
# _framework density 21.951471999999999
#
# number of rings (size 3 to 8) (size 9 to 14) (size 15 to 20)
#    0.000    2.000    0.000    4.500    0.000    1.333 
#    0.000    3.333    0.000   24.000    0.000    0.000 
#    0.000    0.000    0.000    0.000    0.000    0.000 
#
# Total GULP energy -67076.483112 kJ/mol
# GULP energy per Si atom -5589.706926 kJ/mol
# Density = 2.190151 g / cm^3
# Si number density = 21.951472 Si / 1000 Ang^3
#
#
#
# Elastic Constant Matrix: (Units=GPa)
#
#
# Indices 1 2 3 4 5 6 
#
# 1 63.4231 23.9011 16.6565 0.0000 -1.7129 0.0000
# 2 23.9011 120.6624 43.6724 0.0000 4.7300 0.0000
# 3 16.6565 43.6724 66.6121 0.0000 8.2513 0.0000
# 4 0.0000 0.0000 0.0000 29.2307 0.0000 14.0151
# 5 -1.7129 4.7300 8.2513 0.0000 20.7259 0.0000
# 6 0.0000 0.0000 0.0000 14.0151 0.0000 26.0717
#
#
#
# Elastic Compliance Matrix: (Units=1/GPa)
#
#
# Indices 1 2 3 4 5 6 
#
# 1 0.017624 -0.002462 -0.003201 0.000000 0.003293 0.000000
# 2 -0.002462 0.011213 -0.006725 0.000000 -0.000085 0.000000
# 3 -0.003201 -0.006725 0.021105 0.000000 -0.007132 0.000000
# 4 0.000000 0.000000 0.000000 0.046090 0.000000 -0.024776
# 5 0.003293 -0.000085 -0.007132 0.000000 0.051380 0.000000
# 6 0.000000 0.000000 0.000000 -0.024776 0.000000 0.051674
#
#
# Mechanical properties :
#
#
# Convention : Reuss Voigt Hill
#
# Bulk Modulus (GPa) = 39.73492 46.57305 43.15398
# Shear Modulus (GPa) = 21.52844 26.30350 23.91597
#
# Velocity S-wave (km/s) = 3.13506 3.46534 3.30433
# Velocity P-wave (km/s) = 5.58975 6.10523 5.85317
#
# Compressibility (1/GPa) = 0.02516678
#
# Stress axis : x y z
#
# Youngs Moduli (GPa) = 56.73959 89.18522 47.38134
#
# Poissons Ratio (x) = 0.21954 0.15167
# Poissons Ratio (y) = 0.13967 0.31865
# Poissons Ratio (z) = 0.18162 0.59979
#
# Static dielectric constant tensor:
#      x y z
#    x 1.783060 0.000000 0.008100 
#    y 0.000000 1.820000 0.000000 
#    z 0.008100 0.000000 1.827680 
# 
# From -- ./inp_files/55697.got.cif
#   From: 2010.05.17/outbox.cif.g08.bks.cpg/sg5_28_cif.got.tgz:55697.got - 2010.06.03 18:56:24.
