data_PCOD9123303
_publ_section_title
;
Structure prediction by ZEFSAII (Michael W. Deem and Ramdas Pophale) SiO2 
 PCOD9123303
Probable space group: C 2
;
_chemical_formula_sum "Si O2"
_cell_formula_units_Z 26
_cell_length_a 21.562452
_cell_length_b 9.031743
_cell_length_c 14.889680
_cell_angle_alpha 90.000000
_cell_angle_beta 22.815268
_cell_angle_gamma 90.000000
_cell_volume 1124.396443
_symmetry_space_group_name_H-M "C 2"
_symmetry_group_IT_number 5
_symmetry_cell_setting 'monoclinic'
loop_
_space_group_symop_operation_xyz
x,y,z
-x,y,-z
1/2+x,1/2+y,z
1/2-x,1/2+y,-z
loop_
_atom_site_type_symbol
_atom_site_label
_atom_site_fract_x
_atom_site_fract_y
_atom_site_fract_z
Si Si1 0.413449 0.766260 0.865301
Si Si2 0.500000 0.121188 0.000000
Si Si3 0.139042 0.038164 0.634008
Si Si4 0.284171 0.861702 0.227724
Si Si5 0.560118 0.213805 0.725866
Si Si6 0.282258 0.064077 0.990535
Si Si7 0.000000 0.964095 0.500000
Si Si8 0.500000 0.615405 0.000000
O O1 0.578393 0.674745 0.652495
O O2 0.369729 0.905242 0.860046
O O3 0.384913 0.839824 0.000355
O O4 0.287908 0.638730 0.004974
O O5 0.490211 0.215171 0.102596
O O6 0.349966 0.010116 0.186009
O O7 0.311434 0.080734 0.442034
O O8 0.128085 0.874356 0.608747
O O9 0.019623 0.036507 0.879111
O O10 0.344782 0.720921 0.200826
O O11 0.104808 0.872182 0.431461
O O12 0.412864 0.170128 0.860739
O O13 0.132983 0.047129 0.260770
#
# Coordination Sequence:
#
# PCOD9123303 Si02
#       8
#     4   2   4   4   4   4   2   2
#     4  10  21  41  61  94 127 173 211 271 309 399
#     4  11  21  42  64  92 138 168 226 272 318 402
#     4  11  25  41  67  95 132 171 224 267 345 375
#     4   9  20  37  66  90 131 170 219 260 333 373
#     4  12  25  41  64  99 128 177 217 279 325 396
#     4  11  23  41  63  94 133 168 228 261 330 382
#     4  10  20  38  60  98 116 178 210 262 324 388
#     4   9  21  42  62  94 132 168 214 282 314 400
#
# _framework density 23.123515000000001
#
# number of rings (size 3 to 8) (size 9 to 14) (size 15 to 20)
#    0.000    1.538    3.077    2.308    6.462    2.462 
#    0.000    0.000    0.000   12.000    0.000    0.000 
#    0.000    0.000    0.000    0.000    0.000    0.000 
#
# Total GULP energy -72590.761394 kJ/mol
# GULP energy per Si atom -5583.904723 kJ/mol
# Density = 2.307089 g / cm^3
# Si number density = 23.123515 Si / 1000 Ang^3
#
#
#
# Elastic Constant Matrix: (Units=GPa)
#
#
# Indices 1 2 3 4 5 6 
#
# 1 77.7251 11.4078 16.5210 0.0000 -25.9357 0.0000
# 2 11.4078 105.7197 34.2103 0.0000 -7.6769 0.0000
# 3 16.5210 34.2103 102.5736 0.0000 -26.6251 0.0000
# 4 0.0000 0.0000 0.0000 30.4595 0.0000 -2.4062
# 5 -25.9357 -7.6769 -26.6251 0.0000 45.0489 0.0000
# 6 0.0000 0.0000 0.0000 -2.4062 0.0000 34.9204
#
#
#
# Elastic Compliance Matrix: (Units=1/GPa)
#
#
# Indices 1 2 3 4 5 6 
#
# 1 0.016047 -0.001120 0.000162 0.000000 0.009144 0.000000
# 2 -0.001120 0.010686 -0.003636 0.000000 -0.000973 0.000000
# 3 0.000162 -0.003636 0.012756 0.000000 0.007013 0.000000
# 4 0.000000 0.000000 0.000000 0.033010 0.000000 0.002275
# 5 0.009144 -0.000973 0.007013 0.000000 0.031441 0.000000
# 6 0.000000 0.000000 0.000000 0.002275 0.000000 0.028793
#
#
# Mechanical properties :
#
#
# Convention : Reuss Voigt Hill
#
# Bulk Modulus (GPa) = 33.00205 45.58850 39.29527
# Shear Modulus (GPa) = 32.89014 37.01107 34.95060
#
# Velocity S-wave (km/s) = 3.77552 4.00507 3.89199
# Velocity P-wave (km/s) = 5.77141 6.41447 6.10142
#
# Compressibility (1/GPa) = 0.03030115
#
# Stress axis : x y z
#
# Youngs Moduli (GPa) = 62.31756 93.58215 78.39450
#
# Poissons Ratio (x) = 0.10483 -0.01273
# Poissons Ratio (y) = 0.06980 0.28505
# Poissons Ratio (z) = -0.01012 0.34027
#
# Static dielectric constant tensor:
#      x y z
#    x 1.876890 0.000000 0.084410 
#    y 0.000000 1.865410 0.000000 
#    z 0.084410 0.000000 1.943270 
# 
# From -- ./inp_files/26764.got.cif
#   From: 2010.05.17/outbox.cif.g08.bks.cpg/sg5_14_cif.got.tgz:26764.got - 2010.06.03 18:56:24.
