data_PCOD9123491
_publ_section_title
;
Structure prediction by ZEFSAII (Michael W. Deem and Ramdas Pophale) SiO2 
 PCOD9123491
Probable space group: C 2
;
_chemical_formula_sum "Si O2"
_cell_formula_units_Z 20
_cell_length_a 8.217338
_cell_length_b 22.428579
_cell_length_c 7.794416
_cell_angle_alpha 90.000000
_cell_angle_beta 144.853612
_cell_angle_gamma 90.000000
_cell_volume 826.966982
_symmetry_space_group_name_H-M "C 2"
_symmetry_group_IT_number 5
_symmetry_cell_setting 'monoclinic'
loop_
_space_group_symop_operation_xyz
x,y,z
-x,y,-z
1/2+x,1/2+y,z
1/2-x,1/2+y,-z
loop_
_atom_site_type_symbol
_atom_site_label
_atom_site_fract_x
_atom_site_fract_y
_atom_site_fract_z
Si Si1 0.794198 0.655480 0.661604
Si Si2 0.343938 0.470245 0.032346
Si Si3 0.973495 0.358037 0.166228
Si Si4 0.239156 0.529563 0.403334
Si Si5 0.466416 0.283828 0.763759
O O1 0.500000 0.671195 0.500000
O O2 0.781742 0.596156 0.535043
O O3 0.892995 0.715870 0.658000
O O4 0.000000 0.639578 0.000000
O O5 0.206386 0.406291 0.880898
O O6 0.088580 0.509797 0.890307
O O7 0.500000 0.496097 0.000000
O O8 0.613729 0.470962 0.388744
O O9 0.238488 0.330453 0.492934
O O10 0.766238 0.302992 0.949839
O O11 0.000000 0.387366 0.000000
O O12 0.500000 0.543910 0.500000
O O13 0.500000 0.286345 0.000000
#
# Coordination Sequence:
#
# PCOD9123491 Si02
#       5
#     4   4   4   4   4
#     4  10  20  38  66  98 128 168 221 271 327 401
#     4  12  26  43  64  95 132 174 221 277 339 400
#     4  12  25  43  65  96 135 180 226 280 340 404
#     4  11  22  42  68  95 127 171 221 272 328 398
#     4  11  23  42  68  98 132 175 226 278 333 401
#
# _framework density 24.184761999999999
#
# number of rings (size 3 to 8) (size 9 to 14) (size 15 to 20)
#    0.000    0.800    0.000   10.200    0.000    1.600 
#    0.000    6.000    0.000    0.000    0.000    0.000 
#    0.000    0.000    0.000    0.000    0.000    0.000 
#
# Total GULP energy -55708.439310 kJ/mol
# GULP energy per Si atom -5570.843931 kJ/mol
# Density = 2.412972 g / cm^3
# Si number density = 24.184762 Si / 1000 Ang^3
#
#
#
# Elastic Constant Matrix: (Units=GPa)
#
#
# Indices 1 2 3 4 5 6 
#
# 1 77.2129 22.2028 27.6433 0.0000 26.9454 0.0000
# 2 22.2028 130.3948 20.3016 0.0000 2.9700 0.0000
# 3 27.6433 20.3016 151.4109 0.0000 23.6823 0.0000
# 4 0.0000 0.0000 0.0000 27.5472 0.0000 5.9982
# 5 26.9454 2.9700 23.6823 0.0000 34.7560 0.0000
# 6 0.0000 0.0000 0.0000 5.9982 0.0000 20.3491
#
#
#
# Elastic Compliance Matrix: (Units=1/GPa)
#
#
# Indices 1 2 3 4 5 6 
#
# 1 0.018881 -0.002758 -0.000923 0.000000 -0.013773 0.000000
# 2 -0.002758 0.008235 -0.000924 0.000000 0.002063 0.000000
# 3 -0.000923 -0.000924 0.007581 0.000000 -0.004371 0.000000
# 4 0.000000 0.000000 0.000000 0.038791 0.000000 -0.011434
# 5 -0.013773 0.002063 -0.004371 0.000000 0.042252 0.000000
# 6 0.000000 0.000000 0.000000 -0.011434 0.000000 0.052513
#
#
# Mechanical properties :
#
#
# Convention : Reuss Voigt Hill
#
# Bulk Modulus (GPa) = 39.23294 55.47933 47.35614
# Shear Modulus (GPa) = 26.88788 35.78852 31.33820
#
# Velocity S-wave (km/s) = 3.33794 3.85098 3.60360
# Velocity P-wave (km/s) = 5.57792 6.53935 6.07767
#
# Compressibility (1/GPa) = 0.02548878
#
# Stress axis : x y z
#
# Youngs Moduli (GPa) = 52.96264 121.42787 131.91692
#
# Poissons Ratio (x) = 0.33484 0.12177
# Poissons Ratio (y) = 0.14605 0.12183
# Poissons Ratio (z) = 0.04889 0.11214
#
# Static dielectric constant tensor:
#      x y z
#    x 2.053990 0.000000 -0.084790 
#    y 0.000000 1.962700 0.000000 
#    z -0.084790 0.000000 2.026700 
# 
# From -- ./inp_files/17274.got.cif
#   From: 2010.05.17/outbox.cif.g08.bks.cpg/sg5_9_cif.got.tgz:17274.got - 2010.06.03 18:56:24.
