data_PCOD9123428
_publ_section_title
;
Structure prediction by ZEFSAII (Michael W. Deem and Ramdas Pophale) SiO2 
 PCOD9123428
Probable space group: C 2
;
_chemical_formula_sum "Si O2"
_cell_formula_units_Z 32
_cell_length_a 18.571802
_cell_length_b 14.208166
_cell_length_c 13.922016
_cell_angle_alpha 90.000000
_cell_angle_beta 158.635794
_cell_angle_gamma 90.000000
_cell_volume 1338.281515
_symmetry_space_group_name_H-M "C 2"
_symmetry_group_IT_number 5
_symmetry_cell_setting 'monoclinic'
loop_
_space_group_symop_operation_xyz
x,y,z
-x,y,-z
1/2+x,1/2+y,z
1/2-x,1/2+y,-z
loop_
_atom_site_type_symbol
_atom_site_label
_atom_site_fract_x
_atom_site_fract_y
_atom_site_fract_z
Si Si1 0.310383 0.405640 0.721052
Si Si2 0.130277 0.867716 0.419149
Si Si3 0.238306 0.579891 0.410287
Si Si4 0.101313 0.232579 0.526017
Si Si5 0.069926 0.499728 0.846440
Si Si6 0.922813 0.620889 0.307652
Si Si7 0.237465 0.304760 0.040397
Si Si8 0.671331 0.685832 0.286873
O O1 0.380156 0.358845 0.708522
O O2 0.237968 0.325108 0.703204
O O3 0.124140 0.466401 0.455723
O O4 0.500000 0.457270 0.000000
O O5 0.305307 0.797001 0.665495
O O6 0.928244 0.834541 0.215824
O O7 0.178226 0.975519 0.502876
O O8 0.275387 0.648294 0.367943
O O9 0.014802 0.562251 0.172146
O O10 0.346575 0.629805 0.635509
O O11 0.000000 0.206983 0.500000
O O12 0.932263 0.266932 0.241303
O O13 0.186314 0.558175 0.908996
O O14 0.169272 0.402804 0.003046
O O15 0.118607 0.656410 0.496871
O O16 0.000000 0.571138 0.500000
O O17 0.800345 0.714950 0.181998
O O18 0.500000 0.667299 0.000000
#
# Coordination Sequence:
#
# PCOD9123428 Si02
#       8
#     4   4   4   4   4   4   4   4
#     4  10  20  38  64  95 131 171 222 276 341 399
#     4  10  21  40  65  97 133 176 223 279 335 404
#     4  10  22  41  66  95 131 175 226 274 328 413
#     4  11  23  41  65  93 132 183 226 275 339 401
#     4   9  22  40  63  97 135 172 221 273 343 403
#     4  10  23  38  64 100 129 167 221 274 332 399
#     4  10  23  41  64  96 134 174 215 282 342 395
#     4  10  22  41  67  95 134 176 221 274 338 400
#
# _framework density 23.911263000000002
#
# number of rings (size 3 to 8) (size 9 to 14) (size 15 to 20)
#    0.000    2.000    1.250    0.750    3.500    7.500 
#    0.000    3.125    2.750    0.000    0.000    0.000 
#    0.000    0.000    0.000    0.000    0.000    0.000 
#
# Total GULP energy -89451.974068 kJ/mol
# GULP energy per Si atom -5590.748379 kJ/mol
# Density = 2.385684 g / cm^3
# Si number density = 23.911263 Si / 1000 Ang^3
#
#
#
# Elastic Constant Matrix: (Units=GPa)
#
#
# Indices 1 2 3 4 5 6 
#
# 1 97.7390 42.0061 -17.0907 0.0000 1.8916 0.0000
# 2 42.0061 146.6772 28.8334 0.0000 12.5575 0.0000
# 3 -17.0907 28.8334 49.1277 0.0000 -3.5057 0.0000
# 4 0.0000 0.0000 0.0000 23.7474 0.0000 14.6121
# 5 1.8916 12.5575 -3.5057 0.0000 14.6310 0.0000
# 6 0.0000 0.0000 0.0000 14.6121 0.0000 38.2599
#
#
#
# Elastic Compliance Matrix: (Units=1/GPa)
#
#
# Indices 1 2 3 4 5 6 
#
# 1 0.014533 -0.006495 0.009290 0.000000 0.005922 0.000000
# 2 -0.006495 0.011606 -0.009891 0.000000 -0.011492 0.000000
# 3 0.009290 -0.009891 0.030433 0.000000 0.014580 0.000000
# 4 0.000000 0.000000 0.000000 0.055045 0.000000 -0.021023
# 5 0.005922 -0.011492 0.014580 0.000000 0.080939 0.000000
# 6 0.000000 0.000000 0.000000 -0.021023 0.000000 0.034166
#
#
# Mechanical properties :
#
#
# Convention : Reuss Voigt Hill
#
# Bulk Modulus (GPa) = 23.59641 44.56016 34.07828
# Shear Modulus (GPa) = 19.60471 31.31400 25.45935
#
# Velocity S-wave (km/s) = 2.86649 3.62275 3.26658
# Velocity P-wave (km/s) = 4.56568 6.01458 5.33951
#
# Compressibility (1/GPa) = 0.04237933
#
# Stress axis : x y z
#
# Youngs Moduli (GPa) = 68.81008 86.16189 32.85930
#
# Poissons Ratio (x) = 0.55964 -0.30528
# Poissons Ratio (y) = 0.44694 0.32502
# Poissons Ratio (z) = -0.63927 0.85225
#
# Static dielectric constant tensor:
#      x y z
#    x 1.925100 0.000000 0.022730 
#    y 0.000000 1.972560 0.000000 
#    z 0.022730 0.000000 1.924190 
# 
# From -- ./inp_files/57194.got.cif
#   From: 2010.05.17/outbox.cif.g08.bks.cpg/sg5_29_cif.got.tgz:57194.got - 2010.06.03 18:56:24.
