data_PCOD9123074
_publ_section_title
;
Structure prediction by ZEFSAII (Michael W. Deem and Ramdas Pophale) SiO2 
 PCOD9123074
Probable space group: C 2
;
_chemical_formula_sum "Si O2"
_cell_formula_units_Z 28
_cell_length_a 17.959986
_cell_length_b 7.218814
_cell_length_c 12.161329
_cell_angle_alpha 90.000000
_cell_angle_beta 44.086595
_cell_angle_gamma 90.000000
_cell_volume 1096.990407
_symmetry_space_group_name_H-M "C 2"
_symmetry_group_IT_number 5
_symmetry_cell_setting 'monoclinic'
loop_
_space_group_symop_operation_xyz
x,y,z
-x,y,-z
1/2+x,1/2+y,z
1/2-x,1/2+y,-z
loop_
_atom_site_type_symbol
_atom_site_label
_atom_site_fract_x
_atom_site_fract_y
_atom_site_fract_z
Si Si1 0.615168 0.701790 0.395766
Si Si2 0.651160 0.100793 0.879780
Si Si3 0.791639 0.551554 0.820327
Si Si4 0.887381 0.205418 0.139061
Si Si5 0.845135 0.387938 0.417802
Si Si6 0.105449 0.791294 0.696609
Si Si7 0.117389 0.849287 0.129089
O O1 0.500000 0.612839 0.500000
O O2 0.721436 0.579786 0.273255
O O3 0.636882 0.874846 0.289006
O O4 0.616420 0.784348 0.515785
O O5 0.605387 0.895827 0.938058
O O6 0.608150 0.217894 0.820635
O O7 0.630005 0.211089 0.012076
O O8 0.714010 0.595415 0.799633
O O9 0.857868 0.728397 0.789991
O O10 0.707885 0.501251 0.007710
O O11 0.873873 0.279527 0.276219
O O12 0.000000 0.104071 0.000000
O O13 0.891214 0.594471 0.368906
O O14 0.716181 0.395591 0.558466
O O15 0.005399 0.906113 0.756830
#
# Coordination Sequence:
#
# PCOD9123074 Si02
#       7
#     4   4   4   4   4   4   4
#     4  10  21  39  62  90 127 167 205 254 310 368
#     4   9  20  37  60  87 119 162 214 250 302 377
#     4  11  25  39  61  94 125 165 218 252 303 380
#     4  11  23  40  61  89 124 162 208 262 311 365
#     4  10  21  38  61  90 123 161 212 257 306 372
#     4  10  20  37  61  87 122 165 206 257 310 361
#     4  11  22  40  61  87 126 166 203 260 311 357
#
# _framework density 25.524381000000002
#
# number of rings (size 3 to 8) (size 9 to 14) (size 15 to 20)
#    0.000    1.714    0.000    4.714    0.000    6.857 
#    0.000   10.714    0.000    0.000    0.000    0.000 
#    0.000    0.000    0.000    0.000    0.000    0.000 
#
# Total GULP energy -78477.530240 kJ/mol
# GULP energy per Si atom -5605.537874 kJ/mol
# Density = 2.546629 g / cm^3
# Si number density = 25.524381 Si / 1000 Ang^3
#
#
#
# Elastic Constant Matrix: (Units=GPa)
#
#
# Indices 1 2 3 4 5 6 
#
# 1 97.2515 8.0960 38.5484 0.0002 -25.2949 -0.0002
# 2 8.0960 62.7554 4.0322 -0.0012 -1.3984 0.0012
# 3 38.5484 4.0322 75.2338 0.0003 -26.5426 0.0002
# 4 0.0002 -0.0012 0.0003 26.5583 0.0004 4.9379
# 5 -25.2949 -1.3984 -26.5426 0.0004 53.7737 -0.0003
# 6 -0.0002 0.0012 0.0002 4.9379 -0.0003 35.1052
#
#
#
# Elastic Compliance Matrix: (Units=1/GPa)
#
#
# Indices 1 2 3 4 5 6 
#
# 1 0.013543 -0.001307 -0.005611 0.000000 0.003567 0.000000
# 2 -0.001307 0.016116 -0.000319 0.000001 -0.000353 -0.000001
# 3 -0.005611 -0.000319 0.018465 0.000000 0.006467 0.000000
# 4 0.000000 0.000001 0.000000 0.038664 -0.000001 -0.005439
# 5 0.003567 -0.000353 0.006467 -0.000001 0.023457 0.000000
# 6 0.000000 -0.000001 0.000000 -0.005439 0.000000 0.029251
#
#
# Mechanical properties :
#
#
# Convention : Reuss Voigt Hill
#
# Bulk Modulus (GPa) = 29.71607 37.39935 33.55771
# Shear Modulus (GPa) = 30.26870 35.39172 32.83021
#
# Velocity S-wave (km/s) = 3.44739 3.72773 3.59029
# Velocity P-wave (km/s) = 5.24533 5.76300 5.51025
#
# Compressibility (1/GPa) = 0.03365182
#
# Stress axis : x y z
#
# Youngs Moduli (GPa) = 73.83757 62.04967 54.15554
#
# Poissons Ratio (x) = 0.08111 0.30385
# Poissons Ratio (y) = 0.09652 0.01725
# Poissons Ratio (z) = 0.41428 0.01976
#
# Static dielectric constant tensor:
#      x y z
#    x 1.990750 0.000000 -0.020550 
#    y 0.000000 1.971570 0.000000 
#    z -0.020550 0.000000 2.044450 
# 
# From -- ./inp_files/55729.got.cif
#   From: 2010.05.17/outbox.cif.g08.bks.cpg/sg5_28_cif.got.tgz:55729.got - 2010.06.03 18:56:24.
