data_PCOD9123274
_publ_section_title
;
Structure prediction by ZEFSAII (Michael W. Deem and Ramdas Pophale) SiO2 
 PCOD9123274
Probable space group: C 2
;
_chemical_formula_sum "Si O2"
_cell_formula_units_Z 30
_cell_length_a 9.569020
_cell_length_b 11.691001
_cell_length_c 13.741132
_cell_angle_alpha 90.000000
_cell_angle_beta 120.895239
_cell_angle_gamma 90.000000
_cell_volume 1319.117274
_symmetry_space_group_name_H-M "C 2"
_symmetry_group_IT_number 5
_symmetry_cell_setting 'monoclinic'
loop_
_space_group_symop_operation_xyz
x,y,z
-x,y,-z
1/2+x,1/2+y,z
1/2-x,1/2+y,-z
loop_
_atom_site_type_symbol
_atom_site_label
_atom_site_fract_x
_atom_site_fract_y
_atom_site_fract_z
Si Si1 0.125465 0.077880 0.393420
Si Si2 0.159490 0.688129 0.200359
Si Si3 0.091681 0.700109 0.622316
Si Si4 0.535606 0.815681 0.619062
Si Si5 0.640069 0.536972 0.857077
Si Si6 0.683972 0.286161 0.858345
Si Si7 0.000000 0.132451 0.000000
Si Si8 0.646359 0.014899 0.365353
O O1 0.264138 0.123260 0.369671
O O2 0.054828 0.194453 0.413436
O O3 0.199308 0.004826 0.507839
O O4 0.987032 0.024097 0.277404
O O5 0.279066 0.784914 0.288828
O O6 0.238680 0.641612 0.128283
O O7 0.976697 0.736455 0.143702
O O8 0.175706 0.573911 0.272968
O O9 0.000000 0.759773 0.500000
O O10 0.146714 0.779523 0.729471
O O11 0.964576 0.610709 0.622157
O O12 0.500000 0.868638 0.500000
O O13 0.453291 0.897681 0.668931
O O14 0.723771 0.415329 0.901771
O O15 0.661038 0.707291 0.070667
O O16 0.535279 0.562176 0.915290
#
# Coordination Sequence:
#
# PCOD9123274 Si02
#       8
#     4   4   4   4   4   4   2   4
#     4  10  20  38  60 100 140 176 239 273 325 426
#     4  10  25  44  63 110 140 175 235 285 334 440
#     4   9  19  38  63 104 141 176 226 272 332 432
#     4  11  21  35  61  94 146 195 224 267 337 408
#     4  11  27  45  74 101 137 177 236 295 350 402
#     4  11  26  47  77  99 139 186 231 287 367 395
#     4  12  28  52  72 102 132 180 248 304 328 424
#     4  10  21  35  64  95 146 191 217 272 344 412
#
# _framework density 22.742481000000002
#
# number of rings (size 3 to 8) (size 9 to 14) (size 15 to 20)
#    0.000    1.600    2.667    1.200    5.600    2.667 
#    0.000    1.333    0.000    0.000    0.000    0.000 
#    0.000    0.000    0.000    0.000    0.000    0.000 
#
# Total GULP energy -83862.510035 kJ/mol
# GULP energy per Si atom -5590.834002 kJ/mol
# Density = 2.269072 g / cm^3
# Si number density = 22.742481 Si / 1000 Ang^3
#
#
#
# Elastic Constant Matrix: (Units=GPa)
#
#
# Indices 1 2 3 4 5 6 
#
# 1 94.1025 9.3737 24.8813 0.0000 -4.3877 0.0000
# 2 9.3737 70.9924 16.6533 0.0000 3.1240 0.0000
# 3 24.8813 16.6533 49.1829 0.0000 0.2394 0.0000
# 4 0.0000 0.0000 0.0000 -62.0760 0.0000 4.9669
# 5 -4.3877 3.1240 0.2394 0.0000 32.0446 0.0000
# 6 0.0000 0.0000 0.0000 4.9669 0.0000 26.4611
#
#
#
# Elastic Compliance Matrix: (Units=1/GPa)
#
#
# Indices 1 2 3 4 5 6 
#
# 1 0.012368 -0.000262 -0.006177 0.000000 0.001765 0.000000
# 2 -0.000262 0.015375 -0.005066 0.000000 -0.001497 0.000000
# 3 -0.006177 -0.005066 0.025175 0.000000 -0.000540 0.000000
# 4 0.000000 0.000000 0.000000 -0.015871 0.000000 0.002979
# 5 0.001765 -0.001497 -0.000540 0.000000 0.031598 0.000000
# 6 0.000000 0.000000 0.000000 0.002979 0.000000 0.037232
#
#
# Mechanical properties :
#
#
# Convention : Reuss Voigt Hill
#
# Bulk Modulus (GPa) = 33.43537 35.12159 34.27848
# Shear Modulus (GPa) = 36.00818 10.17723 23.09270
#
# Velocity S-wave (km/s) = 3.98339 2.11771 3.18999
# Velocity P-wave (km/s) = 5.99084 4.63209 5.35474
#
# Compressibility (1/GPa) = 0.02990845
#
# Stress axis : x y z
#
# Youngs Moduli (GPa) = 80.85165 65.04118 39.72159
#
# Poissons Ratio (x) = 0.01703 0.24536
# Poissons Ratio (y) = 0.02116 0.20124
# Poissons Ratio (z) = 0.49942 0.32951
#
# Static dielectric constant tensor:
#      x y z
#    x 1.907060 0.000000 -0.048040 
#    y 0.000000 1.818410 0.000000 
#    z -0.048040 0.000000 1.902410 
# 
# From -- ./inp_files/52612.got.cif
#   From: 2010.05.17/outbox.cif.g08.bks.cpg/sg5_27_cif.got.tgz:52612.got - 2010.06.03 18:56:24.
