data_PCOD9123739
_publ_section_title
;
Structure prediction by ZEFSAII (Michael W. Deem and Ramdas Pophale) SiO2 
 PCOD9123739
Probable space group: C 2
;
_chemical_formula_sum "Si O2"
_cell_formula_units_Z 26
_cell_length_a 14.859382
_cell_length_b 14.109885
_cell_length_c 8.002505
_cell_angle_alpha 90.000000
_cell_angle_beta 39.529080
_cell_angle_gamma 90.000000
_cell_volume 1067.893534
_symmetry_space_group_name_H-M "C 2"
_symmetry_group_IT_number 5
_symmetry_cell_setting 'monoclinic'
loop_
_space_group_symop_operation_xyz
x,y,z
-x,y,-z
1/2+x,1/2+y,z
1/2-x,1/2+y,-z
loop_
_atom_site_type_symbol
_atom_site_label
_atom_site_fract_x
_atom_site_fract_y
_atom_site_fract_z
Si Si1 0.000000 0.509460 0.500000
Si Si2 0.354369 0.871010 0.976937
Si Si3 0.272669 0.600338 0.282179
Si Si4 0.436364 0.351103 0.759017
Si Si5 0.411275 0.757446 0.465923
Si Si6 0.707466 0.309466 0.512467
Si Si7 0.456258 0.556384 0.313607
O O1 0.069766 0.455275 0.236747
O O2 0.131763 0.564429 0.394286
O O3 0.476104 0.794083 0.832718
O O4 0.228822 0.838569 0.030973
O O5 0.274262 0.879048 0.272123
O O6 0.248025 0.703901 0.393130
O O7 0.339412 0.536547 0.337080
O O8 0.402527 0.600510 0.968714
O O9 0.500000 0.305264 0.500000
O O10 0.538249 0.313433 0.755847
O O11 0.480485 0.461940 0.697863
O O12 0.500000 0.786653 0.500000
O O13 0.274326 0.814136 0.600737
O O14 0.390758 0.644442 0.510001
#
# Coordination Sequence:
#
# PCOD9123739 Si02
#       7
#     2   4   4   4   4   4   4
#     4  12  24  38  62 100 130 168 220 268 316 374
#     4  11  22  38  60  97 125 168 213 263 319 376
#     4  10  22  38  64  90 127 174 211 259 320 387
#     4  10  22  39  63  92 124 165 216 261 322 379
#     4  11  22  39  66  93 127 169 221 262 323 389
#     4  10  23  43  67  91 127 176 211 263 329 387
#     4  10  20  40  60  91 126 171 213 261 322 378
#
# _framework density 24.346996000000001
#
# number of rings (size 3 to 8) (size 9 to 14) (size 15 to 20)
#    0.000    1.538    3.846    0.923    5.385    0.000 
#    0.000    0.000    0.000    0.000    0.000    0.000 
#    0.000    0.000    0.000    0.000    0.000    0.000 
#
# Total GULP energy -72402.942257 kJ/mol
# GULP energy per Si atom -5569.457097 kJ/mol
# Density = 2.429158 g / cm^3
# Si number density = 24.346996 Si / 1000 Ang^3
#
#
#
# Elastic Constant Matrix: (Units=GPa)
#
#
# Indices 1 2 3 4 5 6 
#
# 1 183.3490 10.5326 34.5307 0.0000 -31.5275 0.0000
# 2 10.5326 34.5179 2.2872 0.0000 -4.3819 0.0000
# 3 34.5307 2.2872 61.6873 0.0000 -15.0732 0.0000
# 4 0.0000 0.0000 0.0000 15.6589 0.0000 -5.8343
# 5 -31.5275 -4.3819 -15.0732 0.0000 55.1579 0.0000
# 6 0.0000 0.0000 0.0000 -5.8343 0.0000 36.3548
#
#
#
# Elastic Compliance Matrix: (Units=1/GPa)
#
#
# Indices 1 2 3 4 5 6 
#
# 1 0.006579 -0.001452 -0.002934 0.000000 0.002843 0.000000
# 2 -0.001452 0.029604 0.000093 0.000000 0.001547 0.000000
# 3 -0.002934 0.000093 0.018690 0.000000 0.003438 0.000000
# 4 0.000000 0.000000 0.000000 0.067923 0.000000 0.010900
# 5 0.002843 0.001547 0.003438 0.000000 0.020817 0.000000
# 6 0.000000 0.000000 0.000000 0.010900 0.000000 0.029256
#
#
# Mechanical properties :
#
#
# Convention : Reuss Voigt Hill
#
# Bulk Modulus (GPa) = 21.60452 41.58394 31.59423
# Shear Modulus (GPa) = 25.39576 36.91457 31.15517
#
# Velocity S-wave (km/s) = 3.23317 3.89805 3.58107
# Velocity P-wave (km/s) = 4.77815 6.11363 5.48667
#
# Compressibility (1/GPa) = 0.04628661
#
# Stress axis : x y z
#
# Youngs Moduli (GPa) = 151.99869 33.77947 53.50522
#
# Poissons Ratio (x) = 0.04905 0.15699
# Poissons Ratio (y) = 0.22072 -0.00499
# Poissons Ratio (z) = 0.44598 -0.00315
#
# Static dielectric constant tensor:
#      x y z
#    x 2.023230 0.000000 0.058120 
#    y 0.000000 1.984850 0.000000 
#    z 0.058120 0.000000 1.961580 
# 
# From -- ./inp_files/24517.got.cif
#   From: 2010.05.17/outbox.cif.g08.bks.cpg/sg5_13_cif.got.tgz:24517.got - 2010.06.03 18:56:24.
