data_PCOD9123309
_publ_section_title
;
Structure prediction by ZEFSAII (Michael W. Deem and Ramdas Pophale) SiO2 
 PCOD9123309
Probable space group: C 2
;
_chemical_formula_sum "Si O2"
_cell_formula_units_Z 20
_cell_length_a 14.639575
_cell_length_b 4.626288
_cell_length_c 14.165998
_cell_angle_alpha 90.000000
_cell_angle_beta 134.034089
_cell_angle_gamma 90.000000
_cell_volume 689.751617
_symmetry_space_group_name_H-M "C 2"
_symmetry_group_IT_number 5
_symmetry_cell_setting 'monoclinic'
loop_
_space_group_symop_operation_xyz
x,y,z
-x,y,-z
1/2+x,1/2+y,z
1/2-x,1/2+y,-z
loop_
_atom_site_type_symbol
_atom_site_label
_atom_site_fract_x
_atom_site_fract_y
_atom_site_fract_z
Si Si1 0.287485 0.316950 0.802910
Si Si2 0.834814 0.630177 0.036118
Si Si3 0.840934 0.800595 0.546860
Si Si4 0.000977 0.280403 0.604479
Si Si5 0.069308 0.313997 0.152376
O O1 0.353953 0.306908 0.952979
O O2 0.143624 0.387334 0.722470
O O3 0.368925 0.504081 0.787865
O O4 0.304627 0.997429 0.777067
O O5 0.731575 0.373011 0.947447
O O6 0.968230 0.466362 0.149092
O O7 0.763319 0.554498 0.551735
O O8 0.909281 0.558805 0.531635
O O9 0.955775 0.031424 0.645022
O O10 0.000000 0.140648 0.500000
O O11 0.000000 0.308757 0.000000
#
# Coordination Sequence:
#
# PCOD9123309 Si02
#       5
#     4   4   4   4   4
#     4  11  22  39  62  88 123 163 198 245 305 357
#     4  11  22  39  62  91 122 156 202 254 301 359
#     4   9  20  40  62  83 119 162 195 248 310 345
#     4  11  22  40  64  92 119 160 210 249 288 358
#     4  10  20  38  61  86 121 161 198 246 303 359
#
# _framework density 28.995946
#
# number of rings (size 3 to 8) (size 9 to 14) (size 15 to 20)
#    0.000    1.600    0.000    7.200    0.000    0.000 
#    0.000   20.000    0.000    4.800    0.000    0.000 
#    0.000    0.000    0.000    0.000    0.000    0.000 
#
# Total GULP energy -55769.722175 kJ/mol
# GULP energy per Si atom -5576.972218 kJ/mol
# Density = 2.892995 g / cm^3
# Si number density = 28.995946 Si / 1000 Ang^3
#
#
#
# Elastic Constant Matrix: (Units=GPa)
#
#
# Indices 1 2 3 4 5 6 
#
# 1 142.4030 83.9235 57.8216 0.0002 40.8018 -0.0002
# 2 83.9235 184.8387 22.2744 0.0009 23.0255 0.0019
# 3 57.8216 22.2744 67.6096 -0.0002 36.3222 0.0000
# 4 0.0002 0.0009 -0.0002 40.0717 -0.0002 37.0073
# 5 40.8018 23.0255 36.3222 -0.0002 46.3081 0.0000
# 6 -0.0002 0.0019 0.0000 37.0073 0.0000 84.4565
#
#
#
# Elastic Compliance Matrix: (Units=1/GPa)
#
#
# Indices 1 2 3 4 5 6 
#
# 1 0.014706 -0.005175 -0.009148 0.000000 -0.003209 0.000000
# 2 -0.005175 0.007604 0.002596 0.000000 -0.001257 0.000000
# 3 -0.009148 0.002596 0.031320 0.000000 -0.017797 0.000000
# 4 0.000000 0.000000 0.000000 0.041919 0.000000 -0.018368
# 5 -0.003209 -0.001257 -0.017797 0.000000 0.039006 0.000000
# 6 0.000000 0.000000 0.000000 -0.018368 0.000000 0.019889
#
#
# Mechanical properties :
#
#
# Convention : Reuss Voigt Hill
#
# Bulk Modulus (GPa) = 33.13877 80.32113 56.72995
# Shear Modulus (GPa) = 26.60194 49.55605 38.07899
#
# Velocity S-wave (km/s) = 3.03221 4.13857 3.62781
# Velocity P-wave (km/s) = 4.86956 7.11323 6.09552
#
# Compressibility (1/GPa) = 0.03017613
#
# Stress axis : x y z
#
# Youngs Moduli (GPa) = 67.99897 131.51825 31.92811
#
# Poissons Ratio (x) = 0.68060 0.29209
# Poissons Ratio (y) = 0.35189 -0.08289
# Poissons Ratio (z) = 0.62207 -0.34146
#
# Static dielectric constant tensor:
#      x y z
#    x 2.206930 0.000000 -0.029790 
#    y 0.000000 2.154260 0.000000 
#    z -0.029790 0.000000 2.366510 
# 
# From -- ./inp_files/65506.got.cif
#   From: 2010.05.17/outbox.cif.g08.bks.cpg/sg5_33_cif.got.tgz:65506.got - 2010.06.03 18:56:24.
