data_PCOD9123205
_publ_section_title
;
Structure prediction by ZEFSAII (Michael W. Deem and Ramdas Pophale) SiO2 
 PCOD9123205
Probable space group: C 2
;
_chemical_formula_sum "Si O2"
_cell_formula_units_Z 24
_cell_length_a 20.464768
_cell_length_b 9.440903
_cell_length_c 20.015063
_cell_angle_alpha 90.000000
_cell_angle_beta 161.427242
_cell_angle_gamma 90.000000
_cell_volume 1231.681865
_symmetry_space_group_name_H-M "C 2"
_symmetry_group_IT_number 5
_symmetry_cell_setting 'monoclinic'
loop_
_space_group_symop_operation_xyz
x,y,z
-x,y,-z
1/2+x,1/2+y,z
1/2-x,1/2+y,-z
loop_
_atom_site_type_symbol
_atom_site_label
_atom_site_fract_x
_atom_site_fract_y
_atom_site_fract_z
Si Si1 0.584761 0.019330 0.149788
Si Si2 0.011454 0.644818 0.625678
Si Si3 0.210868 0.917642 0.881085
Si Si4 0.325647 0.619854 0.508288
Si Si5 0.024638 0.422154 0.303071
Si Si6 0.280708 0.715942 0.758503
O O1 0.717121 0.109463 0.330375
O O2 0.719465 0.885157 0.255094
O O3 0.500000 0.091048 0.000000
O O4 0.390626 0.952314 0.001664
O O5 0.082138 0.777123 0.738877
O O6 0.046132 0.501485 0.698653
O O7 0.138181 0.667771 0.680987
O O8 0.780519 0.652595 0.372706
O O9 0.331576 0.898487 0.067346
O O10 0.047058 0.044117 0.721784
O O11 0.359640 0.777581 0.567581
O O12 0.178764 0.529467 0.414668
O O13 0.500000 0.678293 0.000000
#
# Coordination Sequence:
#
# PCOD9123205 Si02
#       6
#     4   4   4   4   4   4
#     4  10  20  38  65  97 119 164 214 252 313 369
#     4  11  21  38  66  95 122 164 215 257 311 369
#     4  11  21  38  66  94 122 167 209 257 310 373
#     4  11  24  42  63  91 130 166 207 267 307 375
#     4  11  26  41  62  94 128 168 211 255 321 370
#     4  10  20  37  66  93 121 165 210 258 302 372
#
# _framework density 19.485551000000001
#
# number of rings (size 3 to 8) (size 9 to 14) (size 15 to 20)
#    0.000    1.333    5.000    2.000    2.333    3.333 
#    0.000    4.167    0.000    0.000    0.000    0.000 
#    0.000    0.000    0.000    0.000    0.000    0.000 
#
# Total GULP energy -66953.184947 kJ/mol
# GULP energy per Si atom -5579.432079 kJ/mol
# Density = 1.944120 g / cm^3
# Si number density = 19.485551 Si / 1000 Ang^3
#
#
#
# Elastic Constant Matrix: (Units=GPa)
#
#
# Indices 1 2 3 4 5 6 
#
# 1 86.8390 46.4482 54.5318 0.0018 -27.9741 0.0000
# 2 46.4482 98.4899 49.0328 -0.0161 -15.9419 0.0041
# 3 54.5318 49.0328 124.5997 -0.0036 -44.3623 0.0010
# 4 0.0018 -0.0161 -0.0036 7.8690 -0.0091 3.5494
# 5 -27.9741 -15.9419 -44.3623 -0.0091 38.4233 0.0029
# 6 0.0000 0.0041 0.0010 3.5494 0.0029 38.8085
#
#
#
# Elastic Compliance Matrix: (Units=1/GPa)
#
#
# Indices 1 2 3 4 5 6 
#
# 1 0.019427 -0.006279 -0.003266 -0.000010 0.007768 0.000001
# 2 -0.006279 0.014673 -0.004221 0.000027 -0.003358 -0.000004
# 3 -0.003266 -0.004221 0.016379 0.000018 0.014782 -0.000003
# 4 -0.000010 0.000027 0.000018 0.132549 0.000057 -0.012123
# 5 0.007768 -0.003358 0.014782 0.000057 0.047355 -0.000009
# 6 0.000001 -0.000004 -0.000003 -0.012123 -0.000009 0.026876
#
#
# Mechanical properties :
#
#
# Convention : Reuss Voigt Hill
#
# Bulk Modulus (GPa) = 43.57884 67.77269 55.67576
# Shear Modulus (GPa) = 17.09756 27.68124 22.38940
#
# Velocity S-wave (km/s) = 2.96539 3.77318 3.39341
# Velocity P-wave (km/s) = 5.84277 7.33751 6.63238
#
# Compressibility (1/GPa) = 0.02294692
#
# Stress axis : x y z
#
# Youngs Moduli (GPa) = 51.47440 68.15449 61.05361
#
# Poissons Ratio (x) = 0.42792 0.19939
# Poissons Ratio (y) = 0.32319 0.25774
# Poissons Ratio (z) = 0.16810 0.28771
#
# Static dielectric constant tensor:
#      x y z
#    x 1.705510 0.000000 -0.015810 
#    y 0.000000 1.649770 0.000000 
#    z -0.015810 0.000000 1.619750 
# 
# From -- ./inp_files/67066.got.cif
#   From: 2010.05.17/outbox.cif.g08.bks.cpg/sg5_34_cif.got.tgz:67066.got - 2010.06.03 18:56:24.
