data_PCOD9123930
_publ_section_title
;
Structure prediction by ZEFSAII (Michael W. Deem and Ramdas Pophale) SiO2 
 PCOD9123930
Probable space group: C 2
;
_chemical_formula_sum "Si O2"
_cell_formula_units_Z 28
_cell_length_a 27.532111
_cell_length_b 8.470609
_cell_length_c 10.077960
_cell_angle_alpha 90.000000
_cell_angle_beta 35.498040
_cell_angle_gamma 90.000000
_cell_volume 1364.771627
_symmetry_space_group_name_H-M "C 2"
_symmetry_group_IT_number 5
_symmetry_cell_setting 'monoclinic'
loop_
_space_group_symop_operation_xyz
x,y,z
-x,y,-z
1/2+x,1/2+y,z
1/2-x,1/2+y,-z
loop_
_atom_site_type_symbol
_atom_site_label
_atom_site_fract_x
_atom_site_fract_y
_atom_site_fract_z
Si Si1 0.500000 0.820560 0.000000
Si Si2 0.591531 0.627661 0.579916
Si Si3 0.644308 0.911684 0.289043
Si Si4 0.997905 0.807261 0.232864
Si Si5 0.736948 0.931642 0.814541
Si Si6 0.115792 0.566508 0.872006
Si Si7 0.500000 0.138277 0.500000
Si Si8 0.675657 0.129687 0.459838
O O1 0.567303 0.718723 0.768994
O O2 0.544138 0.935975 0.007563
O O3 0.600117 0.753716 0.441694
O O4 0.521377 0.491869 0.722914
O O5 0.679838 0.536871 0.383050
O O6 0.575081 0.027456 0.381113
O O7 0.683774 0.995800 0.330368
O O8 0.711943 0.895079 0.021893
O O9 0.019800 0.747744 0.331006
O O10 0.913107 0.716990 0.374769
O O11 0.072165 0.737749 0.978258
O O12 0.754862 0.763308 0.707900
O O13 0.665538 0.021971 0.892548
O O14 0.171678 0.562245 0.616145
#
# Coordination Sequence:
#
# PCOD9123930 Si02
#       8
#     2   4   4   4   4   4   2   4
#     4  12  24  44  68 100 138 184 230 282 350 416
#     4  11  26  42  69 104 138 180 233 292 346 416
#     4  11  21  45  68  95 141 181 232 280 352 414
#     4  10  21  41  66  96 132 176 226 279 343 411
#     4  11  26  41  69 101 138 181 233 285 348 414
#     4  12  22  44  69  97 133 187 227 284 348 415
#     4  10  20  40  70 100 124 182 230 274 342 416
#     4  10  22  40  66  92 133 183 222 273 350 408
#
# _framework density 20.516252000000001
#
# number of rings (size 3 to 8) (size 9 to 14) (size 15 to 20)
#    0.000    1.143    4.286    1.714    6.000    0.571 
#    0.000    1.429    0.000    0.000    0.000    0.000 
#    0.000    0.000    0.000    0.000    0.000    0.000 
#
# Total GULP energy -78209.911537 kJ/mol
# GULP energy per Si atom -5586.422253 kJ/mol
# Density = 2.046956 g / cm^3
# Si number density = 20.516252 Si / 1000 Ang^3
#
#
#
# Elastic Constant Matrix: (Units=GPa)
#
#
# Indices 1 2 3 4 5 6 
#
# 1 56.0567 28.7611 24.0427 0.0000 14.5090 0.0000
# 2 28.7611 117.3041 39.5147 0.0000 3.9559 0.0000
# 3 24.0427 39.5147 110.5309 0.0000 20.9698 0.0000
# 4 0.0000 0.0000 0.0000 45.1919 0.0000 -0.3483
# 5 14.5090 3.9559 20.9698 0.0000 29.5602 0.0000
# 6 0.0000 0.0000 0.0000 -0.3483 0.0000 20.1059
#
#
#
# Elastic Compliance Matrix: (Units=1/GPa)
#
#
# Indices 1 2 3 4 5 6 
#
# 1 0.023563 -0.004943 -0.001490 0.000000 -0.009847 0.000000
# 2 -0.004943 0.010775 -0.003425 0.000000 0.003414 0.000000
# 3 -0.001490 -0.003425 0.011983 0.000000 -0.007311 0.000000
# 4 0.000000 0.000000 0.000000 0.022131 0.000000 0.000383
# 5 -0.009847 0.003414 -0.007311 0.000000 0.043392 0.000000
# 6 0.000000 0.000000 0.000000 0.000383 0.000000 0.049743
#
#
# Mechanical properties :
#
#
# Convention : Reuss Voigt Hill
#
# Bulk Modulus (GPa) = 37.58663 52.05874 44.82269
# Shear Modulus (GPa) = 26.29212 31.74315 29.01763
#
# Velocity S-wave (km/s) = 3.58372 3.93774 3.76489
# Velocity P-wave (km/s) = 5.95687 6.78998 6.38702
#
# Compressibility (1/GPa) = 0.02660520
#
# Stress axis : x y z
#
# Youngs Moduli (GPa) = 42.43929 92.80469 83.45426
#
# Poissons Ratio (x) = 0.45876 0.12435
# Poissons Ratio (y) = 0.20979 0.28579
# Poissons Ratio (z) = 0.06324 0.31781
#
# Static dielectric constant tensor:
#      x y z
#    x 1.697080 0.000000 -0.002310 
#    y 0.000000 1.725890 0.000000 
#    z -0.002310 0.000000 1.757130 
# 
# From -- ./inp_files/31759.got.cif
#   From: 2010.05.17/outbox.cif.g08.bks.cpg/sg5_16_cif.got.tgz:31759.got - 2010.06.03 18:56:24.
