data_PCOD9123708
_publ_section_title
;
Structure prediction by ZEFSAII (Michael W. Deem and Ramdas Pophale) SiO2 
 PCOD9123708
Probable space group: C 2
;
_chemical_formula_sum "Si O2"
_cell_formula_units_Z 26
_cell_length_a 15.262496
_cell_length_b 12.643706
_cell_length_c 13.713176
_cell_angle_alpha 90.000000
_cell_angle_beta 27.688115
_cell_angle_gamma 90.000000
_cell_volume 1229.622418
_symmetry_space_group_name_H-M "C 2"
_symmetry_group_IT_number 5
_symmetry_cell_setting 'monoclinic'
loop_
_space_group_symop_operation_xyz
x,y,z
-x,y,-z
1/2+x,1/2+y,z
1/2-x,1/2+y,-z
loop_
_atom_site_type_symbol
_atom_site_label
_atom_site_fract_x
_atom_site_fract_y
_atom_site_fract_z
Si Si1 0.000000 0.471570 0.000000
Si Si2 0.797239 0.787654 0.151634
Si Si3 0.708046 0.104156 0.449695
Si Si4 0.333640 0.326265 0.587409
Si Si5 0.500000 0.629070 0.500000
Si Si6 0.615260 0.107046 0.073871
Si Si7 0.000000 0.457868 0.500000
Si Si8 0.987907 0.999187 0.712927
O O1 0.178895 0.400568 0.792334
O O2 0.958395 0.545866 0.949110
O O3 0.683206 0.702475 0.329553
O O4 0.652454 0.884915 0.292700
O O5 0.817983 0.722557 0.030214
O O6 0.000000 0.811850 0.000000
O O7 0.760408 0.217618 0.353951
O O8 0.544966 0.121798 0.689640
O O9 0.876166 0.047896 0.340728
O O10 0.621230 0.029300 0.452972
O O11 0.500000 0.302998 0.500000
O O12 0.432299 0.385625 0.398368
O O13 0.492349 0.560265 0.604394
O O14 0.777413 0.028227 0.953909
#
# Coordination Sequence:
#
# PCOD9123708 Si02
#       8
#     2   4   4   4   2   4   2   4
#     4  12  22  46  76 106 136 186 244 300 338 428
#     4  10  20  39  70  95 132 180 220 280 354 400
#     4  12  28  46  66 103 146 185 232 296 343 426
#     4  12  24  45  75 101 143 194 236 290 362 412
#     4   9  18  37  66 104 134 165 232 293 328 412
#     4  11  23  42  74 106 133 177 245 287 344 424
#     4  11  28  47  60  96 152 183 226 281 354 420
#     4  11  22  42  72 103 136 180 237 290 348 412
#
# _framework density 21.144701999999999
#
# number of rings (size 3 to 8) (size 9 to 14) (size 15 to 20)
#    0.000    0.923    5.385    1.846    0.000    8.615 
#    1.385    0.000    0.000    0.000    0.000    0.000 
#    0.000    0.000    0.000    0.000    0.000    0.000 
#
# Total GULP energy -72656.058431 kJ/mol
# GULP energy per Si atom -5588.927572 kJ/mol
# Density = 2.109658 g / cm^3
# Si number density = 21.144702 Si / 1000 Ang^3
#
#
#
# Elastic Constant Matrix: (Units=GPa)
#
#
# Indices 1 2 3 4 5 6 
#
# 1 102.7041 39.8996 6.4083 -0.0009 -17.0145 0.0001
# 2 39.8996 90.1547 -5.0401 -0.0036 1.6036 0.0006
# 3 6.4083 -5.0401 60.5669 -0.0043 -2.5642 0.0009
# 4 -0.0009 -0.0036 -0.0043 -140.8376 0.0020 -7.3892
# 5 -17.0145 1.6036 -2.5642 0.0020 34.3418 -0.0003
# 6 0.0001 0.0006 0.0009 -7.3892 -0.0003 10.5027
#
#
#
# Elastic Compliance Matrix: (Units=1/GPa)
#
#
# Indices 1 2 3 4 5 6 
#
# 1 0.013335 -0.006113 -0.001633 0.000000 0.006770 0.000001
# 2 -0.006113 0.013954 0.001657 0.000000 -0.003557 -0.000001
# 3 -0.001633 0.001657 0.016837 0.000000 0.000371 -0.000002
# 4 0.000000 0.000000 0.000000 -0.006848 0.000000 -0.004818
# 5 0.006770 -0.003557 0.000371 0.000000 0.032667 0.000001
# 6 0.000001 -0.000001 -0.000002 -0.004818 0.000001 0.091824
#
#
# Mechanical properties :
#
#
# Convention : Reuss Voigt Hill
#
# Bulk Modulus (GPa) = 31.30115 37.32904 34.31510
# Shear Modulus (GPa) = 27.08596 -5.05478 11.01559
#
# Velocity S-wave (km/s) = 3.58296 -1.54782 2.28494
# Velocity P-wave (km/s) = 5.65263 3.80763 4.81925
#
# Compressibility (1/GPa) = 0.03194770
#
# Stress axis : x y z
#
# Youngs Moduli (GPa) = 74.98908 71.66608 59.39274
#
# Poissons Ratio (x) = 0.43813 0.09699
# Poissons Ratio (y) = 0.45845 -0.09844
# Poissons Ratio (z) = 0.12246 -0.11878
#
# Static dielectric constant tensor:
#      x y z
#    x 1.760450 0.000000 0.038930 
#    y 0.000000 1.783470 0.000000 
#    z 0.038930 0.000000 1.871050 
# 
# From -- ./inp_files/54556.got.cif
#   From: 2010.05.17/outbox.cif.g08.bks.cpg/sg5_28_cif.got.tgz:54556.got - 2010.06.03 18:56:24.
