data_PCOD9123086
_publ_section_title
;
Structure prediction by ZEFSAII (Michael W. Deem and Ramdas Pophale) SiO2 
 PCOD9123086
Probable space group: C 2
;
_chemical_formula_sum "Si O2"
_cell_formula_units_Z 24
_cell_length_a 13.145327
_cell_length_b 14.004467
_cell_length_c 5.726802
_cell_angle_alpha 90.000000
_cell_angle_beta 82.986641
_cell_angle_gamma 90.000000
_cell_volume 1046.377545
_symmetry_space_group_name_H-M "C 2"
_symmetry_group_IT_number 5
_symmetry_cell_setting 'monoclinic'
loop_
_space_group_symop_operation_xyz
x,y,z
-x,y,-z
1/2+x,1/2+y,z
1/2-x,1/2+y,-z
loop_
_atom_site_type_symbol
_atom_site_label
_atom_site_fract_x
_atom_site_fract_y
_atom_site_fract_z
Si Si1 0.041401 0.095700 0.236111
Si Si2 0.240048 0.398657 0.407125
Si Si3 0.605926 0.894777 0.835095
Si Si4 0.715711 0.269116 0.990698
Si Si5 0.766685 0.558702 0.988484
Si Si6 0.928566 0.886702 0.696835
O O1 0.000000 0.134887 0.500000
O O2 0.012112 0.983160 0.253974
O O3 0.163648 0.087323 0.160998
O O4 0.000000 0.136813 0.000000
O O5 0.126707 0.394214 0.551786
O O6 0.260418 0.296215 0.282052
O O7 0.253203 0.485829 0.220624
O O8 0.325803 0.411791 0.580071
O O9 0.500000 0.881569 0.000000
O O10 0.650639 0.998744 0.891274
O O11 0.685084 0.814378 0.908359
O O12 0.695143 0.163464 0.084084
O O13 0.615001 0.330362 0.075242
O O14 0.000000 0.829534 0.500000
#
# Coordination Sequence:
#
# PCOD9123086 Si02
#       6
#     4   4   4   4   4   4
#     4  11  22  38  68  97 126 168 214 272 342 399
#     4  10  20  43  65  83 134 170 211 279 333 395
#     4  10  23  44  62  90 125 178 222 264 338 400
#     4  10  23  39  61  93 123 169 219 272 325 398
#     4  11  22  41  62  95 129 167 221 274 332 394
#     4  10  20  37  61  92 122 167 207 264 338 390
#
# _framework density 22.936273
#
# number of rings (size 3 to 8) (size 9 to 14) (size 15 to 20)
#    0.000    1.667    5.000    2.000    0.000    6.000 
#    9.000    0.000    0.000    0.000    0.000    0.000 
#    0.000    0.000    0.000    0.000    0.000    0.000 
#
# Total GULP energy -66844.339429 kJ/mol
# GULP energy per Si atom -5570.361619 kJ/mol
# Density = 2.288407 g / cm^3
# Si number density = 22.936273 Si / 1000 Ang^3
#
#
#
# Elastic Constant Matrix: (Units=GPa)
#
#
# Indices 1 2 3 4 5 6 
#
# 1 63.1600 -0.2153 31.5855 0.0000 -33.4464 0.0000
# 2 -0.2153 85.9609 -3.4529 0.0000 3.1821 0.0000
# 3 31.5855 -3.4529 118.6028 0.0000 -27.2420 0.0000
# 4 0.0000 0.0000 0.0000 0.2940 0.0000 -4.3807
# 5 -33.4464 3.1821 -27.2420 0.0000 41.5349 0.0000
# 6 0.0000 0.0000 0.0000 -4.3807 0.0000 14.4376
#
#
#
# Elastic Compliance Matrix: (Units=1/GPa)
#
#
# Indices 1 2 3 4 5 6 
#
# 1 0.028384 -0.000821 -0.002730 0.000000 0.021129 0.000000
# 2 -0.000821 0.011693 0.000237 0.000000 -0.001401 0.000000
# 3 -0.002730 0.000237 0.010192 0.000000 0.004468 0.000000
# 4 0.000000 0.000000 0.000000 -0.965966 0.000000 -0.293096
# 5 0.021129 -0.001401 0.004468 0.000000 0.044128 0.000000
# 6 0.000000 0.000000 0.000000 -0.293096 0.000000 -0.019669
#
#
# Mechanical properties :
#
#
# Convention : Reuss Voigt Hill
#
# Bulk Modulus (GPa) = 22.91399 35.95092 29.43245
# Shear Modulus (GPa) = -5.74670 27.24039 10.74684
#
# Velocity S-wave (km/s) = -1.58460 3.44998 2.16696
# Velocity P-wave (km/s) = 2.58148 5.61944 4.37276
#
# Compressibility (1/GPa) = 0.04364147
#
# Stress axis : x y z
#
# Youngs Moduli (GPa) = 35.23112 85.52469 98.11920
#
# Poissons Ratio (x) = 0.07019 0.26785
# Poissons Ratio (y) = 0.02891 -0.02327
# Poissons Ratio (z) = 0.09617 -0.02028
#
# Static dielectric constant tensor:
#      x y z
#    x 1.905440 0.000000 -0.026110 
#    y 0.000000 1.905950 0.000000 
#    z -0.026110 0.000000 2.045640 
# 
# From -- ./inp_files/6836.got.cif
#   From: 2010.05.17/outbox.cif.g08.bks.cpg/sg5_4_cif.got.tgz:6836.got - 2010.06.03 18:56:24.
