data_PCOD9123245
_publ_section_title
;
Structure prediction by ZEFSAII (Michael W. Deem and Ramdas Pophale) SiO2 
 PCOD9123245
Probable space group: C 2
;
_chemical_formula_sum "Si O2"
_cell_formula_units_Z 26
_cell_length_a 14.541437
_cell_length_b 10.162986
_cell_length_c 8.120170
_cell_angle_alpha 90.000000
_cell_angle_beta 113.677609
_cell_angle_gamma 90.000000
_cell_volume 1099.015229
_symmetry_space_group_name_H-M "C 2"
_symmetry_group_IT_number 5
_symmetry_cell_setting 'monoclinic'
loop_
_space_group_symop_operation_xyz
x,y,z
-x,y,-z
1/2+x,1/2+y,z
1/2-x,1/2+y,-z
loop_
_atom_site_type_symbol
_atom_site_label
_atom_site_fract_x
_atom_site_fract_y
_atom_site_fract_z
Si Si1 0.888627 0.379610 0.962285
Si Si2 0.310123 0.798243 0.262361
Si Si3 0.108470 0.045338 0.544191
Si Si4 0.565297 0.137716 0.837581
Si Si5 0.112879 0.834717 0.285246
Si Si6 0.693715 0.285806 0.683204
Si Si7 0.000000 0.457405 0.500000
O O1 0.807542 0.332861 0.772357
O O2 0.847897 0.318259 0.103621
O O3 0.897081 0.538204 0.993881
O O4 0.000000 0.333132 0.000000
O O5 0.314583 0.652192 0.338636
O O6 0.194949 0.841483 0.200915
O O7 0.395004 0.878520 0.424637
O O8 0.000000 0.103747 0.500000
O O9 0.108291 0.981456 0.362125
O O10 0.125537 0.915329 0.666485
O O11 0.491528 0.259949 0.822094
O O12 0.660058 0.183166 0.795550
O O13 0.504590 0.044354 0.667616
O O14 0.162467 0.753602 0.474788
#
# Coordination Sequence:
#
# PCOD9123245 Si02
#       7
#     4   4   4   4   4   4   2
#     4  11  29  44  64  95 143 182 222 280 350 408
#     4  11  25  37  67  98 142 167 229 276 348 389
#     4  10  20  40  66  98 132 171 220 283 324 395
#     4  11  21  43  71  96 134 179 227 274 338 414
#     4  10  22  39  72 101 126 176 231 277 328 404
#     4  10  22  42  68  94 134 178 222 274 336 403
#     4  10  20  38  58 102 124 174 220 282 312 406
#
# _framework density 23.657544000000001
#
# number of rings (size 3 to 8) (size 9 to 14) (size 15 to 20)
#    0.923    0.615    3.846    0.000   10.769    0.000 
#    0.000    0.000    0.000    0.000    0.000    0.000 
#    0.000    0.000    0.000    0.000    0.000    0.000 
#
# Total GULP energy -72543.556200 kJ/mol
# GULP energy per Si atom -5580.273554 kJ/mol
# Density = 2.360370 g / cm^3
# Si number density = 23.657544 Si / 1000 Ang^3
#
#
#
# Elastic Constant Matrix: (Units=GPa)
#
#
# Indices 1 2 3 4 5 6 
#
# 1 146.1147 13.4803 31.1894 0.0000 -5.1847 0.0000
# 2 13.4803 61.9388 7.5219 0.0000 -9.1276 0.0000
# 3 31.1894 7.5219 70.2510 0.0000 13.8341 0.0000
# 4 0.0000 0.0000 0.0000 14.4711 0.0000 9.2192
# 5 -5.1847 -9.1276 13.8341 0.0000 38.1935 0.0000
# 6 0.0000 0.0000 0.0000 9.2192 0.0000 12.7201
#
#
#
# Elastic Compliance Matrix: (Units=1/GPa)
#
#
# Indices 1 2 3 4 5 6 
#
# 1 0.007821 -0.000911 -0.003813 0.000000 0.002225 0.000000
# 2 -0.000911 0.017359 -0.002419 0.000000 0.004901 0.000000
# 3 -0.003813 -0.002419 0.017662 0.000000 -0.007493 0.000000
# 4 0.000000 0.000000 0.000000 0.128382 0.000000 -0.093048
# 5 0.002225 0.004901 -0.007493 0.000000 0.030370 0.000000
# 6 0.000000 0.000000 0.000000 -0.093048 0.000000 0.146054
#
#
# Mechanical properties :
#
#
# Convention : Reuss Voigt Hill
#
# Bulk Modulus (GPa) = 35.01938 42.52086 38.77012
# Shear Modulus (GPa) = 13.46063 28.15112 20.80587
#
# Velocity S-wave (km/s) = 2.38791 3.45330 2.96879
# Velocity P-wave (km/s) = 4.73684 5.82347 5.30803
#
# Compressibility (1/GPa) = 0.02855561
#
# Stress axis : x y z
#
# Youngs Moduli (GPa) = 127.86365 57.60590 56.61846
#
# Poissons Ratio (x) = 0.05249 0.21588
# Poissons Ratio (y) = 0.11651 0.13698
# Poissons Ratio (z) = 0.48752 0.13937
#
# Static dielectric constant tensor:
#      x y z
#    x 1.886500 0.000000 0.000320 
#    y 0.000000 1.934160 0.000000 
#    z 0.000320 0.000000 1.949950 
# 
# From -- ./inp_files/23719.got.cif
#   From: 2010.05.17/outbox.cif.g08.bks.cpg/sg5_12_cif.got.tgz:23719.got - 2010.06.03 18:56:24.
