data_PCOD9123200
_publ_section_title
;
Structure prediction by ZEFSAII (Michael W. Deem and Ramdas Pophale) SiO2 
 PCOD9123200
Probable space group: C 2
;
_chemical_formula_sum "Si O2"
_cell_formula_units_Z 28
_cell_length_a 15.840484
_cell_length_b 11.645473
_cell_length_c 18.695152
_cell_angle_alpha 90.000000
_cell_angle_beta 158.644435
_cell_angle_gamma 90.000000
_cell_volume 1255.857572
_symmetry_space_group_name_H-M "C 2"
_symmetry_group_IT_number 5
_symmetry_cell_setting 'monoclinic'
loop_
_space_group_symop_operation_xyz
x,y,z
-x,y,-z
1/2+x,1/2+y,z
1/2-x,1/2+y,-z
loop_
_atom_site_type_symbol
_atom_site_label
_atom_site_fract_x
_atom_site_fract_y
_atom_site_fract_z
Si Si1 0.500000 0.377481 0.500000
Si Si2 0.494413 0.168856 0.391295
Si Si3 0.489264 0.995790 0.856061
Si Si4 0.823869 0.172731 0.167601
Si Si5 0.319485 0.201623 0.620947
Si Si6 0.029129 0.127093 0.171568
Si Si7 0.500000 0.651659 0.000000
Si Si8 0.133191 0.879146 0.945152
O O1 0.472162 0.294895 0.408977
O O2 0.743083 0.444787 0.686191
O O3 0.572306 0.182589 0.371682
O O4 0.701805 0.115958 0.599439
O O5 0.255407 0.100577 0.208172
O O6 0.647807 0.908028 0.934488
O O7 0.414044 0.100085 0.744811
O O8 0.659695 0.061180 0.047146
O O9 0.689528 0.292106 0.053739
O O10 0.042939 0.187679 0.392357
O O11 0.919138 0.160433 0.160638
O O12 0.425399 0.319634 0.735933
O O13 0.981795 0.207522 0.065336
O O14 0.935193 0.002356 0.078917
#
# Coordination Sequence:
#
# PCOD9123200 Si02
#       8
#     2   4   4   4   4   4   2   4
#     4  12  24  40  62  96 136 158 202 274 322 364
#     4  11  23  37  58  94 130 158 200 258 317 380
#     4  10  22  39  60  94 128 167 204 263 314 380
#     4   9  20  39  61  89 121 162 219 255 301 377
#     4  10  22  41  64  90 125 170 212 257 311 381
#     4  10  21  37  58  91 126 157 205 260 308 369
#     4  12  20  36  58  82 130 162 186 252 322 364
#     4  10  20  37  66  89 120 162 217 260 301 379
#
# _framework density 22.295521000000001
#
# number of rings (size 3 to 8) (size 9 to 14) (size 15 to 20)
#    0.000    1.714    1.429    4.286    2.000    8.000 
#    0.000    0.000   18.857    0.000    0.000    0.000 
#    0.000    0.000    0.000    0.000    0.000    0.000 
#
# Total GULP energy -78049.194977 kJ/mol
# GULP energy per Si atom -5574.942498 kJ/mol
# Density = 2.224478 g / cm^3
# Si number density = 22.295521 Si / 1000 Ang^3
#
#
#
# Elastic Constant Matrix: (Units=GPa)
#
#
# Indices 1 2 3 4 5 6 
#
# 1 51.9990 8.7937 26.3174 -0.0007 3.6502 -0.0012
# 2 8.7937 89.0531 34.9974 0.0031 14.6858 0.0026
# 3 26.3174 34.9974 174.2307 0.0126 18.6857 0.0056
# 4 -0.0007 0.0031 0.0126 33.9978 0.0063 7.1111
# 5 3.6502 14.6858 18.6857 0.0063 42.4645 0.0021
# 6 -0.0012 0.0026 0.0056 7.1111 0.0021 19.9175
#
#
#
# Elastic Compliance Matrix: (Units=1/GPa)
#
#
# Indices 1 2 3 4 5 6 
#
# 1 0.020890 -0.000868 -0.002960 0.000001 -0.000193 0.000002
# 2 -0.000868 0.012683 -0.002051 0.000000 -0.003409 -0.000001
# 3 -0.002960 -0.002051 0.006817 -0.000002 -0.002036 -0.000001
# 4 0.000001 0.000000 -0.000002 0.031787 -0.000004 -0.011349
# 5 -0.000193 -0.003409 -0.002036 -0.000004 0.025641 0.000000
# 6 0.000002 -0.000001 -0.000001 -0.011349 0.000000 0.054259
#
#
# Mechanical properties :
#
#
# Convention : Reuss Voigt Hill
#
# Bulk Modulus (GPa) = 34.92594 50.61108 42.76851
# Shear Modulus (GPa) = 28.83860 35.62091 32.22976
#
# Velocity S-wave (km/s) = 3.60039 4.00142 3.80619
# Velocity P-wave (km/s) = 5.74306 6.64063 6.20809
#
# Compressibility (1/GPa) = 0.02863201
#
# Stress axis : x y z
#
# Youngs Moduli (GPa) = 47.87048 78.84469 146.69188
#
# Poissons Ratio (x) = 0.06840 0.43427
# Poissons Ratio (y) = 0.04153 0.30086
# Poissons Ratio (z) = 0.14172 0.16171
#
# Static dielectric constant tensor:
#      x y z
#    x 1.879050 0.000000 0.026190 
#    y 0.000000 1.819530 0.000000 
#    z 0.026190 0.000000 1.864320 
# 
# From -- ./inp_files/66733.got.cif
#   From: 2010.05.17/outbox.cif.g08.bks.cpg/sg5_34_cif.got.tgz:66733.got - 2010.06.03 18:56:24.
