data_PCOD9123758
_publ_section_title
;
Structure prediction by ZEFSAII (Michael W. Deem and Ramdas Pophale) SiO2 
 PCOD9123758
Probable space group: C 2
;
_chemical_formula_sum "Si O2"
_cell_formula_units_Z 24
_cell_length_a 22.151278
_cell_length_b 8.791099
_cell_length_c 12.443278
_cell_angle_alpha 90.000000
_cell_angle_beta 153.238953
_cell_angle_gamma 90.000000
_cell_volume 1091.064331
_symmetry_space_group_name_H-M "C 2"
_symmetry_group_IT_number 5
_symmetry_cell_setting 'monoclinic'
loop_
_space_group_symop_operation_xyz
x,y,z
-x,y,-z
1/2+x,1/2+y,z
1/2-x,1/2+y,-z
loop_
_atom_site_type_symbol
_atom_site_label
_atom_site_fract_x
_atom_site_fract_y
_atom_site_fract_z
Si Si1 0.857306 0.896530 0.631247
Si Si2 0.652430 0.325485 0.769893
Si Si3 0.662196 0.294215 0.157902
Si Si4 0.829011 0.435828 0.854734
Si Si5 0.270724 0.511821 0.898233
Si Si6 0.996105 0.179387 0.867448
O O1 0.817958 0.852145 0.689108
O O2 0.753324 0.850902 0.373007
O O3 0.870536 0.078684 0.633962
O O4 0.011222 0.835633 0.873255
O O5 0.500000 0.357471 0.500000
O O6 0.746948 0.404149 0.832038
O O7 0.676957 0.143519 0.798185
O O8 0.681533 0.403893 0.929547
O O9 0.768898 0.387817 0.255329
O O10 0.663660 0.114071 0.151308
O O11 0.975850 0.358230 0.095157
O O12 0.383878 0.610553 0.014837
O O13 0.000000 0.140681 0.000000
#
# Coordination Sequence:
#
# PCOD9123758 Si02
#       6
#     4   4   4   4   4   4
#     4  10  21  40  60  86 132 162 192 260 306 367
#     4  11  23  42  64  89 123 166 212 255 304 365
#     4  10  21  40  61  92 124 162 205 252 310 366
#     4  11  25  37  65  94 120 168 210 249 310 370
#     4  10  21  42  66  87 127 162 204 261 306 357
#     4  10  20  40  61  91 127 159 200 253 309 365
#
# _framework density 21.996869
#
# number of rings (size 3 to 8) (size 9 to 14) (size 15 to 20)
#    0.000    1.667    3.333    3.000    4.667    0.000 
#    0.000   15.000    0.000    0.000    0.000    0.000 
#    0.000    0.000    0.000    0.000    0.000    0.000 
#
# Total GULP energy -66860.038878 kJ/mol
# GULP energy per Si atom -5571.669907 kJ/mol
# Density = 2.194680 g / cm^3
# Si number density = 21.996869 Si / 1000 Ang^3
#
#
#
# Elastic Constant Matrix: (Units=GPa)
#
#
# Indices 1 2 3 4 5 6 
#
# 1 115.2655 38.1306 31.4142 0.0000 -23.2287 0.0000
# 2 38.1306 148.3531 17.2688 0.0000 -1.5254 0.0000
# 3 31.4142 17.2688 51.4608 0.0000 -9.0942 0.0000
# 4 0.0000 0.0000 0.0000 19.1827 0.0000 2.8302
# 5 -23.2287 -1.5254 -9.0942 0.0000 23.0051 0.0000
# 6 0.0000 0.0000 0.0000 2.8302 0.0000 14.8100
#
#
#
# Elastic Compliance Matrix: (Units=1/GPa)
#
#
# Indices 1 2 3 4 5 6 
#
# 1 0.013220 -0.002677 -0.005208 0.000000 0.011112 0.000000
# 2 -0.002677 0.007562 -0.001389 0.000000 -0.002751 0.000000
# 3 -0.005208 -0.001389 0.023794 0.000000 0.004055 0.000000
# 4 0.000000 0.000000 0.000000 0.053643 0.000000 -0.010251
# 5 0.011112 -0.002751 0.004055 0.000000 0.056110 0.000000
# 6 0.000000 0.000000 0.000000 -0.010251 0.000000 0.069481
#
#
# Mechanical properties :
#
#
# Convention : Reuss Voigt Hill
#
# Bulk Modulus (GPa) = 38.42154 54.30074 46.36114
# Shear Modulus (GPa) = 19.91752 26.61729 23.26740
#
# Velocity S-wave (km/s) = 3.01237 3.48235 3.25585
# Velocity P-wave (km/s) = 5.44095 6.39596 5.93768
#
# Compressibility (1/GPa) = 0.02602707
#
# Stress axis : x y z
#
# Youngs Moduli (GPa) = 75.64241 132.23505 42.02668
#
# Poissons Ratio (x) = 0.35405 0.21887
# Poissons Ratio (y) = 0.20253 0.05839
# Poissons Ratio (z) = 0.39394 0.18374
#
# Static dielectric constant tensor:
#      x y z
#    x 1.837420 0.000000 0.042300 
#    y 0.000000 1.883160 0.000000 
#    z 0.042300 0.000000 1.823820 
# 
# From -- ./inp_files/47336.got.cif
#   From: 2010.05.17/outbox.cif.g08.bks.cpg/sg5_24_cif.got.tgz:47336.got - 2010.06.03 18:56:24.
