data_PCOD9123273
_publ_section_title
;
Structure prediction by ZEFSAII (Michael W. Deem and Ramdas Pophale) SiO2 
 PCOD9123273
Probable space group: C 2
;
_chemical_formula_sum "Si O2"
_cell_formula_units_Z 30
_cell_length_a 22.959421
_cell_length_b 5.177610
_cell_length_c 29.397151
_cell_angle_alpha 90.000000
_cell_angle_beta 155.734021
_cell_angle_gamma 90.000000
_cell_volume 1436.180153
_symmetry_space_group_name_H-M "C 2"
_symmetry_group_IT_number 5
_symmetry_cell_setting 'monoclinic'
loop_
_space_group_symop_operation_xyz
x,y,z
-x,y,-z
1/2+x,1/2+y,z
1/2-x,1/2+y,-z
loop_
_atom_site_type_symbol
_atom_site_label
_atom_site_fract_x
_atom_site_fract_y
_atom_site_fract_z
Si Si1 0.752208 0.439540 0.713230
Si Si2 0.798040 0.186858 0.412264
Si Si3 0.482471 0.732988 0.042575
Si Si4 0.379685 0.240923 0.953716
Si Si5 0.451076 0.535311 0.363331
Si Si6 0.412214 0.023434 0.280293
Si Si7 0.500000 0.068515 0.500000
Si Si8 0.315025 0.211220 0.570830
O O1 0.789074 0.574417 0.692051
O O2 0.672886 0.631691 0.691392
O O3 0.624866 0.238697 0.611822
O O4 0.881570 0.328030 0.833528
O O5 0.711428 0.268710 0.394789
O O6 0.905019 0.967748 0.507784
O O7 0.909239 0.390079 0.469972
O O8 0.500000 0.697792 0.000000
O O9 0.363616 0.955288 0.962091
O O10 0.446568 0.449848 0.035058
O O11 0.236434 0.385061 0.837111
O O12 0.500000 0.201225 0.000000
O O13 0.393534 0.281795 0.297087
O O14 0.488346 0.784153 0.359744
O O15 0.521774 0.123890 0.320447
O O16 0.274698 0.465549 0.512703
#
# Coordination Sequence:
#
# PCOD9123273 Si02
#       8
#     4   4   4   4   4   4   2   4
#     4  12  25  39  64 100 143 178 217 284 347 417
#     4  12  25  39  61  96 140 180 227 268 342 421
#     4  10  22  39  61  91 131 169 218 277 335 390
#     4  10  20  38  59  96 123 166 222 277 336 382
#     4  12  21  38  63  96 131 180 212 264 337 408
#     4  12  23  40  69  93 138 177 222 286 335 394
#     4  12  24  42  64  98 142 186 224 274 358 428
#     4  12  26  44  64  96 138 187 230 275 328 413
#
# _framework density 20.888743000000002
#
# number of rings (size 3 to 8) (size 9 to 14) (size 15 to 20)
#    0.000    0.533    5.333    4.800    3.733    0.000 
#    0.000    0.000    0.000    1.600    0.000    0.000 
#    0.000    0.000    0.000    0.000    0.000    0.000 
#
# Total GULP energy -83622.502278 kJ/mol
# GULP energy per Si atom -5574.833485 kJ/mol
# Density = 2.084120 g / cm^3
# Si number density = 20.888743 Si / 1000 Ang^3
#
#
#
# Elastic Constant Matrix: (Units=GPa)
#
#
# Indices 1 2 3 4 5 6 
#
# 1 128.2434 17.2186 14.8734 0.0130 -8.7600 -0.0256
# 2 17.2186 102.1833 -7.4489 -0.0687 -10.8311 0.0206
# 3 14.8734 -7.4489 81.5178 0.0207 -7.3738 -0.0149
# 4 0.0130 -0.0687 0.0207 27.9297 -0.0117 2.4480
# 5 -8.7600 -10.8311 -7.3738 -0.0117 25.2841 0.0441
# 6 -0.0256 0.0206 -0.0149 2.4480 0.0441 21.0390
#
#
#
# Elastic Compliance Matrix: (Units=1/GPa)
#
#
# Indices 1 2 3 4 5 6 
#
# 1 0.008270 -0.001300 -0.001457 -0.000006 0.001883 0.000007
# 2 -0.001300 0.010607 0.001620 0.000029 0.004566 -0.000024
# 3 -0.001457 0.001620 0.013042 -0.000003 0.003993 -0.000002
# 4 -0.000006 0.000029 -0.000003 0.036173 0.000034 -0.004209
# 5 0.001883 0.004566 0.003993 0.000034 0.043324 -0.000094
# 6 0.000007 -0.000024 -0.000002 -0.004209 -0.000094 0.048021
#
#
# Mechanical properties :
#
#
# Convention : Reuss Voigt Hill
#
# Bulk Modulus (GPa) = 33.73401 40.13675 36.93538
# Shear Modulus (GPa) = 29.13848 34.00397 31.57123
#
# Velocity S-wave (km/s) = 3.73894 4.03905 3.89189
# Velocity P-wave (km/s) = 5.90118 6.40376 6.15760
#
# Compressibility (1/GPa) = 0.02964368
#
# Stress axis : x y z
#
# Youngs Moduli (GPa) = 120.92047 94.27313 76.67361
#
# Poissons Ratio (x) = 0.12257 0.11174
# Poissons Ratio (y) = 0.15722 -0.12417
# Poissons Ratio (z) = 0.17622 -0.15268
#
# Static dielectric constant tensor:
#      x y z
#    x 1.894770 -0.000010 -0.005150 
#    y -0.000010 1.854180 0.000010 
#    z -0.005150 0.000010 1.847390 
# 
# From -- ./inp_files/46943.got.cif
#   From: 2010.05.17/outbox.cif.g08.bks.cpg/sg5_24_cif.got.tgz:46943.got - 2010.06.03 18:56:24.
