data_PCOD9123256
_publ_section_title
;
Structure prediction by ZEFSAII (Michael W. Deem and Ramdas Pophale) SiO2 
 PCOD9123256
Probable space group: C 2
;
_chemical_formula_sum "Si O2"
_cell_formula_units_Z 26
_cell_length_a 7.554041
_cell_length_b 17.174116
_cell_length_c 15.398717
_cell_angle_alpha 90.000000
_cell_angle_beta 133.217021
_cell_angle_gamma 90.000000
_cell_volume 1455.881120
_symmetry_space_group_name_H-M "C 2"
_symmetry_group_IT_number 5
_symmetry_cell_setting 'monoclinic'
loop_
_space_group_symop_operation_xyz
x,y,z
-x,y,-z
1/2+x,1/2+y,z
1/2-x,1/2+y,-z
loop_
_atom_site_type_symbol
_atom_site_label
_atom_site_fract_x
_atom_site_fract_y
_atom_site_fract_z
Si Si1 0.000000 0.132221 0.500000
Si Si2 0.476238 0.570636 0.678384
Si Si3 0.141183 0.245155 0.317039
Si Si4 0.128474 0.910719 0.287969
Si Si5 0.822491 0.769392 0.572146
Si Si6 0.755763 0.369828 0.134202
Si Si7 0.892720 0.466903 0.869336
O O1 0.051424 0.081232 0.433444
O O2 0.776159 0.192203 0.413157
O O3 0.411775 0.653159 0.698345
O O4 0.319401 0.498469 0.661784
O O5 0.753180 0.543656 0.789005
O O6 0.188539 0.270919 0.433395
O O7 0.393402 0.261529 0.353187
O O8 0.922604 0.293492 0.201922
O O9 0.223053 0.844682 0.384450
O O10 0.207069 0.899361 0.215610
O O11 0.833598 0.907420 0.195051
O O12 0.911110 0.431938 0.130441
O O13 0.500000 0.355796 0.000000
O O14 0.000000 0.480878 0.000000
#
# Coordination Sequence:
#
# PCOD9123256 Si02
#       7
#     2   4   4   4   4   4   4
#     4  10  20  38  58  88 126 160 196 246 312 352
#     4   9  21  37  57  85 122 154 197 248 300 356
#     4  10  21  38  60  91 123 159 202 249 306 352
#     4  10  21  37  63  85 117 157 202 243 302 353
#     4  10  20  39  61  87 125 159 197 255 293 368
#     4  12  22  38  64  89 117 164 207 248 296 358
#     4  10  21  41  60  84 123 152 209 247 292 350
#
# _framework density 17.858601
#
# number of rings (size 3 to 8) (size 9 to 14) (size 15 to 20)
#    0.923    0.923    3.077    1.846    0.000    4.308 
#    0.000    7.692    0.000    0.923    0.000    0.000 
#    0.000    0.000    0.000    0.000    0.000    0.000 
#
# Total GULP energy -72445.203118 kJ/mol
# GULP energy per Si atom -5572.707932 kJ/mol
# Density = 1.781795 g / cm^3
# Si number density = 17.858601 Si / 1000 Ang^3
#
#
#
# Elastic Constant Matrix: (Units=GPa)
#
#
# Indices 1 2 3 4 5 6 
#
# 1 124.7428 56.3273 43.3892 0.0000 -6.7471 0.0000
# 2 56.3273 130.9648 76.8943 0.0000 -16.8577 0.0000
# 3 43.3892 76.8943 81.9017 0.0000 -0.7074 0.0000
# 4 0.0000 0.0000 0.0000 17.3084 0.0000 6.7538
# 5 -6.7471 -16.8577 -0.7074 0.0000 31.2475 0.0000
# 6 0.0000 0.0000 0.0000 6.7538 0.0000 16.7951
#
#
#
# Elastic Compliance Matrix: (Units=1/GPa)
#
#
# Indices 1 2 3 4 5 6 
#
# 1 0.010261 -0.002503 -0.003079 0.000000 0.000796 0.000000
# 2 -0.002503 0.020460 -0.017796 0.000000 0.010095 0.000000
# 3 -0.003079 -0.017796 0.030467 0.000000 -0.009576 0.000000
# 4 0.000000 0.000000 0.000000 0.068528 0.000000 -0.027557
# 5 0.000796 0.010095 -0.009576 0.000000 0.037404 0.000000
# 6 0.000000 0.000000 0.000000 -0.027557 0.000000 0.070623
#
#
# Mechanical properties :
#
#
# Convention : Reuss Voigt Hill
#
# Bulk Modulus (GPa) = 69.29511 76.75900 73.02706
# Shear Modulus (GPa) = 17.28252 23.80343 20.54297
#
# Velocity S-wave (km/s) = 3.11423 3.65483 3.39531
# Velocity P-wave (km/s) = 7.19844 7.80290 7.50676
#
# Compressibility (1/GPa) = 0.01443103
#
# Stress axis : x y z
#
# Youngs Moduli (GPa) = 97.45943 48.87494 32.82273
#
# Poissons Ratio (x) = 0.12232 0.10107
# Poissons Ratio (y) = 0.24391 0.58413
# Poissons Ratio (z) = 0.30010 0.86980
#
# Static dielectric constant tensor:
#      x y z
#    x 1.620130 0.000000 0.018150 
#    y 0.000000 1.594730 0.000000 
#    z 0.018150 0.000000 1.608520 
# 
# From -- ./inp_files/51044.got.cif
#   From: 2010.05.17/outbox.cif.g08.bks.cpg/sg5_26_cif.got.tgz:51044.got - 2010.06.03 18:56:24.
