data_PCOD9123563
_publ_section_title
;
Structure prediction by ZEFSAII (Michael W. Deem and Ramdas Pophale) SiO2 
 PCOD9123563
Probable space group: C 2
;
_chemical_formula_sum "Si O2"
_cell_formula_units_Z 32
_cell_length_a 17.730642
_cell_length_b 12.163154
_cell_length_c 14.176296
_cell_angle_alpha 90.000000
_cell_angle_beta 152.278580
_cell_angle_gamma 90.000000
_cell_volume 1422.158346
_symmetry_space_group_name_H-M "C 2"
_symmetry_group_IT_number 5
_symmetry_cell_setting 'monoclinic'
loop_
_space_group_symop_operation_xyz
x,y,z
-x,y,-z
1/2+x,1/2+y,z
1/2-x,1/2+y,-z
loop_
_atom_site_type_symbol
_atom_site_label
_atom_site_fract_x
_atom_site_fract_y
_atom_site_fract_z
Si Si1 0.146545 0.846830 0.996359
Si Si2 0.498982 0.573292 0.887062
Si Si3 0.352276 0.331623 0.539957
Si Si4 0.671062 0.703950 0.934569
Si Si5 0.523919 0.551679 0.416275
Si Si6 0.003267 0.634109 0.392617
Si Si7 0.831596 0.446578 0.522142
Si Si8 0.328114 0.756482 0.366012
O O1 0.975878 0.806609 0.763652
O O2 0.127475 0.974890 0.003225
O O3 0.288264 0.815157 0.078210
O O4 0.189059 0.778610 0.136734
O O5 0.536482 0.678962 0.864676
O O6 0.330009 0.520436 0.668140
O O7 0.500000 0.591699 0.000000
O O8 0.437142 0.436153 0.585820
O O9 0.360798 0.227196 0.480791
O O10 0.187848 0.381172 0.401641
O O11 0.622352 0.613546 0.800454
O O12 0.833874 0.684802 0.173602
O O13 0.500000 0.531400 0.500000
O O14 0.669010 0.641438 0.575402
O O15 0.000000 0.605744 0.500000
O O16 0.030159 0.530982 0.353752
O O17 0.827839 0.354652 0.438319
O O18 0.500000 0.759542 0.500000
#
# Coordination Sequence:
#
# PCOD9123563 Si02
#       8
#     4   4   4   4   4   4   4   4
#     4  10  20  39  60  96 125 168 221 273 327 393
#     4  11  21  38  66  95 130 168 218 281 343 389
#     4  10  24  40  63  91 135 175 214 276 347 399
#     4  11  22  40  63  98 129 173 221 276 329 402
#     4  11  21  39  67  97 131 178 221 269 341 417
#     4  11  25  43  65  96 132 179 225 275 337 413
#     4  11  23  37  64  97 130 169 222 285 336 392
#     4  11  22  34  64 100 127 166 227 282 325 398
#
# _framework density 22.501010999999998
#
# number of rings (size 3 to 8) (size 9 to 14) (size 15 to 20)
#    0.000    1.250    6.250    1.500    3.500    0.000 
#    0.000    0.000    0.000    0.000    0.000    0.875 
#    0.000    0.000    0.000    0.000    0.000    0.000 
#
# Total GULP energy -89300.891194 kJ/mol
# GULP energy per Si atom -5581.305700 kJ/mol
# Density = 2.244980 g / cm^3
# Si number density = 22.501011 Si / 1000 Ang^3
#
#
#
# Elastic Constant Matrix: (Units=GPa)
#
#
# Indices 1 2 3 4 5 6 
#
# 1 89.1877 19.3712 3.2975 0.0000 0.8450 0.0000
# 2 19.3712 92.9314 6.0930 0.0000 17.4074 0.0000
# 3 3.2975 6.0930 48.9150 0.0000 -13.8175 0.0000
# 4 0.0000 0.0000 0.0000 20.7161 0.0000 6.1489
# 5 0.8450 17.4074 -13.8175 0.0000 22.9694 0.0000
# 6 0.0000 0.0000 0.0000 6.1489 0.0000 45.5384
#
#
#
# Elastic Compliance Matrix: (Units=1/GPa)
#
#
# Indices 1 2 3 4 5 6 
#
# 1 0.011799 -0.002777 0.000027 0.000000 0.001687 0.000000
# 2 -0.002777 0.014356 -0.005596 0.000000 -0.014144 0.000000
# 3 0.000027 -0.005596 0.026909 0.000000 0.020428 0.000000
# 4 0.000000 0.000000 0.000000 0.050287 0.000000 -0.006790
# 5 0.001687 -0.014144 0.020428 0.000000 0.066482 0.000000
# 6 0.000000 0.000000 0.000000 -0.006790 0.000000 0.022876
#
#
# Mechanical properties :
#
#
# Convention : Reuss Voigt Hill
#
# Bulk Modulus (GPa) = 27.49456 32.06195 29.77825
# Shear Modulus (GPa) = 22.57078 31.32960 26.95019
#
# Velocity S-wave (km/s) = 3.17061 3.73549 3.46458
# Velocity P-wave (km/s) = 5.06453 5.73456 5.40993
#
# Compressibility (1/GPa) = 0.03637083
#
# Stress axis : x y z
#
# Youngs Moduli (GPa) = 84.75648 69.65830 37.16178
#
# Poissons Ratio (x) = 0.19345 -0.00101
# Poissons Ratio (y) = 0.23538 0.20797
# Poissons Ratio (z) = -0.00229 0.38983
#
# Static dielectric constant tensor:
#      x y z
#    x 1.904820 0.000000 0.045140 
#    y 0.000000 1.892800 0.000000 
#    z 0.045140 0.000000 1.842330 
# 
# From -- ./inp_files/56034.got.cif
#   From: 2010.05.17/outbox.cif.g08.bks.cpg/sg5_29_cif.got.tgz:56034.got - 2010.06.03 18:56:24.
