data_PCOD9123462
_publ_section_title
;
Structure prediction by ZEFSAII (Michael W. Deem and Ramdas Pophale) SiO2 
 PCOD9123462
Probable space group: C 2
;
_chemical_formula_sum "Si O2"
_cell_formula_units_Z 26
_cell_length_a 10.805248
_cell_length_b 20.128592
_cell_length_c 7.942783
_cell_angle_alpha 90.000000
_cell_angle_beta 136.278636
_cell_angle_gamma 90.000000
_cell_volume 1193.972608
_symmetry_space_group_name_H-M "C 2"
_symmetry_group_IT_number 5
_symmetry_cell_setting 'monoclinic'
loop_
_space_group_symop_operation_xyz
x,y,z
-x,y,-z
1/2+x,1/2+y,z
1/2-x,1/2+y,-z
loop_
_atom_site_type_symbol
_atom_site_label
_atom_site_fract_x
_atom_site_fract_y
_atom_site_fract_z
Si Si1 0.259758 0.712650 0.121194
Si Si2 0.868712 0.979422 0.710917
Si Si3 0.941560 0.121422 0.749171
Si Si4 0.777252 0.854075 0.395916
Si Si5 0.878561 0.711457 0.630870
Si Si6 0.865028 0.356993 0.100345
Si Si7 0.500000 0.960488 0.500000
O O1 0.423444 0.665789 0.229010
O O2 0.198828 0.714542 0.254654
O O3 0.306240 0.788275 0.123863
O O4 0.085157 0.692038 0.843688
O O5 0.855866 0.913688 0.584597
O O6 0.663276 0.995991 0.565864
O O7 0.934423 0.045527 0.680608
O O8 0.000000 0.968009 0.000000
O O9 0.750345 0.157022 0.572994
O O10 0.000000 0.118321 0.000000
O O11 0.861131 0.782992 0.524419
O O12 0.568397 0.846872 0.239109
O O13 0.765345 0.870469 0.185747
O O14 0.888272 0.414560 0.259662
#
# Coordination Sequence:
#
# PCOD9123462 Si02
#       7
#     4   4   4   4   4   4   2
#     4  11  23  40  66  97 132 175 219 277 338 387
#     4  10  24  43  65  93 135 181 220 273 334 403
#     4  11  24  43  64  95 135 178 220 274 335 400
#     4  10  21  39  67 102 131 168 228 276 332 395
#     4  11  24  40  68  96 131 174 228 275 330 398
#     4  10  20  38  66 101 132 170 213 285 332 388
#     4  10  22  42  66  94 132 178 216 270 342 396
#
# _framework density 21.776042
#
# number of rings (size 3 to 8) (size 9 to 14) (size 15 to 20)
#    0.000    1.538    1.538    3.231    4.308    4.923 
#    0.000   12.308    0.000    0.000    0.000    0.000 
#    0.000    0.000    0.000    0.000    0.000    0.000 
#
# Total GULP energy -72665.665941 kJ/mol
# GULP energy per Si atom -5589.666611 kJ/mol
# Density = 2.172648 g / cm^3
# Si number density = 21.776042 Si / 1000 Ang^3
#
#
#
# Elastic Constant Matrix: (Units=GPa)
#
#
# Indices 1 2 3 4 5 6 
#
# 1 59.8308 -2.5692 11.6242 0.0000 15.8008 0.0000
# 2 -2.5692 74.5454 58.9604 0.0000 2.9020 0.0000
# 3 11.6242 58.9604 128.7425 0.0000 7.4392 0.0000
# 4 0.0000 0.0000 0.0000 -9.4592 0.0000 -18.8484
# 5 15.8008 2.9020 7.4392 0.0000 36.5319 0.0000
# 6 0.0000 0.0000 0.0000 -18.8484 0.0000 -31.5202
#
#
#
# Elastic Compliance Matrix: (Units=1/GPa)
#
#
# Indices 1 2 3 4 5 6 
#
# 1 0.019531 0.003156 -0.002738 0.000000 -0.008141 0.000000
# 2 0.003156 0.021547 -0.010094 0.000000 -0.001021 0.000000
# 3 -0.002738 -0.010094 0.012672 0.000000 -0.000594 0.000000
# 4 0.000000 0.000000 0.000000 0.551971 0.000000 -0.330066
# 5 -0.008141 -0.001021 -0.000594 0.000000 0.031097 0.000000
# 6 0.000000 0.000000 0.000000 -0.330066 0.000000 0.165647
#
#
# Mechanical properties :
#
#
# Convention : Reuss Voigt Hill
#
# Bulk Modulus (GPa) = 29.07209 44.34994 36.71102
# Shear Modulus (GPa) = 6.00037 12.11738 9.05888
#
# Velocity S-wave (km/s) = 1.66177 2.36149 2.04183
# Velocity P-wave (km/s) = 4.13055 5.27694 4.73854
#
# Compressibility (1/GPa) = 0.03439725
#
# Stress axis : x y z
#
# Youngs Moduli (GPa) = 51.19994 46.41105 78.91629
#
# Poissons Ratio (x) = -0.14647 0.21611
# Poissons Ratio (y) = -0.16159 0.79656
# Poissons Ratio (z) = 0.14021 0.46846
#
# Static dielectric constant tensor:
#      x y z
#    x 1.843910 0.000000 -0.031280 
#    y 0.000000 1.737020 0.000000 
#    z -0.031280 0.000000 1.886330 
# 
# From -- ./inp_files/22023.got.cif
#   From: 2010.05.17/outbox.cif.g08.bks.cpg/sg5_12_cif.got.tgz:22023.got - 2010.06.03 18:56:24.
