data_PCOD9123124
_publ_section_title
;
Structure prediction by ZEFSAII (Michael W. Deem and Ramdas Pophale) SiO2 
 PCOD9123124
Probable space group: C 2
;
_chemical_formula_sum "Si O2"
_cell_formula_units_Z 26
_cell_length_a 16.870543
_cell_length_b 8.730489
_cell_length_c 10.668406
_cell_angle_alpha 90.000000
_cell_angle_beta 123.035112
_cell_angle_gamma 90.000000
_cell_volume 1317.302802
_symmetry_space_group_name_H-M "C 2"
_symmetry_group_IT_number 5
_symmetry_cell_setting 'monoclinic'
loop_
_space_group_symop_operation_xyz
x,y,z
-x,y,-z
1/2+x,1/2+y,z
1/2-x,1/2+y,-z
loop_
_atom_site_type_symbol
_atom_site_label
_atom_site_fract_x
_atom_site_fract_y
_atom_site_fract_z
Si Si1 0.298177 0.512040 0.935564
Si Si2 0.844917 0.672394 0.559223
Si Si3 0.636673 0.253704 0.830474
Si Si4 0.990939 0.542237 0.844407
Si Si5 0.840452 0.999374 0.683773
Si Si6 0.480337 0.702193 0.132297
Si Si7 0.000000 0.749092 0.500000
O O1 0.203743 0.613773 0.844961
O O2 0.329101 0.460719 0.822131
O O3 0.300821 0.372619 0.036118
O O4 0.379777 0.623705 0.057686
O O5 0.838585 0.847685 0.598136
O O6 0.746750 0.608231 0.426472
O O7 0.884436 0.577289 0.710697
O O8 0.927584 0.657041 0.526363
O O9 0.558406 0.176180 0.852256
O O10 0.574801 0.325398 0.662343
O O11 0.017762 0.374753 0.815875
O O12 0.000000 0.540791 0.000000
O O13 0.937123 0.092730 0.746117
O O14 0.500000 0.713085 0.000000
#
# Coordination Sequence:
#
# PCOD9123124 Si02
#       7
#     4   4   4   4   4   4   2
#     4  11  22  40  63  94 125 169 213 266 316 389
#     4  11  22  39  65  88 132 170 212 264 326 374
#     4  11  22  39  65  88 132 170 212 264 326 374
#     4  10  20  37  62  93 120 167 216 264 312 390
#     4  11  22  40  63  94 125 169 213 266 316 389
#     4   9  19  35  59  86 122 153 205 259 311 367
#     4  10  22  42  60  90 128 174 200 262 326 376
#
# _framework density 19.737299
#
# number of rings (size 3 to 8) (size 9 to 14) (size 15 to 20)
#    0.000    1.538    1.538    4.615    0.000    1.231 
#    5.538    0.000    0.000    0.000    0.000    0.000 
#    0.000    0.000    0.000    0.000    0.000    0.000 
#
# Total GULP energy -72502.643080 kJ/mol
# GULP energy per Si atom -5577.126391 kJ/mol
# Density = 1.969238 g / cm^3
# Si number density = 19.737299 Si / 1000 Ang^3
#
#
#
# Elastic Constant Matrix: (Units=GPa)
#
#
# Indices 1 2 3 4 5 6 
#
# 1 45.6866 7.7693 26.5530 0.0000 6.9092 0.0000
# 2 7.7693 84.8243 35.6854 0.0000 -4.9331 0.0000
# 3 26.5530 35.6854 125.7434 0.0000 10.0959 0.0000
# 4 0.0000 0.0000 0.0000 26.4238 0.0000 0.0039
# 5 6.9092 -4.9331 10.0959 0.0000 30.6698 0.0000
# 6 0.0000 0.0000 0.0000 0.0039 0.0000 17.2005
#
#
#
# Elastic Compliance Matrix: (Units=1/GPa)
#
#
# Indices 1 2 3 4 5 6 
#
# 1 0.025455 -0.000519 -0.004890 0.000000 -0.004208 0.000000
# 2 -0.000519 0.013773 -0.004095 0.000000 0.003680 0.000000
# 3 -0.004890 -0.004095 0.010386 0.000000 -0.002976 0.000000
# 4 0.000000 0.000000 0.000000 0.037845 0.000000 -0.000009
# 5 -0.004208 0.003680 -0.002976 0.000000 0.035125 0.000000
# 6 0.000000 0.000000 0.000000 -0.000009 0.000000 0.058138
#
#
# Mechanical properties :
#
#
# Convention : Reuss Voigt Hill
#
# Bulk Modulus (GPa) = 32.67217 44.02997 38.35107
# Shear Modulus (GPa) = 23.81724 27.27526 25.54625
#
# Velocity S-wave (km/s) = 3.47754 3.72144 3.60156
# Velocity P-wave (km/s) = 5.71960 6.38921 6.06366
#
# Compressibility (1/GPa) = 0.03060709
#
# Stress axis : x y z
#
# Youngs Moduli (GPa) = 39.28483 72.60449 96.28035
#
# Poissons Ratio (x) = 0.03768 0.47083
# Poissons Ratio (y) = 0.02039 0.39424
# Poissons Ratio (z) = 0.19211 0.29729
#
# Static dielectric constant tensor:
#      x y z
#    x 1.687520 0.000000 -0.016370 
#    y 0.000000 1.700120 0.000000 
#    z -0.016370 0.000000 1.732510 
# 
# From -- ./inp_files/44119.got.cif
#   From: 2010.05.17/outbox.cif.g08.bks.cpg/sg5_23_cif.got.tgz:44119.got - 2010.06.03 18:56:24.
