data_PCOD9123351
_publ_section_title
;
Structure prediction by ZEFSAII (Michael W. Deem and Ramdas Pophale) SiO2 
 PCOD9123351
Probable space group: C 2
;
_chemical_formula_sum "Si O2"
_cell_formula_units_Z 30
_cell_length_a 14.296023
_cell_length_b 17.411984
_cell_length_c 11.225832
_cell_angle_alpha 90.000000
_cell_angle_beta 35.791449
_cell_angle_gamma 90.000000
_cell_volume 1634.242862
_symmetry_space_group_name_H-M "C 2"
_symmetry_group_IT_number 5
_symmetry_cell_setting 'monoclinic'
loop_
_space_group_symop_operation_xyz
x,y,z
-x,y,-z
1/2+x,1/2+y,z
1/2-x,1/2+y,-z
loop_
_atom_site_type_symbol
_atom_site_label
_atom_site_fract_x
_atom_site_fract_y
_atom_site_fract_z
Si Si1 0.500000 0.391590 0.000000
Si Si2 0.492199 0.492301 0.370246
Si Si3 0.253539 0.959851 0.909376
Si Si4 0.830288 0.627044 0.795491
Si Si5 0.989509 0.156510 0.275504
Si Si6 0.175076 0.855428 0.584881
Si Si7 0.986662 0.325553 0.654298
Si Si8 0.658804 0.195092 0.481520
O O1 0.633980 0.444187 0.922896
O O2 0.573177 0.345287 0.812750
O O3 0.500000 0.472037 0.500000
O O4 0.457096 0.582264 0.390061
O O5 0.371156 0.435984 0.426578
O O6 0.656522 0.478673 0.129151
O O7 0.343759 0.880632 0.839735
O O8 0.353432 0.034866 0.769803
O O9 0.828213 0.668005 0.668791
O O10 0.987180 0.660345 0.700385
O O11 0.652717 0.640375 0.032803
O O12 0.824773 0.168402 0.371798
O O13 0.026215 0.235544 0.305651
O O14 0.356598 0.853884 0.439581
O O15 0.147290 0.785753 0.521970
O O16 0.000000 0.336962 0.500000
#
# Coordination Sequence:
#
# PCOD9123351 Si02
#       8
#     2   4   4   4   4   4   4   4
#     4  10  20  38  62  90 120 154 212 256 298 370
#     4  10  23  42  63  83 126 165 202 247 313 375
#     4  10  23  37  65  94 115 163 207 256 313 358
#     4  10  23  37  63  87 125 160 204 256 309 367
#     4  10  23  40  60  89 122 164 204 256 307 369
#     4  10  23  37  61  93 118 165 203 254 310 365
#     4  11  22  38  62  91 123 153 209 260 310 359
#     4  10  23  37  59  93 120 159 203 253 312 363
#
# _framework density 18.357125
#
# number of rings (size 3 to 8) (size 9 to 14) (size 15 to 20)
#    0.000    1.867    1.333    0.800   14.933    0.000 
#    0.000    2.000    0.000    0.000    0.000    0.000 
#    0.000    0.000    0.000    0.000    0.000    0.000 
#
# Total GULP energy -83579.848365 kJ/mol
# GULP energy per Si atom -5571.989891 kJ/mol
# Density = 1.831534 g / cm^3
# Si number density = 18.357125 Si / 1000 Ang^3
#
#
#
# Elastic Constant Matrix: (Units=GPa)
#
#
# Indices 1 2 3 4 5 6 
#
# 1 74.6928 52.4136 33.8474 -0.0004 -3.1579 0.0003
# 2 52.4136 123.8017 36.8307 -0.0005 -6.8427 0.0005
# 3 33.8474 36.8307 57.6172 -0.0004 -3.5371 0.0004
# 4 -0.0004 -0.0005 -0.0004 30.5787 0.0007 -3.1741
# 5 -3.1579 -6.8427 -3.5371 0.0007 40.0079 -0.0008
# 6 0.0003 0.0005 0.0004 -3.1741 -0.0008 16.7179
#
#
#
# Elastic Compliance Matrix: (Units=1/GPa)
#
#
# Indices 1 2 3 4 5 6 
#
# 1 0.022047 -0.006776 -0.008631 0.000000 -0.000182 0.000000
# 2 -0.006776 0.012110 -0.003686 0.000000 0.001210 0.000000
# 3 -0.008631 -0.003686 0.024837 0.000000 0.000884 0.000000
# 4 0.000000 0.000000 0.000000 0.033360 0.000000 0.006334
# 5 -0.000182 0.001210 0.000884 0.000000 0.025266 0.000001
# 6 0.000000 0.000000 0.000000 0.006334 0.000001 0.061019
#
#
# Mechanical properties :
#
#
# Convention : Reuss Voigt Hill
#
# Bulk Modulus (GPa) = 48.06105 55.81055 51.93580
# Shear Modulus (GPa) = 22.34545 26.32890 24.33717
#
# Velocity S-wave (km/s) = 3.49271 3.79127 3.64505
# Velocity P-wave (km/s) = 6.51946 7.04512 6.78738
#
# Compressibility (1/GPa) = 0.02080687
#
# Stress axis : x y z
#
# Youngs Moduli (GPa) = 45.35836 82.57847 40.26307
#
# Poissons Ratio (x) = 0.55957 0.34751
# Poissons Ratio (y) = 0.30736 0.14841
# Poissons Ratio (z) = 0.39149 0.30438
#
# Static dielectric constant tensor:
#      x y z
#    x 1.606400 0.000000 -0.015660 
#    y 0.000000 1.638970 0.000000 
#    z -0.015660 0.000000 1.666140 
# 
# From -- ./inp_files/43299.got.cif
#   From: 2010.05.17/outbox.cif.g08.bks.cpg/sg5_22_cif.got.tgz:43299.got - 2010.06.03 18:56:24.
