data_PCOD9123683
_publ_section_title
;
Structure prediction by ZEFSAII (Michael W. Deem and Ramdas Pophale) SiO2 
 PCOD9123683
Probable space group: C 2
;
_chemical_formula_sum "Si O2"
_cell_formula_units_Z 32
_cell_length_a 8.000530
_cell_length_b 15.902700
_cell_length_c 9.773019
_cell_angle_alpha 90.000000
_cell_angle_beta 101.459729
_cell_angle_gamma 90.000000
_cell_volume 1218.633369
_symmetry_space_group_name_H-M "C 2"
_symmetry_group_IT_number 5
_symmetry_cell_setting 'monoclinic'
loop_
_space_group_symop_operation_xyz
x,y,z
-x,y,-z
1/2+x,1/2+y,z
1/2-x,1/2+y,-z
loop_
_atom_site_type_symbol
_atom_site_label
_atom_site_fract_x
_atom_site_fract_y
_atom_site_fract_z
Si Si1 0.973636 0.968180 0.702037
Si Si2 0.351813 0.774680 0.735488
Si Si3 0.812242 0.712030 0.018306
Si Si4 0.549390 0.086084 0.359057
Si Si5 0.910007 0.151410 0.350120
Si Si6 0.245395 0.038932 0.101885
Si Si7 0.237654 0.408387 0.423228
Si Si8 0.378987 0.863221 0.096461
O O1 0.831409 0.925921 0.584164
O O2 0.144543 0.917954 0.696438
O O3 0.906387 0.992353 0.840310
O O4 0.016209 0.058405 0.648015
O O5 0.221489 0.749153 0.833703
O O6 0.492938 0.702426 0.751490
O O7 0.272184 0.806275 0.581938
O O8 0.480798 0.857792 0.761763
O O9 0.714647 0.621086 0.004459
O O10 0.767112 0.794015 0.917375
O O11 0.000000 0.688454 0.000000
O O12 0.500000 0.121097 0.500000
O O13 0.706235 0.140420 0.321918
O O14 0.384859 0.073405 0.235387
O O15 0.621579 0.992289 0.398151
O O16 0.000000 0.186574 0.500000
O O17 0.327880 0.956416 0.046212
O O18 0.500000 0.823815 0.000000
#
# Coordination Sequence:
#
# PCOD9123683 Si02
#       8
#     4   4   4   4   4   4   4   4
#     4  10  20  39  68 101 139 181 229 279 350 451
#     4  11  24  44  68  98 140 190 231 305 369 416
#     4  11  27  47  67 100 140 181 258 310 356 425
#     4  11  21  37  70 106 139 179 234 284 355 461
#     4  11  21  40  63 103 146 181 226 285 354 446
#     4  12  22  43  75  98 137 189 234 302 377 413
#     4  10  20  40  66 103 145 175 227 284 355 447
#     4  10  25  47  63  94 134 175 242 311 352 418
#
# _framework density 26.258922999999999
#
# number of rings (size 3 to 8) (size 9 to 14) (size 15 to 20)
#    0.000    1.250    6.250    0.375    3.500    1.500 
#    0.000    4.375    0.000    0.000    0.000    0.000 
#    0.000    0.000    0.000    0.000    0.000    0.000 
#
# Total GULP energy -89107.066339 kJ/mol
# GULP energy per Si atom -5569.191646 kJ/mol
# Density = 2.619916 g / cm^3
# Si number density = 26.258923 Si / 1000 Ang^3
#
#
#
# Elastic Constant Matrix: (Units=GPa)
#
#
# Indices 1 2 3 4 5 6 
#
# 1 84.7112 24.4912 27.4717 0.0000 -37.5348 0.0000
# 2 24.4912 147.0927 16.7193 0.0000 -10.4489 0.0000
# 3 27.4717 16.7193 48.2746 0.0000 -17.2129 0.0000
# 4 0.0000 0.0000 0.0000 40.9034 0.0000 7.9235
# 5 -37.5348 -10.4489 -17.2129 0.0000 31.9991 0.0000
# 6 0.0000 0.0000 0.0000 7.9235 0.0000 49.9273
#
#
#
# Elastic Compliance Matrix: (Units=1/GPa)
#
#
# Indices 1 2 3 4 5 6 
#
# 1 0.025914 -0.001874 -0.004303 0.000000 0.027470 0.000000
# 2 -0.001874 0.007252 -0.001713 0.000000 -0.000752 0.000000
# 3 -0.004303 -0.001713 0.026921 0.000000 0.008875 0.000000
# 4 0.000000 0.000000 0.000000 0.025223 0.000000 -0.004003
# 5 0.027470 -0.000752 0.008875 0.000000 0.068002 0.000000
# 6 0.000000 0.000000 0.000000 -0.004003 0.000000 0.020664
#
#
# Mechanical properties :
#
#
# Convention : Reuss Voigt Hill
#
# Bulk Modulus (GPa) = 22.57005 46.38255 34.47630
# Shear Modulus (GPa) = 24.44678 38.65904 31.55291
#
# Velocity S-wave (km/s) = 3.05452 3.84112 3.47018
# Velocity P-wave (km/s) = 4.58846 6.11344 5.40500
#
# Compressibility (1/GPa) = 0.04430651
#
# Stress axis : x y z
#
# Youngs Moduli (GPa) = 38.58921 137.89679 37.14542
#
# Poissons Ratio (x) = 0.25845 0.15983
# Poissons Ratio (y) = 0.07233 0.06364
# Poissons Ratio (z) = 0.16604 0.23624
#
# Static dielectric constant tensor:
#      x y z
#    x 1.955940 0.000000 -0.133980 
#    y 0.000000 2.166950 0.000000 
#    z -0.133980 0.000000 2.044770 
# 
# From -- ./inp_files/36419.got.cif
#   From: 2010.05.17/outbox.cif.g08.bks.cpg/sg5_19_cif.got.tgz:36419.got - 2010.06.03 18:56:24.
