data_PCOD9123480
_publ_section_title
;
Structure prediction by ZEFSAII (Michael W. Deem and Ramdas Pophale) SiO2 
 PCOD9123480
Probable space group: C 2
;
_chemical_formula_sum "Si O2"
_cell_formula_units_Z 22
_cell_length_a 19.752709
_cell_length_b 8.580691
_cell_length_c 6.572470
_cell_angle_alpha 90.000000
_cell_angle_beta 115.059915
_cell_angle_gamma 90.000000
_cell_volume 1009.116229
_symmetry_space_group_name_H-M "C 2"
_symmetry_group_IT_number 5
_symmetry_cell_setting 'monoclinic'
loop_
_space_group_symop_operation_xyz
x,y,z
-x,y,-z
1/2+x,1/2+y,z
1/2-x,1/2+y,-z
loop_
_atom_site_type_symbol
_atom_site_label
_atom_site_fract_x
_atom_site_fract_y
_atom_site_fract_z
Si Si1 0.797092 0.653330 0.049504
Si Si2 0.768769 0.933063 0.709068
Si Si3 0.138726 0.432959 0.208446
Si Si4 0.587956 0.582517 0.066800
Si Si5 0.000000 0.640435 0.000000
Si Si6 0.930860 0.849968 0.268024
O O1 0.746463 0.575845 0.155546
O O2 0.860025 0.751973 0.249971
O O3 0.766815 0.775402 0.841816
O O4 0.831571 0.512517 0.960796
O O5 0.705589 0.933142 0.457121
O O6 0.853321 0.969142 0.739593
O O7 0.111445 0.258449 0.134270
O O8 0.065641 0.533438 0.178095
O O9 0.500000 0.566770 0.000000
O O10 0.594288 0.517490 0.845343
O O11 0.039349 0.748674 0.884581
O O12 0.000000 0.865983 0.500000
#
# Coordination Sequence:
#
# PCOD9123480 Si02
#       6
#     4   4   4   4   2   4
#     4  10  23  41  64  96 128 165 223 262 307 396
#     4  11  23  43  67  94 131 172 212 264 323 376
#     4  11  22  42  66  95 128 173 208 267 323 370
#     4  11  23  44  63  99 131 162 220 263 313 389
#     4  10  20  38  66  94 134 158 220 262 310 390
#     4  10  21  41  63  92 127 173 207 264 325 371
#
# _framework density 21.801255000000001
#
# number of rings (size 3 to 8) (size 9 to 14) (size 15 to 20)
#    0.000    1.455    1.818    3.273    0.000    0.000 
#   19.636    0.909    0.000    0.000    0.000    0.000 
#    0.000    0.000    0.000    0.000    0.000    0.000 
#
# Total GULP energy -61439.130749 kJ/mol
# GULP energy per Si atom -5585.375523 kJ/mol
# Density = 2.175163 g / cm^3
# Si number density = 21.801255 Si / 1000 Ang^3
#
#
#
# Elastic Constant Matrix: (Units=GPa)
#
#
# Indices 1 2 3 4 5 6 
#
# 1 108.8596 42.0638 38.6241 0.0000 35.1343 0.0000
# 2 42.0638 125.4209 48.7972 0.0000 20.2786 0.0000
# 3 38.6241 48.7972 99.6899 0.0000 58.1622 0.0000
# 4 0.0000 0.0000 0.0000 19.5495 0.0000 6.7854
# 5 35.1343 20.2786 58.1622 0.0000 44.4764 0.0000
# 6 0.0000 0.0000 0.0000 6.7854 0.0000 23.8836
#
#
#
# Elastic Compliance Matrix: (Units=1/GPa)
#
#
# Indices 1 2 3 4 5 6 
#
# 1 0.014830 -0.005134 0.009435 0.000000 -0.021713 0.000000
# 2 -0.005134 0.012285 -0.013173 0.000000 0.015680 0.000000
# 3 0.009435 -0.013173 0.057660 0.000000 -0.076851 0.000000
# 4 0.000000 0.000000 0.000000 0.056748 0.000000 -0.016122
# 5 -0.021713 0.015680 -0.076851 0.000000 0.132985 0.000000
# 6 0.000000 0.000000 0.000000 -0.016122 0.000000 0.046450
#
#
# Mechanical properties :
#
#
# Convention : Reuss Voigt Hill
#
# Bulk Modulus (GPa) = 14.91822 65.88228 40.40025
# Shear Modulus (GPa) = 13.84866 31.21423 22.53145
#
# Velocity S-wave (km/s) = 2.52310 3.78797 3.21829
# Velocity P-wave (km/s) = 3.91736 7.02970 5.69045
#
# Compressibility (1/GPa) = 0.06703213
#
# Stress axis : x y z
#
# Youngs Moduli (GPa) = 67.43072 81.40173 17.34290
#
# Poissons Ratio (x) = 0.41792 -0.16363
# Poissons Ratio (y) = 0.34619 0.22845
# Poissons Ratio (z) = -0.63621 1.07228
#
# Static dielectric constant tensor:
#      x y z
#    x 1.884830 0.000000 0.016640 
#    y 0.000000 1.786540 0.000000 
#    z 0.016640 0.000000 1.782780 
# 
# From -- ./inp_files/9229.got.cif
#   From: 2010.05.17/outbox.cif.g08.bks.cpg/sg5_5_cif.got.tgz:9229.got - 2010.06.03 18:56:24.
