data_PCOD9123386
_publ_section_title
;
Structure prediction by ZEFSAII (Michael W. Deem and Ramdas Pophale) SiO2 
 PCOD9123386
Probable space group: C 2
;
_chemical_formula_sum "Si O2"
_cell_formula_units_Z 28
_cell_length_a 23.976641
_cell_length_b 7.402951
_cell_length_c 20.315963
_cell_angle_alpha 90.000000
_cell_angle_beta 160.481976
_cell_angle_gamma 90.000000
_cell_volume 1204.790389
_symmetry_space_group_name_H-M "C 2"
_symmetry_group_IT_number 5
_symmetry_cell_setting 'monoclinic'
loop_
_space_group_symop_operation_xyz
x,y,z
-x,y,-z
1/2+x,1/2+y,z
1/2-x,1/2+y,-z
loop_
_atom_site_type_symbol
_atom_site_label
_atom_site_fract_x
_atom_site_fract_y
_atom_site_fract_z
Si Si1 0.000000 0.536340 0.500000
Si Si2 0.731429 0.817836 0.145200
Si Si3 0.000000 0.258818 0.000000
Si Si4 0.400926 0.963751 0.209663
Si Si5 0.874630 0.790626 0.676551
Si Si6 0.782721 0.646084 0.951428
Si Si7 0.776359 0.493964 0.367731
Si Si8 0.470435 0.672279 0.748629
O O1 0.127883 0.673901 0.679012
O O2 0.124844 0.430101 0.588909
O O3 0.620443 0.867327 0.085295
O O4 0.802498 0.992325 0.186839
O O5 0.597666 0.725971 0.947338
O O6 0.130787 0.130432 0.184740
O O7 0.293901 0.081495 0.040166
O O8 0.560067 0.072229 0.412775
O O9 0.478407 0.797380 0.254924
O O10 0.294955 0.844635 0.143185
O O11 0.807362 0.857259 0.673022
O O12 0.725586 0.722079 0.464795
O O13 0.021725 0.648151 0.850555
O O14 0.960497 0.957600 0.734417
#
# Coordination Sequence:
#
# PCOD9123386 Si02
#       8
#     2   4   2   4   4   4   4   4
#     4  10  24  42  66  90 128 178 220 256 322 390
#     4  10  22  42  65  92 124 174 220 264 313 387
#     4  10  20  42  68  90 122 176 220 260 318 382
#     4  10  23  40  61 100 128 170 206 268 332 382
#     4  11  21  40  65  99 129 166 210 273 324 381
#     4  11  24  39  66  97 134 164 213 272 329 382
#     4  10  22  39  65  92 121 172 216 262 310 386
#     4  10  20  38  63  95 131 161 215 262 326 380
#
# _framework density 23.240556999999999
#
# number of rings (size 3 to 8) (size 9 to 14) (size 15 to 20)
#    0.000    1.714    1.429    3.429    6.000    0.000 
#    2.571    8.571    0.000    0.000    0.000    0.000 
#    0.000    0.000    0.000    0.000    0.000    0.000 
#
# Total GULP energy -78063.040582 kJ/mol
# GULP energy per Si atom -5575.931470 kJ/mol
# Density = 2.318766 g / cm^3
# Si number density = 23.240557 Si / 1000 Ang^3
#
#
#
# Elastic Constant Matrix: (Units=GPa)
#
#
# Indices 1 2 3 4 5 6 
#
# 1 84.2946 1.4399 19.2419 0.0002 11.1107 0.0001
# 2 1.4399 58.1417 30.3240 0.0004 -7.1378 0.0003
# 3 19.2419 30.3240 127.0491 0.0006 -9.3951 0.0005
# 4 0.0002 0.0004 0.0006 22.3611 0.0003 10.2108
# 5 11.1107 -7.1378 -9.3951 0.0003 36.1129 0.0002
# 6 0.0001 0.0003 0.0005 10.2108 0.0002 37.6579
#
#
#
# Elastic Compliance Matrix: (Units=1/GPa)
#
#
# Indices 1 2 3 4 5 6 
#
# 1 0.013003 0.000368 -0.002394 0.000000 -0.004551 0.000000
# 2 0.000368 0.019920 -0.004616 0.000000 0.002623 0.000000
# 3 -0.002394 -0.004616 0.009505 0.000000 0.002297 0.000000
# 4 0.000000 0.000000 0.000000 0.051040 0.000000 -0.013839
# 5 -0.004551 0.002623 0.002297 0.000000 0.030207 0.000000
# 6 0.000000 0.000000 0.000000 -0.013839 0.000000 0.030307
#
#
# Mechanical properties :
#
#
# Convention : Reuss Voigt Hill
#
# Bulk Modulus (GPa) = 34.31251 41.27744 37.79497
# Shear Modulus (GPa) = 28.25161 33.79170 31.02165
#
# Velocity S-wave (km/s) = 3.49035 3.81727 3.65746
# Velocity P-wave (km/s) = 5.57131 6.10149 5.84242
#
# Compressibility (1/GPa) = 0.02914389
#
# Stress axis : x y z
#
# Youngs Moduli (GPa) = 76.90485 50.20117 105.20640
#
# Poissons Ratio (x) = -0.01846 0.25182
# Poissons Ratio (y) = -0.02828 0.48565
# Poissons Ratio (z) = 0.18408 0.23174
#
# Static dielectric constant tensor:
#      x y z
#    x 2.036420 0.000000 0.020020 
#    y 0.000000 1.817820 0.000000 
#    z 0.020020 0.000000 1.899000 
# 
# From -- ./inp_files/67398.got.cif
#   From: 2010.05.17/outbox.cif.g08.bks.cpg/sg5_34_cif.got.tgz:67398.got - 2010.06.03 18:56:24.
