data_PCOD9123111
_publ_section_title
;
Structure prediction by ZEFSAII (Michael W. Deem and Ramdas Pophale) SiO2 
 PCOD9123111
Probable space group: C 2
;
_chemical_formula_sum "Si O2"
_cell_formula_units_Z 28
_cell_length_a 13.816130
_cell_length_b 12.445167
_cell_length_c 8.725815
_cell_angle_alpha 90.000000
_cell_angle_beta 107.435067
_cell_angle_gamma 90.000000
_cell_volume 1431.421449
_symmetry_space_group_name_H-M "C 2"
_symmetry_group_IT_number 5
_symmetry_cell_setting 'monoclinic'
loop_
_space_group_symop_operation_xyz
x,y,z
-x,y,-z
1/2+x,1/2+y,z
1/2-x,1/2+y,-z
loop_
_atom_site_type_symbol
_atom_site_label
_atom_site_fract_x
_atom_site_fract_y
_atom_site_fract_z
Si Si1 0.111912 0.569600 0.622163
Si Si2 0.389605 0.113118 0.018542
Si Si3 0.380225 0.311358 0.482551
Si Si4 0.886570 0.049697 0.998923
Si Si5 0.232582 0.957042 0.802705
Si Si6 0.775421 0.267294 0.033176
Si Si7 0.233152 0.894239 0.290284
O O1 0.110475 0.564561 0.808494
O O2 0.145016 0.690321 0.587504
O O3 0.185935 0.476227 0.596624
O O4 0.000000 0.555104 0.500000
O O5 0.500000 0.112480 0.000000
O O6 0.342475 0.231061 0.019703
O O7 0.311675 0.054771 0.862892
O O8 0.500000 0.326199 0.500000
O O9 0.310518 0.400709 0.366936
O O10 0.345798 0.329937 0.641183
O O11 0.828289 0.974781 0.850383
O O12 0.835866 0.165772 0.998696
O O13 0.000000 0.060854 0.000000
O O14 0.867614 0.992803 0.151893
O O15 0.288684 0.864152 0.924133
O O16 0.794972 0.310365 0.212969
#
# Coordination Sequence:
#
# PCOD9123111 Si02
#       7
#     4   4   4   4   4   4   4
#     4  11  24  43  60  93 130 160 206 262 311 373
#     4  11  23  38  65  95 118 163 213 257 306 369
#     4  11  24  39  64  95 125 164 208 255 318 371
#     4  10  20  37  62  89 120 159 205 259 298 365
#     4  10  20  40  59  89 123 159 209 254 302 371
#     4  10  20  39  61  87 123 159 211 248 305 363
#     4  11  23  42  62  90 129 164 199 262 315 363
#
# _framework density 19.560974000000002
#
# number of rings (size 3 to 8) (size 9 to 14) (size 15 to 20)
#    0.000    1.429    5.714    0.857    6.000    4.000 
#    0.000    1.429    0.000    3.429    0.000    0.000 
#    0.000    0.000    0.000    0.000    0.000    0.000 
#
# Total GULP energy -78008.144526 kJ/mol
# GULP energy per Si atom -5572.010323 kJ/mol
# Density = 1.951645 g / cm^3
# Si number density = 19.560974 Si / 1000 Ang^3
#
#
#
# Elastic Constant Matrix: (Units=GPa)
#
#
# Indices 1 2 3 4 5 6 
#
# 1 103.2728 27.3964 13.3106 0.0000 0.2545 0.0000
# 2 27.3964 67.7926 6.5009 0.0000 -6.1438 0.0000
# 3 13.3106 6.5009 44.5946 0.0000 -0.6255 0.0000
# 4 0.0000 0.0000 0.0000 2.2544 0.0000 -13.5407
# 5 0.2545 -6.1438 -0.6255 0.0000 21.0288 0.0000
# 6 0.0000 0.0000 0.0000 -13.5407 0.0000 12.5883
#
#
#
# Elastic Compliance Matrix: (Units=1/GPa)
#
#
# Indices 1 2 3 4 5 6 
#
# 1 0.011206 -0.004404 -0.002724 0.000000 -0.001503 0.000000
# 2 -0.004404 0.017091 -0.001107 0.000000 0.005014 0.000000
# 3 -0.002724 -0.001107 0.023404 0.000000 0.000406 0.000000
# 4 0.000000 0.000000 0.000000 -0.081229 0.000000 -0.087375
# 5 -0.001503 0.005014 0.000406 0.000000 0.049049 0.000000
# 6 0.000000 0.000000 0.000000 -0.087375 0.000000 -0.014547
#
#
# Mechanical properties :
#
#
# Convention : Reuss Voigt Hill
#
# Bulk Modulus (GPa) = 28.38268 34.45286 31.41777
# Shear Modulus (GPa) = 150.65937 18.40442 84.53190
#
# Velocity S-wave (km/s) = 8.78565 3.07070 6.58091
# Velocity P-wave (km/s) = 10.83781 5.49759 8.59307
#
# Compressibility (1/GPa) = 0.03523276
#
# Stress axis : x y z
#
# Youngs Moduli (GPa) = 89.23727 58.51038 42.72717
#
# Poissons Ratio (x) = 0.25766 0.11639
# Poissons Ratio (y) = 0.39297 0.04729
# Poissons Ratio (z) = 0.24308 0.06476
#
# Static dielectric constant tensor:
#      x y z
#    x 1.680230 0.000000 -0.007570 
#    y 0.000000 1.692270 0.000000 
#    z -0.007570 0.000000 1.799820 
# 
# From -- ./inp_files/23665.got.cif
#   From: 2010.05.17/outbox.cif.g08.bks.cpg/sg5_12_cif.got.tgz:23665.got - 2010.06.03 18:56:24.
