data_PCOD9123956
_publ_section_title
;
Structure prediction by ZEFSAII (Michael W. Deem and Ramdas Pophale) SiO2 
 PCOD9123956
Probable space group: C 2
;
_chemical_formula_sum "Si O2"
_cell_formula_units_Z 30
_cell_length_a 8.488908
_cell_length_b 14.715155
_cell_length_c 13.661079
_cell_angle_alpha 90.000000
_cell_angle_beta 58.659835
_cell_angle_gamma 90.000000
_cell_volume 1457.496636
_symmetry_space_group_name_H-M "C 2"
_symmetry_group_IT_number 5
_symmetry_cell_setting 'monoclinic'
loop_
_space_group_symop_operation_xyz
x,y,z
-x,y,-z
1/2+x,1/2+y,z
1/2-x,1/2+y,-z
loop_
_atom_site_type_symbol
_atom_site_label
_atom_site_fract_x
_atom_site_fract_y
_atom_site_fract_z
Si Si1 0.949293 0.054160 0.371450
Si Si2 0.985758 0.377225 0.387477
Si Si3 0.093062 0.715674 0.215057
Si Si4 0.157316 0.292984 0.022056
Si Si5 0.813689 0.559933 0.364114
Si Si6 0.887985 0.230522 0.279765
Si Si7 0.885435 0.901647 0.240606
Si Si8 0.500000 0.407981 0.000000
O O1 0.806984 0.086402 0.501406
O O2 0.973124 0.140822 0.297176
O O3 0.149270 0.026011 0.346918
O O4 0.869504 0.971743 0.334338
O O5 0.936358 0.476521 0.362617
O O6 0.857196 0.304161 0.375505
O O7 0.000000 0.371893 0.500000
O O8 0.190278 0.355356 0.285277
O O9 0.202138 0.708768 0.281412
O O10 0.934374 0.639031 0.274433
O O11 0.016197 0.818325 0.228364
O O12 0.239204 0.714935 0.076814
O O13 0.323499 0.350703 0.017211
O O14 0.030995 0.263168 0.152139
O O15 0.000000 0.336812 0.000000
O O16 0.940071 0.952818 0.122032
#
# Coordination Sequence:
#
# PCOD9123956 Si02
#       8
#     4   4   4   4   4   4   4   2
#     4  11  25  42  64  92 133 164 219 267 315 390
#     4  12  24  41  66  93 126 167 215 262 324 383
#     4  10  23  42  69  93 128 170 211 262 330 381
#     4   9  20  40  65 100 129 166 220 269 319 397
#     4  11  25  43  62  94 129 170 213 267 320 385
#     4  11  23  42  66  96 127 168 213 267 323 382
#     4  11  22  43  66  96 124 170 212 263 323 385
#     4  10  20  40  72  90 136 166 218 268 334 376
#
# _framework density 20.583238000000001
#
# number of rings (size 3 to 8) (size 9 to 14) (size 15 to 20)
#    0.000    1.333    2.667    2.400    5.600    0.000 
#    6.000    0.000    0.000    0.000    0.000    0.000 
#    0.000    0.000    0.000    0.000    0.000    0.000 
#
# Total GULP energy -83566.152454 kJ/mol
# GULP energy per Si atom -5571.076830 kJ/mol
# Density = 2.053639 g / cm^3
# Si number density = 20.583238 Si / 1000 Ang^3
#
#
#
# Elastic Constant Matrix: (Units=GPa)
#
#
# Indices 1 2 3 4 5 6 
#
# 1 98.1155 2.3378 25.3652 0.0000 8.1567 0.0000
# 2 2.3378 42.7472 10.5277 0.0000 12.7649 0.0000
# 3 25.3652 10.5277 64.1348 0.0000 14.2703 0.0000
# 4 0.0000 0.0000 0.0000 -59.3377 0.0000 -41.7316
# 5 8.1567 12.7649 14.2703 0.0000 33.7646 0.0000
# 6 0.0000 0.0000 0.0000 -41.7316 0.0000 -4.2898
#
#
#
# Elastic Compliance Matrix: (Units=1/GPa)
#
#
# Indices 1 2 3 4 5 6 
#
# 1 0.011404 0.000816 -0.004374 0.000000 -0.001215 0.000000
# 2 0.000816 0.026748 -0.002671 0.000000 -0.009181 0.000000
# 3 -0.004374 -0.002671 0.019097 0.000000 -0.006005 0.000000
# 4 0.000000 0.000000 0.000000 0.002885 0.000000 -0.028065
# 5 -0.001215 -0.009181 -0.006005 0.000000 0.035919 0.000000
# 6 0.000000 0.000000 0.000000 -0.028065 0.000000 0.039905
#
#
# Mechanical properties :
#
#
# Convention : Reuss Voigt Hill
#
# Bulk Modulus (GPa) = 22.32547 31.27320 26.79934
# Shear Modulus (GPa) = 30.60998 5.14520 17.87759
#
# Velocity S-wave (km/s) = 3.86052 1.58276 2.95032
# Velocity P-wave (km/s) = 5.54450 4.30891 4.96529
#
# Compressibility (1/GPa) = 0.04479189
#
# Stress axis : x y z
#
# Youngs Moduli (GPa) = 87.68513 37.38609 52.36535
#
# Poissons Ratio (x) = -0.03052 0.22905
# Poissons Ratio (y) = -0.07158 0.13986
# Poissons Ratio (z) = 0.38354 0.09985
#
# Static dielectric constant tensor:
#      x y z
#    x 1.760340 0.000000 -0.011460 
#    y 0.000000 1.698480 0.000000 
#    z -0.011460 0.000000 1.769860 
# 
# From -- ./inp_files/50443.got.cif
#   From: 2010.05.17/outbox.cif.g08.bks.cpg/sg5_26_cif.got.tgz:50443.got - 2010.06.03 18:56:24.
