data_PCOD9123799
_publ_section_title
;
Structure prediction by ZEFSAII (Michael W. Deem and Ramdas Pophale) SiO2 
 PCOD9123799
Probable space group: C 2
;
_chemical_formula_sum "Si O2"
_cell_formula_units_Z 32
_cell_length_a 16.923022
_cell_length_b 14.669883
_cell_length_c 12.171927
_cell_angle_alpha 90.000000
_cell_angle_beta 32.219507
_cell_angle_gamma 90.000000
_cell_volume 1611.109297
_symmetry_space_group_name_H-M "C 2"
_symmetry_group_IT_number 5
_symmetry_cell_setting 'monoclinic'
loop_
_space_group_symop_operation_xyz
x,y,z
-x,y,-z
1/2+x,1/2+y,z
1/2-x,1/2+y,-z
loop_
_atom_site_type_symbol
_atom_site_label
_atom_site_fract_x
_atom_site_fract_y
_atom_site_fract_z
Si Si1 0.894932 0.813050 0.517485
Si Si2 0.135722 0.252568 0.962652
Si Si3 0.552758 0.544294 0.057382
Si Si4 0.386437 0.012994 0.733311
Si Si5 0.134157 0.708207 0.125553
Si Si6 0.512711 0.941021 0.163142
Si Si7 0.190185 0.004879 0.474124
Si Si8 0.848718 0.613616 0.118622
O O1 0.746015 0.762046 0.729151
O O2 0.859476 0.917725 0.537606
O O3 0.000000 0.804722 0.500000
O O4 0.986322 0.768964 0.309849
O O5 0.237108 0.253665 0.953680
O O6 0.063056 0.154186 0.043657
O O7 0.032289 0.340631 0.091634
O O8 0.434644 0.520773 0.289247
O O9 0.500000 0.512136 0.000000
O O10 0.716075 0.506828 0.895331
O O11 0.500000 0.004617 0.500000
O O12 0.402482 0.113679 0.768127
O O13 0.430634 0.945200 0.778892
O O14 0.182239 0.680221 0.946639
O O15 0.346017 0.977768 0.347442
O O16 0.611724 0.013948 0.979247
O O17 0.224158 0.091201 0.355311
O O18 0.000000 0.644661 0.000000
#
# Coordination Sequence:
#
# PCOD9123799 Si02
#       8
#     4   4   4   4   4   4   4   4
#     4  10  21  35  65  94 125 160 217 260 312 367
#     4  10  21  38  62  91 122 163 209 267 306 370
#     4  11  25  39  64  97 130 158 213 269 318 367
#     4  10  20  40  64  85 126 171 206 252 324 387
#     4   9  19  36  59  95 120 160 208 261 312 369
#     4  10  21  39  62  88 122 166 217 254 313 375
#     4  11  23  39  63  96 122 166 212 266 313 371
#     4   9  19  37  61  86 125 165 207 251 316 375
#
# _framework density 19.862089999999998
#
# number of rings (size 3 to 8) (size 9 to 14) (size 15 to 20)
#    0.000    2.000    1.250    2.625    5.250    3.000 
#    0.000    1.875    0.000    0.000    0.000    0.000 
#    0.000    0.000    0.000    0.000    0.000    0.000 
#
# Total GULP energy -89355.305161 kJ/mol
# GULP energy per Si atom -5584.706573 kJ/mol
# Density = 1.981688 g / cm^3
# Si number density = 19.862090 Si / 1000 Ang^3
#
#
#
# Elastic Constant Matrix: (Units=GPa)
#
#
# Indices 1 2 3 4 5 6 
#
# 1 90.8987 9.8063 50.2457 0.0000 8.1913 0.0000
# 2 9.8063 34.9941 21.2859 0.0000 -5.8248 0.0000
# 3 50.2457 21.2859 143.9811 0.0000 4.0330 0.0000
# 4 0.0000 0.0000 0.0000 28.3040 0.0000 -6.7659
# 5 8.1913 -5.8248 4.0330 0.0000 23.6578 0.0000
# 6 0.0000 0.0000 0.0000 -6.7659 0.0000 5.0685
#
#
#
# Elastic Compliance Matrix: (Units=1/GPa)
#
#
# Indices 1 2 3 4 5 6 
#
# 1 0.014121 -0.001984 -0.004506 0.000000 -0.004610 0.000000
# 2 -0.001984 0.033506 -0.004533 0.000000 0.009709 0.000000
# 3 -0.004506 -0.004533 0.009219 0.000000 -0.001128 0.000000
# 4 0.000000 0.000000 0.000000 0.051888 0.000000 0.069265
# 5 -0.004610 0.009709 -0.001128 0.000000 0.046448 0.000000
# 6 0.000000 0.000000 0.000000 0.069265 0.000000 0.289758
#
#
# Mechanical properties :
#
#
# Convention : Reuss Voigt Hill
#
# Bulk Modulus (GPa) = 28.73453 48.06109 38.39781
# Shear Modulus (GPa) = 10.44743 23.97511 17.21127
#
# Velocity S-wave (km/s) = 2.29595 3.47807 2.94690
# Velocity P-wave (km/s) = 4.63972 6.35447 5.56355
#
# Compressibility (1/GPa) = 0.03480133
#
# Stress axis : x y z
#
# Youngs Moduli (GPa) = 70.81558 29.84574 108.46671
#
# Poissons Ratio (x) = 0.05921 0.48870
# Poissons Ratio (y) = 0.14049 0.49169
# Poissons Ratio (z) = 0.31906 0.13529
#
# Static dielectric constant tensor:
#      x y z
#    x 1.730340 0.000000 -0.002470 
#    y 0.000000 1.674000 0.000000 
#    z -0.002470 0.000000 1.733910 
# 
# From -- ./inp_files/44954.got.cif
#   From: 2010.05.17/outbox.cif.g08.bks.cpg/sg5_23_cif.got.tgz:44954.got - 2010.06.03 18:56:24.
