data_PCOD9123447
_publ_section_title
;
Structure prediction by ZEFSAII (Michael W. Deem and Ramdas Pophale) SiO2 
 PCOD9123447
Probable space group: C 2
;
_chemical_formula_sum "Si O2"
_cell_formula_units_Z 22
_cell_length_a 10.744603
_cell_length_b 21.452774
_cell_length_c 5.002862
_cell_angle_alpha 90.000000
_cell_angle_beta 62.421835
_cell_angle_gamma 90.000000
_cell_volume 1022.144600
_symmetry_space_group_name_H-M "C 2"
_symmetry_group_IT_number 5
_symmetry_cell_setting 'monoclinic'
loop_
_space_group_symop_operation_xyz
x,y,z
-x,y,-z
1/2+x,1/2+y,z
1/2-x,1/2+y,-z
loop_
_atom_site_type_symbol
_atom_site_label
_atom_site_fract_x
_atom_site_fract_y
_atom_site_fract_z
Si Si1 0.267438 0.134100 0.677263
Si Si2 0.649204 0.059802 0.935190
Si Si3 0.902540 0.387547 0.360573
Si Si4 0.000000 0.061606 0.000000
Si Si5 0.641036 0.466635 0.444857
Si Si6 0.401875 0.744493 0.355559
O O1 0.301480 0.096094 0.377126
O O2 0.123379 0.108784 0.954137
O O3 0.230340 0.202732 0.605800
O O4 0.370223 0.110300 0.809244
O O5 0.765168 0.005480 0.864792
O O6 0.500000 0.030871 0.000000
O O7 0.759290 0.425325 0.466364
O O8 0.864204 0.315587 0.466971
O O9 0.000000 0.413390 0.500000
O O10 0.000000 0.387067 0.000000
O O11 0.067681 0.017577 0.709632
O O12 0.500000 0.429842 0.500000
O O13 0.500000 0.718772 0.500000
O O14 0.500000 0.748062 0.000000
#
# Coordination Sequence:
#
# PCOD9123447 Si02
#       6
#     4   4   4   2   4   4
#     4  11  21  37  63  89 124 155 217 256 315 369
#     4  11  24  39  59  90 127 170 199 259 326 381
#     4  10  24  42  66  94 126 173 215 263 320 374
#     4  10  22  34  60  94 120 164 202 272 312 368
#     4  11  23  40  63  92 131 165 220 258 321 377
#     4  10  20  38  65  94 124 164 217 264 310 376
#
# _framework density 21.523374
#
# number of rings (size 3 to 8) (size 9 to 14) (size 15 to 20)
#    0.000    1.455    2.727    2.182    2.545    2.909 
#    0.000    1.818    2.000    0.000    0.000    0.000 
#    0.000    0.000    0.000    0.000    0.000    0.000 
#
# Total GULP energy -61304.020578 kJ/mol
# GULP energy per Si atom -5573.092780 kJ/mol
# Density = 2.147439 g / cm^3
# Si number density = 21.523374 Si / 1000 Ang^3
#
#
#
# Elastic Constant Matrix: (Units=GPa)
#
#
# Indices 1 2 3 4 5 6 
#
# 1 160.9440 48.3016 32.3122 0.0000 -5.9221 0.0000
# 2 48.3016 78.6573 7.5049 0.0000 -6.1330 0.0000
# 3 32.3122 7.5049 81.8496 0.0000 9.0091 0.0000
# 4 0.0000 0.0000 0.0000 10.4098 0.0000 9.1192
# 5 -5.9221 -6.1330 9.0091 0.0000 44.2075 0.0000
# 6 0.0000 0.0000 0.0000 9.1192 0.0000 32.3497
#
#
#
# Elastic Compliance Matrix: (Units=1/GPa)
#
#
# Indices 1 2 3 4 5 6 
#
# 1 0.008256 -0.004707 -0.002943 0.000000 0.001053 0.000000
# 2 -0.004707 0.015696 0.000254 0.000000 0.001495 0.000000
# 3 -0.002943 0.000254 0.013703 0.000000 -0.003152 0.000000
# 4 0.000000 0.000000 0.000000 0.127565 0.000000 -0.035960
# 5 0.001053 0.001495 -0.003152 0.000000 0.023611 0.000000
# 6 0.000000 0.000000 0.000000 -0.035960 0.000000 0.041049
#
#
# Mechanical properties :
#
#
# Convention : Reuss Voigt Hill
#
# Bulk Modulus (GPa) = 43.73857 55.29870 49.51864
# Shear Modulus (GPa) = 19.81830 32.94889 26.38359
#
# Velocity S-wave (km/s) = 3.03773 3.91684 3.50496
# Velocity P-wave (km/s) = 5.71570 6.79733 6.27985
#
# Compressibility (1/GPa) = 0.02286311
#
# Stress axis : x y z
#
# Youngs Moduli (GPa) = 121.13084 63.71087 72.97625
#
# Poissons Ratio (x) = 0.29986 0.21480
# Poissons Ratio (y) = 0.57012 -0.01856
# Poissons Ratio (z) = 0.35654 -0.01620
#
# Static dielectric constant tensor:
#      x y z
#    x 1.970540 0.000000 0.037470 
#    y 0.000000 1.838290 0.000000 
#    z 0.037470 0.000000 1.787700 
# 
# From -- ./inp_files/3342.got.cif
#   From: 2010.05.17/outbox.cif.g08.bks.cpg/sg5_2_cif.got.tgz:3342.got - 2010.06.03 18:56:24.
