data_PCOD9123794
_publ_section_title
;
Structure prediction by ZEFSAII (Michael W. Deem and Ramdas Pophale) SiO2 
 PCOD9123794
Probable space group: C 2
;
_chemical_formula_sum "Si O2"
_cell_formula_units_Z 28
_cell_length_a 17.696000
_cell_length_b 5.157274
_cell_length_c 14.867575
_cell_angle_alpha 90.000000
_cell_angle_beta 99.253908
_cell_angle_gamma 90.000000
_cell_volume 1339.202285
_symmetry_space_group_name_H-M "C 2"
_symmetry_group_IT_number 5
_symmetry_cell_setting 'monoclinic'
loop_
_space_group_symop_operation_xyz
x,y,z
-x,y,-z
1/2+x,1/2+y,z
1/2-x,1/2+y,-z
loop_
_atom_site_type_symbol
_atom_site_label
_atom_site_fract_x
_atom_site_fract_y
_atom_site_fract_z
Si Si1 0.899234 0.868420 0.841005
Si Si2 0.486189 0.856742 0.818103
Si Si3 0.164464 0.961603 0.645399
Si Si4 0.000000 0.324631 0.500000
Si Si5 0.000000 0.125691 0.000000
Si Si6 0.378125 0.445580 0.564789
Si Si7 0.023421 0.670326 0.658057
Si Si8 0.241220 0.976048 0.298008
O O1 0.921449 0.572265 0.827206
O O2 0.812449 0.916126 0.797728
O O3 0.948540 0.076509 0.789264
O O4 0.931737 0.954299 0.944483
O O5 0.527298 0.798220 0.920811
O O6 0.531583 0.996650 0.747942
O O7 0.163662 0.897678 0.538344
O O8 0.077984 0.919890 0.664989
O O9 0.213073 0.740154 0.703531
O O10 0.202781 0.236639 0.670928
O O11 0.047605 0.502772 0.576487
O O12 0.059605 0.159498 0.453537
O O13 0.434231 0.228451 0.618616
O O14 0.315848 0.508983 0.627724
#
# Coordination Sequence:
#
# PCOD9123794 Si02
#       8
#     4   4   4   2   2   4   4   4
#     4  10  20  40  64 101 128 162 215 289 340 401
#     4  10  21  38  68 102 127 163 226 290 344 385
#     4  12  26  42  57  99 136 183 217 274 329 404
#     4  12  22  40  66  96 134 180 242 288 320 374
#     4   8  22  38  68 108 126 154 228 304 330 404
#     4  12  24  42  63  89 132 188 232 278 311 389
#     4  12  24  40  67  94 136 184 235 281 327 395
#     4  12  26  41  64  93 138 175 221 269 344 402
#
# _framework density 20.907969000000001
#
# number of rings (size 3 to 8) (size 9 to 14) (size 15 to 20)
#    0.857    0.000    4.286    3.857    2.000    0.000 
#    0.000    0.000    0.000    0.000    7.429    0.000 
#    0.000    0.000    0.000    0.000    0.000    0.000 
#
# Total GULP energy -78108.918601 kJ/mol
# GULP energy per Si atom -5579.208471 kJ/mol
# Density = 2.086038 g / cm^3
# Si number density = 20.907969 Si / 1000 Ang^3
#
#
#
# Elastic Constant Matrix: (Units=GPa)
#
#
# Indices 1 2 3 4 5 6 
#
# 1 70.2519 15.4527 17.0209 0.0000 17.4448 0.0000
# 2 15.4527 69.6477 1.8619 0.0000 3.9033 0.0000
# 3 17.0209 1.8619 106.1129 0.0000 21.2479 0.0000
# 4 0.0000 0.0000 0.0000 29.6725 0.0000 -1.1689
# 5 17.4448 3.9033 21.2479 0.0000 30.6374 0.0000
# 6 0.0000 0.0000 0.0000 -1.1689 0.0000 30.8068
#
#
#
# Elastic Compliance Matrix: (Units=1/GPa)
#
#
# Indices 1 2 3 4 5 6 
#
# 1 0.017390 -0.003339 -0.000968 0.000000 -0.008805 0.000000
# 2 -0.003339 0.015104 0.000320 0.000000 -0.000245 0.000000
# 3 -0.000968 0.000320 0.010999 0.000000 -0.007118 0.000000
# 4 0.000000 0.000000 0.000000 0.033752 0.000000 0.001281
# 5 -0.008805 -0.000245 -0.007118 0.000000 0.042621 0.000000
# 6 0.000000 0.000000 0.000000 0.001281 0.000000 0.032509
#
#
# Mechanical properties :
#
#
# Convention : Reuss Voigt Hill
#
# Bulk Modulus (GPa) = 28.15434 34.96483 31.55958
# Shear Modulus (GPa) = 29.03807 32.33515 30.68661
#
# Velocity S-wave (km/s) = 3.73077 3.93688 3.83521
# Velocity P-wave (km/s) = 5.66156 6.11759 5.89399
#
# Compressibility (1/GPa) = 0.03551850
#
# Stress axis : x y z
#
# Youngs Moduli (GPa) = 57.50474 66.20784 90.91930
#
# Poissons Ratio (x) = 0.22106 0.08798
# Poissons Ratio (y) = 0.19200 -0.02905
# Poissons Ratio (z) = 0.05565 -0.02116
#
# Static dielectric constant tensor:
#      x y z
#    x 1.756450 0.000000 0.003340 
#    y 0.000000 1.780270 0.000000 
#    z 0.003340 0.000000 1.783530 
# 
# From -- ./inp_files/55217.got.cif
#   From: 2010.05.17/outbox.cif.g08.bks.cpg/sg5_28_cif.got.tgz:55217.got - 2010.06.03 18:56:24.
