data_PCOD9123106
_publ_section_title
;
Structure prediction by ZEFSAII (Michael W. Deem and Ramdas Pophale) SiO2 
 PCOD9123106
Probable space group: C 2
;
_chemical_formula_sum "Si O2"
_cell_formula_units_Z 28
_cell_length_a 12.155830
_cell_length_b 12.641442
_cell_length_c 10.364410
_cell_angle_alpha 90.000000
_cell_angle_beta 62.091760
_cell_angle_gamma 90.000000
_cell_volume 1407.439875
_symmetry_space_group_name_H-M "C 2"
_symmetry_group_IT_number 5
_symmetry_cell_setting 'monoclinic'
loop_
_space_group_symop_operation_xyz
x,y,z
-x,y,-z
1/2+x,1/2+y,z
1/2-x,1/2+y,-z
loop_
_atom_site_type_symbol
_atom_site_label
_atom_site_fract_x
_atom_site_fract_y
_atom_site_fract_z
Si Si1 0.355533 0.172370 0.831396
Si Si2 0.589032 0.618004 0.079840
Si Si3 0.443145 0.693272 0.398286
Si Si4 0.686602 0.252156 0.426572
Si Si5 0.330489 0.461205 0.463845
Si Si6 0.008619 0.884927 0.149360
Si Si7 0.942661 0.553247 0.396614
O O1 0.306339 0.195916 0.714053
O O2 0.424309 0.279011 0.838904
O O3 0.449805 0.071891 0.768207
O O4 0.231141 0.147990 0.977394
O O5 0.534375 0.688004 0.226088
O O6 0.583094 0.494948 0.124834
O O7 0.500000 0.628177 0.000000
O O8 0.500000 0.734051 0.500000
O O9 0.319387 0.753200 0.422860
O O10 0.399734 0.571832 0.444276
O O11 0.640714 0.371611 0.447097
O O12 0.598525 0.175289 0.556175
O O13 0.381259 0.410205 0.300602
O O14 0.184645 0.490793 0.554582
O O15 0.000000 0.872512 0.000000
O O16 0.000000 0.514254 0.500000
#
# Coordination Sequence:
#
# PCOD9123106 Si02
#       7
#     4   4   4   4   4   4   4
#     4  11  21  41  64  88 121 166 209 248 312 377
#     4  10  21  42  62  87 127 165 201 251 313 376
#     4  10  22  37  61  92 121 160 203 256 305 360
#     4  10  20  37  62  88 120 156 203 250 308 370
#     4  10  21  38  60  90 122 151 208 257 310 363
#     4  10  23  38  61  87 119 167 205 257 316 373
#     4   9  20  35  61  90 114 158 199 252 300 369
#
# _framework density 19.894276999999999
#
# number of rings (size 3 to 8) (size 9 to 14) (size 15 to 20)
#    0.000    2.000    2.857    0.000   10.000    1.714 
#    2.571    0.000    0.000    0.000    0.000    0.000 
#    0.000    0.000    0.000    0.000    0.000    0.000 
#
# Total GULP energy -78036.406526 kJ/mol
# GULP energy per Si atom -5574.029038 kJ/mol
# Density = 1.984900 g / cm^3
# Si number density = 19.894277 Si / 1000 Ang^3
#
#
#
# Elastic Constant Matrix: (Units=GPa)
#
#
# Indices 1 2 3 4 5 6 
#
# 1 102.4164 14.6945 42.3269 0.0000 -20.4476 0.0000
# 2 14.6945 63.6281 6.0367 0.0000 -11.3877 0.0000
# 3 42.3269 6.0367 89.3060 0.0000 -21.3625 0.0000
# 4 0.0000 0.0000 0.0000 15.6631 0.0000 -2.8932
# 5 -20.4476 -11.3877 -21.3625 0.0000 34.4351 0.0000
# 6 0.0000 0.0000 0.0000 -2.8932 0.0000 -1.3054
#
#
#
# Elastic Compliance Matrix: (Units=1/GPa)
#
#
# Indices 1 2 3 4 5 6 
#
# 1 0.012893 -0.001795 -0.005049 0.000000 0.003930 0.000000
# 2 -0.001795 0.016959 0.000929 0.000000 0.005119 0.000000
# 3 -0.005049 0.000929 0.015129 0.000000 0.006695 0.000000
# 4 0.000000 0.000000 0.000000 0.045299 0.000000 -0.100399
# 5 0.003930 0.005119 0.006695 0.000000 0.037220 0.000000
# 6 0.000000 0.000000 0.000000 -0.100399 0.000000 -0.543533
#
#
# Mechanical properties :
#
#
# Convention : Reuss Voigt Hill
#
# Bulk Modulus (GPa) = 30.16603 42.38518 36.27561
# Shear Modulus (GPa) = -12.71771 22.57806 4.93017
#
# Velocity S-wave (km/s) = -2.53111 3.37249 1.57593
# Velocity P-wave (km/s) = 2.57955 6.04288 4.64599
#
# Compressibility (1/GPa) = 0.03314987
#
# Stress axis : x y z
#
# Youngs Moduli (GPa) = 77.56142 58.96617 66.09735
#
# Poissons Ratio (x) = 0.10586 0.33375
# Poissons Ratio (y) = 0.13924 -0.06140
# Poissons Ratio (z) = 0.39163 -0.05477
#
# Static dielectric constant tensor:
#      x y z
#    x 1.728850 0.000000 -0.021090 
#    y 0.000000 1.698830 0.000000 
#    z -0.021090 0.000000 1.742510 
# 
# From -- ./inp_files/20424.got.cif
#   From: 2010.05.17/outbox.cif.g08.bks.cpg/sg5_11_cif.got.tgz:20424.got - 2010.06.03 18:56:24.
