data_PCOD9123465
_publ_section_title
;
Structure prediction by ZEFSAII (Michael W. Deem and Ramdas Pophale) SiO2 
 PCOD9123465
Probable space group: C 2
;
_chemical_formula_sum "Si O2"
_cell_formula_units_Z 18
_cell_length_a 9.962395
_cell_length_b 14.108255
_cell_length_c 5.524827
_cell_angle_alpha 90.000000
_cell_angle_beta 82.638941
_cell_angle_gamma 90.000000
_cell_volume 770.125775
_symmetry_space_group_name_H-M "C 2"
_symmetry_group_IT_number 5
_symmetry_cell_setting 'monoclinic'
loop_
_space_group_symop_operation_xyz
x,y,z
-x,y,-z
1/2+x,1/2+y,z
1/2-x,1/2+y,-z
loop_
_atom_site_type_symbol
_atom_site_label
_atom_site_fract_x
_atom_site_fract_y
_atom_site_fract_z
Si Si1 0.585112 0.832140 0.727564
Si Si2 0.857719 0.893080 0.162770
Si Si3 0.339511 0.014401 0.058852
Si Si4 0.000000 0.770207 0.500000
Si Si5 0.285566 0.205833 0.892503
O O1 0.500000 0.834325 0.500000
O O2 0.667938 0.733697 0.731629
O O3 0.668134 0.931996 0.736074
O O4 0.500000 0.832350 0.000000
O O5 0.896250 0.844383 0.404506
O O6 0.801402 0.802032 0.035832
O O7 0.000000 0.922923 0.000000
O O8 0.741541 0.970251 0.152714
O O9 0.500000 0.029492 0.000000
O O10 0.273410 0.118385 0.077199
O O11 0.075839 0.703584 0.292615
#
# Coordination Sequence:
#
# PCOD9123465 Si02
#       5
#     4   4   4   2   4
#     4  10  24  46  69  99 142 182 221 284 346 403
#     4   9  20  40  61  89 129 178 221 280 336 408
#     4  10  21  41  63  99 134 169 233 276 343 392
#     4  10  20  38  66  88 136 176 230 270 348 400
#     4  10  22  41  66  97 131 180 226 281 337 411
#
# _framework density 23.372807999999999
#
# number of rings (size 3 to 8) (size 9 to 14) (size 15 to 20)
#    0.000    2.222    0.000    2.000    9.333    0.889 
#   20.000    0.000    0.000    0.000    0.000    0.000 
#    0.000    0.000    0.000    0.000    0.000    0.000 
#
# Total GULP energy -50113.385893 kJ/mol
# GULP energy per Si atom -5568.153988 kJ/mol
# Density = 2.331961 g / cm^3
# Si number density = 23.372808 Si / 1000 Ang^3
#
#
#
# Elastic Constant Matrix: (Units=GPa)
#
#
# Indices 1 2 3 4 5 6 
#
# 1 87.5847 48.0435 43.3811 0.0000 28.9266 0.0000
# 2 48.0435 95.6604 12.5635 0.0000 14.0261 0.0000
# 3 43.3811 12.5635 77.8392 0.0000 21.6953 0.0000
# 4 0.0000 0.0000 0.0000 21.7821 0.0000 10.4680
# 5 28.9266 14.0261 21.6953 0.0000 50.8202 0.0000
# 6 0.0000 0.0000 0.0000 10.4680 0.0000 28.6611
#
#
#
# Elastic Compliance Matrix: (Units=1/GPa)
#
#
# Indices 1 2 3 4 5 6 
#
# 1 0.023815 -0.009688 -0.009847 0.000000 -0.006677 0.000000
# 2 -0.009688 0.014911 0.002954 0.000000 0.000138 0.000000
# 3 -0.009847 0.002954 0.018755 0.000000 -0.003217 0.000000
# 4 0.000000 0.000000 0.000000 0.055683 0.000000 -0.020337
# 5 -0.006677 0.000138 -0.003217 0.000000 0.024813 0.000000
# 6 0.000000 0.000000 0.000000 -0.020337 0.000000 0.042318
#
#
# Mechanical properties :
#
#
# Convention : Reuss Voigt Hill
#
# Bulk Modulus (GPa) = 41.12192 52.11783 46.61987
# Shear Modulus (GPa) = 22.56688 30.72575 26.64632
#
# Velocity S-wave (km/s) = 3.11065 3.62967 3.38013
# Velocity P-wave (km/s) = 5.52572 6.31766 5.93492
#
# Compressibility (1/GPa) = 0.02431793
#
# Stress axis : x y z
#
# Youngs Moduli (GPa) = 41.99106 67.06434 53.31940
#
# Poissons Ratio (x) = 0.64972 0.52506
# Poissons Ratio (y) = 0.40681 -0.15751
# Poissons Ratio (z) = 0.41351 -0.19812
#
# Static dielectric constant tensor:
#      x y z
#    x 2.093170 0.000000 0.006820 
#    y 0.000000 1.894590 0.000000 
#    z 0.006820 0.000000 1.936890 
# 
# From -- ./inp_files/4457.got.cif
#   From: 2010.05.17/outbox.cif.g08.bks.cpg/sg5_3_cif.got.tgz:4457.got - 2010.06.03 18:56:24.
