data_PCOD9123844
_publ_section_title
;
Structure prediction by ZEFSAII (Michael W. Deem and Ramdas Pophale) SiO2 
 PCOD9123844
Probable space group: C 2
;
_chemical_formula_sum "Si O2"
_cell_formula_units_Z 28
_cell_length_a 20.048909
_cell_length_b 9.261474
_cell_length_c 11.004675
_cell_angle_alpha 90.000000
_cell_angle_beta 148.789117
_cell_angle_gamma 90.000000
_cell_volume 1058.855416
_symmetry_space_group_name_H-M "C 2"
_symmetry_group_IT_number 5
_symmetry_cell_setting 'monoclinic'
loop_
_space_group_symop_operation_xyz
x,y,z
-x,y,-z
1/2+x,1/2+y,z
1/2-x,1/2+y,-z
loop_
_atom_site_type_symbol
_atom_site_label
_atom_site_fract_x
_atom_site_fract_y
_atom_site_fract_z
Si Si1 0.943304 0.915180 0.668946
Si Si2 0.803206 0.784502 0.875353
Si Si3 0.347559 0.354090 0.280608
Si Si4 0.499107 0.734704 0.806689
Si Si5 0.292834 0.242518 0.598532
Si Si6 0.752602 0.115848 0.721988
Si Si7 0.382438 0.882023 0.237705
O O1 0.833275 0.906694 0.396831
O O2 0.879731 0.880386 0.699328
O O3 0.990374 0.076115 0.734353
O O4 0.062136 0.802224 0.843464
O O5 0.824225 0.694381 0.785047
O O6 0.680692 0.758477 0.771309
O O7 0.773157 0.947987 0.781292
O O8 0.500000 0.373569 0.500000
O O9 0.311299 0.186500 0.254971
O O10 0.254173 0.429811 0.038299
O O11 0.358116 0.775891 0.629167
O O12 0.546410 0.837866 0.774610
O O13 0.612627 0.702284 0.077251
O O14 0.314758 0.142155 0.513580
O O15 0.500000 0.947972 0.500000
#
# Coordination Sequence:
#
# PCOD9123844 Si02
#       7
#     4   4   4   4   4   4   4
#     4  10  22  40  68  92 123 174 217 269 320 387
#     4  11  21  40  64  93 130 168 219 263 328 390
#     4  10  20  40  65  94 128 166 218 264 317 387
#     4  10  21  40  64  92 127 168 219 264 324 393
#     4  11  20  36  63  89 125 163 219 259 309 375
#     4   9  22  38  63  91 124 175 210 265 324 382
#     4  11  22  40  64  95 134 167 209 270 330 385
#
# _framework density 26.443646999999999
#
# number of rings (size 3 to 8) (size 9 to 14) (size 15 to 20)
#    0.000    1.714    2.857    1.714    0.000    3.429 
#    2.571    0.000    9.429   10.286    0.000    0.000 
#    0.000    0.000    0.000    0.000    0.000    0.000 
#
# Total GULP energy -78015.039836 kJ/mol
# GULP energy per Si atom -5572.502845 kJ/mol
# Density = 2.638346 g / cm^3
# Si number density = 26.443647 Si / 1000 Ang^3
#
#
#
# Elastic Constant Matrix: (Units=GPa)
#
#
# Indices 1 2 3 4 5 6 
#
# 1 89.4854 -7.0781 30.5790 0.0000 3.1070 0.0000
# 2 -7.0781 27.2922 22.8622 0.0000 -3.4760 0.0000
# 3 30.5790 22.8622 185.6867 0.0000 -13.8638 0.0000
# 4 0.0000 0.0000 0.0000 10.5620 0.0000 -13.3162
# 5 3.1070 -3.4760 -13.8638 0.0000 74.2192 0.0000
# 6 0.0000 0.0000 0.0000 -13.3162 0.0000 -4.3471
#
#
#
# Elastic Compliance Matrix: (Units=1/GPa)
#
#
# Indices 1 2 3 4 5 6 
#
# 1 0.012601 0.005525 -0.002815 0.000000 -0.000795 0.000000
# 2 0.005525 0.043348 -0.006199 0.000000 0.000641 0.000000
# 3 -0.002815 -0.006199 0.006693 0.000000 0.001078 0.000000
# 4 0.000000 0.000000 0.000000 0.019473 0.000000 -0.059651
# 5 -0.000795 0.000641 0.001078 0.000000 0.013738 0.000000
# 6 0.000000 0.000000 0.000000 -0.059651 0.000000 -0.047313
#
#
# Mechanical properties :
#
#
# Convention : Reuss Voigt Hill
#
# Bulk Modulus (GPa) = 17.96495 43.91005 30.93750
# Shear Modulus (GPa) = 67.50130 33.16023 50.33076
#
# Velocity S-wave (km/s) = 5.05785 3.54502 4.36744
# Velocity P-wave (km/s) = 6.39669 5.77905 6.09570
#
# Compressibility (1/GPa) = 0.05566395
#
# Stress axis : x y z
#
# Youngs Moduli (GPa) = 79.35586 23.06919 149.41745
#
# Poissons Ratio (x) = -0.12745 0.42058
# Poissons Ratio (y) = -0.43843 0.92625
# Poissons Ratio (z) = 0.22337 0.14301
#
# Static dielectric constant tensor:
#      x y z
#    x 2.210230 0.000000 -0.030030 
#    y 0.000000 2.194610 0.000000 
#    z -0.030030 0.000000 2.176470 
# 
# From -- ./inp_files/46385.got.cif
#   From: 2010.05.17/outbox.cif.g08.bks.cpg/sg5_24_cif.got.tgz:46385.got - 2010.06.03 18:56:24.
