data_PCOD9123821
_publ_section_title
;
Structure prediction by ZEFSAII (Michael W. Deem and Ramdas Pophale) SiO2 
 PCOD9123821
Probable space group: C 2
;
_chemical_formula_sum "Si O2"
_cell_formula_units_Z 24
_cell_length_a 8.981474
_cell_length_b 17.956039
_cell_length_c 10.306327
_cell_angle_alpha 90.000000
_cell_angle_beta 139.076092
_cell_angle_gamma 90.000000
_cell_volume 1088.781181
_symmetry_space_group_name_H-M "C 2"
_symmetry_group_IT_number 5
_symmetry_cell_setting 'monoclinic'
loop_
_space_group_symop_operation_xyz
x,y,z
-x,y,-z
1/2+x,1/2+y,z
1/2-x,1/2+y,-z
loop_
_atom_site_type_symbol
_atom_site_label
_atom_site_fract_x
_atom_site_fract_y
_atom_site_fract_z
Si Si1 0.647564 0.044220 0.856362
Si Si2 0.290921 0.707211 0.966288
Si Si3 0.426335 0.282227 0.582346
Si Si4 0.228940 0.943057 0.580822
Si Si5 0.433968 0.671852 0.599999
Si Si6 0.652720 0.529157 0.291463
O O1 0.629792 0.133620 0.858187
O O2 0.698582 0.031825 0.738561
O O3 0.446557 0.989999 0.771389
O O4 0.886080 0.025274 0.081868
O O5 0.149615 0.778640 0.821254
O O6 0.500000 0.694974 0.000000
O O7 0.387633 0.705332 0.176403
O O8 0.500000 0.238453 0.500000
O O9 0.299492 0.353997 0.436333
O O10 0.239172 0.238285 0.536762
O O11 0.000000 0.970969 0.500000
O O12 0.213858 0.960014 0.419244
O O13 0.500000 0.646049 0.500000
O O14 0.324459 0.602471 0.604868
#
# Coordination Sequence:
#
# PCOD9123821 Si02
#       6
#     4   4   4   4   4   4
#     4  10  20  40  69  93 125 171 231 275 326 407
#     4  11  20  42  74  99 125 176 232 279 335 403
#     4  11  23  41  64  94 132 186 225 265 340 416
#     4  11  25  39  58  97 137 175 218 272 336 401
#     4  11  23  40  68 104 134 166 226 293 342 389
#     4  10  20  40  64  95 122 175 223 277 337 390
#
# _framework density 22.042997
#
# number of rings (size 3 to 8) (size 9 to 14) (size 15 to 20)
#    0.000    1.333    5.000    2.000    0.000    4.000 
#    0.000    5.000    0.000    0.000    0.000    0.000 
#    0.000    0.000    0.000    0.000    0.000    0.000 
#
# Total GULP energy -66877.209712 kJ/mol
# GULP energy per Si atom -5573.100809 kJ/mol
# Density = 2.199283 g / cm^3
# Si number density = 22.042997 Si / 1000 Ang^3
#
#
#
# Elastic Constant Matrix: (Units=GPa)
#
#
# Indices 1 2 3 4 5 6 
#
# 1 69.8593 26.0521 33.1165 0.0000 7.4009 0.0000
# 2 26.0521 55.4993 20.0266 0.0000 26.4736 0.0000
# 3 33.1165 20.0266 107.2198 0.0000 5.0970 0.0000
# 4 0.0000 0.0000 0.0000 18.8342 0.0000 3.8767
# 5 7.4009 26.4736 5.0970 0.0000 43.4023 0.0000
# 6 0.0000 0.0000 0.0000 3.8767 0.0000 20.5906
#
#
#
# Elastic Compliance Matrix: (Units=1/GPa)
#
#
# Indices 1 2 3 4 5 6 
#
# 1 0.019421 -0.008698 -0.004494 0.000000 0.002521 0.000000
# 2 -0.008698 0.031168 -0.002315 0.000000 -0.017256 0.000000
# 3 -0.004494 -0.002315 0.011105 0.000000 0.000874 0.000000
# 4 0.000000 0.000000 0.000000 0.055236 0.000000 -0.010400
# 5 0.002521 -0.017256 0.000874 0.000000 0.033033 0.000000
# 6 0.000000 0.000000 0.000000 -0.010400 0.000000 0.050524
#
#
# Mechanical properties :
#
#
# Convention : Reuss Voigt Hill
#
# Bulk Modulus (GPa) = 32.59279 43.44096 38.01687
# Shear Modulus (GPa) = 20.68453 26.79096 23.73775
#
# Velocity S-wave (km/s) = 3.06661 3.49003 3.28515
# Velocity P-wave (km/s) = 5.23038 5.99922 5.62794
#
# Compressibility (1/GPa) = 0.03068164
#
# Stress axis : x y z
#
# Youngs Moduli (GPa) = 51.49009 32.08468 90.04603
#
# Poissons Ratio (x) = 0.27906 0.40465
# Poissons Ratio (y) = 0.44784 0.20844
# Poissons Ratio (z) = 0.23139 0.07427
#
# Static dielectric constant tensor:
#      x y z
#    x 1.806770 0.000000 0.032550 
#    y 0.000000 1.859190 0.000000 
#    z 0.032550 0.000000 1.900230 
# 
# From -- ./inp_files/37248.got.cif
#   From: 2010.05.17/outbox.cif.g08.bks.cpg/sg5_19_cif.got.tgz:37248.got - 2010.06.03 18:56:24.
