data_PCOD9123079
_publ_section_title
;
Structure prediction by ZEFSAII (Michael W. Deem and Ramdas Pophale) SiO2 
 PCOD9123079
Probable space group: C 2
;
_chemical_formula_sum "Si O2"
_cell_formula_units_Z 28
_cell_length_a 16.763814
_cell_length_b 7.981694
_cell_length_c 22.750285
_cell_angle_alpha 90.000000
_cell_angle_beta 26.811491
_cell_angle_gamma 90.000000
_cell_volume 1373.048057
_symmetry_space_group_name_H-M "C 2"
_symmetry_group_IT_number 5
_symmetry_cell_setting 'monoclinic'
loop_
_space_group_symop_operation_xyz
x,y,z
-x,y,-z
1/2+x,1/2+y,z
1/2-x,1/2+y,-z
loop_
_atom_site_type_symbol
_atom_site_label
_atom_site_fract_x
_atom_site_fract_y
_atom_site_fract_z
Si Si1 0.051889 0.060130 0.791901
Si Si2 0.992771 0.872592 0.067752
Si Si3 0.657002 0.696451 0.179998
Si Si4 0.802354 0.858710 0.629287
Si Si5 0.371572 0.981544 0.375513
Si Si6 0.641431 0.664051 0.319143
Si Si7 0.263162 0.829421 0.568075
O O1 0.161193 0.221230 0.741315
O O2 0.922869 0.109139 0.824063
O O3 0.954870 0.981212 0.910998
O O4 0.187316 0.930717 0.672481
O O5 0.799712 0.798011 0.208468
O O6 0.000000 0.964009 0.000000
O O7 0.136261 0.726680 0.964937
O O8 0.554025 0.875951 0.253372
O O9 0.620724 0.601404 0.265109
O O10 0.748188 0.905519 0.598268
O O11 0.000000 0.787057 0.500000
O O12 0.808046 0.020897 0.667756
O O13 0.291800 0.946819 0.492329
O O14 0.368079 0.178479 0.364217
O O15 0.454046 0.748700 0.457215
#
# Coordination Sequence:
#
# PCOD9123079 Si02
#       7
#     4   4   4   4   4   4   4
#     4  11  25  38  63  92 125 161 209 259 311 367
#     4  10  23  44  62  84 121 165 212 255 303 361
#     4   9  22  44  61  88 122 170 213 249 299 374
#     4  11  22  36  59  95 131 154 199 253 316 373
#     4  10  20  37  61  89 129 161 202 251 310 372
#     4  10  21  40  65  87 126 165 200 255 316 364
#     4  11  21  39  62  97 124 164 204 254 323 371
#
# _framework density 20.392586000000001
#
# number of rings (size 3 to 8) (size 9 to 14) (size 15 to 20)
#    0.000    1.714    1.429    3.429    2.000    3.429 
#    2.571    3.571    0.000    0.000    0.000    0.000 
#    0.000    0.000    0.000    0.000    0.000    0.000 
#
# Total GULP energy -78183.648716 kJ/mol
# GULP energy per Si atom -5584.546337 kJ/mol
# Density = 2.034617 g / cm^3
# Si number density = 20.392586 Si / 1000 Ang^3
#
#
#
# Elastic Constant Matrix: (Units=GPa)
#
#
# Indices 1 2 3 4 5 6 
#
# 1 123.5370 28.4584 36.7344 0.0000 20.2250 0.0001
# 2 28.4584 47.6342 11.3689 -0.0011 15.8341 0.0003
# 3 36.7344 11.3689 67.1856 -0.0025 12.0524 0.0009
# 4 0.0000 -0.0011 -0.0025 12.1856 -0.0004 5.5609
# 5 20.2250 15.8341 12.0524 -0.0004 37.6335 0.0004
# 6 0.0001 0.0003 0.0009 5.5609 0.0004 37.6294
#
#
#
# Elastic Compliance Matrix: (Units=1/GPa)
#
#
# Indices 1 2 3 4 5 6 
#
# 1 0.010977 -0.004609 -0.004787 -0.000002 -0.002427 0.000000
# 2 -0.004609 0.026721 -0.000455 0.000002 -0.008620 0.000000
# 3 -0.004787 -0.000455 0.018124 0.000004 -0.003040 -0.000001
# 4 -0.000002 0.000002 0.000004 0.087999 0.000000 -0.013004
# 5 -0.002427 -0.008620 -0.003040 0.000000 0.032477 0.000000
# 6 0.000000 0.000000 -0.000001 -0.013004 0.000000 0.028497
#
#
# Mechanical properties :
#
#
# Convention : Reuss Voigt Hill
#
# Bulk Modulus (GPa) = 27.68538 43.49780 35.59159
# Shear Modulus (GPa) = 21.13847 28.27603 24.70725
#
# Velocity S-wave (km/s) = 3.22308 3.72773 3.48455
# Velocity P-wave (km/s) = 5.23991 6.31700 5.80350
#
# Compressibility (1/GPa) = 0.03612015
#
# Stress axis : x y z
#
# Youngs Moduli (GPa) = 91.09838 37.42393 55.17646
#
# Poissons Ratio (x) = 0.17248 0.26410
# Poissons Ratio (y) = 0.41986 0.02512
# Poissons Ratio (z) = 0.43605 0.01704
#
# Static dielectric constant tensor:
#      x y z
#    x 1.762060 0.000000 -0.005190 
#    y 0.000000 1.733500 0.000000 
#    z -0.005190 0.000000 1.704120 
# 
# From -- ./inp_files/41710.got.cif
#   From: 2010.05.17/outbox.cif.g08.bks.cpg/sg5_21_cif.got.tgz:41710.got - 2010.06.03 18:56:24.
