data_PCOD9123977
_publ_section_title
;
Structure prediction by ZEFSAII (Michael W. Deem and Ramdas Pophale) SiO2 
 PCOD9123977
Probable space group: C 2
;
_chemical_formula_sum "Si O2"
_cell_formula_units_Z 20
_cell_length_a 8.456519
_cell_length_b 13.159492
_cell_length_c 11.142802
_cell_angle_alpha 90.000000
_cell_angle_beta 45.637809
_cell_angle_gamma 90.000000
_cell_volume 886.525547
_symmetry_space_group_name_H-M "C 2"
_symmetry_group_IT_number 5
_symmetry_cell_setting 'monoclinic'
loop_
_space_group_symop_operation_xyz
x,y,z
-x,y,-z
1/2+x,1/2+y,z
1/2-x,1/2+y,-z
loop_
_atom_site_type_symbol
_atom_site_label
_atom_site_fract_x
_atom_site_fract_y
_atom_site_fract_z
Si Si1 0.415100 0.755860 0.857256
Si Si2 0.181269 0.827186 0.216366
Si Si3 0.221057 0.402524 0.434458
Si Si4 0.654541 0.962128 0.225211
Si Si5 0.733162 0.052457 0.926677
O O1 0.663712 0.789389 0.759060
O O2 0.314131 0.845539 0.831596
O O3 0.400683 0.643703 0.814623
O O4 0.268758 0.763264 0.056494
O O5 0.918418 0.831029 0.368720
O O6 0.234688 0.945353 0.158121
O O7 0.283403 0.470054 0.283480
O O8 0.000000 0.346622 0.500000
O O9 0.105027 0.470394 0.598769
O O10 0.718167 0.027931 0.077227
O O11 0.500000 0.092199 0.000000
#
# Coordination Sequence:
#
# PCOD9123977 Si02
#       5
#     4   4   4   4   4
#     4  10  21  35  64  95 125 168 215 271 323 379
#     4  10  20  41  58  97 131 163 222 264 323 389
#     4   8  20  37  65  84 130 181 204 264 335 378
#     4   8  19  41  58  95 124 169 218 258 324 386
#     4  11  21  37  65  97 132 169 217 274 328 379
#
# _framework density 22.559982000000002
#
# number of rings (size 3 to 8) (size 9 to 14) (size 15 to 20)
#    1.200    1.200    4.000    0.000    2.800    6.400 
#    0.000    2.000    0.000    0.000    0.000    0.000 
#    0.000    0.000    0.000    0.000    0.000    0.000 
#
# Total GULP energy -55679.108722 kJ/mol
# GULP energy per Si atom -5567.910872 kJ/mol
# Density = 2.250863 g / cm^3
# Si number density = 22.559982 Si / 1000 Ang^3
#
#
#
# Elastic Constant Matrix: (Units=GPa)
#
#
# Indices 1 2 3 4 5 6 
#
# 1 63.7493 47.9668 26.4677 -0.0003 -33.1871 0.0002
# 2 47.9668 118.1632 4.8429 0.0000 -0.5029 0.0001
# 3 26.4677 4.8429 65.0103 -0.0002 -3.0552 0.0002
# 4 -0.0003 0.0000 -0.0002 5.3210 0.0002 -12.0028
# 5 -33.1871 -0.5029 -3.0552 0.0002 45.7701 -0.0002
# 6 0.0002 0.0001 0.0002 -12.0028 -0.0002 10.6831
#
#
#
# Elastic Compliance Matrix: (Units=1/GPa)
#
#
# Indices 1 2 3 4 5 6 
#
# 1 0.078116 -0.030373 -0.026979 -0.000001 0.054506 -0.000001
# 2 -0.030373 0.020298 0.009860 0.000000 -0.021141 0.000000
# 3 -0.026979 0.009860 0.024795 0.000000 -0.017799 0.000000
# 4 -0.000001 0.000000 0.000000 -0.122480 0.000000 -0.137611
# 5 0.054506 -0.021141 -0.017799 0.000000 0.059950 0.000000
# 6 -0.000001 0.000000 0.000000 -0.137611 0.000000 -0.061005
#
#
# Mechanical properties :
#
#
# Convention : Reuss Voigt Hill
#
# Bulk Modulus (GPa) = 35.42864 45.05306 40.24085
# Shear Modulus (GPa) = 48.04609 23.53120 35.78864
#
# Velocity S-wave (km/s) = 4.61988 3.23313 3.98726
# Velocity P-wave (km/s) = 6.64801 5.82677 6.25089
#
# Compressibility (1/GPa) = 0.02822575
#
# Stress axis : x y z
#
# Youngs Moduli (GPa) = 12.80142 49.26568 40.33016
#
# Poissons Ratio (x) = 1.49632 1.08808
# Poissons Ratio (y) = 0.38881 -0.39765
# Poissons Ratio (z) = 0.34537 -0.48576
#
# Static dielectric constant tensor:
#      x y z
#    x 1.903100 0.000000 0.003060 
#    y 0.000000 1.782230 0.000000 
#    z 0.003060 0.000000 1.978150 
# 
# From -- ./inp_files/35762.got.cif
#   From: 2010.05.17/outbox.cif.g08.bks.cpg/sg5_18_cif.got.tgz:35762.got - 2010.06.03 18:56:24.
