data_PCOD9123900
_publ_section_title
;
Structure prediction by ZEFSAII (Michael W. Deem and Ramdas Pophale) SiO2 
 PCOD9123900
Probable space group: C 2
;
_chemical_formula_sum "Si O2"
_cell_formula_units_Z 30
_cell_length_a 19.986643
_cell_length_b 10.868949
_cell_length_c 8.266108
_cell_angle_alpha 90.000000
_cell_angle_beta 61.080835
_cell_angle_gamma 90.000000
_cell_volume 1571.762094
_symmetry_space_group_name_H-M "C 2"
_symmetry_group_IT_number 5
_symmetry_cell_setting 'monoclinic'
loop_
_space_group_symop_operation_xyz
x,y,z
-x,y,-z
1/2+x,1/2+y,z
1/2-x,1/2+y,-z
loop_
_atom_site_type_symbol
_atom_site_label
_atom_site_fract_x
_atom_site_fract_y
_atom_site_fract_z
Si Si1 0.772394 0.375000 0.182633
Si Si2 0.231901 0.129959 0.375579
Si Si3 0.141543 0.987083 0.758980
Si Si4 0.918925 0.521660 0.516166
Si Si5 0.781600 0.374870 0.798149
Si Si6 0.567605 0.869528 0.821181
Si Si7 0.644663 0.252939 0.556927
Si Si8 0.500000 0.636709 0.000000
O O1 0.748903 0.517331 0.236199
O O2 0.856909 0.353970 0.157938
O O3 0.711982 0.300174 0.360649
O O4 0.768001 0.342345 0.000215
O O5 0.200125 0.250493 0.323437
O O6 0.312105 0.170313 0.360681
O O7 0.179792 0.079053 0.582973
O O8 0.208382 0.936319 0.796495
O O9 0.111462 0.871208 0.688338
O O10 0.073910 0.052439 0.935996
O O11 0.850153 0.472852 0.707264
O O12 0.911793 0.442343 0.361572
O O13 0.910103 0.664112 0.478437
O O14 0.000000 0.497611 0.500000
O O15 0.500000 0.936960 0.000000
O O16 0.527726 0.736645 0.833721
#
# Coordination Sequence:
#
# PCOD9123900 Si02
#       8
#     4   4   4   4   4   4   4   2
#     4  11  22  40  64  96 121 158 213 260 308 369
#     4  10  20  40  68  85 123 160 205 253 309 375
#     4  10  20  42  64  90 119 169 204 247 315 372
#     4  12  23  42  61  92 127 164 207 256 312 371
#     4  11  24  37  67  96 120 160 213 257 310 368
#     4  10  22  39  64  89 123 163 205 256 314 360
#     4  10  21  40  64  85 123 165 202 247 315 374
#     4  10  22  38  66  84 124 156 204 256 296 370
#
# _framework density 19.086857999999999
#
# number of rings (size 3 to 8) (size 9 to 14) (size 15 to 20)
#    0.400    1.067    2.667    4.000    1.867    0.000 
#    3.600    0.000    0.000    0.000    0.000    0.000 
#    0.000    0.000    0.000    0.000    0.000    0.000 
#
# Total GULP energy -83674.055230 kJ/mol
# GULP energy per Si atom -5578.270349 kJ/mol
# Density = 1.904342 g / cm^3
# Si number density = 19.086858 Si / 1000 Ang^3
#
#
#
# Elastic Constant Matrix: (Units=GPa)
#
#
# Indices 1 2 3 4 5 6 
#
# 1 78.7959 35.9354 29.2582 0.0000 2.1855 0.0000
# 2 35.9354 99.1069 18.5185 0.0000 -2.9627 0.0000
# 3 29.2582 18.5185 54.9573 0.0000 3.9603 0.0000
# 4 0.0000 0.0000 0.0000 6.9521 0.0000 -2.9827
# 5 2.1855 -2.9627 3.9603 0.0000 30.8868 0.0000
# 6 0.0000 0.0000 0.0000 -2.9827 0.0000 23.1569
#
#
#
# Elastic Compliance Matrix: (Units=1/GPa)
#
#
# Indices 1 2 3 4 5 6 
#
# 1 0.017907 -0.005063 -0.007773 0.000000 -0.000756 0.000000
# 2 -0.005063 0.012270 -0.001564 0.000000 0.001736 0.000000
# 3 -0.007773 -0.001564 0.023045 0.000000 -0.002555 0.000000
# 4 0.000000 0.000000 0.000000 0.152255 0.000000 0.019611
# 5 -0.000756 0.001736 -0.002555 0.000000 0.032924 0.000000
# 6 0.000000 0.000000 0.000000 0.019611 0.000000 0.045710
#
#
# Mechanical properties :
#
#
# Convention : Reuss Voigt Hill
#
# Bulk Modulus (GPa) = 40.94626 44.47603 42.71114
# Shear Modulus (GPa) = 15.57378 22.14238 18.85808
#
# Velocity S-wave (km/s) = 2.85957 3.40970 3.14668
# Velocity P-wave (km/s) = 5.69228 6.23329 5.96892
#
# Compressibility (1/GPa) = 0.02442225
#
# Stress axis : x y z
#
# Youngs Moduli (GPa) = 55.84310 81.49857 43.39295
#
# Poissons Ratio (x) = 0.41265 0.33729
# Poissons Ratio (y) = 0.28275 0.06787
# Poissons Ratio (z) = 0.43406 0.12747
#
# Static dielectric constant tensor:
#      x y z
#    x 1.631390 0.000000 -0.015540 
#    y 0.000000 1.705220 0.000000 
#    z -0.015540 0.000000 1.670820 
# 
# From -- ./inp_files/27389.got.cif
#   From: 2010.05.17/outbox.cif.g08.bks.cpg/sg5_14_cif.got.tgz:27389.got - 2010.06.03 18:56:24.
