data_PCOD9123380
_publ_section_title
;
Structure prediction by ZEFSAII (Michael W. Deem and Ramdas Pophale) SiO2 
 PCOD9123380
Probable space group: C 2
;
_chemical_formula_sum "Si O2"
_cell_formula_units_Z 30
_cell_length_a 5.093102
_cell_length_b 18.863803
_cell_length_c 12.974338
_cell_angle_alpha 90.000000
_cell_angle_beta 94.448197
_cell_angle_gamma 90.000000
_cell_volume 1242.758395
_symmetry_space_group_name_H-M "C 2"
_symmetry_group_IT_number 5
_symmetry_cell_setting 'monoclinic'
loop_
_space_group_symop_operation_xyz
x,y,z
-x,y,-z
1/2+x,1/2+y,z
1/2-x,1/2+y,-z
loop_
_atom_site_type_symbol
_atom_site_label
_atom_site_fract_x
_atom_site_fract_y
_atom_site_fract_z
Si Si1 0.274308 0.334860 0.567793
Si Si2 0.373896 0.405774 0.089120
Si Si3 0.960666 0.655149 0.251084
Si Si4 0.500000 0.790317 0.000000
Si Si5 0.216717 0.791283 0.198577
Si Si6 0.352140 0.487990 0.651014
Si Si7 0.999245 0.137764 0.390321
Si Si8 0.112533 0.508133 0.215190
O O1 0.500000 0.301027 0.500000
O O2 0.211865 0.298367 0.677094
O O3 0.390670 0.412968 0.599109
O O4 0.000000 0.343390 0.500000
O O5 0.247980 0.338492 0.031242
O O6 0.584202 0.368192 0.170947
O O7 0.131948 0.447881 0.130950
O O8 0.500000 0.450426 0.000000
O O9 0.011699 0.726810 0.192762
O O10 0.202918 0.639626 0.338045
O O11 0.989893 0.584148 0.182643
O O12 0.693812 0.663588 0.306759
O O13 0.418983 0.766049 0.114617
O O14 0.371967 0.559616 0.585565
O O15 0.581137 0.506655 0.740847
O O16 0.067590 0.484873 0.695260
O O17 0.000000 0.176505 0.500000
#
# Coordination Sequence:
#
# PCOD9123380 Si02
#       8
#     4   4   4   2   4   4   4   4
#     4  12  26  39  64 103 138 178 221 283 344 401
#     4  10  22  41  71  99 127 173 232 284 355 404
#     4  10  24  39  65  94 132 179 219 277 347 404
#     4  10  24  44  76  96 122 188 226 286 344 410
#     4  11  25  45  68  98 141 181 232 284 343 428
#     4  10  20  38  63  91 131 176 225 271 337 395
#     4  10  21  39  63  91 130 180 230 271 330 414
#     4  10  20  40  66  95 130 173 216 287 337 406
#
# _framework density 24.139849999999999
#
# number of rings (size 3 to 8) (size 9 to 14) (size 15 to 20)
#    0.000    1.600    1.333    2.400    5.600    3.733 
#    1.200    0.000    4.400    0.000    0.000    0.000 
#    0.000    0.000    0.000    0.000    0.000    0.000 
#
# Total GULP energy -83602.149218 kJ/mol
# GULP energy per Si atom -5573.476615 kJ/mol
# Density = 2.408491 g / cm^3
# Si number density = 24.139850 Si / 1000 Ang^3
#
#
#
# Elastic Constant Matrix: (Units=GPa)
#
#
# Indices 1 2 3 4 5 6 
#
# 1 102.9252 -1.4132 37.1390 0.0000 -14.7999 0.0000
# 2 -1.4132 91.7817 26.1447 0.0000 -19.8364 0.0000
# 3 37.1390 26.1447 117.2537 0.0000 -32.1975 0.0000
# 4 0.0000 0.0000 0.0000 -6.0286 0.0000 -23.2803
# 5 -14.7999 -19.8364 -32.1975 0.0000 46.5178 0.0000
# 6 0.0000 0.0000 0.0000 -23.2803 0.0000 13.7446
#
#
#
# Elastic Compliance Matrix: (Units=1/GPa)
#
#
# Indices 1 2 3 4 5 6 
#
# 1 0.011229 0.001545 -0.003382 0.000000 0.001890 0.000000
# 2 0.001545 0.012452 -0.002065 0.000000 0.004372 0.000000
# 3 -0.003382 -0.002065 0.011758 0.000000 0.006181 0.000000
# 4 0.000000 0.000000 0.000000 -0.021997 0.000000 -0.037258
# 5 0.001890 0.004372 0.006181 0.000000 0.028241 0.000000
# 6 0.000000 0.000000 0.000000 -0.037258 0.000000 0.009648
#
#
# Mechanical properties :
#
#
# Convention : Reuss Voigt Hill
#
# Bulk Modulus (GPa) = 36.18707 48.41129 42.29918
# Shear Modulus (GPa) = 73.15445 27.51943 50.33694
#
# Velocity S-wave (km/s) = 5.51092 3.38005 4.57138
# Velocity P-wave (km/s) = 7.45096 5.94399 6.73973
#
# Compressibility (1/GPa) = 0.02763418
#
# Stress axis : x y z
#
# Youngs Moduli (GPa) = 89.05335 80.30547 85.05079
#
# Poissons Ratio (x) = -0.12406 0.28765
# Poissons Ratio (y) = -0.13758 0.17566
# Poissons Ratio (z) = 0.30119 0.16586
#
# Static dielectric constant tensor:
#      x y z
#    x 1.936800 0.000000 -0.076580 
#    y 0.000000 2.063070 0.000000 
#    z -0.076580 0.000000 2.326130 
# 
# From -- ./inp_files/33951.got.cif
#   From: 2010.05.17/outbox.cif.g08.bks.cpg/sg5_17_cif.got.tgz:33951.got - 2010.06.03 18:56:24.
