data_PCOD9123409
_publ_section_title
;
Structure prediction by ZEFSAII (Michael W. Deem and Ramdas Pophale) SiO2 
 PCOD9123409
Probable space group: C 2
;
_chemical_formula_sum "Si O2"
_cell_formula_units_Z 30
_cell_length_a 8.497211
_cell_length_b 17.716648
_cell_length_c 11.581025
_cell_angle_alpha 90.000000
_cell_angle_beta 56.990206
_cell_angle_gamma 90.000000
_cell_volume 1462.002588
_symmetry_space_group_name_H-M "C 2"
_symmetry_group_IT_number 5
_symmetry_cell_setting 'monoclinic'
loop_
_space_group_symop_operation_xyz
x,y,z
-x,y,-z
1/2+x,1/2+y,z
1/2-x,1/2+y,-z
loop_
_atom_site_type_symbol
_atom_site_label
_atom_site_fract_x
_atom_site_fract_y
_atom_site_fract_z
Si Si1 0.534263 0.639480 0.232858
Si Si2 0.944540 0.966588 0.285358
Si Si3 0.830445 0.704923 0.291783
Si Si4 0.299017 0.450697 0.016572
Si Si5 0.302140 0.852437 0.749416
Si Si6 0.186965 0.270392 0.591975
Si Si7 0.367030 0.110516 0.939814
Si Si8 0.000000 0.885730 0.500000
O O1 0.444533 0.556786 0.276227
O O2 0.665838 0.656722 0.293296
O O3 0.381122 0.704621 0.296466
O O4 0.670738 0.642217 0.067530
O O5 0.954538 0.937509 0.410187
O O6 0.770999 0.923409 0.294866
O O7 0.134742 0.942226 0.141295
O O8 0.839833 0.783252 0.216274
O O9 0.773099 0.730729 0.443098
O O10 0.021655 0.658731 0.199122
O O11 0.204632 0.379985 0.116169
O O12 0.174480 0.525041 0.081054
O O13 0.500000 0.463037 0.000000
O O14 0.497852 0.819104 0.364972
O O15 0.329469 0.328813 0.590099
O O16 0.500000 0.108954 0.000000
#
# Coordination Sequence:
#
# PCOD9123409 Si02
#       8
#     4   4   4   4   4   4   4   2
#     4   9  20  39  66  87 120 161 213 253 304 373
#     4  10  22  40  63  93 126 160 204 264 314 371
#     4  10  20  38  64  90 123 165 211 246 303 379
#     4   9  20  39  63  96 127 155 207 264 311 368
#     4  10  20  40  67  87 123 166 211 252 310 374
#     4  11  24  43  60  90 125 170 212 257 307 378
#     4   9  19  37  62  93 122 160 206 256 305 373
#     4  12  26  42  58  90 134 160 204 270 320 358
#
# _framework density 20.519798999999999
#
# number of rings (size 3 to 8) (size 9 to 14) (size 15 to 20)
#    0.000    2.133    1.333    1.600    1.867   11.200 
#    7.200    0.000    0.000    0.000    0.000    0.000 
#    0.000    0.000    0.000    0.000    0.000    0.000 
#
# Total GULP energy -83716.318945 kJ/mol
# GULP energy per Si atom -5581.087930 kJ/mol
# Density = 2.047309 g / cm^3
# Si number density = 20.519799 Si / 1000 Ang^3
#
#
#
# Elastic Constant Matrix: (Units=GPa)
#
#
# Indices 1 2 3 4 5 6 
#
# 1 25.8941 25.4372 7.9704 0.0000 -16.8857 0.0000
# 2 25.4372 112.1767 43.7824 0.0000 -27.7892 0.0000
# 3 7.9704 43.7824 64.2736 0.0000 -19.8947 0.0000
# 4 0.0000 0.0000 0.0000 30.2275 0.0000 -12.4267
# 5 -16.8857 -27.7892 -19.8947 0.0000 23.7961 0.0000
# 6 0.0000 0.0000 0.0000 -12.4267 0.0000 31.9181
#
#
#
# Elastic Compliance Matrix: (Units=1/GPa)
#
#
# Indices 1 2 3 4 5 6 
#
# 1 0.082438 -0.009737 0.014837 0.000000 0.059531 0.000000
# 2 -0.009737 0.015262 -0.007839 0.000000 0.004360 0.000000
# 3 0.014837 -0.007839 0.026286 0.000000 0.023350 0.000000
# 4 0.000000 0.000000 0.000000 0.039387 0.000000 0.015334
# 5 0.059531 0.004360 0.023350 0.000000 0.108880 0.000000
# 6 0.000000 0.000000 0.000000 0.015334 0.000000 0.037300
#
#
# Mechanical properties :
#
#
# Convention : Reuss Voigt Hill
#
# Bulk Modulus (GPa) = 8.43832 39.63604 24.03718
# Shear Modulus (GPa) = 14.10296 25.53196 19.81746
#
# Velocity S-wave (km/s) = 2.62446 3.53123 3.11106
# Velocity P-wave (km/s) = 3.64759 5.99867 4.96432
#
# Compressibility (1/GPa) = 0.11850705
#
# Stress axis : x y z
#
# Youngs Moduli (GPa) = 12.13032 65.52120 38.04266
#
# Poissons Ratio (x) = 0.63797 -0.56442
# Poissons Ratio (y) = 0.11811 0.29824
# Poissons Ratio (z) = -0.17997 0.51365
#
# Static dielectric constant tensor:
#      x y z
#    x 1.763850 0.000000 0.007720 
#    y 0.000000 1.711480 0.000000 
#    z 0.007720 0.000000 1.783930 
# 
# From -- ./inp_files/36982.got.cif
#   From: 2010.05.17/outbox.cif.g08.bks.cpg/sg5_19_cif.got.tgz:36982.got - 2010.06.03 18:56:24.
