data_PCOD9123108
_publ_section_title
;
Structure prediction by ZEFSAII (Michael W. Deem and Ramdas Pophale) SiO2 
 PCOD9123108
Probable space group: C 2
;
_chemical_formula_sum "Si O2"
_cell_formula_units_Z 28
_cell_length_a 19.585084
_cell_length_b 11.462834
_cell_length_c 6.785525
_cell_angle_alpha 90.000000
_cell_angle_beta 128.796077
_cell_angle_gamma 90.000000
_cell_volume 1187.273122
_symmetry_space_group_name_H-M "C 2"
_symmetry_group_IT_number 5
_symmetry_cell_setting 'monoclinic'
loop_
_space_group_symop_operation_xyz
x,y,z
-x,y,-z
1/2+x,1/2+y,z
1/2-x,1/2+y,-z
loop_
_atom_site_type_symbol
_atom_site_label
_atom_site_fract_x
_atom_site_fract_y
_atom_site_fract_z
Si Si1 0.569395 0.689600 0.794760
Si Si2 0.500000 0.241619 0.500000
Si Si3 0.669186 0.925658 0.094807
Si Si4 0.836216 0.819255 0.312636
Si Si5 0.169418 0.880089 0.170047
Si Si6 0.913061 0.649488 0.962524
Si Si7 0.500000 0.520978 0.000000
Si Si8 0.244464 0.567024 0.864016
O O1 0.500000 0.719799 0.500000
O O2 0.612194 0.809151 0.957500
O O3 0.511861 0.610988 0.839326
O O4 0.657040 0.613721 0.896233
O O5 0.439375 0.322768 0.526905
O O6 0.445225 0.166589 0.246719
O O7 0.619041 0.019380 0.132600
O O8 0.691267 0.997698 0.934712
O O9 0.768603 0.887566 0.327265
O O10 0.831236 0.861105 0.074246
O O11 0.806152 0.685647 0.274358
O O12 0.162647 0.744493 0.217974
O O13 0.084530 0.940132 0.113265
O O14 0.243081 0.980035 0.297543
O O15 0.000000 0.673930 0.000000
#
# Coordination Sequence:
#
# PCOD9123108 Si02
#       8
#     4   2   4   4   4   4   2   4
#     4  10  23  39  66  93 117 164 213 252 309 379
#     4  10  20  38  66  88 118 158 222 246 292 380
#     4  10  20  37  62  88 133 158 197 260 320 361
#     4   9  18  35  61  92 113 167 205 248 313 365
#     4   9  17  33  58  85 118 161 197 246 302 364
#     4  11  22  38  65  92 122 165 211 253 310 375
#     4  10  20  40  58  90 130 154 200 268 308 352
#     4   9  17  36  62  86 121 164 200 250 318 355
#
# _framework density 23.583452000000001
#
# number of rings (size 3 to 8) (size 9 to 14) (size 15 to 20)
#    0.000    2.286    3.571    0.000    2.000    0.000 
#   32.143    0.000   12.571    3.429    0.000    0.000 
#    0.000    0.000    0.000    0.000    0.000    0.000 
#
# Total GULP energy -77964.361108 kJ/mol
# GULP energy per Si atom -5568.882936 kJ/mol
# Density = 2.352977 g / cm^3
# Si number density = 23.583452 Si / 1000 Ang^3
#
#
#
# Elastic Constant Matrix: (Units=GPa)
#
#
# Indices 1 2 3 4 5 6 
#
# 1 86.8871 23.9697 15.9446 0.0000 3.3338 0.0000
# 2 23.9697 152.4142 16.1868 0.0000 0.4258 0.0000
# 3 15.9446 16.1868 71.2700 0.0000 2.3560 0.0000
# 4 0.0000 0.0000 0.0000 16.1934 0.0000 10.7675
# 5 3.3338 0.4258 2.3560 0.0000 14.2536 0.0000
# 6 0.0000 0.0000 0.0000 10.7675 0.0000 57.3975
#
#
#
# Elastic Compliance Matrix: (Units=1/GPa)
#
#
# Indices 1 2 3 4 5 6 
#
# 1 0.012504 -0.001712 -0.002326 0.000000 -0.002489 0.000000
# 2 -0.001712 0.006958 -0.001210 0.000000 0.000393 0.000000
# 3 -0.002326 -0.001210 0.014889 0.000000 -0.001881 0.000000
# 4 0.000000 0.000000 0.000000 0.070554 0.000000 -0.013236
# 5 -0.002489 0.000393 -0.001881 0.000000 0.071039 0.000000
# 6 0.000000 0.000000 0.000000 -0.013236 0.000000 0.019905
#
#
# Mechanical properties :
#
#
# Convention : Reuss Voigt Hill
#
# Bulk Modulus (GPa) = 41.92378 46.97485 44.44931
# Shear Modulus (GPa) = 23.33211 34.53360 28.93285
#
# Velocity S-wave (km/s) = 3.14879 3.83079 3.50641
# Velocity P-wave (km/s) = 5.57093 6.28716 5.93985
#
# Compressibility (1/GPa) = 0.02385281
#
# Stress axis : x y z
#
# Youngs Moduli (GPa) = 79.97452 143.72357 67.16562
#
# Poissons Ratio (x) = 0.24612 0.15624
# Poissons Ratio (y) = 0.13695 0.08128
# Poissons Ratio (z) = 0.18604 0.17392
#
# Static dielectric constant tensor:
#      x y z
#    x 1.955400 0.000000 -0.033690 
#    y 0.000000 1.979500 0.000000 
#    z -0.033690 0.000000 2.020160 
# 
# From -- ./inp_files/29510.got.cif
#   From: 2010.05.17/outbox.cif.g08.bks.cpg/sg5_15_cif.got.tgz:29510.got - 2010.06.03 18:56:24.
