data_PCOD9123625
_publ_section_title
;
Structure prediction by ZEFSAII (Michael W. Deem and Ramdas Pophale) SiO2 
 PCOD9123625
Probable space group: C 2
;
_chemical_formula_sum "Si O2"
_cell_formula_units_Z 32
_cell_length_a 21.504070
_cell_length_b 11.772004
_cell_length_c 10.574449
_cell_angle_alpha 90.000000
_cell_angle_beta 144.813464
_cell_angle_gamma 90.000000
_cell_volume 1542.525757
_symmetry_space_group_name_H-M "C 2"
_symmetry_group_IT_number 5
_symmetry_cell_setting 'monoclinic'
loop_
_space_group_symop_operation_xyz
x,y,z
-x,y,-z
1/2+x,1/2+y,z
1/2-x,1/2+y,-z
loop_
_atom_site_type_symbol
_atom_site_label
_atom_site_fract_x
_atom_site_fract_y
_atom_site_fract_z
Si Si1 0.124856 0.076150 0.191427
Si Si2 0.047605 0.932304 0.712357
Si Si3 0.183112 0.747811 0.839446
Si Si4 0.285329 0.633550 0.385909
Si Si5 0.759648 0.531776 0.184557
Si Si6 0.826909 0.888912 0.435801
Si Si7 0.876100 0.807903 0.785971
Si Si8 0.379046 0.800931 0.351474
O O1 0.176207 0.115433 0.407208
O O2 0.205389 0.103469 0.209362
O O3 0.125212 0.939232 0.175094
O O4 0.000000 0.112880 0.000000
O O5 0.086122 0.802296 0.758412
O O6 0.000000 0.973588 0.500000
O O7 0.950172 0.937385 0.647806
O O8 0.154525 0.995829 0.929924
O O9 0.171221 0.617259 0.785325
O O10 0.182377 0.817761 0.707082
O O11 0.294379 0.769090 0.099344
O O12 0.257773 0.503872 0.302691
O O13 0.188555 0.723075 0.232121
O O14 0.370939 0.697278 0.438293
O O15 0.830421 0.418941 0.329173
O O16 0.820509 0.817684 0.554314
O O17 0.000000 0.771081 0.000000
O O18 0.500000 0.814403 0.500000
#
# Coordination Sequence:
#
# PCOD9123625 Si02
#       8
#     4   4   4   4   4   4   4   4
#     4  10  21  38  66  94 120 168 214 262 305 374
#     4   9  20  37  60  97 119 161 209 256 310 376
#     4  10  24  38  64  89 126 166 210 261 307 375
#     4  11  23  40  66  94 128 160 214 265 314 375
#     4  11  21  42  62  92 128 162 212 264 312 379
#     4  10  22  40  65  92 123 165 214 258 311 375
#     4  10  20  39  64  93 125 162 210 256 315 372
#     4  11  27  40  61  93 130 172 205 260 327 375
#
# _framework density 20.745197000000001
#
# number of rings (size 3 to 8) (size 9 to 14) (size 15 to 20)
#    0.000    1.750    1.250    3.000   10.500    1.500 
#    0.000    2.500    0.000    0.000    0.000    0.000 
#    0.000    0.000    0.000    0.000    0.000    0.000 
#
# Total GULP energy -89215.444817 kJ/mol
# GULP energy per Si atom -5575.965301 kJ/mol
# Density = 2.069798 g / cm^3
# Si number density = 20.745197 Si / 1000 Ang^3
#
#
#
# Elastic Constant Matrix: (Units=GPa)
#
#
# Indices 1 2 3 4 5 6 
#
# 1 75.2613 22.6752 14.2503 0.0000 10.9945 0.0000
# 2 22.6752 85.5233 14.3285 0.0000 2.5237 0.0000
# 3 14.2503 14.3285 52.5080 0.0000 0.4408 0.0000
# 4 0.0000 0.0000 0.0000 13.4612 0.0000 -6.8553
# 5 10.9945 2.5237 0.4408 0.0000 32.1434 0.0000
# 6 0.0000 0.0000 0.0000 -6.8553 0.0000 38.6915
#
#
#
# Elastic Compliance Matrix: (Units=1/GPa)
#
#
# Indices 1 2 3 4 5 6 
#
# 1 0.015687 -0.003462 -0.003270 0.000000 -0.005049 0.000000
# 2 -0.003462 0.013044 -0.002622 0.000000 0.000196 0.000000
# 3 -0.003270 -0.002622 0.020639 0.000000 0.001041 0.000000
# 4 0.000000 0.000000 0.000000 0.081655 0.000000 0.014467
# 5 -0.005049 0.000196 0.001041 0.000000 0.032808 0.000000
# 6 0.000000 0.000000 0.000000 0.014467 0.000000 0.028409
#
#
# Mechanical properties :
#
#
# Convention : Reuss Voigt Hill
#
# Bulk Modulus (GPa) = 32.61366 35.08895 33.85130
# Shear Modulus (GPa) = 22.60700 27.66179 25.13440
#
# Velocity S-wave (km/s) = 3.30471 3.65555 3.48455
# Velocity P-wave (km/s) = 5.50606 5.89647 5.70460
#
# Compressibility (1/GPa) = 0.03066200
#
# Stress axis : x y z
#
# Youngs Moduli (GPa) = 63.74729 76.66292 48.45235
#
# Poissons Ratio (x) = 0.26543 0.15845
# Poissons Ratio (y) = 0.22071 0.12702
# Poissons Ratio (z) = 0.20846 0.20097
#
# Static dielectric constant tensor:
#      x y z
#    x 1.833630 0.000000 -0.019760 
#    y 0.000000 1.781610 0.000000 
#    z -0.019760 0.000000 1.730040 
# 
# From -- ./inp_files/47500.got.cif
#   From: 2010.05.17/outbox.cif.g08.bks.cpg/sg5_24_cif.got.tgz:47500.got - 2010.06.03 18:56:24.
