data_PCOD9123863
_publ_section_title
;
Structure prediction by ZEFSAII (Michael W. Deem and Ramdas Pophale) SiO2 
 PCOD9123863
Probable space group: C 2
;
_chemical_formula_sum "Si O2"
_cell_formula_units_Z 30
_cell_length_a 11.164114
_cell_length_b 8.929829
_cell_length_c 12.522325
_cell_angle_alpha 90.000000
_cell_angle_beta 74.513725
_cell_angle_gamma 90.000000
_cell_volume 1203.072307
_symmetry_space_group_name_H-M "C 2"
_symmetry_group_IT_number 5
_symmetry_cell_setting 'monoclinic'
loop_
_space_group_symop_operation_xyz
x,y,z
-x,y,-z
1/2+x,1/2+y,z
1/2-x,1/2+y,-z
loop_
_atom_site_type_symbol
_atom_site_label
_atom_site_fract_x
_atom_site_fract_y
_atom_site_fract_z
Si Si1 0.241653 0.252770 0.409504
Si Si2 0.966781 0.566445 0.808581
Si Si3 0.117842 0.006505 0.738426
Si Si4 0.708490 0.287928 0.270666
Si Si5 0.000000 0.743181 0.000000
Si Si6 0.668479 0.587113 0.206072
Si Si7 0.841559 0.444637 0.404377
Si Si8 0.762072 0.866166 0.079732
O O1 0.330306 0.393808 0.363123
O O2 0.197902 0.182331 0.306962
O O3 0.135707 0.326871 0.507442
O O4 0.312109 0.113685 0.447460
O O5 0.907544 0.694093 0.745765
O O6 0.853379 0.478892 0.892699
O O7 0.040048 0.641360 0.889302
O O8 0.050375 0.464059 0.710398
O O9 0.160190 0.923037 0.835688
O O10 0.187358 0.164208 0.733080
O O11 0.974481 0.040215 0.758796
O O12 0.739167 0.427554 0.185544
O O13 0.714622 0.379715 0.379988
O O14 0.115757 0.836435 0.019877
O O15 0.699585 0.702658 0.105251
#
# Coordination Sequence:
#
# PCOD9123863 Si02
#       8
#     4   4   4   4   2   4   4   4
#     4  10  22  39  64  97 134 181 227 266 322 388
#     4  11  25  45  70  97 132 177 221 278 342 399
#     4  10  20  41  65  94 132 169 217 274 326 392
#     4  10  21  39  64  91 125 167 213 266 330 390
#     4  12  24  44  70  98 132 168 224 290 340 396
#     4  10  20  40  66  93 128 173 219 270 329 391
#     4  11  22  43  66  97 141 180 223 276 324 391
#     4  10  24  41  65  98 129 170 220 274 340 402
#
# _framework density 24.936157000000001
#
# number of rings (size 3 to 8) (size 9 to 14) (size 15 to 20)
#    0.000    1.600    0.000    5.600    0.000    3.200 
#    0.000   34.000    0.000    4.000    0.000    0.000 
#    0.000    0.000    0.000    0.000    0.000    0.000 
#
# Total GULP energy -83697.532305 kJ/mol
# GULP energy per Si atom -5579.835487 kJ/mol
# Density = 2.487940 g / cm^3
# Si number density = 24.936157 Si / 1000 Ang^3
#
#
#
# Elastic Constant Matrix: (Units=GPa)
#
#
# Indices 1 2 3 4 5 6 
#
# 1 102.1004 54.4743 20.0586 0.0000 -16.5224 0.0000
# 2 54.4743 173.6298 35.7849 0.0000 -7.3421 0.0000
# 3 20.0586 35.7849 79.6831 0.0000 -16.3649 0.0000
# 4 0.0000 0.0000 0.0000 34.5252 0.0000 -12.4134
# 5 -16.5224 -7.3421 -16.3649 0.0000 11.9090 0.0000
# 6 0.0000 0.0000 0.0000 -12.4134 0.0000 43.7943
#
#
#
# Elastic Compliance Matrix: (Units=1/GPa)
#
#
# Indices 1 2 3 4 5 6 
#
# 1 0.015168 -0.004378 0.002668 0.000000 0.022011 0.000000
# 2 -0.004378 0.007610 -0.003622 0.000000 -0.006359 0.000000
# 3 0.002668 -0.003622 0.019235 0.000000 0.027901 0.000000
# 4 0.000000 0.000000 0.000000 0.032251 0.000000 0.009142
# 5 0.022011 -0.006359 0.027901 0.000000 0.148928 0.000000
# 6 0.000000 0.000000 0.000000 0.009142 0.000000 0.025425
#
#
# Mechanical properties :
#
#
# Convention : Reuss Voigt Hill
#
# Bulk Modulus (GPa) = 31.89721 64.00541 47.95131
# Shear Modulus (GPa) = 18.53710 34.38541 26.46125
#
# Velocity S-wave (km/s) = 2.72946 3.71743 3.26108
# Velocity P-wave (km/s) = 4.76997 6.64449 5.78367
#
# Compressibility (1/GPa) = 0.03135070
#
# Stress axis : x y z
#
# Youngs Moduli (GPa) = 65.92915 131.39859 51.98981
#
# Poissons Ratio (x) = 0.57525 -0.13873
# Poissons Ratio (y) = 0.28863 0.18829
# Poissons Ratio (z) = -0.17593 0.47587
#
# Static dielectric constant tensor:
#      x y z
#    x 1.980630 0.000000 0.012940 
#    y 0.000000 2.070010 0.000000 
#    z 0.012940 0.000000 2.151920 
# 
# From -- ./inp_files/52417.got.cif
#   From: 2010.05.17/outbox.cif.g08.bks.cpg/sg5_27_cif.got.tgz:52417.got - 2010.06.03 18:56:24.
