data_PCOD9123612
_publ_section_title
;
Structure prediction by ZEFSAII (Michael W. Deem and Ramdas Pophale) SiO2 
 PCOD9123612
Probable space group: C 2
;
_chemical_formula_sum "Si O2"
_cell_formula_units_Z 32
_cell_length_a 11.928434
_cell_length_b 15.804906
_cell_length_c 8.660289
_cell_angle_alpha 90.000000
_cell_angle_beta 101.003042
_cell_angle_gamma 90.000000
_cell_volume 1602.691110
_symmetry_space_group_name_H-M "C 2"
_symmetry_group_IT_number 5
_symmetry_cell_setting 'monoclinic'
loop_
_space_group_symop_operation_xyz
x,y,z
-x,y,-z
1/2+x,1/2+y,z
1/2-x,1/2+y,-z
loop_
_atom_site_type_symbol
_atom_site_label
_atom_site_fract_x
_atom_site_fract_y
_atom_site_fract_z
Si Si1 0.149449 0.952530 0.864522
Si Si2 0.579168 0.668712 0.153781
Si Si3 0.561898 0.379120 0.350744
Si Si4 0.726733 0.772437 0.580320
Si Si5 0.284635 0.506558 0.776171
Si Si6 0.850190 0.342267 0.776747
Si Si7 0.065619 0.412160 0.677337
Si Si8 0.090350 0.116464 0.647467
O O1 0.257902 0.903243 0.825893
O O2 0.037934 0.896302 0.798467
O O3 0.134096 0.040212 0.765190
O O4 0.168279 0.970666 0.049161
O O5 0.677699 0.603354 0.221443
O O6 0.626432 0.758927 0.116348
O O7 0.492628 0.676944 0.273443
O O8 0.500000 0.630408 0.000000
O O9 0.500000 0.380046 0.500000
O O10 0.641168 0.296047 0.356215
O O11 0.652797 0.455127 0.344943
O O12 0.695774 0.803994 0.398837
O O13 0.649391 0.832315 0.669848
O O14 0.687259 0.676379 0.600354
O O15 0.150622 0.488462 0.736986
O O16 0.968725 0.389812 0.774695
O O17 0.000000 0.428080 0.500000
O O18 0.000000 0.081160 0.500000
#
# Coordination Sequence:
#
# PCOD9123612 Si02
#       8
#     4   4   4   4   4   4   4   4
#     4  12  25  40  64 102 134 172 215 268 334 386
#     4  12  23  39  64  95 129 162 221 271 317 387
#     4  11  21  38  67  95 129 170 214 266 323 383
#     4  10  20  39  63  97 128 160 223 276 310 377
#     4  11  24  41  64  99 135 163 217 277 323 386
#     4  11  23  39  65  97 129 168 223 263 324 394
#     4   9  20  39  65  93 128 170 212 265 327 383
#     4  12  22  39  66  94 128 173 219 270 318 377
#
# _framework density 19.966417
#
# number of rings (size 3 to 8) (size 9 to 14) (size 15 to 20)
#    0.000    1.000    6.250    1.125    1.750    0.000 
#    0.000    1.250    0.000    0.000    0.000    0.000 
#    0.000    0.000    0.000    0.000    0.000    0.000 
#
# Total GULP energy -89374.438293 kJ/mol
# GULP energy per Si atom -5585.902393 kJ/mol
# Density = 1.992097 g / cm^3
# Si number density = 19.966417 Si / 1000 Ang^3
#
#
#
# Elastic Constant Matrix: (Units=GPa)
#
#
# Indices 1 2 3 4 5 6 
#
# 1 146.3604 68.4422 31.0512 0.0000 -2.7771 0.0000
# 2 68.4422 104.9099 22.5909 0.0000 -2.5087 0.0000
# 3 31.0512 22.5909 52.8543 0.0000 -6.3884 0.0000
# 4 0.0000 0.0000 0.0000 20.8983 0.0000 -0.0078
# 5 -2.7771 -2.5087 -6.3884 0.0000 27.2974 0.0000
# 6 0.0000 0.0000 0.0000 -0.0078 0.0000 44.9248
#
#
#
# Elastic Compliance Matrix: (Units=1/GPa)
#
#
# Indices 1 2 3 4 5 6 
#
# 1 0.010402 -0.006024 -0.003576 0.000000 -0.000332 0.000000
# 2 -0.006024 0.013987 -0.002427 0.000000 0.000105 0.000000
# 3 -0.003576 -0.002427 0.022627 0.000000 0.004709 0.000000
# 4 0.000000 0.000000 0.000000 0.047851 0.000000 0.000008
# 5 -0.000332 0.000105 0.004709 0.000000 0.037711 0.000000
# 6 0.000000 0.000000 0.000000 0.000008 0.000000 0.022259
#
#
# Mechanical properties :
#
#
# Convention : Reuss Voigt Hill
#
# Bulk Modulus (GPa) = 43.54975 60.92146 52.23561
# Shear Modulus (GPa) = 26.80310 30.76012 28.78161
#
# Velocity S-wave (km/s) = 3.66786 3.92930 3.80083
# Velocity P-wave (km/s) = 6.30845 7.15290 6.74391
#
# Compressibility (1/GPa) = 0.02296224
#
# Stress axis : x y z
#
# Youngs Moduli (GPa) = 96.13695 71.49510 44.19430
#
# Poissons Ratio (x) = 0.43068 0.15806
# Poissons Ratio (y) = 0.57912 0.10725
# Poissons Ratio (z) = 0.34382 0.17350
#
# Static dielectric constant tensor:
#      x y z
#    x 1.693160 0.000000 0.006610 
#    y 0.000000 1.699860 0.000000 
#    z 0.006610 0.000000 1.764620 
# 
# From -- ./inp_files/20670.got.cif
#   From: 2010.05.17/outbox.cif.g08.bks.cpg/sg5_11_cif.got.tgz:20670.got - 2010.06.03 18:56:24.
