data_PCOD9123859
_publ_section_title
;
Structure prediction by ZEFSAII (Michael W. Deem and Ramdas Pophale) SiO2 
 PCOD9123859
Probable space group: C 2
;
_chemical_formula_sum "Si O2"
_cell_formula_units_Z 26
_cell_length_a 8.910348
_cell_length_b 8.349289
_cell_length_c 21.169053
_cell_angle_alpha 90.000000
_cell_angle_beta 133.334076
_cell_angle_gamma 90.000000
_cell_volume 1145.507239
_symmetry_space_group_name_H-M "C 2"
_symmetry_group_IT_number 5
_symmetry_cell_setting 'monoclinic'
loop_
_space_group_symop_operation_xyz
x,y,z
-x,y,-z
1/2+x,1/2+y,z
1/2-x,1/2+y,-z
loop_
_atom_site_type_symbol
_atom_site_label
_atom_site_fract_x
_atom_site_fract_y
_atom_site_fract_z
Si Si1 0.000000 0.102291 0.000000
Si Si2 0.866519 0.791721 0.780653
Si Si3 0.062324 0.609659 0.945405
Si Si4 0.949906 0.431757 0.629538
Si Si5 0.140083 0.120411 0.477405
Si Si6 0.194547 0.946065 0.682221
Si Si7 0.720469 0.808198 0.167662
O O1 0.205739 0.070891 0.012679
O O2 0.140619 0.167443 0.099628
O O3 0.681874 0.915939 0.720600
O O4 0.781395 0.617694 0.733259
O O5 0.965839 0.755836 0.877291
O O6 0.051013 0.848118 0.789896
O O7 0.936876 0.449165 0.894336
O O8 0.000000 0.645874 0.000000
O O9 0.870801 0.583814 0.567161
O O10 0.811418 0.414906 0.651359
O O11 0.896339 0.283502 0.569272
O O12 0.000000 0.122224 0.500000
O O13 0.043065 0.982720 0.403816
O O14 0.254090 0.810420 0.749784
#
# Coordination Sequence:
#
# PCOD9123859 Si02
#       7
#     2   4   4   4   4   4   4
#     4  10  22  40  62  92 124 170 216 266 328 380
#     4   9  21  40  60  90 127 166 213 266 325 380
#     4  10  21  41  63  92 130 170 219 271 321 390
#     4  10  20  40  66  92 124 173 214 264 329 389
#     4   9  20  39  60  90 132 165 212 271 321 381
#     4   9  20  38  60  87 124 165 210 266 320 386
#     4  10  20  42  60  87 129 162 208 274 320 382
#
# _framework density 22.697368999999998
#
# number of rings (size 3 to 8) (size 9 to 14) (size 15 to 20)
#    0.000    2.462    0.769    0.000    2.154    3.692 
#    9.692   17.692    0.000    0.000    0.000    0.000 
#    0.000    0.000    0.000    0.000    0.000    0.000 
#
# Total GULP energy -72375.190074 kJ/mol
# GULP energy per Si atom -5567.322313 kJ/mol
# Density = 2.264571 g / cm^3
# Si number density = 22.697369 Si / 1000 Ang^3
#
#
#
# Elastic Constant Matrix: (Units=GPa)
#
#
# Indices 1 2 3 4 5 6 
#
# 1 99.4505 14.5982 49.0879 0.0000 9.1828 0.0000
# 2 14.5982 27.4112 14.6781 0.0000 -3.7503 0.0000
# 3 49.0879 14.6781 96.5562 0.0000 -15.5661 0.0000
# 4 0.0000 0.0000 0.0000 22.9808 0.0000 9.6709
# 5 9.1828 -3.7503 -15.5661 0.0000 53.1285 0.0000
# 6 0.0000 0.0000 0.0000 9.6709 0.0000 21.6766
#
#
#
# Elastic Compliance Matrix: (Units=1/GPa)
#
#
# Indices 1 2 3 4 5 6 
#
# 1 0.015055 -0.004553 -0.007802 0.000000 -0.005209 0.000000
# 2 -0.004553 0.041151 -0.003512 0.000000 0.002663 0.000000
# 3 -0.007802 -0.003512 0.015780 0.000000 0.005724 0.000000
# 4 0.000000 0.000000 0.000000 0.053573 0.000000 -0.023901
# 5 -0.005209 0.002663 0.005724 0.000000 0.021588 0.000000
# 6 0.000000 0.000000 0.000000 -0.023901 0.000000 0.056796
#
#
# Mechanical properties :
#
#
# Convention : Reuss Voigt Hill
#
# Bulk Modulus (GPa) = 24.84273 42.23848 33.54060
# Shear Modulus (GPa) = 20.07283 29.22741 24.65012
#
# Velocity S-wave (km/s) = 2.97706 3.59235 3.29908
# Velocity P-wave (km/s) = 4.77348 5.98802 5.41491
#
# Compressibility (1/GPa) = 0.04025323
#
# Stress axis : x y z
#
# Youngs Moduli (GPa) = 66.42111 24.30076 63.37336
#
# Poissons Ratio (x) = 0.11064 0.49442
# Poissons Ratio (y) = 0.30242 0.22254
# Poissons Ratio (z) = 0.51820 0.08533
#
# Static dielectric constant tensor:
#      x y z
#    x 1.818200 0.000000 0.003810 
#    y 0.000000 1.886030 0.000000 
#    z 0.003810 0.000000 1.883150 
# 
# From -- ./inp_files/64405.got.cif
#   From: 2010.05.17/outbox.cif.g08.bks.cpg/sg5_33_cif.got.tgz:64405.got - 2010.06.03 18:56:24.
