data_PCOD9123090
_publ_section_title
;
Structure prediction by ZEFSAII (Michael W. Deem and Ramdas Pophale) SiO2 
 PCOD9123090
Probable space group: C 2
;
_chemical_formula_sum "Si O2"
_cell_formula_units_Z 28
_cell_length_a 11.097588
_cell_length_b 9.848222
_cell_length_c 10.710293
_cell_angle_alpha 90.000000
_cell_angle_beta 78.812827
_cell_angle_gamma 90.000000
_cell_volume 1148.302138
_symmetry_space_group_name_H-M "C 2"
_symmetry_group_IT_number 5
_symmetry_cell_setting 'monoclinic'
loop_
_space_group_symop_operation_xyz
x,y,z
-x,y,-z
1/2+x,1/2+y,z
1/2-x,1/2+y,-z
loop_
_atom_site_type_symbol
_atom_site_label
_atom_site_fract_x
_atom_site_fract_y
_atom_site_fract_z
Si Si1 0.215887 0.139520 0.302302
Si Si2 0.169462 0.772732 0.480296
Si Si3 0.315720 0.571706 0.119945
Si Si4 0.375837 0.022952 0.641473
Si Si5 0.000000 0.267196 0.000000
Si Si6 0.749698 0.801135 0.039667
Si Si7 0.000000 0.027526 0.500000
Si Si8 0.625237 0.914328 0.642637
O O1 0.297211 0.209854 0.393922
O O2 0.229723 0.222461 0.173681
O O3 0.287639 0.996265 0.280002
O O4 0.077190 0.116456 0.383659
O O5 0.093784 0.679686 0.397782
O O6 0.303156 0.774756 0.384167
O O7 0.105984 0.917903 0.514433
O O8 0.246656 0.519705 0.254907
O O9 0.333094 0.433985 0.035360
O O10 0.438749 0.660573 0.110043
O O11 0.227625 0.681310 0.065777
O O12 0.483631 0.944341 0.691765
O O13 0.362885 0.961645 0.505844
O O14 0.886622 0.350844 0.972758
#
# Coordination Sequence:
#
# PCOD9123090 Si02
#       8
#     4   4   4   4   2   4   2   4
#     4  10  21  37  60  96 123 163 214 261 310 392
#     4  10  20  37  61  92 129 165 202 254 328 377
#     4  10  23  46  66  91 127 176 219 276 323 386
#     4  10  20  38  62  89 129 166 208 258 321 381
#     4   8  24  46  64  90 128 166 220 276 330 370
#     4  10  23  45  65  92 129 168 226 268 328 385
#     4  10  22  38  62  96 134 170 204 260 326 388
#     4   9  20  36  57  96 125 156 204 255 312 388
#
# _framework density 24.383825000000002
#
# number of rings (size 3 to 8) (size 9 to 14) (size 15 to 20)
#    0.857    1.429    0.000    2.571    0.000   10.286 
#    5.143    0.000    0.000    0.000    0.000    0.000 
#    0.000    0.000    0.000    0.000    0.000    0.000 
#
# Total GULP energy -77959.380306 kJ/mol
# GULP energy per Si atom -5568.527165 kJ/mol
# Density = 2.432833 g / cm^3
# Si number density = 24.383825 Si / 1000 Ang^3
#
#
#
# Elastic Constant Matrix: (Units=GPa)
#
#
# Indices 1 2 3 4 5 6 
#
# 1 84.1181 -13.8133 3.1890 0.0000 -7.8820 0.0000
# 2 -13.8133 44.0224 3.2032 0.0000 9.5114 0.0000
# 3 3.1890 3.2032 52.9881 0.0000 -12.8157 0.0000
# 4 0.0000 0.0000 0.0000 27.5170 0.0000 -12.2035
# 5 -7.8820 9.5114 -12.8157 0.0000 27.8598 0.0000
# 6 0.0000 0.0000 0.0000 -12.2035 0.0000 26.8895
#
#
#
# Elastic Compliance Matrix: (Units=1/GPa)
#
#
# Indices 1 2 3 4 5 6 
#
# 1 0.012691 0.003546 -0.000453 0.000000 0.002172 0.000000
# 2 0.003546 0.026272 -0.004195 0.000000 -0.009896 0.000000
# 3 -0.000453 -0.004195 0.021906 0.000000 0.011381 0.000000
# 4 0.000000 0.000000 0.000000 0.045499 0.000000 0.020649
# 5 0.002172 -0.009896 0.011381 0.000000 0.045122 0.000000
# 6 0.000000 0.000000 0.000000 0.020649 0.000000 0.046561
#
#
# Mechanical properties :
#
#
# Convention : Reuss Voigt Hill
#
# Bulk Modulus (GPa) = 17.04614 18.47627 17.76120
# Shear Modulus (GPa) = 22.74708 29.02322 25.88515
#
# Velocity S-wave (km/s) = 3.05761 3.45377 3.26171
# Velocity P-wave (km/s) = 4.41263 4.84751 4.63517
#
# Compressibility (1/GPa) = 0.05866432
#
# Stress axis : x y z
#
# Youngs Moduli (GPa) = 78.79606 38.06387 45.65052
#
# Poissons Ratio (x) = -0.13497 0.02068
# Poissons Ratio (y) = -0.27941 0.19150
# Poissons Ratio (z) = 0.03569 0.15968
#
# Static dielectric constant tensor:
#      x y z
#    x 2.009940 0.000000 -0.050260 
#    y 0.000000 2.080740 0.000000 
#    z -0.050260 0.000000 1.989300 
# 
# From -- ./inp_files/38791.got.cif
#   From: 2010.05.17/outbox.cif.g08.bks.cpg/sg5_20_cif.got.tgz:38791.got - 2010.06.03 18:56:24.
