data_PCOD9123895
_publ_section_title
;
Structure prediction by ZEFSAII (Michael W. Deem and Ramdas Pophale) SiO2 
 PCOD9123895
Probable space group: C 2
;
_chemical_formula_sum "Si O2"
_cell_formula_units_Z 28
_cell_length_a 12.383413
_cell_length_b 19.258094
_cell_length_c 6.817015
_cell_angle_alpha 90.000000
_cell_angle_beta 129.241823
_cell_angle_gamma 90.000000
_cell_volume 1259.098658
_symmetry_space_group_name_H-M "C 2"
_symmetry_group_IT_number 5
_symmetry_cell_setting 'monoclinic'
loop_
_space_group_symop_operation_xyz
x,y,z
-x,y,-z
1/2+x,1/2+y,z
1/2-x,1/2+y,-z
loop_
_atom_site_type_symbol
_atom_site_label
_atom_site_fract_x
_atom_site_fract_y
_atom_site_fract_z
Si Si1 0.868931 0.068410 0.981348
Si Si2 0.103624 0.766989 0.451399
Si Si3 0.500000 0.639512 0.500000
Si Si4 0.500000 0.366639 0.000000
Si Si5 0.858271 0.494961 0.719162
Si Si6 0.156566 0.361032 0.091893
Si Si7 0.705676 0.936226 0.758255
Si Si8 0.265435 0.645465 0.505010
O O1 0.924707 0.093537 0.251137
O O2 0.816248 0.132307 0.786639
O O3 0.000000 0.041455 0.000000
O O4 0.749818 0.012376 0.886778
O O5 0.025299 0.821495 0.223557
O O6 0.240227 0.801623 0.710902
O O7 0.144362 0.700686 0.370583
O O8 0.000000 0.743664 0.500000
O O9 0.383160 0.676255 0.496485
O O10 0.644866 0.407117 0.141612
O O11 0.782835 0.433249 0.748911
O O12 0.883423 0.458912 0.535159
O O13 0.777253 0.567174 0.605139
O O14 0.000000 0.508093 0.000000
O O15 0.153386 0.379873 0.856540
O O16 0.000000 0.351283 0.000000
#
# Coordination Sequence:
#
# PCOD9123895 Si02
#       8
#     4   4   2   2   4   4   4   4
#     4   9  19  36  68 103 138 178 230 292 351 412
#     4  12  27  49  70 101 145 193 239 296 350 426
#     4  10  20  40  68 102 136 182 230 290 350 410
#     4  12  24  42  74 104 132 184 240 290 364 414
#     4  10  23  45  69 105 143 186 235 293 354 420
#     4  11  25  45  71 101 143 187 238 295 362 417
#     4  11  21  42  71 104 140 179 235 295 352 426
#     4  10  24  44  66 104 144 186 237 288 355 428
#
# _framework density 22.238128
#
# number of rings (size 3 to 8) (size 9 to 14) (size 15 to 20)
#    0.000    1.429    3.571    0.857    1.000    6.286 
#   14.143    0.000    0.000    0.000    0.000    0.000 
#    0.000    0.000    0.000    0.000    0.000    0.000 
#
# Total GULP energy -78109.215336 kJ/mol
# GULP energy per Si atom -5579.229667 kJ/mol
# Density = 2.218751 g / cm^3
# Si number density = 22.238128 Si / 1000 Ang^3
#
#
#
# Elastic Constant Matrix: (Units=GPa)
#
#
# Indices 1 2 3 4 5 6 
#
# 1 91.9322 15.2608 18.2750 0.0000 -7.1323 0.0000
# 2 15.2608 53.3991 -5.1386 0.0000 6.7802 0.0000
# 3 18.2750 -5.1386 115.8237 0.0000 -2.5023 0.0000
# 4 0.0000 0.0000 0.0000 -13.7425 0.0000 -8.1319
# 5 -7.1323 6.7802 -2.5023 0.0000 34.3640 0.0000
# 6 0.0000 0.0000 0.0000 -8.1319 0.0000 15.4121
#
#
#
# Elastic Compliance Matrix: (Units=1/GPa)
#
#
# Indices 1 2 3 4 5 6 
#
# 1 0.012210 -0.004091 -0.002039 0.000000 0.003193 0.000000
# 2 -0.004091 0.020648 0.001457 0.000000 -0.004817 0.000000
# 3 -0.002039 0.001457 0.009019 0.000000 -0.000054 0.000000
# 4 0.000000 0.000000 0.000000 -0.055454 0.000000 -0.029259
# 5 0.003193 -0.004817 -0.000054 0.000000 0.030709 0.000000
# 6 0.000000 0.000000 0.000000 -0.029259 0.000000 0.049446
#
#
# Mechanical properties :
#
#
# Convention : Reuss Voigt Hill
#
# Bulk Modulus (GPa) = 30.73930 35.32769 33.03349
# Shear Modulus (GPa) = 57.62540 22.72394 40.17467
#
# Velocity S-wave (km/s) = 5.09599 3.20010 4.25498
# Velocity P-wave (km/s) = 6.96264 5.43827 6.24712
#
# Compressibility (1/GPa) = 0.03253165
#
# Stress axis : x y z
#
# Youngs Moduli (GPa) = 81.90195 48.43102 110.87671
#
# Poissons Ratio (x) = 0.19813 0.22608
# Poissons Ratio (y) = 0.33506 -0.16160
# Poissons Ratio (z) = 0.16700 -0.07059
#
# Static dielectric constant tensor:
#      x y z
#    x 1.871430 0.000000 -0.009830 
#    y 0.000000 1.809660 0.000000 
#    z -0.009830 0.000000 1.859010 
# 
# From -- ./inp_files/5714.got.cif
#   From: 2010.05.17/outbox.cif.g08.bks.cpg/sg5_3_cif.got.tgz:5714.got - 2010.06.03 18:56:24.
