data_PCOD9123693
_publ_section_title
;
Structure prediction by ZEFSAII (Michael W. Deem and Ramdas Pophale) SiO2 
 PCOD9123693
Probable space group: C 2
;
_chemical_formula_sum "Si O2"
_cell_formula_units_Z 24
_cell_length_a 13.923006
_cell_length_b 5.748524
_cell_length_c 13.387903
_cell_angle_alpha 90.000000
_cell_angle_beta 62.161513
_cell_angle_gamma 90.000000
_cell_volume 947.513870
_symmetry_space_group_name_H-M "C 2"
_symmetry_group_IT_number 5
_symmetry_cell_setting 'monoclinic'
loop_
_space_group_symop_operation_xyz
x,y,z
-x,y,-z
1/2+x,1/2+y,z
1/2-x,1/2+y,-z
loop_
_atom_site_type_symbol
_atom_site_label
_atom_site_fract_x
_atom_site_fract_y
_atom_site_fract_z
Si Si1 0.291431 0.318900 0.523913
Si Si2 0.633478 0.543550 0.136878
Si Si3 0.153298 0.287641 0.941690
Si Si4 0.718856 0.919863 0.252244
Si Si5 0.510981 0.174510 0.332560
Si Si6 0.853400 0.519451 0.253768
O O1 0.256145 0.569220 0.491602
O O2 0.419894 0.293962 0.444555
O O3 0.242240 0.354032 0.658713
O O4 0.746196 0.415774 0.051993
O O5 0.670254 0.725758 0.201693
O O6 0.560418 0.358121 0.229796
O O7 0.584978 0.666209 0.062283
O O8 0.111740 0.464295 0.876409
O O9 0.207424 0.086647 0.849761
O O10 0.799406 0.776037 0.284332
O O11 0.607992 0.043206 0.341772
O O12 0.447609 0.998458 0.289149
#
# Coordination Sequence:
#
# PCOD9123693 Si02
#       6
#     4   4   4   4   4   4
#     4  10  24  46  77  99 142 196 236 306 374 429
#     4  10  20  39  68  96 138 183 226 288 358 427
#     4  10  20  39  68  96 138 183 226 288 358 427
#     4  10  22  42  69 100 134 179 238 288 352 434
#     4  10  24  43  73 100 140 187 240 296 366 436
#     4  10  24  43  73 100 140 187 240 296 366 436
#
# _framework density 25.329443999999999
#
# number of rings (size 3 to 8) (size 9 to 14) (size 15 to 20)
#    0.000    2.000    1.667    0.000    9.333    0.000 
#    0.000   14.167    0.000    0.000    0.000    0.000 
#    0.000    0.000    0.000    0.000    0.000    0.000 
#
# Total GULP energy -67055.060041 kJ/mol
# GULP energy per Si atom -5587.921670 kJ/mol
# Density = 2.527179 g / cm^3
# Si number density = 25.329444 Si / 1000 Ang^3
#
#
#
# Elastic Constant Matrix: (Units=GPa)
#
#
# Indices 1 2 3 4 5 6 
#
# 1 80.8358 22.2518 -7.9126 0.0000 -8.8396 0.0002
# 2 22.2518 98.5803 17.9049 0.0001 -5.6820 0.0010
# 3 -7.9126 17.9049 88.9126 0.0000 4.4606 -0.0001
# 4 0.0000 0.0001 0.0000 48.7760 -0.0001 9.1671
# 5 -8.8396 -5.6820 4.4606 -0.0001 36.6728 0.0000
# 6 0.0002 0.0010 -0.0001 9.1671 0.0000 51.8537
#
#
#
# Elastic Compliance Matrix: (Units=1/GPa)
#
#
# Indices 1 2 3 4 5 6 
#
# 1 0.013724 -0.003266 0.001749 0.000000 0.002589 0.000000
# 2 -0.003266 0.011440 -0.002660 0.000000 0.001309 0.000000
# 3 0.001749 -0.002660 0.012011 0.000000 -0.001451 0.000000
# 4 0.000000 0.000000 0.000000 0.021206 0.000000 -0.003749
# 5 0.002589 0.001309 -0.001451 0.000000 0.028272 0.000000
# 6 0.000000 0.000000 0.000000 -0.003749 0.000000 0.019948
#
#
# Mechanical properties :
#
#
# Convention : Reuss Voigt Hill
#
# Bulk Modulus (GPa) = 34.69698 36.97964 35.83831
# Shear Modulus (GPa) = 40.14049 43.19947 41.66998
#
# Velocity S-wave (km/s) = 3.98519 4.13426 4.06041
# Velocity P-wave (km/s) = 5.90794 6.11724 6.01350
#
# Compressibility (1/GPa) = 0.02882095
#
# Stress axis : x y z
#
# Youngs Moduli (GPa) = 72.86372 87.41355 83.25587
#
# Poissons Ratio (x) = 0.28552 -0.14563
# Poissons Ratio (y) = 0.23800 0.22147
# Poissons Ratio (z) = -0.12746 0.23252
#
# Static dielectric constant tensor:
#      x y z
#    x 2.012000 0.000000 -0.004540 
#    y 0.000000 2.058030 0.000000 
#    z -0.004540 0.000000 2.010450 
# 
# From -- ./inp_files/48921.got.cif
#   From: 2010.05.17/outbox.cif.g08.bks.cpg/sg5_25_cif.got.tgz:48921.got - 2010.06.03 18:56:24.
