data_PCOD9123182
_publ_section_title
;
Structure prediction by ZEFSAII (Michael W. Deem and Ramdas Pophale) SiO2 
 PCOD9123182
Probable space group: C 2
;
_chemical_formula_sum "Si O2"
_cell_formula_units_Z 28
_cell_length_a 20.935191
_cell_length_b 12.665864
_cell_length_c 17.760541
_cell_angle_alpha 90.000000
_cell_angle_beta 161.253471
_cell_angle_gamma 90.000000
_cell_volume 1513.525080
_symmetry_space_group_name_H-M "C 2"
_symmetry_group_IT_number 5
_symmetry_cell_setting 'monoclinic'
loop_
_space_group_symop_operation_xyz
x,y,z
-x,y,-z
1/2+x,1/2+y,z
1/2-x,1/2+y,-z
loop_
_atom_site_type_symbol
_atom_site_label
_atom_site_fract_x
_atom_site_fract_y
_atom_site_fract_z
Si Si1 0.719892 0.318000 0.923326
Si Si2 0.595239 0.969645 0.503479
Si Si3 0.275704 0.614416 0.895801
Si Si4 0.702813 0.669397 0.852623
Si Si5 0.500000 0.584448 0.000000
Si Si6 0.038253 0.016809 0.325196
Si Si7 0.025064 0.489246 0.246337
Si Si8 0.000000 0.278066 0.500000
O O1 0.679916 0.218420 0.825698
O O2 0.552264 0.405600 0.748918
O O3 0.767519 0.267722 0.057964
O O4 0.905073 0.382221 0.095314
O O5 0.584326 0.854566 0.528877
O O6 0.404065 0.034303 0.321462
O O7 0.811439 0.016957 0.761647
O O8 0.563053 0.979066 0.378069
O O9 0.407458 0.641534 0.969837
O O10 0.416424 0.558418 0.115620
O O11 0.510590 0.604438 0.666665
O O12 0.665609 0.708549 0.726948
O O13 0.883605 0.588279 0.068734
O O14 0.266712 0.003407 0.561515
#
# Coordination Sequence:
#
# PCOD9123182 Si02
#       8
#     4   4   4   4   2   4   4   2
#     4  10  20  37  65  90 119 169 214 254 309 377
#     4  12  22  38  61  95 132 156 198 265 322 372
#     4  11  21  39  60  91 129 165 208 260 327 362
#     4  10  22  39  62  92 128 164 205 268 316 371
#     4  12  24  36  60  94 132 158 198 272 314 372
#     4  10  21  38  63  91 122 168 216 257 304 387
#     4  11  21  40  64  91 125 167 216 255 304 394
#     4  12  22  42  66  96 130 160 202 272 332 354
#
# _framework density 18.499859000000001
#
# number of rings (size 3 to 8) (size 9 to 14) (size 15 to 20)
#    0.000    1.143    8.571    0.000    0.000    3.429 
#    2.571    0.000   18.857    0.000    0.000    0.000 
#    0.000    0.000    0.000    0.000    0.000    0.000 
#
# Total GULP energy -78077.816497 kJ/mol
# GULP energy per Si atom -5576.986893 kJ/mol
# Density = 1.845775 g / cm^3
# Si number density = 18.499859 Si / 1000 Ang^3
#
#
#
# Elastic Constant Matrix: (Units=GPa)
#
#
# Indices 1 2 3 4 5 6 
#
# 1 93.2862 32.5770 33.1833 0.0000 3.6540 -0.0006
# 2 32.5770 90.7556 37.0670 0.0030 -4.2416 0.0026
# 3 33.1833 37.0670 83.4172 0.0012 7.3107 0.0002
# 4 0.0000 0.0030 0.0012 18.0050 0.0015 -8.9085
# 5 3.6540 -4.2416 7.3107 0.0015 39.8179 0.0008
# 6 -0.0006 0.0026 0.0002 -8.9085 0.0008 29.0041
#
#
#
# Elastic Compliance Matrix: (Units=1/GPa)
#
#
# Indices 1 2 3 4 5 6 
#
# 1 0.013221 -0.003262 -0.003733 0.000001 -0.000875 0.000001
# 2 -0.003262 0.014531 -0.005408 -0.000004 0.002840 -0.000003
# 3 -0.003733 -0.005408 0.016157 0.000000 -0.003200 0.000001
# 4 0.000001 -0.000004 0.000000 0.065493 -0.000003 0.020116
# 5 -0.000875 0.002840 -0.003200 -0.000003 0.026085 -0.000002
# 6 0.000001 -0.000003 0.000001 0.020116 -0.000002 0.040656
#
#
# Mechanical properties :
#
#
# Convention : Reuss Voigt Hill
#
# Bulk Modulus (GPa) = 52.35053 52.56819 52.45936
# Shear Modulus (GPa) = 24.11763 28.34083 26.22923
#
# Velocity S-wave (km/s) = 3.61455 3.91826 3.76946
# Velocity P-wave (km/s) = 6.76603 6.99625 6.88210
#
# Compressibility (1/GPa) = 0.01910200
#
# Stress axis : x y z
#
# Youngs Moduli (GPa) = 75.63704 68.81771 61.89392
#
# Poissons Ratio (x) = 0.22448 0.23106
# Poissons Ratio (y) = 0.24672 0.33474
# Poissons Ratio (z) = 0.28236 0.37219
#
# Static dielectric constant tensor:
#      x y z
#    x 1.674830 0.000000 -0.023860 
#    y 0.000000 1.632090 0.000000 
#    z -0.023860 0.000000 1.631660 
# 
# From -- ./inp_files/62903.got.cif
#   From: 2010.05.17/outbox.cif.g08.bks.cpg/sg5_32_cif.got.tgz:62903.got - 2010.06.03 18:56:24.
