data_PCOD9123193
_publ_section_title
;
Structure prediction by ZEFSAII (Michael W. Deem and Ramdas Pophale) SiO2 
 PCOD9123193
Probable space group: C 2
;
_chemical_formula_sum "Si O2"
_cell_formula_units_Z 26
_cell_length_a 12.641645
_cell_length_b 19.671294
_cell_length_c 8.142859
_cell_angle_alpha 90.000000
_cell_angle_beta 145.415117
_cell_angle_gamma 90.000000
_cell_volume 1149.413076
_symmetry_space_group_name_H-M "C 2"
_symmetry_group_IT_number 5
_symmetry_cell_setting 'monoclinic'
loop_
_space_group_symop_operation_xyz
x,y,z
-x,y,-z
1/2+x,1/2+y,z
1/2-x,1/2+y,-z
loop_
_atom_site_type_symbol
_atom_site_label
_atom_site_fract_x
_atom_site_fract_y
_atom_site_fract_z
Si Si1 0.000000 0.031420 0.000000
Si Si2 0.500000 0.880516 0.500000
Si Si3 0.144335 0.730202 0.567743
Si Si4 0.435268 0.118373 0.094586
Si Si5 0.120359 0.279293 0.418684
Si Si6 0.621622 0.973382 0.390339
Si Si7 0.585246 0.645592 0.848447
Si Si8 0.500000 0.870141 0.000000
O O1 0.988384 0.081044 0.144171
O O2 0.187161 0.987914 0.268064
O O3 0.648721 0.826773 0.613456
O O4 0.477297 0.932844 0.322114
O O5 0.028885 0.668358 0.343138
O O6 0.219498 0.773334 0.511785
O O7 0.000000 0.768906 0.500000
O O8 0.300345 0.690042 0.870225
O O9 0.526727 0.044351 0.226495
O O10 0.500000 0.144028 0.000000
O O11 0.219824 0.120269 0.874559
O O12 0.063861 0.202974 0.392832
O O13 0.963697 0.319265 0.107144
O O14 0.647287 0.923670 0.266427
#
# Coordination Sequence:
#
# PCOD9123193 Si02
#       8
#     2   2   4   4   4   4   4   2
#     4  12  21  40  72  98 127 164 228 276 328 396
#     4  10  26  38  68  86 130 186 210 264 322 394
#     4  10  20  37  65  99 126 168 207 272 337 388
#     4  11  23  38  66  98 134 163 210 276 337 391
#     4  11  20  42  65  94 128 166 229 261 327 396
#     4  11  22  43  65  92 129 175 222 260 329 387
#     4  11  20  37  69  95 124 169 210 274 335 383
#     4  10  21  40  70  82 125 182 210 264 312 388
#
# _framework density 22.620239000000002
#
# number of rings (size 3 to 8) (size 9 to 14) (size 15 to 20)
#    0.000    1.231    5.385    0.923    3.231    0.000 
#    0.000    6.154    6.769    0.000    0.000    0.000 
#    0.000    0.000    0.000    0.000    0.000    0.000 
#
# Total GULP energy -72420.288643 kJ/mol
# GULP energy per Si atom -5570.791434 kJ/mol
# Density = 2.256875 g / cm^3
# Si number density = 22.620239 Si / 1000 Ang^3
#
#
#
# Elastic Constant Matrix: (Units=GPa)
#
#
# Indices 1 2 3 4 5 6 
#
# 1 146.2900 39.2323 24.1581 0.0000 10.1847 0.0000
# 2 39.2323 105.1332 36.7320 0.0000 0.8361 0.0000
# 3 24.1581 36.7320 41.5389 0.0000 -1.6828 0.0000
# 4 0.0000 0.0000 0.0000 10.1965 0.0000 -20.2954
# 5 10.1847 0.8361 -1.6828 0.0000 23.4111 0.0000
# 6 0.0000 0.0000 0.0000 -20.2954 0.0000 47.2803
#
#
#
# Elastic Compliance Matrix: (Units=1/GPa)
#
#
# Indices 1 2 3 4 5 6 
#
# 1 0.008129 -0.001881 -0.003214 0.000000 -0.003700 0.000000
# 2 -0.001881 0.014244 -0.011522 0.000000 -0.000519 0.000000
# 3 -0.003214 -0.011522 0.036311 0.000000 0.004420 0.000000
# 4 0.000000 0.000000 0.000000 0.673587 0.000000 0.289141
# 5 -0.003700 -0.000519 0.004420 0.000000 0.044661 0.000000
# 6 0.000000 0.000000 0.000000 0.289141 0.000000 0.145266
#
#
# Mechanical properties :
#
#
# Convention : Reuss Voigt Hill
#
# Bulk Modulus (GPa) = 39.29501 54.80079 47.04790
# Shear Modulus (GPa) = 5.18718 29.03354 17.11036
#
# Velocity S-wave (km/s) = 1.51596 3.58651 2.75329
# Velocity P-wave (km/s) = 4.52477 6.43660 5.56342
#
# Compressibility (1/GPa) = 0.02544852
#
# Stress axis : x y z
#
# Youngs Moduli (GPa) = 123.02347 70.20733 27.53982
#
# Poissons Ratio (x) = 0.13206 0.08851
# Poissons Ratio (y) = 0.23140 0.31732
# Poissons Ratio (z) = 0.39540 0.80895
#
# Static dielectric constant tensor:
#      x y z
#    x 1.912650 0.000000 -0.007770 
#    y 0.000000 1.827500 0.000000 
#    z -0.007770 0.000000 1.905550 
# 
# From -- ./inp_files/22035.got.cif
#   From: 2010.05.17/outbox.cif.g08.bks.cpg/sg5_12_cif.got.tgz:22035.got - 2010.06.03 18:56:24.
