data_PCOD9123777
_publ_section_title
;
Structure prediction by ZEFSAII (Michael W. Deem and Ramdas Pophale) SiO2 
 PCOD9123777
Probable space group: C 2
;
_chemical_formula_sum "Si O2"
_cell_formula_units_Z 26
_cell_length_a 22.254719
_cell_length_b 9.582726
_cell_length_c 15.928792
_cell_angle_alpha 90.000000
_cell_angle_beta 158.357497
_cell_angle_gamma 90.000000
_cell_volume 1252.857369
_symmetry_space_group_name_H-M "C 2"
_symmetry_group_IT_number 5
_symmetry_cell_setting 'monoclinic'
loop_
_space_group_symop_operation_xyz
x,y,z
-x,y,-z
1/2+x,1/2+y,z
1/2-x,1/2+y,-z
loop_
_atom_site_type_symbol
_atom_site_label
_atom_site_fract_x
_atom_site_fract_y
_atom_site_fract_z
Si Si1 0.755494 0.433270 0.555066
Si Si2 0.931559 0.205418 0.678190
Si Si3 0.000000 0.443566 0.500000
Si Si4 0.804359 0.195585 0.322209
Si Si5 0.500000 0.449256 0.500000
Si Si6 0.052654 0.833679 0.749072
Si Si7 0.736180 0.100514 0.926602
Si Si8 0.500000 0.081191 0.000000
O O1 0.850812 0.344065 0.610002
O O2 0.660148 0.571844 0.400358
O O3 0.614533 0.341960 0.416888
O O4 0.883473 0.487224 0.790970
O O5 0.894945 0.191473 0.530780
O O6 0.126223 0.193728 0.941879
O O7 0.862663 0.338026 0.356373
O O8 0.912744 0.540269 0.319413
O O9 0.857936 0.059757 0.338994
O O10 0.614401 0.179536 0.092665
O O11 0.521992 0.354700 0.610147
O O12 0.158583 0.695123 0.898522
O O13 0.161272 0.967100 0.912437
#
# Coordination Sequence:
#
# PCOD9123777 Si02
#       8
#     4   4   2   4   2   4   4   2
#     4  10  23  41  62  91 131 163 217 258 323 384
#     4  10  22  44  61  94 126 172 213 260 323 388
#     4  11  25  42  62  94 136 164 222 274 316 380
#     4  10  22  41  64  93 129 171 211 263 324 384
#     4  11  19  42  66  90 130 160 220 270 304 390
#     4  11  24  42  64  98 127 169 214 269 324 380
#     4  11  24  41  64  96 127 168 220 262 329 373
#     4  10  20  40  62  98 120 172 216 254 332 388
#
# _framework density 20.752561
#
# number of rings (size 3 to 8) (size 9 to 14) (size 15 to 20)
#    0.000    1.538    4.615    1.385    4.308    8.615 
#    0.000    0.000    0.000    0.000    0.000    0.000 
#    0.000    0.000    0.000    0.000    0.000    0.000 
#
# Total GULP energy -72602.572502 kJ/mol
# GULP energy per Si atom -5584.813269 kJ/mol
# Density = 2.070533 g / cm^3
# Si number density = 20.752561 Si / 1000 Ang^3
#
#
#
# Elastic Constant Matrix: (Units=GPa)
#
#
# Indices 1 2 3 4 5 6 
#
# 1 28.9864 9.0437 -1.6760 0.0000 13.3123 0.0000
# 2 9.0437 79.5784 15.4610 0.0000 21.4564 0.0000
# 3 -1.6760 15.4610 77.9899 0.0000 28.7513 0.0000
# 4 0.0000 0.0000 0.0000 22.2371 0.0000 9.9934
# 5 13.3123 21.4564 28.7513 0.0000 34.6871 0.0000
# 6 0.0000 0.0000 0.0000 9.9934 0.0000 37.6806
#
#
#
# Elastic Compliance Matrix: (Units=1/GPa)
#
#
# Indices 1 2 3 4 5 6 
#
# 1 0.047862 -0.000191 0.011224 0.000000 -0.027554 0.000000
# 2 -0.000191 0.015105 0.000603 0.000000 -0.009770 0.000000
# 3 0.011224 0.000603 0.021124 0.000000 -0.022190 0.000000
# 4 0.000000 0.000000 0.000000 0.051055 0.000000 -0.013540
# 5 -0.027554 -0.009770 -0.022190 0.000000 0.063841 0.000000
# 6 0.000000 0.000000 0.000000 -0.013540 0.000000 0.030130
#
#
# Mechanical properties :
#
#
# Convention : Reuss Voigt Hill
#
# Bulk Modulus (GPa) = 9.31400 25.80133 17.55767
# Shear Modulus (GPa) = 20.69267 29.83603 25.26435
#
# Velocity S-wave (km/s) = 3.16114 3.79582 3.49292
# Velocity P-wave (km/s) = 4.22156 5.62768 4.97456
#
# Compressibility (1/GPa) = 0.10736520
#
# Stress axis : x y z
#
# Youngs Moduli (GPa) = 20.89344 66.20309 47.33876
#
# Poissons Ratio (x) = 0.01262 -0.53134
# Poissons Ratio (y) = 0.00398 -0.02856
# Poissons Ratio (z) = -0.23451 -0.03994
#
# Static dielectric constant tensor:
#      x y z
#    x 1.764820 0.000000 -0.005380 
#    y 0.000000 1.754880 0.000000 
#    z -0.005380 0.000000 1.749630 
# 
# From -- ./inp_files/26542.got.cif
#   From: 2010.05.17/outbox.cif.g08.bks.cpg/sg5_14_cif.got.tgz:26542.got - 2010.06.03 18:56:24.
