data_PCOD9123878
_publ_section_title
;
Structure prediction by ZEFSAII (Michael W. Deem and Ramdas Pophale) SiO2 
 PCOD9123878
Probable space group: C 2
;
_chemical_formula_sum "Si O2"
_cell_formula_units_Z 28
_cell_length_a 11.418903
_cell_length_b 8.672047
_cell_length_c 14.277125
_cell_angle_alpha 90.000000
_cell_angle_beta 111.394603
_cell_angle_gamma 90.000000
_cell_volume 1316.371635
_symmetry_space_group_name_H-M "C 2"
_symmetry_group_IT_number 5
_symmetry_cell_setting 'monoclinic'
loop_
_space_group_symop_operation_xyz
x,y,z
-x,y,-z
1/2+x,1/2+y,z
1/2-x,1/2+y,-z
loop_
_atom_site_type_symbol
_atom_site_label
_atom_site_fract_x
_atom_site_fract_y
_atom_site_fract_z
Si Si1 0.905062 0.904450 0.300611
Si Si2 0.029588 0.450120 0.788388
Si Si3 0.849869 0.971523 0.748585
Si Si4 0.634137 0.025035 0.003071
Si Si5 0.281344 0.689195 0.205749
Si Si6 0.422560 0.096002 0.388333
Si Si7 0.167155 0.273186 0.142937
O O1 0.919293 0.782264 0.387530
O O2 0.812786 0.806854 0.205574
O O3 0.033917 0.952619 0.287662
O O4 0.826930 0.060875 0.292643
O O5 0.099562 0.296058 0.777604
O O6 0.008981 0.546978 0.688808
O O7 0.910189 0.393406 0.812691
O O8 0.125529 0.532088 0.889404
O O9 0.824005 0.805126 0.786954
O O10 0.719304 0.027669 0.660936
O O11 0.870979 0.103343 0.834347
O O12 0.737669 0.109509 0.095941
O O13 0.640628 0.842587 0.032874
O O14 0.500000 0.086212 0.000000
O O15 0.500000 0.038738 0.500000
#
# Coordination Sequence:
#
# PCOD9123878 Si02
#       7
#     4   4   4   4   4   4   4
#     4  10  21  39  66  90 126 161 212 260 315 379
#     4  10  20  40  67  85 134 170 208 269 314 370
#     4  10  21  41  65  96 127 166 209 259 316 382
#     4   9  20  35  57  93 129 172 204 249 315 375
#     4  10  21  37  62  96 127 166 213 248 316 386
#     4  10  24  45  63  92 124 166 217 273 323 367
#     4   9  19  39  61  91 133 162 204 253 317 383
#
# _framework density 21.270589000000001
#
# number of rings (size 3 to 8) (size 9 to 14) (size 15 to 20)
#    0.000    2.286    1.429    0.000    6.000    4.571 
#    5.143    5.000    0.000    0.000    0.000    0.000 
#    0.000    0.000    0.000    0.000    0.000    0.000 
#
# Total GULP energy -78028.542643 kJ/mol
# GULP energy per Si atom -5573.467332 kJ/mol
# Density = 2.122218 g / cm^3
# Si number density = 21.270589 Si / 1000 Ang^3
#
#
#
# Elastic Constant Matrix: (Units=GPa)
#
#
# Indices 1 2 3 4 5 6 
#
# 1 66.7611 5.3448 -1.3526 0.0000 8.6074 0.0000
# 2 5.3448 92.6471 25.1213 0.0000 11.8605 0.0000
# 3 -1.3526 25.1213 107.3512 0.0000 9.0509 0.0000
# 4 0.0000 0.0000 0.0000 22.9440 0.0000 -2.1385
# 5 8.6074 11.8605 9.0509 0.0000 9.8147 0.0000
# 6 0.0000 0.0000 0.0000 -2.1385 0.0000 29.0906
#
#
#
# Elastic Compliance Matrix: (Units=1/GPa)
#
#
# Indices 1 2 3 4 5 6 
#
# 1 0.017194 0.000840 0.001493 0.000000 -0.017471 0.000000
# 2 0.000840 0.013150 -0.001805 0.000000 -0.014963 0.000000
# 3 0.001493 -0.001805 0.010499 0.000000 -0.008810 0.000000
# 4 0.000000 0.000000 0.000000 0.043885 0.000000 0.003226
# 5 -0.017471 -0.014963 -0.008810 0.000000 0.143417 0.000000
# 6 0.000000 0.000000 0.000000 0.003226 0.000000 0.034613
#
#
# Mechanical properties :
#
#
# Convention : Reuss Voigt Hill
#
# Bulk Modulus (GPa) = 23.86668 36.10960 29.98814
# Shear Modulus (GPa) = 18.13765 28.21289 23.17527
#
# Velocity S-wave (km/s) = 2.92329 3.64590 3.30441
# Velocity P-wave (km/s) = 4.75805 5.89378 5.35610
#
# Compressibility (1/GPa) = 0.04189941
#
# Stress axis : x y z
#
# Youngs Moduli (GPa) = 58.15869 76.04425 95.24482
#
# Poissons Ratio (x) = -0.06386 -0.14221
# Poissons Ratio (y) = -0.04884 0.17193
# Poissons Ratio (z) = -0.08684 0.13727
#
# Static dielectric constant tensor:
#      x y z
#    x 1.819930 0.000000 0.005220 
#    y 0.000000 1.849450 0.000000 
#    z 0.005220 0.000000 1.793400 
# 
# From -- ./inp_files/52299.got.cif
#   From: 2010.05.17/outbox.cif.g08.bks.cpg/sg5_27_cif.got.tgz:52299.got - 2010.06.03 18:56:24.
