data_PCOD9123730
_publ_section_title
;
Structure prediction by ZEFSAII (Michael W. Deem and Ramdas Pophale) SiO2 
 PCOD9123730
Probable space group: C 2
;
_chemical_formula_sum "Si O2"
_cell_formula_units_Z 28
_cell_length_a 7.123561
_cell_length_b 12.014678
_cell_length_c 21.721040
_cell_angle_alpha 90.000000
_cell_angle_beta 49.453874
_cell_angle_gamma 90.000000
_cell_volume 1412.656459
_symmetry_space_group_name_H-M "C 2"
_symmetry_group_IT_number 5
_symmetry_cell_setting 'monoclinic'
loop_
_space_group_symop_operation_xyz
x,y,z
-x,y,-z
1/2+x,1/2+y,z
1/2-x,1/2+y,-z
loop_
_atom_site_type_symbol
_atom_site_label
_atom_site_fract_x
_atom_site_fract_y
_atom_site_fract_z
Si Si1 0.802426 0.090630 0.272577
Si Si2 0.000000 0.339687 0.500000
Si Si3 0.687501 0.624104 0.867701
Si Si4 0.768452 0.695063 0.214832
Si Si5 0.531736 0.250383 0.424307
Si Si6 0.500000 0.794137 0.000000
Si Si7 0.524459 0.371063 0.922576
Si Si8 0.518368 0.870592 0.353365
O O1 0.813219 0.146559 0.204172
O O2 0.651288 0.163901 0.352778
O O3 0.081339 0.095911 0.237868
O O4 0.665583 0.973867 0.293957
O O5 0.263301 0.279461 0.454790
O O6 0.027821 0.391039 0.425189
O O7 0.513105 0.710902 0.939470
O O8 0.614505 0.497492 0.896886
O O9 0.963200 0.646408 0.831766
O O10 0.802385 0.786073 0.152809
O O11 0.660359 0.760930 0.297532
O O12 0.500000 0.203096 0.500000
O O13 0.733793 0.350382 0.391871
O O14 0.750966 0.863014 0.951086
O O15 0.500000 0.342759 0.000000
#
# Coordination Sequence:
#
# PCOD9123730 Si02
#       8
#     4   2   4   4   4   2   4   4
#     4  11  22  39  63  90 119 161 195 245 303 347
#     4  10  20  40  60  86 120 162 192 248 300 340
#     4  11  22  41  62  90 119 160 200 242 302 354
#     4  10  23  42  61  88 123 153 203 248 290 357
#     4   9  21  40  60  86 123 154 202 247 288 356
#     4  10  24  42  62  88 122 156 202 246 294 356
#     4  11  22  42  63  88 122 158 197 250 295 352
#     4  10  21  39  60  90 121 155 202 245 293 357
#
# _framework density 19.820813999999999
#
# number of rings (size 3 to 8) (size 9 to 14) (size 15 to 20)
#    0.000    1.714    2.143    1.714    1.000    2.286 
#    7.714    0.000    0.000    0.000    0.000    0.000 
#    0.000    0.000    0.000    0.000    0.000    0.000 
#
# Total GULP energy -78049.379379 kJ/mol
# GULP energy per Si atom -5574.955670 kJ/mol
# Density = 1.977570 g / cm^3
# Si number density = 19.820814 Si / 1000 Ang^3
#
#
#
# Elastic Constant Matrix: (Units=GPa)
#
#
# Indices 1 2 3 4 5 6 
#
# 1 92.5211 41.3107 22.4662 0.0002 -12.0865 -0.0003
# 2 41.3107 60.9611 25.5933 0.0002 -6.1100 -0.0002
# 3 22.4662 25.5933 96.9206 -0.0002 6.2626 -0.0002
# 4 0.0002 0.0002 -0.0002 48.1775 -0.0001 12.8882
# 5 -12.0865 -6.1100 6.2626 -0.0001 40.0594 0.0003
# 6 -0.0003 -0.0002 -0.0002 12.8882 0.0003 28.8039
#
#
#
# Elastic Compliance Matrix: (Units=1/GPa)
#
#
# Indices 1 2 3 4 5 6 
#
# 1 0.016036 -0.009962 -0.001314 0.000000 0.003524 0.000000
# 2 -0.009962 0.025170 -0.004436 0.000000 0.001527 0.000000
# 3 -0.001314 -0.004436 0.011984 0.000000 -0.002947 0.000000
# 4 0.000000 0.000000 0.000000 0.023579 0.000000 -0.010550
# 5 0.003524 0.001527 -0.002947 0.000000 0.026720 0.000000
# 6 0.000000 0.000000 0.000000 -0.010550 0.000000 0.039438
#
#
# Mechanical properties :
#
#
# Convention : Reuss Voigt Hill
#
# Bulk Modulus (GPa) = 45.94359 47.68258 46.81309
# Shear Modulus (GPa) = 27.53208 34.14366 30.83787
#
# Velocity S-wave (km/s) = 3.73104 4.15494 3.94868
# Velocity P-wave (km/s) = 6.46457 6.86492 6.66775
#
# Compressibility (1/GPa) = 0.02176582
#
# Stress axis : x y z
#
# Youngs Moduli (GPa) = 62.36047 39.72990 83.44339
#
# Poissons Ratio (x) = 0.39578 0.10967
# Poissons Ratio (y) = 0.62122 0.37016
# Poissons Ratio (z) = 0.08196 0.17624
#
# Static dielectric constant tensor:
#      x y z
#    x 1.676990 0.000000 0.008130 
#    y 0.000000 1.691340 0.000000 
#    z 0.008130 0.000000 1.721330 
# 
# From -- ./inp_files/63990.got.cif
#   From: 2010.05.17/outbox.cif.g08.bks.cpg/sg5_32_cif.got.tgz:63990.got - 2010.06.03 18:56:24.
