data_PCOD9123980
_publ_section_title
;
Structure prediction by ZEFSAII (Michael W. Deem and Ramdas Pophale) SiO2 
 PCOD9123980
Probable space group: C 2
;
_chemical_formula_sum "Si O2"
_cell_formula_units_Z 28
_cell_length_a 10.032884
_cell_length_b 12.408286
_cell_length_c 9.116723
_cell_angle_alpha 90.000000
_cell_angle_beta 73.081474
_cell_angle_gamma 90.000000
_cell_volume 1085.827881
_symmetry_space_group_name_H-M "C 2"
_symmetry_group_IT_number 5
_symmetry_cell_setting 'monoclinic'
loop_
_space_group_symop_operation_xyz
x,y,z
-x,y,-z
1/2+x,1/2+y,z
1/2-x,1/2+y,-z
loop_
_atom_site_type_symbol
_atom_site_label
_atom_site_fract_x
_atom_site_fract_y
_atom_site_fract_z
Si Si1 0.658034 0.384340 0.932571
Si Si2 0.671213 0.334601 0.482612
Si Si3 0.255209 0.232348 0.845175
Si Si4 0.179511 0.075066 0.385021
Si Si5 0.960477 0.188364 0.284914
Si Si6 0.394601 0.904018 0.647826
Si Si7 0.554015 0.194914 0.757869
O O1 0.776557 0.446282 0.799884
O O2 0.620578 0.272843 0.857989
O O3 0.500000 0.431371 0.000000
O O4 0.731019 0.337833 0.056395
O O5 0.725913 0.269844 0.328330
O O6 0.645529 0.453080 0.430613
O O7 0.792799 0.348665 0.563181
O O8 0.556331 0.273765 0.615587
O O9 0.394611 0.166020 0.839638
O O10 0.109318 0.176696 0.852986
O O11 0.100354 0.117231 0.266196
O O12 0.342270 0.097833 0.307825
O O13 0.127063 0.138608 0.547665
O O14 0.018109 0.310412 0.296752
O O15 0.500000 0.965896 0.500000
#
# Coordination Sequence:
#
# PCOD9123980 Si02
#       7
#     4   4   4   4   4   4   4
#     4   9  20  37  65  89 126 176 208 259 328 384
#     4  11  21  36  66  92 120 172 216 262 317 385
#     4  11  21  36  63  93 121 165 220 260 324 384
#     4  11  21  37  62  90 129 165 211 269 319 370
#     4  11  19  37  58  92 126 159 205 278 306 379
#     4  11  18  42  64  88 130 166 209 265 324 370
#     4  10  20  41  61  86 127 171 213 261 316 389
#
# _framework density 25.786774000000001
#
# number of rings (size 3 to 8) (size 9 to 14) (size 15 to 20)
#    0.000    1.429    7.143    0.429    4.000    0.571 
#    2.571    0.000    6.286    1.714    0.000    0.000 
#    0.000    0.000    0.000    0.000    0.000    0.000 
#
# Total GULP energy -78017.577237 kJ/mol
# GULP energy per Si atom -5572.684088 kJ/mol
# Density = 2.572808 g / cm^3
# Si number density = 25.786774 Si / 1000 Ang^3
#
#
#
# Elastic Constant Matrix: (Units=GPa)
#
#
# Indices 1 2 3 4 5 6 
#
# 1 137.0266 -2.1444 38.3007 0.0000 -8.6393 0.0000
# 2 -2.1444 64.2390 -2.1260 0.0000 -9.3376 0.0000
# 3 38.3007 -2.1260 103.7674 0.0000 -20.2827 0.0000
# 4 0.0000 0.0000 0.0000 6.9154 0.0000 5.5509
# 5 -8.6393 -9.3376 -20.2827 0.0000 59.3682 0.0000
# 6 0.0000 0.0000 0.0000 5.5509 0.0000 8.8932
#
#
#
# Elastic Compliance Matrix: (Units=1/GPa)
#
#
# Indices 1 2 3 4 5 6 
#
# 1 0.008142 0.000204 -0.002961 0.000000 0.000205 0.000000
# 2 0.000204 0.016011 0.000805 0.000000 0.002823 0.000000
# 3 -0.002961 0.000805 0.011451 0.000000 0.003608 0.000000
# 4 0.000000 0.000000 0.000000 0.289798 0.000000 -0.180883
# 5 0.000205 0.002823 0.003608 0.000000 0.018551 0.000000
# 6 0.000000 0.000000 0.000000 -0.180883 0.000000 0.225347
#
#
# Mechanical properties :
#
#
# Convention : Reuss Voigt Hill
#
# Bulk Modulus (GPa) = 31.54715 41.45483 36.50099
# Shear Modulus (GPa) = 8.56502 33.10221 20.83362
#
# Velocity S-wave (km/s) = 1.82447 3.58675 2.84547
# Velocity P-wave (km/s) = 4.08640 5.76749 4.99813
#
# Compressibility (1/GPa) = 0.03169859
#
# Stress axis : x y z
#
# Youngs Moduli (GPa) = 122.82670 62.45861 87.32498
#
# Poissons Ratio (x) = -0.01272 0.25855
# Poissons Ratio (y) = -0.02501 -0.07026
# Poissons Ratio (z) = 0.36366 -0.05025
#
# Static dielectric constant tensor:
#      x y z
#    x 2.127220 0.000000 0.041990 
#    y 0.000000 2.029350 0.000000 
#    z 0.041990 0.000000 1.993590 
# 
# From -- ./inp_files/20346.got.cif
#   From: 2010.05.17/outbox.cif.g08.bks.cpg/sg5_11_cif.got.tgz:20346.got - 2010.06.03 18:56:24.
