data_PCOD9123242
_publ_section_title
;
Structure prediction by ZEFSAII (Michael W. Deem and Ramdas Pophale) SiO2 
 PCOD9123242
Probable space group: C 2
;
_chemical_formula_sum "Si O2"
_cell_formula_units_Z 28
_cell_length_a 8.966805
_cell_length_b 11.463011
_cell_length_c 14.859734
_cell_angle_alpha 90.000000
_cell_angle_beta 112.551401
_cell_angle_gamma 90.000000
_cell_volume 1410.591388
_symmetry_space_group_name_H-M "C 2"
_symmetry_group_IT_number 5
_symmetry_cell_setting 'monoclinic'
loop_
_space_group_symop_operation_xyz
x,y,z
-x,y,-z
1/2+x,1/2+y,z
1/2-x,1/2+y,-z
loop_
_atom_site_type_symbol
_atom_site_label
_atom_site_fract_x
_atom_site_fract_y
_atom_site_fract_z
Si Si1 0.758332 0.170990 0.863956
Si Si2 0.143650 0.086158 0.739244
Si Si3 0.087942 0.290170 0.265953
Si Si4 0.310139 0.182422 0.948350
Si Si5 0.903172 0.737372 0.712508
Si Si6 0.932266 0.867202 0.390791
Si Si7 0.240554 0.404780 0.813597
O O1 0.864808 0.254926 0.825466
O O2 0.572401 0.204990 0.799107
O O3 0.787629 0.037233 0.841510
O O4 0.774919 0.178684 0.974824
O O5 0.227891 0.095999 0.856713
O O6 0.277267 0.134050 0.700357
O O7 0.999773 0.178812 0.711523
O O8 0.082993 0.963740 0.690607
O O9 0.251236 0.318893 0.355490
O O10 0.953699 0.391283 0.236633
O O11 0.292293 0.312634 0.903039
O O12 0.500000 0.154777 0.000000
O O13 0.821441 0.847428 0.744427
O O14 0.948930 0.768987 0.621677
O O15 0.000000 0.912992 0.500000
#
# Coordination Sequence:
#
# PCOD9123242 Si02
#       7
#     4   4   4   4   4   4   4
#     4  11  19  36  59  82 119 160 193 235 287 336
#     4  10  21  40  60  84 126 152 193 243 295 345
#     4   9  22  38  57  88 114 146 204 247 280 350
#     4  10  20  38  55  91 121 161 199 228 284 357
#     4   9  20  39  59  82 119 151 192 250 288 345
#     4  11  23  39  63  88 112 156 200 245 304 348
#     4  10  21  38  57  81 120 157 191 241 290 338
#
# _framework density 19.849829
#
# number of rings (size 3 to 8) (size 9 to 14) (size 15 to 20)
#    0.000    2.286    2.857    1.714    0.000    5.714 
#    5.143    2.143    0.000    0.000    0.000    0.000 
#    0.000    0.000    0.000    0.000    0.000    0.000 
#
# Total GULP energy -78137.838294 kJ/mol
# GULP energy per Si atom -5581.274164 kJ/mol
# Density = 1.980465 g / cm^3
# Si number density = 19.849829 Si / 1000 Ang^3
#
#
#
# Elastic Constant Matrix: (Units=GPa)
#
#
# Indices 1 2 3 4 5 6 
#
# 1 53.4781 14.8304 4.9946 0.0000 8.6974 0.0000
# 2 14.8304 25.7909 25.7692 0.0000 4.8261 0.0000
# 3 4.9946 25.7692 67.6546 0.0000 13.4692 0.0000
# 4 0.0000 0.0000 0.0000 13.7120 0.0000 2.5547
# 5 8.6974 4.8261 13.4692 0.0000 14.1129 0.0000
# 6 0.0000 0.0000 0.0000 2.5547 0.0000 20.9269
#
#
#
# Elastic Compliance Matrix: (Units=1/GPa)
#
#
# Indices 1 2 3 4 5 6 
#
# 1 0.026942 -0.022159 0.010183 0.000000 -0.018745 0.000000
# 2 -0.022159 0.080853 -0.032562 0.000000 0.017084 0.000000
# 3 0.010183 -0.032562 0.031438 0.000000 -0.025145 0.000000
# 4 0.000000 0.000000 0.000000 0.074626 0.000000 -0.009110
# 5 -0.018745 0.017084 -0.025145 0.000000 0.100565 0.000000
# 6 0.000000 0.000000 0.000000 -0.009110 0.000000 0.048897
#
#
# Mechanical properties :
#
#
# Convention : Reuss Voigt Hill
#
# Bulk Modulus (GPa) = 19.93740 26.45688 23.19714
# Shear Modulus (GPa) = 10.65835 16.50564 13.58199
#
# Velocity S-wave (km/s) = 2.31973 2.88675 2.61863
# Velocity P-wave (km/s) = 4.15220 4.94657 4.56669
#
# Compressibility (1/GPa) = 0.05015698
#
# Stress axis : x y z
#
# Youngs Moduli (GPa) = 37.11696 12.36815 31.80887
#
# Poissons Ratio (x) = 0.27407 -0.32392
# Poissons Ratio (y) = 0.82248 1.03575
# Poissons Ratio (z) = -0.37797 0.40273
#
# Static dielectric constant tensor:
#      x y z
#    x 1.727650 0.000000 -0.005130 
#    y 0.000000 1.683590 0.000000 
#    z -0.005130 0.000000 1.681580 
# 
# From -- ./inp_files/50149.got.cif
#   From: 2010.05.17/outbox.cif.g08.bks.cpg/sg5_26_cif.got.tgz:50149.got - 2010.06.03 18:56:24.
