data_PCOD9123701
_publ_section_title
;
Structure prediction by ZEFSAII (Michael W. Deem and Ramdas Pophale) SiO2 
 PCOD9123701
Probable space group: C 2
;
_chemical_formula_sum "Si O2"
_cell_formula_units_Z 28
_cell_length_a 12.123668
_cell_length_b 7.296772
_cell_length_c 33.032456
_cell_angle_alpha 90.000000
_cell_angle_beta 158.746161
_cell_angle_gamma 90.000000
_cell_volume 1059.288526
_symmetry_space_group_name_H-M "C 2"
_symmetry_group_IT_number 5
_symmetry_cell_setting 'monoclinic'
loop_
_space_group_symop_operation_xyz
x,y,z
-x,y,-z
1/2+x,1/2+y,z
1/2-x,1/2+y,-z
loop_
_atom_site_type_symbol
_atom_site_label
_atom_site_fract_x
_atom_site_fract_y
_atom_site_fract_z
Si Si1 0.291070 0.127940 0.202716
Si Si2 0.341397 0.501578 0.109005
Si Si3 0.255422 0.336945 0.482459
Si Si4 0.897403 0.998641 0.717672
Si Si5 0.481428 0.553731 0.664205
Si Si6 0.159293 0.565271 0.871265
Si Si7 0.853209 0.673605 0.596731
O O1 0.360604 0.337877 0.212559
O O2 0.358000 0.034056 0.182939
O O3 0.471822 0.076855 0.305920
O O4 0.958290 0.078918 0.106297
O O5 0.521906 0.570267 0.210403
O O6 0.355677 0.280021 0.118872
O O7 0.000000 0.557813 0.000000
O O8 0.298885 0.364541 0.600292
O O9 0.452820 0.262389 0.586900
O O10 0.366844 0.517752 0.496960
O O11 0.157123 0.183874 0.416998
O O12 0.925916 0.134166 0.689710
O O13 0.571891 0.899150 0.610847
O O14 0.834790 0.500566 0.777704
O O15 0.500000 0.501793 0.000000
#
# Coordination Sequence:
#
# PCOD9123701 Si02
#       7
#     4   4   4   4   4   4   4
#     4  10  20  41  66  99 139 180 228 292 343 409
#     4  10  20  39  69  99 139 187 234 290 352 415
#     4  12  22  48  68 104 141 188 235 298 346 423
#     4  10  23  42  67  94 146 177 234 296 345 415
#     4  11  23  44  70 101 142 187 232 292 350 418
#     4  10  22  43  69 102 140 186 235 290 353 418
#     4  11  24  42  74 101 141 186 239 283 362 420
#
# _framework density 26.432836999999999
#
# number of rings (size 3 to 8) (size 9 to 14) (size 15 to 20)
#    0.000    1.429    5.714    0.000    2.000    2.286 
#    5.143    2.857    0.000    0.000    0.000    0.000 
#    0.000    0.000    0.000    0.000    0.000    0.000 
#
# Total GULP energy -78082.936488 kJ/mol
# GULP energy per Si atom -5577.352606 kJ/mol
# Density = 2.637268 g / cm^3
# Si number density = 26.432837 Si / 1000 Ang^3
#
#
#
# Elastic Constant Matrix: (Units=GPa)
#
#
# Indices 1 2 3 4 5 6 
#
# 1 216.4288 6.2185 53.7615 -0.0018 -0.6681 0.0013
# 2 6.2185 86.3930 18.1028 0.0011 6.8053 0.0013
# 3 53.7615 18.1028 123.6909 -0.0006 -2.7003 -0.0008
# 4 -0.0018 0.0011 -0.0006 7.8057 0.0006 -8.2257
# 5 -0.6681 6.8053 -2.7003 0.0006 59.6162 -0.0010
# 6 0.0013 0.0013 -0.0008 -8.2257 -0.0010 18.0422
#
#
#
# Elastic Compliance Matrix: (Units=1/GPa)
#
#
# Indices 1 2 3 4 5 6 
#
# 1 0.005181 0.000107 -0.002269 0.000001 -0.000057 0.000000
# 2 0.000107 0.012069 -0.001845 -0.000006 -0.001460 -0.000004
# 3 -0.002269 -0.001845 0.009354 0.000002 0.000609 0.000002
# 4 0.000001 -0.000006 0.000002 0.246582 0.000000 0.112421
# 5 -0.000057 -0.001460 0.000609 0.000000 0.016968 0.000001
# 6 0.000000 -0.000004 0.000002 0.112421 0.000001 0.106680
#
#
# Mechanical properties :
#
#
# Convention : Reuss Voigt Hill
#
# Bulk Modulus (GPa) = 53.79011 64.74202 59.26606
# Shear Modulus (GPa) = 12.16417 40.32149 26.24283
#
# Velocity S-wave (km/s) = 2.14754 3.90991 3.15431
# Velocity P-wave (km/s) = 5.15200 6.70294 5.97798
#
# Compressibility (1/GPa) = 0.01859078
#
# Stress axis : x y z
#
# Youngs Moduli (GPa) = 193.02211 82.85783 106.90605
#
# Poissons Ratio (x) = -0.00886 0.24254
# Poissons Ratio (y) = -0.02065 0.19721
# Poissons Ratio (z) = 0.43790 0.15285
#
# Static dielectric constant tensor:
#      x y z
#    x 2.232600 0.000000 0.126680 
#    y 0.000000 2.158050 0.000000 
#    z 0.126680 0.000000 2.194390 
# 
# From -- ./inp_files/70365.got.cif
#   From: 2010.05.17/outbox.cif.g08.bks.cpg/sg5_36_cif.got.tgz:70365.got - 2010.06.03 18:56:24.
