data_PCOD9123533
_publ_section_title
;
Structure prediction by ZEFSAII (Michael W. Deem and Ramdas Pophale) SiO2 
 PCOD9123533
Probable space group: C 2
;
_chemical_formula_sum "Si O2"
_cell_formula_units_Z 26
_cell_length_a 14.794020
_cell_length_b 12.037612
_cell_length_c 7.105375
_cell_angle_alpha 90.000000
_cell_angle_beta 65.637466
_cell_angle_gamma 90.000000
_cell_volume 1152.682769
_symmetry_space_group_name_H-M "C 2"
_symmetry_group_IT_number 5
_symmetry_cell_setting 'monoclinic'
loop_
_space_group_symop_operation_xyz
x,y,z
-x,y,-z
1/2+x,1/2+y,z
1/2-x,1/2+y,-z
loop_
_atom_site_type_symbol
_atom_site_label
_atom_site_fract_x
_atom_site_fract_y
_atom_site_fract_z
Si Si1 0.121584 0.236440 0.729598
Si Si2 0.355293 0.968150 0.177160
Si Si3 0.831508 0.432824 0.780961
Si Si4 0.000000 0.805568 0.500000
Si Si5 0.155325 0.953630 0.184724
Si Si6 0.337339 0.137866 0.485561
Si Si7 0.087973 0.199262 0.205874
O O1 0.098813 0.368283 0.744002
O O2 0.227664 0.190500 0.577559
O O3 0.030467 0.182988 0.696174
O O4 0.115267 0.215962 0.960847
O O5 0.617019 0.971192 0.066164
O O6 0.239229 0.930383 0.269881
O O7 0.364929 0.086311 0.261655
O O8 0.840833 0.529942 0.621445
O O9 0.873628 0.308494 0.716844
O O10 0.715187 0.425506 0.941908
O O11 0.057426 0.883919 0.303124
O O12 0.083448 0.727459 0.517261
O O13 0.137343 0.084104 0.216382
#
# Coordination Sequence:
#
# PCOD9123533 Si02
#       7
#     4   4   4   2   4   4   4
#     4  10  20  39  61  97 128 163 223 272 312 396
#     4   9  22  41  64  91 131 169 213 274 326 382
#     4   9  22  44  68  95 130 173 231 267 329 401
#     4  12  26  42  66 100 144 170 216 294 346 378
#     4  10  22  44  66  93 136 177 211 282 339 386
#     4  12  23  43  68  93 137 176 213 279 339 395
#     4  10  20  38  70  91 125 176 221 272 322 392
#
# _framework density 22.556075
#
# number of rings (size 3 to 8) (size 9 to 14) (size 15 to 20)
#    0.923    0.923    3.077    0.000    4.308    1.231 
#    0.000    0.000   10.154    0.000    0.000    0.000 
#    0.000    0.000    0.000    0.000    0.000    0.000 
#
# Total GULP energy -72588.773556 kJ/mol
# GULP energy per Si atom -5583.751812 kJ/mol
# Density = 2.250474 g / cm^3
# Si number density = 22.556075 Si / 1000 Ang^3
#
#
#
# Elastic Constant Matrix: (Units=GPa)
#
#
# Indices 1 2 3 4 5 6 
#
# 1 76.1032 34.4341 21.3158 0.0000 -25.2421 0.0000
# 2 34.4341 103.1797 37.4087 0.0000 -18.0035 0.0000
# 3 21.3158 37.4087 65.2540 0.0000 -9.2178 0.0000
# 4 0.0000 0.0000 0.0000 37.4041 0.0000 -3.5301
# 5 -25.2421 -18.0035 -9.2178 0.0000 24.8592 0.0000
# 6 0.0000 0.0000 0.0000 -3.5301 0.0000 16.9842
#
#
#
# Elastic Compliance Matrix: (Units=1/GPa)
#
#
# Indices 1 2 3 4 5 6 
#
# 1 0.021382 -0.002916 -0.002685 0.000000 0.018604 0.000000
# 2 -0.002916 0.013755 -0.006272 0.000000 0.004674 0.000000
# 3 -0.002685 -0.006272 0.019808 0.000000 0.000076 0.000000
# 4 0.000000 0.000000 0.000000 0.027270 0.000000 0.005668
# 5 0.018604 0.004674 0.000076 0.000000 0.062531 0.000000
# 6 0.000000 0.000000 0.000000 0.005668 0.000000 0.060056
#
#
# Mechanical properties :
#
#
# Convention : Reuss Voigt Hill
#
# Bulk Modulus (GPa) = 32.05300 47.87266 39.96283
# Shear Modulus (GPa) = 20.92500 25.94138 23.43319
#
# Velocity S-wave (km/s) = 3.04910 3.39497 3.22667
# Velocity P-wave (km/s) = 5.16113 6.05291 5.62472
#
# Compressibility (1/GPa) = 0.03119832
#
# Stress axis : x y z
#
# Youngs Moduli (GPa) = 46.76787 72.70170 50.48378
#
# Poissons Ratio (x) = 0.21202 0.13554
# Poissons Ratio (y) = 0.13639 0.31665
# Poissons Ratio (z) = 0.12556 0.45601
#
# Static dielectric constant tensor:
#      x y z
#    x 1.824150 0.000000 0.001880 
#    y 0.000000 1.779220 0.000000 
#    z 0.001880 0.000000 1.905980 
# 
# From -- ./inp_files/23534.got.cif
#   From: 2010.05.17/outbox.cif.g08.bks.cpg/sg5_12_cif.got.tgz:23534.got - 2010.06.03 18:56:24.
