data_PCOD9123215
_publ_section_title
;
Structure prediction by ZEFSAII (Michael W. Deem and Ramdas Pophale) SiO2 
 PCOD9123215
Probable space group: C 2
;
_chemical_formula_sum "Si O2"
_cell_formula_units_Z 24
_cell_length_a 10.869881
_cell_length_b 10.859399
_cell_length_c 10.445083
_cell_angle_alpha 90.000000
_cell_angle_beta 52.833174
_cell_angle_gamma 90.000000
_cell_volume 982.506241
_symmetry_space_group_name_H-M "C 2"
_symmetry_group_IT_number 5
_symmetry_cell_setting 'monoclinic'
loop_
_space_group_symop_operation_xyz
x,y,z
-x,y,-z
1/2+x,1/2+y,z
1/2-x,1/2+y,-z
loop_
_atom_site_type_symbol
_atom_site_label
_atom_site_fract_x
_atom_site_fract_y
_atom_site_fract_z
Si Si1 0.346592 0.288630 0.667605
Si Si2 0.185377 0.084956 0.584468
Si Si3 0.185377 0.611557 0.084468
Si Si4 0.905793 0.458355 0.241448
Si Si5 0.653408 0.407882 0.832395
Si Si6 0.905793 0.238157 0.741448
O O1 0.500000 0.334856 0.500000
O O2 0.272325 0.187036 0.617459
O O3 0.374938 0.217078 0.781111
O O4 0.218846 0.393657 0.771260
O O5 0.038010 0.147048 0.612446
O O6 0.305222 0.027736 0.411208
O O7 0.125062 0.979434 0.718888
O O8 0.272325 0.509476 0.117459
O O9 0.038011 0.549465 0.112445
O O10 0.305222 0.668777 0.911208
O O11 1.000000 0.348257 0.250001
O O12 0.781153 0.302855 0.728741
O O13 0.500000 0.361657 0.000000
#
# Coordination Sequence:
#
# PCOD9123215 Si02
#       6
#     4   4   4   4   4   4
#     4  10  20  37  67  93 119 169 210 248 316 370
#     4  10  20  40  64  89 128 162 205 262 307 365
#     4  10  20  40  64  89 128 162 205 262 307 365
#     4  10  22  38  66  94 122 166 210 253 314 371
#     4  10  20  37  67  93 119 169 210 248 316 370
#     4  10  22  38  66  94 122 166 210 253 314 371
#
# _framework density 24.427325
#
# number of rings (size 3 to 8) (size 9 to 14) (size 15 to 20)
#    0.000    2.000    3.333    0.000    0.000    1.333 
#    0.000    1.667    0.000    0.000    0.000    0.000 
#    0.000    0.000    0.000    0.000    0.000    0.000 
#
# Total GULP energy -67212.274629 kJ/mol
# GULP energy per Si atom -5601.022886 kJ/mol
# Density = 2.437173 g / cm^3
# Si number density = 24.427325 Si / 1000 Ang^3
#
#
#
# Elastic Constant Matrix: (Units=GPa)
#
#
# Indices 1 2 3 4 5 6 
#
# 1 103.2893 61.7135 53.9791 0.0000 -20.9654 0.0000
# 2 61.7135 106.0401 65.1482 0.0000 -18.3915 0.0000
# 3 53.9791 65.1482 115.4673 0.0000 -33.9979 0.0000
# 4 0.0000 0.0000 0.0000 54.2853 0.0000 -33.2279
# 5 -20.9654 -18.3915 -33.9979 0.0000 44.3710 0.0000
# 6 0.0000 0.0000 0.0000 -33.2279 0.0000 42.9213
#
#
#
# Elastic Compliance Matrix: (Units=1/GPa)
#
#
# Indices 1 2 3 4 5 6 
#
# 1 0.015849 -0.007179 -0.002621 0.000000 0.002505 0.000000
# 2 -0.007179 0.017689 -0.007056 0.000000 -0.001467 0.000000
# 3 -0.002621 -0.007056 0.016324 0.000000 0.008344 0.000000
# 4 0.000000 0.000000 0.000000 0.035012 0.000000 0.027105
# 5 0.002505 -0.001467 0.008344 0.000000 0.029506 0.000000
# 6 0.000000 0.000000 0.000000 0.027105 0.000000 0.044282
#
#
# Mechanical properties :
#
#
# Convention : Reuss Voigt Hill
#
# Bulk Modulus (GPa) = 61.92235 76.27536 69.09885
# Shear Modulus (GPa) = 25.28327 37.91257 31.59792
#
# Velocity S-wave (km/s) = 3.22069 3.94389 3.60049
# Velocity P-wave (km/s) = 6.26380 7.21334 6.75527
#
# Compressibility (1/GPa) = 0.01614926
#
# Stress axis : x y z
#
# Youngs Moduli (GPa) = 63.09469 56.53121 61.25943
#
# Poissons Ratio (x) = 0.40585 0.16057
# Poissons Ratio (y) = 0.45297 0.43226
# Poissons Ratio (z) = 0.16538 0.39890
#
# Static dielectric constant tensor:
#      x y z
#    x 1.923750 0.000000 0.002610 
#    y 0.000000 1.955180 0.000000 
#    z 0.002610 0.000000 2.212200 
# 
# From -- ./inp_files/22797.got.cif
#   From: 2010.05.17/outbox.cif.g08.bks.cpg/sg5_12_cif.got.tgz:22797.got - 2010.06.03 18:56:24.
