data_PCOD9123123
_publ_section_title
;
Structure prediction by ZEFSAII (Michael W. Deem and Ramdas Pophale) SiO2 
 PCOD9123123
Probable space group: C 2
;
_chemical_formula_sum "Si O2"
_cell_formula_units_Z 30
_cell_length_a 14.332239
_cell_length_b 12.244563
_cell_length_c 7.234764
_cell_angle_alpha 90.000000
_cell_angle_beta 110.573099
_cell_angle_gamma 90.000000
_cell_volume 1188.671257
_symmetry_space_group_name_H-M "C 2"
_symmetry_group_IT_number 5
_symmetry_cell_setting 'monoclinic'
loop_
_space_group_symop_operation_xyz
x,y,z
-x,y,-z
1/2+x,1/2+y,z
1/2-x,1/2+y,-z
loop_
_atom_site_type_symbol
_atom_site_label
_atom_site_fract_x
_atom_site_fract_y
_atom_site_fract_z
Si Si1 0.860544 0.373490 0.385120
Si Si2 0.902680 0.717966 0.699292
Si Si3 0.500000 0.069206 0.500000
Si Si4 0.681384 0.649046 0.520666
Si Si5 0.133483 0.948753 0.227960
Si Si6 0.610306 0.808924 0.016082
Si Si7 0.306411 0.587614 0.035628
Si Si8 0.615123 0.032832 0.043955
O O1 0.878894 0.262836 0.514160
O O2 0.743019 0.393021 0.303385
O O3 0.897253 0.349749 0.202217
O O4 0.913875 0.482756 0.486840
O O5 0.794117 0.684631 0.535243
O O6 0.927545 0.844387 0.744116
O O7 0.885124 0.654821 0.877262
O O8 0.991897 0.652669 0.663269
O O9 0.637498 0.552638 0.366273
O O10 0.680855 0.605374 0.734727
O O11 0.122250 0.999789 0.014873
O O12 0.500000 0.776289 0.000000
O O13 0.677194 0.702399 0.053329
O O14 0.656514 0.915298 0.151155
O O15 0.192339 0.549231 0.930399
O O16 0.500000 0.003212 0.000000
#
# Coordination Sequence:
#
# PCOD9123123 Si02
#       8
#     4   4   2   4   4   4   4   4
#     4  10  21  37  63  93 125 157 219 264 304 379
#     4  10  23  37  60  92 131 156 216 260 307 386
#     4  12  20  38  62  94 118 172 198 268 324 354
#     4   9  21  42  61  95 122 164 214 258 306 386
#     4  11  21  44  62  90 130 172 199 261 321 378
#     4  10  20  39  62  93 126 160 216 269 304 377
#     4  10  22  39  67  94 125 167 207 263 324 371
#     4  10  20  37  62  92 124 161 213 264 306 373
#
# _framework density 25.238265999999999
#
# number of rings (size 3 to 8) (size 9 to 14) (size 15 to 20)
#    0.000    1.867    2.667    2.400    0.000    2.133 
#    2.400    6.667    0.000    0.000    0.000    0.000 
#    0.000    0.000    0.000    0.000    0.000    0.000 
#
# Total GULP energy -83577.949124 kJ/mol
# GULP energy per Si atom -5571.863275 kJ/mol
# Density = 2.518082 g / cm^3
# Si number density = 25.238266 Si / 1000 Ang^3
#
#
#
# Elastic Constant Matrix: (Units=GPa)
#
#
# Indices 1 2 3 4 5 6 
#
# 1 67.0775 49.8058 9.7324 0.0000 -14.2240 0.0000
# 2 49.8058 218.1086 50.0451 0.0000 -17.0711 0.0000
# 3 9.7324 50.0451 79.0430 0.0000 -15.9286 0.0000
# 4 0.0000 0.0000 0.0000 38.6960 0.0000 -15.9907
# 5 -14.2240 -17.0711 -15.9286 0.0000 23.7590 0.0000
# 6 0.0000 0.0000 0.0000 -15.9907 0.0000 33.6962
#
#
#
# Elastic Compliance Matrix: (Units=1/GPa)
#
#
# Indices 1 2 3 4 5 6 
#
# 1 0.019962 -0.004282 0.002360 0.000000 0.010457 0.000000
# 2 -0.004282 0.006352 -0.003574 0.000000 -0.000396 0.000000
# 3 0.002360 -0.003574 0.016639 0.000000 0.010000 0.000000
# 4 0.000000 0.000000 0.000000 0.032147 0.000000 0.015255
# 5 0.010457 -0.000396 0.010000 0.000000 0.054770 0.000000
# 6 0.000000 0.000000 0.000000 0.015255 0.000000 0.036916
#
#
# Mechanical properties :
#
#
# Convention : Reuss Voigt Hill
#
# Bulk Modulus (GPa) = 31.28727 64.82174 48.05450
# Shear Modulus (GPa) = 26.53503 36.20662 31.37083
#
# Velocity S-wave (km/s) = 3.24602 3.79171 3.52943
# Velocity P-wave (km/s) = 5.14514 6.70142 5.97418
#
# Compressibility (1/GPa) = 0.03196188
#
# Stress axis : x y z
#
# Youngs Moduli (GPa) = 50.09463 157.43894 60.10054
#
# Poissons Ratio (x) = 0.67408 -0.14185
# Poissons Ratio (y) = 0.21448 0.21480
# Poissons Ratio (z) = -0.11823 0.56269
#
# Static dielectric constant tensor:
#      x y z
#    x 2.034230 0.000000 0.071960 
#    y 0.000000 1.993000 0.000000 
#    z 0.071960 0.000000 2.195600 
# 
# From -- ./inp_files/23637.got.cif
#   From: 2010.05.17/outbox.cif.g08.bks.cpg/sg5_12_cif.got.tgz:23637.got - 2010.06.03 18:56:24.
