data_PCOD9123488
_publ_section_title
;
Structure prediction by ZEFSAII (Michael W. Deem and Ramdas Pophale) SiO2 
 PCOD9123488
Probable space group: C 2
;
_chemical_formula_sum "Si O2"
_cell_formula_units_Z 26
_cell_length_a 18.006699
_cell_length_b 7.330904
_cell_length_c 24.000324
_cell_angle_alpha 90.000000
_cell_angle_beta 160.441861
_cell_angle_gamma 90.000000
_cell_volume 1060.587379
_symmetry_space_group_name_H-M "C 2"
_symmetry_group_IT_number 5
_symmetry_cell_setting 'monoclinic'
loop_
_space_group_symop_operation_xyz
x,y,z
-x,y,-z
1/2+x,1/2+y,z
1/2-x,1/2+y,-z
loop_
_atom_site_type_symbol
_atom_site_label
_atom_site_fract_x
_atom_site_fract_y
_atom_site_fract_z
Si Si1 0.565272 0.390020 0.380500
Si Si2 0.405082 0.236135 0.161296
Si Si3 0.110970 0.899780 0.961947
Si Si4 0.011085 0.477228 0.643023
Si Si5 0.720177 0.108964 0.623657
Si Si6 0.000000 0.818949 0.000000
Si Si7 0.658781 0.516146 0.558422
O O1 0.445376 0.397275 0.235300
O O2 0.830798 0.391774 0.557832
O O3 0.489790 0.192597 0.346546
O O4 0.522930 0.521703 0.403166
O O5 0.292814 0.304615 0.025171
O O6 0.636284 0.151256 0.303617
O O7 0.269267 0.067582 0.091251
O O8 0.895994 0.007529 0.786365
O O9 0.060391 0.764150 0.977900
O O10 0.877600 0.471113 0.490997
O O11 0.261323 0.410838 0.818031
O O12 0.500000 0.157765 0.500000
O O13 0.773954 0.313677 0.640965
O O14 0.500000 0.548561 0.500000
#
# Coordination Sequence:
#
# PCOD9123488 Si02
#       7
#     4   4   4   4   4   2   4
#     4  11  21  42  68  99 136 181 227 278 349 417
#     4  12  25  45  66 100 139 184 229 290 347 416
#     4  12  25  42  68  98 141 181 229 289 345 414
#     4  11  22  40  71 100 133 182 230 288 342 414
#     4  10  20  38  66  97 127 178 227 272 340 411
#     4  12  24  42  68 108 140 172 238 294 340 408
#     4  10  23  41  66  98 134 175 229 280 342 416
#
# _framework density 24.514717000000001
#
# number of rings (size 3 to 8) (size 9 to 14) (size 15 to 20)
#    0.000    0.923    6.154    0.923    0.000    3.077 
#    0.000    0.000    0.000    1.846    0.000    0.000 
#    0.000    0.000    0.000    0.000    0.000    0.000 
#
# Total GULP energy -72408.772097 kJ/mol
# GULP energy per Si atom -5569.905546 kJ/mol
# Density = 2.445892 g / cm^3
# Si number density = 24.514717 Si / 1000 Ang^3
#
#
#
# Elastic Constant Matrix: (Units=GPa)
#
#
# Indices 1 2 3 4 5 6 
#
# 1 158.3013 1.8642 44.5231 0.0037 -24.9736 -0.0004
# 2 1.8642 37.6769 23.4548 0.0013 1.1686 -0.0003
# 3 44.5231 23.4548 108.5317 0.0254 -1.5373 -0.0031
# 4 0.0037 0.0013 0.0254 27.7199 -0.0009 -3.0595
# 5 -24.9736 1.1686 -1.5373 -0.0009 38.6517 -0.0008
# 6 -0.0004 -0.0003 -0.0031 -3.0595 -0.0008 23.6398
#
#
#
# Elastic Compliance Matrix: (Units=1/GPa)
#
#
# Indices 1 2 3 4 5 6 
#
# 1 0.008112 0.001698 -0.003623 0.000002 0.005046 0.000000
# 2 0.001698 0.031078 -0.007415 0.000005 -0.000138 0.000000
# 3 -0.003623 -0.007415 0.012280 -0.000010 -0.001629 0.000000
# 4 0.000002 0.000005 -0.000010 0.036598 0.000002 0.004737
# 5 0.005046 -0.000138 -0.001629 0.000002 0.029072 0.000001
# 6 0.000000 0.000000 0.000000 0.004737 0.000001 0.042915
#
#
# Mechanical properties :
#
#
# Convention : Reuss Voigt Hill
#
# Bulk Modulus (GPa) = 30.49804 49.35489 39.92646
# Shear Modulus (GPa) = 26.36247 33.64681 30.00464
#
# Velocity S-wave (km/s) = 3.28285 3.70877 3.50229
# Velocity P-wave (km/s) = 5.18046 6.20616 5.71636
#
# Compressibility (1/GPa) = 0.03278900
#
# Stress axis : x y z
#
# Youngs Moduli (GPa) = 123.27104 32.17760 81.43596
#
# Poissons Ratio (x) = -0.05463 0.29507
# Poissons Ratio (y) = -0.20928 0.60381
# Poissons Ratio (z) = 0.44665 0.23858
#
# Static dielectric constant tensor:
#      x y z
#    x 1.945680 -0.000010 -0.123390 
#    y -0.000010 2.036420 -0.000010 
#    z -0.123390 -0.000010 2.005930 
# 
# From -- ./inp_files/69178.got.cif
#   From: 2010.05.17/outbox.cif.g08.bks.cpg/sg5_35_cif.got.tgz:69178.got - 2010.06.03 18:56:24.
