data_PCOD9123398
_publ_section_title
;
Structure prediction by ZEFSAII (Michael W. Deem and Ramdas Pophale) SiO2 
 PCOD9123398
Probable space group: C 2
;
_chemical_formula_sum "Si O2"
_cell_formula_units_Z 28
_cell_length_a 13.986285
_cell_length_b 5.588762
_cell_length_c 15.310065
_cell_angle_alpha 90.000000
_cell_angle_beta 108.868544
_cell_angle_gamma 90.000000
_cell_volume 1132.418370
_symmetry_space_group_name_H-M "C 2"
_symmetry_group_IT_number 5
_symmetry_cell_setting 'monoclinic'
loop_
_space_group_symop_operation_xyz
x,y,z
-x,y,-z
1/2+x,1/2+y,z
1/2-x,1/2+y,-z
loop_
_atom_site_type_symbol
_atom_site_label
_atom_site_fract_x
_atom_site_fract_y
_atom_site_fract_z
Si Si1 0.126002 0.426440 0.932745
Si Si2 0.895970 0.721754 0.292952
Si Si3 0.437671 0.066150 0.775918
Si Si4 0.346194 0.691077 0.614597
Si Si5 0.239227 0.311871 0.708227
Si Si6 0.781386 0.929268 0.114242
Si Si7 0.143799 0.944829 0.546456
O O1 0.172046 0.681713 0.912432
O O2 0.009765 0.451498 0.870070
O O3 0.168414 0.176376 0.904889
O O4 0.167151 0.420835 0.044337
O O5 0.845694 0.460299 0.265329
O O6 0.813460 0.897617 0.224617
O O7 0.909134 0.766046 0.400095
O O8 0.994089 0.747033 0.262105
O O9 0.336975 0.191098 0.782182
O O10 0.406206 0.877148 0.691705
O O11 0.297222 0.509833 0.667689
O O12 0.247544 0.821049 0.544365
O O13 0.405234 0.563668 0.553121
O O14 0.181106 0.152001 0.621412
#
# Coordination Sequence:
#
# PCOD9123398 Si02
#       7
#     4   4   4   4   4   4   4
#     4   9  19  37  65  98 128 170 221 270 332 406
#     4  10  23  38  66  96 128 168 222 276 333 402
#     4  10  23  38  66  96 128 168 222 276 333 402
#     4  10  20  38  64  84 123 171 214 263 328 393
#     4  10  22  40  62  91 122 170 213 272 330 392
#     4   9  19  37  65  98 128 170 221 270 332 406
#     4  10  20  38  64  84 123 171 214 263 328 393
#
# _framework density 24.725845
#
# number of rings (size 3 to 8) (size 9 to 14) (size 15 to 20)
#    0.000    2.286    1.429    0.000    8.000    0.000 
#    0.000    4.286    0.000    9.429    0.000    0.000 
#    0.000    0.000    0.000    0.000    0.000    0.000 
#
# Total GULP energy -78103.821378 kJ/mol
# GULP energy per Si atom -5578.844384 kJ/mol
# Density = 2.466957 g / cm^3
# Si number density = 24.725845 Si / 1000 Ang^3
#
#
#
# Elastic Constant Matrix: (Units=GPa)
#
#
# Indices 1 2 3 4 5 6 
#
# 1 71.9331 17.0708 -5.8762 0.0000 9.2907 0.0000
# 2 17.0708 96.5507 19.8808 0.0000 3.2279 0.0000
# 3 -5.8762 19.8808 89.1562 0.0000 6.9266 0.0000
# 4 0.0000 0.0000 0.0000 34.1369 0.0000 3.3634
# 5 9.2907 3.2279 6.9266 0.0000 33.1722 0.0000
# 6 0.0000 0.0000 0.0000 3.3634 0.0000 36.6822
#
#
#
# Elastic Compliance Matrix: (Units=1/GPa)
#
#
# Indices 1 2 3 4 5 6 
#
# 1 0.015347 -0.002981 0.002020 0.000000 -0.004430 0.000000
# 2 -0.002981 0.011445 -0.002772 0.000000 0.000300 0.000000
# 3 0.002020 -0.002772 0.012188 0.000000 -0.002841 0.000000
# 4 0.000000 0.000000 0.000000 0.029561 0.000000 -0.002710
# 5 -0.004430 0.000300 -0.002841 0.000000 0.031951 0.000000
# 6 0.000000 0.000000 0.000000 -0.002710 0.000000 0.027510
#
#
# Mechanical properties :
#
#
# Convention : Reuss Voigt Hill
#
# Bulk Modulus (GPa) = 31.73159 35.53230 33.63195
# Shear Modulus (GPa) = 34.25329 35.90256 35.07793
#
# Velocity S-wave (km/s) = 3.72603 3.81468 3.77062
# Velocity P-wave (km/s) = 5.60110 5.81413 5.70861
#
# Compressibility (1/GPa) = 0.03151434
#
# Stress axis : x y z
#
# Youngs Moduli (GPa) = 65.16129 87.37357 82.04608
#
# Poissons Ratio (x) = 0.26049 -0.16577
# Poissons Ratio (y) = 0.19427 0.22743
# Poissons Ratio (z) = -0.13165 0.24219
#
# Static dielectric constant tensor:
#      x y z
#    x 1.974420 0.000000 0.016560 
#    y 0.000000 2.066050 0.000000 
#    z 0.016560 0.000000 2.001360 
# 
# From -- ./inp_files/61260.got.cif
#   From: 2010.05.17/outbox.cif.g08.bks.cpg/sg5_31_cif.got.tgz:61260.got - 2010.06.03 18:56:24.
