data_PCOD9123991
_publ_section_title
;
Structure prediction by ZEFSAII (Michael W. Deem and Ramdas Pophale) SiO2 
 PCOD9123991
Probable space group: C 2
;
_chemical_formula_sum "Si O2"
_cell_formula_units_Z 30
_cell_length_a 15.297660
_cell_length_b 10.895118
_cell_length_c 11.187033
_cell_angle_alpha 90.000000
_cell_angle_beta 54.839135
_cell_angle_gamma 90.000000
_cell_volume 1524.333657
_symmetry_space_group_name_H-M "C 2"
_symmetry_group_IT_number 5
_symmetry_cell_setting 'monoclinic'
loop_
_space_group_symop_operation_xyz
x,y,z
-x,y,-z
1/2+x,1/2+y,z
1/2-x,1/2+y,-z
loop_
_atom_site_type_symbol
_atom_site_label
_atom_site_fract_x
_atom_site_fract_y
_atom_site_fract_z
Si Si1 0.893538 0.066560 0.142719
Si Si2 0.013051 0.051657 0.677151
Si Si3 0.280287 0.674409 0.601637
Si Si4 0.000000 0.849004 0.500000
Si Si5 0.384465 0.905240 0.609794
Si Si6 0.277541 0.628960 0.872916
Si Si7 0.241609 0.905808 0.934319
Si Si8 0.682866 0.163196 0.422152
O O1 0.936196 0.016322 0.235613
O O2 0.794306 0.153895 0.259174
O O3 0.846737 0.964781 0.087773
O O4 0.000000 0.124659 0.000000
O O5 0.107345 0.114146 0.526688
O O6 0.907714 0.135021 0.775228
O O7 0.977449 0.933399 0.631953
O O8 0.300108 0.817062 0.612962
O O9 0.246582 0.621486 0.757034
O O10 0.206677 0.664450 0.544245
O O11 0.894654 0.771025 0.555804
O O12 0.500000 0.850664 0.500000
O O13 0.351100 0.915122 0.772996
O O14 0.377643 0.037543 0.558073
O O15 0.230143 0.758191 0.962541
O O16 0.252268 0.503419 0.963152
#
# Coordination Sequence:
#
# PCOD9123991 Si02
#       8
#     4   4   4   2   4   4   4   4
#     4  10  21  44  63  93 125 180 217 262 328 401
#     4  11  22  39  67  94 127 170 221 263 324 396
#     4  10  21  38  65  89 123 168 220 263 316 389
#     4  12  24  40  62 106 130 164 214 288 326 374
#     4  10  20  41  62  87 124 169 211 260 327 388
#     4  11  21  40  62  98 127 175 215 274 321 396
#     4  10  23  38  67  91 129 172 221 267 323 390
#     4  10  24  38  64  99 130 165 215 273 324 386
#
# _framework density 19.680730000000001
#
# number of rings (size 3 to 8) (size 9 to 14) (size 15 to 20)
#    0.000    1.600    3.333    1.600    7.467    2.133 
#    0.000    0.000    0.000    0.000    0.000    0.000 
#    0.000    0.000    0.000    0.000    0.000    0.000 
#
# Total GULP energy -83625.572859 kJ/mol
# GULP energy per Si atom -5575.038191 kJ/mol
# Density = 1.963594 g / cm^3
# Si number density = 19.680730 Si / 1000 Ang^3
#
#
#
# Elastic Constant Matrix: (Units=GPa)
#
#
# Indices 1 2 3 4 5 6 
#
# 1 98.5323 43.6907 41.8169 0.0000 4.5109 0.0000
# 2 43.6907 109.1674 49.2860 0.0000 15.4946 0.0000
# 3 41.8169 49.2860 88.4735 0.0000 7.2910 0.0000
# 4 0.0000 0.0000 0.0000 35.3283 0.0000 9.9385
# 5 4.5109 15.4946 7.2910 0.0000 23.2922 0.0000
# 6 0.0000 0.0000 0.0000 9.9385 0.0000 34.2132
#
#
#
# Elastic Compliance Matrix: (Units=1/GPa)
#
#
# Indices 1 2 3 4 5 6 
#
# 1 0.013601 -0.003556 -0.004542 0.000000 0.001154 0.000000
# 2 -0.003556 0.014096 -0.005600 0.000000 -0.006935 0.000000
# 3 -0.004542 -0.005600 0.016619 0.000000 -0.000597 0.000000
# 4 0.000000 0.000000 0.000000 0.030825 0.000000 -0.008954
# 5 0.001154 -0.006935 -0.000597 0.000000 0.047510 0.000000
# 6 0.000000 0.000000 0.000000 -0.008954 0.000000 0.031830
#
#
# Mechanical properties :
#
#
# Convention : Reuss Voigt Hill
#
# Bulk Modulus (GPa) = 59.10850 62.86226 60.98538
# Shear Modulus (GPa) = 26.66420 29.32536 27.99478
#
# Velocity S-wave (km/s) = 3.68481 3.86431 3.77563
# Velocity P-wave (km/s) = 6.94281 7.20562 7.07543
#
# Compressibility (1/GPa) = 0.01691804
#
# Stress axis : x y z
#
# Youngs Moduli (GPa) = 73.52494 70.94095 60.17334
#
# Poissons Ratio (x) = 0.25229 0.27333
# Poissons Ratio (y) = 0.26147 0.33698
# Poissons Ratio (z) = 0.33398 0.39728
#
# Static dielectric constant tensor:
#      x y z
#    x 1.647110 0.000000 -0.013590 
#    y 0.000000 1.703320 0.000000 
#    z -0.013590 0.000000 1.735110 
# 
# From -- ./inp_files/42449.got.cif
#   From: 2010.05.17/outbox.cif.g08.bks.cpg/sg5_22_cif.got.tgz:42449.got - 2010.06.03 18:56:24.
