data_PCOD9123781
_publ_section_title
;
Structure prediction by ZEFSAII (Michael W. Deem and Ramdas Pophale) SiO2 
 PCOD9123781
Probable space group: C 2
;
_chemical_formula_sum "Si O2"
_cell_formula_units_Z 26
_cell_length_a 23.805475
_cell_length_b 9.101443
_cell_length_c 7.940243
_cell_angle_alpha 90.000000
_cell_angle_beta 135.060966
_cell_angle_gamma 90.000000
_cell_volume 1215.187503
_symmetry_space_group_name_H-M "C 2"
_symmetry_group_IT_number 5
_symmetry_cell_setting 'monoclinic'
loop_
_space_group_symop_operation_xyz
x,y,z
-x,y,-z
1/2+x,1/2+y,z
1/2-x,1/2+y,-z
loop_
_atom_site_type_symbol
_atom_site_label
_atom_site_fract_x
_atom_site_fract_y
_atom_site_fract_z
Si Si1 0.080565 0.821440 0.909218
Si Si2 0.750401 0.372930 0.673708
Si Si3 0.586377 0.252470 0.320174
Si Si4 0.500000 0.681994 0.000000
Si Si5 0.045992 0.434197 0.342186
Si Si6 0.882073 0.517859 0.163470
Si Si7 0.663205 0.566027 0.212620
O O1 0.103087 0.691834 0.828523
O O2 0.984618 0.830942 0.724948
O O3 0.096199 0.778043 0.139704
O O4 0.137552 0.961765 0.001796
O O5 0.668738 0.306516 0.571091
O O6 0.724651 0.476908 0.461931
O O7 0.802586 0.228499 0.741932
O O8 0.800191 0.470728 0.907463
O O9 0.568813 0.079713 0.289357
O O10 0.541078 0.787802 0.224855
O O11 0.574578 0.586361 0.100776
O O12 0.104623 0.448318 0.625247
O O13 0.956007 0.453351 0.215137
#
# Coordination Sequence:
#
# PCOD9123781 Si02
#       7
#     4   4   4   2   4   4   4
#     4   9  18  38  63  87 116 160 206 247 301 380
#     4  11  21  37  57  94 125 157 198 264 313 357
#     4   9  18  34  61  84 119 153 205 244 305 369
#     4  12  22  40  64  92 122 170 222 246 296 380
#     4  10  21  38  66  89 117 171 208 252 301 376
#     4  10  20  40  63  88 125 159 210 256 313 366
#     4  11  23  35  64  93 124 162 206 258 304 368
#
# _framework density 21.395876999999999
#
# number of rings (size 3 to 8) (size 9 to 14) (size 15 to 20)
#    0.000    1.846    1.538    5.538    2.154    0.000 
#    2.769    0.000   16.923    0.000    0.000    0.000 
#    0.000    0.000    0.000    0.000    0.000    0.000 
#
# Total GULP energy -72455.595121 kJ/mol
# GULP energy per Si atom -5573.507317 kJ/mol
# Density = 2.134718 g / cm^3
# Si number density = 21.395877 Si / 1000 Ang^3
#
#
#
# Elastic Constant Matrix: (Units=GPa)
#
#
# Indices 1 2 3 4 5 6 
#
# 1 24.8015 15.9052 34.1465 0.0000 7.3927 0.0000
# 2 15.9052 75.1777 17.4514 0.0000 -3.5268 0.0000
# 3 34.1465 17.4514 104.6677 0.0000 25.9901 0.0000
# 4 0.0000 0.0000 0.0000 26.2120 0.0000 25.7908
# 5 7.3927 -3.5268 25.9901 0.0000 28.0148 0.0000
# 6 0.0000 0.0000 0.0000 25.7908 0.0000 10.2551
#
#
#
# Elastic Compliance Matrix: (Units=1/GPa)
#
#
# Indices 1 2 3 4 5 6 
#
# 1 0.081842 -0.011575 -0.024746 0.000000 -0.000097 0.000000
# 2 -0.011575 0.016046 -0.000207 0.000000 0.005266 0.000000
# 3 -0.024746 -0.000207 0.020849 0.000000 -0.012839 0.000000
# 4 0.000000 0.000000 0.000000 -0.025874 0.000000 0.065070
# 5 -0.000097 0.005266 -0.012839 0.000000 0.048295 0.000000
# 6 0.000000 0.000000 0.000000 0.065070 0.000000 -0.066133
#
#
# Mechanical properties :
#
#
# Convention : Reuss Voigt Hill
#
# Bulk Modulus (GPa) = 21.89073 37.73922 29.81498
# Shear Modulus (GPa) = 30.61695 22.03934 26.32814
#
# Velocity S-wave (km/s) = 3.78693 3.21296 3.51169
# Velocity P-wave (km/s) = 5.41983 5.60723 5.51432
#
# Compressibility (1/GPa) = 0.04568144
#
# Stress axis : x y z
#
# Youngs Moduli (GPa) = 12.21868 62.32150 47.96284
#
# Poissons Ratio (x) = 0.72139 1.18688
# Poissons Ratio (y) = 0.14143 0.00992
# Poissons Ratio (z) = 0.30236 0.01289
#
# Static dielectric constant tensor:
#      x y z
#    x 1.837330 0.000000 -0.046280 
#    y 0.000000 1.845300 0.000000 
#    z -0.046280 0.000000 1.839060 
# 
# From -- ./inp_files/31672.got.cif
#   From: 2010.05.17/outbox.cif.g08.bks.cpg/sg5_16_cif.got.tgz:31672.got - 2010.06.03 18:56:24.
