data_PCOD9123008
_publ_section_title
;
Structure prediction by ZEFSAII (Michael W. Deem and Ramdas Pophale) SiO2 
 PCOD9123008
Probable space group: C 2
;
_chemical_formula_sum "Si O2"
_cell_formula_units_Z 30
_cell_length_a 22.416252
_cell_length_b 8.836325
_cell_length_c 7.362531
_cell_angle_alpha 90.000000
_cell_angle_beta 93.472714
_cell_angle_gamma 90.000000
_cell_volume 1455.672290
_symmetry_space_group_name_H-M "C 2"
_symmetry_group_IT_number 5
_symmetry_cell_setting 'monoclinic'
loop_
_space_group_symop_operation_xyz
x,y,z
-x,y,-z
1/2+x,1/2+y,z
1/2-x,1/2+y,-z
loop_
_atom_site_type_symbol
_atom_site_label
_atom_site_fract_x
_atom_site_fract_y
_atom_site_fract_z
Si Si1 0.606977 0.531500 0.951576
Si Si2 0.834758 0.456200 0.656064
Si Si3 0.000000 0.808739 0.000000
Si Si4 0.682059 0.611125 0.291111
Si Si5 0.702229 0.942788 0.766510
Si Si6 0.036853 0.527490 0.234558
Si Si7 0.423998 0.879231 0.132808
Si Si8 0.713935 0.594318 0.727821
O O1 0.584643 0.698093 0.878029
O O2 0.665111 0.503007 0.836092
O O3 0.553542 0.412578 0.936064
O O4 0.629668 0.532938 0.165363
O O5 0.833482 0.286844 0.732077
O O6 0.810615 0.447571 0.449064
O O7 0.900758 0.525050 0.649550
O O8 0.782210 0.540834 0.752758
O O9 0.020651 0.695022 0.163956
O O10 0.742983 0.557341 0.202528
O O11 0.691434 0.586239 0.510735
O O12 0.638376 0.965173 0.846324
O O13 0.716388 0.766339 0.801031
O O14 0.975847 0.440045 0.278637
O O15 0.056580 0.433126 0.060847
#
# Coordination Sequence:
#
# PCOD9123008 Si02
#       8
#     4   4   2   4   4   4   4   4
#     4  11  21  38  64  81 112 160 187 242 296 331
#     4  10  20  37  58  83 119 153 184 239 293 334
#     4  10  24  38  58  86 114 152 202 238 284 346
#     4  10  21  36  60  90 114 153 190 234 294 343
#     4   9  20  37  57  86 117 146 192 240 282 349
#     4  10  21  37  57  81 115 151 192 244 276 349
#     4   9  19  37  56  82 112 145 200 232 277 353
#     4   9  22  38  56  92 119 142 195 240 281 352
#
# _framework density 20.609034999999999
#
# number of rings (size 3 to 8) (size 9 to 14) (size 15 to 20)
#    0.000    2.400    1.333    0.800    3.733    2.667 
#    0.000    0.667    5.867    0.000    0.000    0.000 
#    0.000    0.000    0.000    0.000    0.000    0.000 
#
# Total GULP energy -83523.559946 kJ/mol
# GULP energy per Si atom -5568.237330 kJ/mol
# Density = 2.056213 g / cm^3
# Si number density = 20.609035 Si / 1000 Ang^3
#
#
#
# Elastic Constant Matrix: (Units=GPa)
#
#
# Indices 1 2 3 4 5 6 
#
# 1 137.1046 56.1601 27.4564 0.0000 10.7552 0.0000
# 2 56.1601 61.8560 17.0189 0.0000 20.9412 0.0000
# 3 27.4564 17.0189 27.9247 0.0000 -1.8566 0.0000
# 4 0.0000 0.0000 0.0000 11.2130 0.0000 8.6696
# 5 10.7552 20.9412 -1.8566 0.0000 25.8713 0.0000
# 6 0.0000 0.0000 0.0000 8.6696 0.0000 37.1042
#
#
#
# Elastic Compliance Matrix: (Units=1/GPa)
#
#
# Indices 1 2 3 4 5 6 
#
# 1 0.012696 -0.011167 -0.005453 0.000000 0.003370 0.000000
# 2 -0.011167 0.040534 -0.015671 0.000000 -0.029292 0.000000
# 3 -0.005453 -0.015671 0.051965 0.000000 0.018681 0.000000
# 4 0.000000 0.000000 0.000000 0.108846 0.000000 -0.025433
# 5 0.003370 -0.029292 0.018681 0.000000 0.062302 0.000000
# 6 0.000000 0.000000 0.000000 -0.025433 0.000000 0.032894
#
#
# Mechanical properties :
#
#
# Convention : Reuss Voigt Hill
#
# Bulk Modulus (GPa) = 24.62325 47.57291 36.09808
# Shear Modulus (GPa) = 12.90802 23.25435 18.08118
#
# Velocity S-wave (km/s) = 2.50537 3.36275 2.96521
# Velocity P-wave (km/s) = 4.51031 6.18151 5.41082
#
# Compressibility (1/GPa) = 0.04061203
#
# Stress axis : x y z
#
# Youngs Moduli (GPa) = 78.76795 24.67067 19.24381
#
# Poissons Ratio (x) = 0.27550 0.10493
# Poissons Ratio (y) = 0.87962 0.30158
# Poissons Ratio (z) = 0.42949 0.38662
#
# Static dielectric constant tensor:
#      x y z
#    x 1.848340 0.000000 0.028890 
#    y 0.000000 1.732270 0.000000 
#    z 0.028890 0.000000 1.824750 
# 
# From -- ./inp_files/28975.got.cif
#   From: 2010.05.17/outbox.cif.g08.bks.cpg/sg5_15_cif.got.tgz:28975.got - 2010.06.03 18:56:24.
