data_PCOD9123402
_publ_section_title
;
Structure prediction by ZEFSAII (Michael W. Deem and Ramdas Pophale) SiO2 
 PCOD9123402
Probable space group: C 2
;
_chemical_formula_sum "Si O2"
_cell_formula_units_Z 24
_cell_length_a 17.004783
_cell_length_b 7.867102
_cell_length_c 10.677165
_cell_angle_alpha 90.000000
_cell_angle_beta 129.898861
_cell_angle_gamma 90.000000
_cell_volume 1095.816700
_symmetry_space_group_name_H-M "C 2"
_symmetry_group_IT_number 5
_symmetry_cell_setting 'monoclinic'
loop_
_space_group_symop_operation_xyz
x,y,z
-x,y,-z
1/2+x,1/2+y,z
1/2-x,1/2+y,-z
loop_
_atom_site_type_symbol
_atom_site_label
_atom_site_fract_x
_atom_site_fract_y
_atom_site_fract_z
Si Si1 0.132902 0.294210 0.861341
Si Si2 0.327506 0.942802 0.377724
Si Si3 0.941532 0.124888 0.572764
Si Si4 0.349557 0.152689 0.055598
Si Si5 0.391115 0.364649 0.850770
Si Si6 0.939874 0.744971 0.633195
O O1 0.144080 0.390635 0.736382
O O2 0.129707 0.455278 0.947606
O O3 0.030909 0.182563 0.759075
O O4 0.234103 0.182737 0.984691
O O5 0.355204 0.769137 0.480772
O O6 0.207343 0.982798 0.269659
O O7 0.393349 0.095078 0.502872
O O8 0.000000 0.129237 0.500000
O O9 0.907714 0.932698 0.557057
O O10 0.436521 0.226665 0.236750
O O11 0.359714 0.251763 0.936778
O O12 0.407862 0.246437 0.746476
O O13 0.500000 0.445805 0.000000
#
# Coordination Sequence:
#
# PCOD9123402 Si02
#       6
#     4   4   4   4   4   4
#     4  10  20  39  61  94 129 158 207 259 309 368
#     4  10  22  40  62  93 125 157 208 268 302 364
#     4  10  22  36  61  97 124 151 208 260 307 368
#     4  10  20  38  64  86 129 167 199 253 312 362
#     4   9  22  42  62  87 126 167 205 255 306 372
#     4  11  22  38  67  87 124 170 205 250 318 366
#
# _framework density 21.901475000000001
#
# number of rings (size 3 to 8) (size 9 to 14) (size 15 to 20)
#    0.000    2.000    1.667    1.000    4.667    0.000 
#    0.000    0.000   11.000    0.000    0.000    0.000 
#    0.000    0.000    0.000    0.000    0.000    0.000 
#
# Total GULP energy -67008.898144 kJ/mol
# GULP energy per Si atom -5584.074845 kJ/mol
# Density = 2.185163 g / cm^3
# Si number density = 21.901475 Si / 1000 Ang^3
#
#
#
# Elastic Constant Matrix: (Units=GPa)
#
#
# Indices 1 2 3 4 5 6 
#
# 1 28.8620 -10.6712 25.2441 0.0000 14.6665 0.0000
# 2 -10.6712 115.9534 38.0327 0.0000 8.1514 0.0000
# 3 25.2441 38.0327 99.6440 0.0000 22.5623 0.0000
# 4 0.0000 0.0000 0.0000 31.8797 0.0000 -0.4628
# 5 14.6665 8.1514 22.5623 0.0000 23.8765 0.0000
# 6 0.0000 0.0000 0.0000 -0.4628 0.0000 11.5176
#
#
#
# Elastic Compliance Matrix: (Units=1/GPa)
#
#
# Indices 1 2 3 4 5 6 
#
# 1 0.070324 0.013927 -0.015615 0.000000 -0.033197 0.000000
# 2 0.013927 0.012618 -0.006911 0.000000 -0.006333 0.000000
# 3 -0.015615 -0.006911 0.017713 0.000000 -0.004787 0.000000
# 4 0.000000 0.000000 0.000000 0.031386 0.000000 0.001261
# 5 -0.033197 -0.006333 -0.004787 0.000000 0.068959 0.000000
# 6 0.000000 0.000000 0.000000 0.001261 0.000000 0.086875
#
#
# Mechanical properties :
#
#
# Convention : Reuss Voigt Hill
#
# Bulk Modulus (GPa) = 11.98203 38.85230 25.41716
# Shear Modulus (GPa) = 15.01990 26.24500 20.63245
#
# Velocity S-wave (km/s) = 2.62161 3.46543 3.07263
# Velocity P-wave (km/s) = 3.82708 5.81295 4.92123
#
# Compressibility (1/GPa) = 0.08345830
#
# Stress axis : x y z
#
# Youngs Moduli (GPa) = 14.21987 79.25361 56.45448
#
# Poissons Ratio (x) = -1.10380 0.88156
# Poissons Ratio (y) = -0.19805 0.39013
# Poissons Ratio (z) = 0.22205 0.54768
#
# Static dielectric constant tensor:
#      x y z
#    x 1.831140 0.000000 -0.001900 
#    y 0.000000 1.781090 0.000000 
#    z -0.001900 0.000000 1.870200 
# 
# From -- ./inp_files/44205.got.cif
#   From: 2010.05.17/outbox.cif.g08.bks.cpg/sg5_23_cif.got.tgz:44205.got - 2010.06.03 18:56:24.
