data_PCOD9123441
_publ_section_title
;
Structure prediction by ZEFSAII (Michael W. Deem and Ramdas Pophale) SiO2 
 PCOD9123441
Probable space group: C 2
;
_chemical_formula_sum "Si O2"
_cell_formula_units_Z 28
_cell_length_a 7.877299
_cell_length_b 29.413700
_cell_length_c 7.026815
_cell_angle_alpha 90.000000
_cell_angle_beta 44.056623
_cell_angle_gamma 90.000000
_cell_volume 1132.141700
_symmetry_space_group_name_H-M "C 2"
_symmetry_group_IT_number 5
_symmetry_cell_setting 'monoclinic'
loop_
_space_group_symop_operation_xyz
x,y,z
-x,y,-z
1/2+x,1/2+y,z
1/2-x,1/2+y,-z
loop_
_atom_site_type_symbol
_atom_site_label
_atom_site_fract_x
_atom_site_fract_y
_atom_site_fract_z
Si Si1 0.162935 0.005730 0.630698
Si Si2 0.045154 0.102258 0.237349
Si Si3 0.932555 0.370791 0.777936
Si Si4 0.000000 0.817530 0.000000
Si Si5 0.263140 0.286892 0.557546
Si Si6 0.765337 0.687799 0.551774
Si Si7 0.500000 0.145655 0.000000
Si Si8 0.847078 0.473189 0.892733
O O1 0.084664 0.057464 0.735382
O O2 0.252111 0.981201 0.752425
O O3 0.401519 0.002284 0.302776
O O4 0.899360 0.984042 0.790741
O O5 0.000000 0.098478 0.500000
O O6 0.913479 0.146514 0.264757
O O7 0.332596 0.113024 0.002440
O O8 0.663710 0.349808 0.999001
O O9 0.928716 0.421467 0.856779
O O10 0.000000 0.374589 0.500000
O O11 0.108722 0.332186 0.718529
O O12 0.161477 0.789117 0.725312
O O13 0.500000 0.287407 0.500000
O O14 0.144098 0.237304 0.675719
O O15 0.000000 0.686271 0.500000
O O16 0.851133 0.677509 0.265418
#
# Coordination Sequence:
#
# PCOD9123441 Si02
#       8
#     4   4   4   2   4   4   2   4
#     4  10  21  36  65  92 131 170 226 281 341 402
#     4  10  24  41  64  91 136 175 224 284 345 414
#     4  10  20  38  65  91 128 173 228 279 340 410
#     4  10  21  36  70  90 126 180 220 270 357 394
#     4  10  23  41  63  98 136 171 227 283 340 415
#     4  10  23  41  66  96 132 177 227 279 343 413
#     4  10  23  42  64  94 140 170 224 278 347 410
#     4  10  21  37  65  97 129 171 232 285 338 411
#
# _framework density 24.731887
#
# number of rings (size 3 to 8) (size 9 to 14) (size 15 to 20)
#    0.000    2.000    1.429    1.286    8.000    8.571 
#    0.000    3.571    3.143    0.000    0.000    0.000 
#    0.000    0.000    0.000    0.000    0.000    0.000 
#
# Total GULP energy -78236.665395 kJ/mol
# GULP energy per Si atom -5588.333242 kJ/mol
# Density = 2.467560 g / cm^3
# Si number density = 24.731887 Si / 1000 Ang^3
#
#
#
# Elastic Constant Matrix: (Units=GPa)
#
#
# Indices 1 2 3 4 5 6 
#
# 1 111.3377 53.6710 24.7202 0.0000 -11.8156 0.0000
# 2 53.6710 241.4438 43.0431 0.0000 -37.3230 0.0000
# 3 24.7202 43.0431 118.8767 0.0000 -13.6332 0.0000
# 4 0.0000 0.0000 0.0000 39.5295 0.0000 -6.1640
# 5 -11.8156 -37.3230 -13.6332 0.0000 52.6013 0.0000
# 6 0.0000 0.0000 0.0000 -6.1640 0.0000 14.3494
#
#
#
# Elastic Compliance Matrix: (Units=1/GPa)
#
#
# Indices 1 2 3 4 5 6 
#
# 1 0.010288 -0.001955 -0.001366 0.000000 0.000569 0.000000
# 2 -0.001955 0.005242 -0.001150 0.000000 0.002983 0.000000
# 3 -0.001366 -0.001150 0.009259 0.000000 0.001277 0.000000
# 4 0.000000 0.000000 0.000000 0.027114 0.000000 0.011647
# 5 0.000569 0.002983 0.001277 0.000000 0.021586 0.000000
# 6 0.000000 0.000000 0.000000 0.011647 0.000000 0.074692
#
#
# Mechanical properties :
#
#
# Convention : Reuss Voigt Hill
#
# Bulk Modulus (GPa) = 63.10198 79.39186 71.24692
# Shear Modulus (GPa) = 30.78704 44.64430 37.71567
#
# Velocity S-wave (km/s) = 3.53204 4.25329 3.90934
# Velocity P-wave (km/s) = 6.49643 7.50276 7.01766
#
# Compressibility (1/GPa) = 0.01584736
#
# Stress axis : x y z
#
# Youngs Moduli (GPa) = 97.20035 190.75247 108.00494
#
# Poissons Ratio (x) = 0.37299 0.14754
# Poissons Ratio (y) = 0.19006 0.12415
# Poissons Ratio (z) = 0.13278 0.21927
#
# Static dielectric constant tensor:
#      x y z
#    x 1.983870 0.000000 0.007120 
#    y 0.000000 1.917340 0.000000 
#    z 0.007120 0.000000 1.944770 
# 
# From -- ./inp_files/17526.got.cif
#   From: 2010.05.17/outbox.cif.g08.bks.cpg/sg5_9_cif.got.tgz:17526.got - 2010.06.03 18:56:24.
