data_PCOD9123678
_publ_section_title
;
Structure prediction by ZEFSAII (Michael W. Deem and Ramdas Pophale) SiO2 
 PCOD9123678
Probable space group: C 2
;
_chemical_formula_sum "Si O2"
_cell_formula_units_Z 26
_cell_length_a 9.698901
_cell_length_b 16.550615
_cell_length_c 9.416143
_cell_angle_alpha 90.000000
_cell_angle_beta 50.283690
_cell_angle_gamma 90.000000
_cell_volume 1162.676706
_symmetry_space_group_name_H-M "C 2"
_symmetry_group_IT_number 5
_symmetry_cell_setting 'monoclinic'
loop_
_space_group_symop_operation_xyz
x,y,z
-x,y,-z
1/2+x,1/2+y,z
1/2-x,1/2+y,-z
loop_
_atom_site_type_symbol
_atom_site_label
_atom_site_fract_x
_atom_site_fract_y
_atom_site_fract_z
Si Si1 0.542026 0.655430 0.309753
Si Si2 0.234531 0.000402 0.074946
Si Si3 0.171816 0.789252 0.785807
Si Si4 0.136414 0.683254 0.544715
Si Si5 0.207367 0.466683 0.363796
Si Si6 0.870113 0.511487 0.295242
Si Si7 0.500000 0.488957 0.000000
O O1 0.500000 0.623510 0.500000
O O2 0.646360 0.590396 0.143860
O O3 0.675145 0.729720 0.253062
O O4 0.350504 0.680262 0.369738
O O5 0.274830 0.987990 0.212279
O O6 0.089721 0.949667 0.081181
O O7 0.423073 0.989189 0.870975
O O8 0.115904 0.758019 0.666250
O O9 0.258080 0.877770 0.717193
O O10 0.000000 0.786455 0.000000
O O11 0.113752 0.604500 0.662628
O O12 0.000000 0.683124 0.500000
O O13 0.244506 0.470922 0.505236
O O14 0.326426 0.526395 0.189644
O O15 0.000000 0.488645 0.500000
#
# Coordination Sequence:
#
# PCOD9123678 Si02
#       7
#     4   4   4   4   4   4   2
#     4  10  20  39  67  96 130 179 220 275 342 399
#     4  11  23  41  65 104 133 176 229 277 345 399
#     4  11  23  46  69  94 133 186 230 276 346 412
#     4  11  23  40  66 102 133 177 227 282 339 397
#     4  12  24  45  67 100 138 180 228 280 341 410
#     4  11  23  42  69  97 141 176 220 289 338 408
#     4  12  26  40  68 102 130 176 228 286 338 406
#
# _framework density 22.362192
#
# number of rings (size 3 to 8) (size 9 to 14) (size 15 to 20)
#    0.000    0.923    5.385    3.692    2.154    0.000 
#    2.769    0.000    0.000    0.000    0.000    0.000 
#    0.000    0.000    0.000    0.000    0.000    0.000 
#
# Total GULP energy -72429.637759 kJ/mol
# GULP energy per Si atom -5571.510597 kJ/mol
# Density = 2.231129 g / cm^3
# Si number density = 22.362192 Si / 1000 Ang^3
#
#
#
# Elastic Constant Matrix: (Units=GPa)
#
#
# Indices 1 2 3 4 5 6 
#
# 1 195.8153 8.4629 50.4834 0.0000 5.4766 0.0000
# 2 8.4629 66.9109 23.5496 0.0000 5.2764 0.0000
# 3 50.4834 23.5496 178.5887 0.0000 -7.9310 0.0000
# 4 0.0000 0.0000 0.0000 34.6993 0.0000 1.3794
# 5 5.4766 5.2764 -7.9310 0.0000 38.9539 0.0000
# 6 0.0000 0.0000 0.0000 1.3794 0.0000 25.9269
#
#
#
# Elastic Compliance Matrix: (Units=1/GPa)
#
#
# Indices 1 2 3 4 5 6 
#
# 1 0.005556 -0.000048 -0.001613 0.000000 -0.001103 0.000000
# 2 -0.000048 0.015932 -0.002203 0.000000 -0.002600 0.000000
# 3 -0.001613 -0.002203 0.006427 0.000000 0.001834 0.000000
# 4 0.000000 0.000000 0.000000 0.028880 0.000000 -0.001537
# 5 -0.001103 -0.002600 0.001834 0.000000 0.026552 0.000000
# 6 0.000000 0.000000 0.000000 -0.001537 0.000000 0.038652
#
#
# Mechanical properties :
#
#
# Convention : Reuss Voigt Hill
#
# Bulk Modulus (GPa) = 49.53683 67.36740 58.45212
# Shear Modulus (GPa) = 36.64211 43.83727 40.23969
#
# Velocity S-wave (km/s) = 4.05232 4.43236 4.24660
# Velocity P-wave (km/s) = 6.64042 7.50902 7.08804
#
# Compressibility (1/GPa) = 0.02018700
#
# Stress axis : x y z
#
# Youngs Moduli (GPa) = 179.99662 62.76845 155.58494
#
# Poissons Ratio (x) = 0.00301 0.25098
# Poissons Ratio (y) = 0.00863 0.34271
# Poissons Ratio (z) = 0.29036 0.13826
#
# Static dielectric constant tensor:
#      x y z
#    x 1.944190 0.000000 0.011380 
#    y 0.000000 1.866250 0.000000 
#    z 0.011380 0.000000 1.894320 
# 
# From -- ./inp_files/16764.got.cif
#   From: 2010.05.17/outbox.cif.g08.bks.cpg/sg5_9_cif.got.tgz:16764.got - 2010.06.03 18:56:24.
