data_PCOD9123493
_publ_section_title
;
Structure prediction by ZEFSAII (Michael W. Deem and Ramdas Pophale) SiO2 
 PCOD9123493
Probable space group: C 2
;
_chemical_formula_sum "Si O2"
_cell_formula_units_Z 20
_cell_length_a 14.897138
_cell_length_b 5.201884
_cell_length_c 17.514104
_cell_angle_alpha 90.000000
_cell_angle_beta 145.401594
_cell_angle_gamma 90.000000
_cell_volume 770.659897
_symmetry_space_group_name_H-M "C 2"
_symmetry_group_IT_number 5
_symmetry_cell_setting 'monoclinic'
loop_
_space_group_symop_operation_xyz
x,y,z
-x,y,-z
1/2+x,1/2+y,z
1/2-x,1/2+y,-z
loop_
_atom_site_type_symbol
_atom_site_label
_atom_site_fract_x
_atom_site_fract_y
_atom_site_fract_z
Si Si1 0.771688 0.367980 0.462590
Si Si2 0.660729 0.688664 0.256427
Si Si3 0.066216 0.548032 0.820871
Si Si4 0.500000 0.815475 0.000000
Si Si5 0.715587 0.549255 0.874779
Si Si6 0.000000 0.523414 0.500000
O O1 0.767953 0.615699 0.516681
O O2 0.653203 0.457539 0.311711
O O3 0.932966 0.362035 0.525074
O O4 0.593264 0.939582 0.251148
O O5 0.847135 0.692267 0.369014
O O6 0.543866 0.646442 0.103965
O O7 0.104623 0.800307 0.799340
O O8 0.120607 0.310909 0.805542
O O9 0.186210 0.562438 0.977000
O O10 0.348239 0.994354 0.905185
#
# Coordination Sequence:
#
# PCOD9123493 Si02
#       6
#     4   4   4   2   4   2
#     4  10  23  45  71  98 137 187 238 290 350 421
#     4   9  21  41  65 101 135 185 228 298 353 421
#     4   9  18  36  56  88 120 169 218 261 335 408
#     4  10  20  38  66  98 142 170 228 296 356 416
#     4   9  19  34  58  85 128 165 209 270 336 409
#     4   8  22  44  66 108 136 192 238 296 352 434
#
# _framework density 25.951784
#
# number of rings (size 3 to 8) (size 9 to 14) (size 15 to 20)
#    1.200    1.600    0.000    0.000    0.000    6.400 
#    0.000    6.000    0.000    0.000    0.000    0.000 
#    0.000    0.000    0.000    0.000    0.000    0.000 
#
# Total GULP energy -55853.233909 kJ/mol
# GULP energy per Si atom -5585.323391 kJ/mol
# Density = 2.589272 g / cm^3
# Si number density = 25.951784 Si / 1000 Ang^3
#
#
#
# Elastic Constant Matrix: (Units=GPa)
#
#
# Indices 1 2 3 4 5 6 
#
# 1 161.4848 40.4498 34.6056 0.0003 25.9401 0.0005
# 2 40.4498 103.7522 -6.0955 0.0009 7.8982 0.0030
# 3 34.6056 -6.0955 69.0644 0.0000 -14.9230 0.0003
# 4 0.0003 0.0009 0.0000 15.4656 -0.0001 -3.3819
# 5 25.9401 7.8982 -14.9230 -0.0001 74.2285 0.0003
# 6 0.0005 0.0030 0.0003 -3.3819 0.0003 4.9607
#
#
#
# Elastic Compliance Matrix: (Units=1/GPa)
#
#
# Indices 1 2 3 4 5 6 
#
# 1 0.008888 -0.003500 -0.005596 0.000001 -0.003859 0.000002
# 2 -0.003500 0.011125 0.002869 -0.000002 0.000616 -0.000008
# 3 -0.005596 0.002869 0.018706 -0.000001 0.005411 -0.000003
# 4 0.000001 -0.000002 -0.000001 0.075988 0.000000 0.051804
# 5 -0.003859 0.000616 0.005411 0.000000 0.015843 -0.000001
# 6 0.000002 -0.000008 -0.000003 0.051804 -0.000001 0.236901
#
#
# Mechanical properties :
#
#
# Convention : Reuss Voigt Hill
#
# Bulk Modulus (GPa) = 38.07610 52.46902 45.27256
# Shear Modulus (GPa) = 12.86470 36.62042 24.74256
#
# Velocity S-wave (km/s) = 2.22888 3.76053 3.09108
# Velocity P-wave (km/s) = 4.61818 6.25438 5.49749
#
# Compressibility (1/GPa) = 0.02626319
#
# Stress axis : x y z
#
# Youngs Moduli (GPa) = 112.50509 89.89031 53.45940
#
# Poissons Ratio (x) = 0.31465 0.29918
# Poissons Ratio (y) = 0.39381 -0.15337
# Poissons Ratio (z) = 0.62963 -0.25789
#
# Static dielectric constant tensor:
#      x y z
#    x 2.064800 0.000000 0.038740 
#    y 0.000000 2.047860 0.000000 
#    z 0.038740 0.000000 2.258230 
# 
# From -- ./inp_files/48187.got.cif
#   From: 2010.05.17/outbox.cif.g08.bks.cpg/sg5_25_cif.got.tgz:48187.got - 2010.06.03 18:56:24.
