data_PCOD9123017
_publ_section_title
;
Structure prediction by ZEFSAII (Michael W. Deem and Ramdas Pophale) SiO2 
 PCOD9123017
Probable space group: C 2
;
_chemical_formula_sum "Si O2"
_cell_formula_units_Z 32
_cell_length_a 11.356186
_cell_length_b 8.218162
_cell_length_c 23.639180
_cell_angle_alpha 90.000000
_cell_angle_beta 43.667072
_cell_angle_gamma 90.000000
_cell_volume 1523.289357
_symmetry_space_group_name_H-M "C 2"
_symmetry_group_IT_number 5
_symmetry_cell_setting 'monoclinic'
loop_
_space_group_symop_operation_xyz
x,y,z
-x,y,-z
1/2+x,1/2+y,z
1/2-x,1/2+y,-z
loop_
_atom_site_type_symbol
_atom_site_label
_atom_site_fract_x
_atom_site_fract_y
_atom_site_fract_z
Si Si1 0.529191 0.807860 0.826220
Si Si2 0.814733 0.663710 0.039864
Si Si3 0.618538 0.807428 0.007022
Si Si4 0.664638 0.083728 0.291815
Si Si5 0.885677 0.424306 0.319034
Si Si6 0.310632 0.084885 0.591030
Si Si7 0.096513 0.857685 0.583912
Si Si8 0.643994 0.625375 0.482651
O O1 0.339885 0.750528 0.873633
O O2 0.504138 0.868558 0.898865
O O3 0.649422 0.648852 0.788495
O O4 0.599558 0.928102 0.753973
O O5 0.761782 0.708450 0.992694
O O6 0.804141 0.468901 0.047433
O O7 0.000000 0.711682 0.000000
O O8 0.500000 0.724780 0.000000
O O9 0.663795 0.012153 0.355059
O O10 0.555390 0.251656 0.338272
O O11 0.570218 0.962734 0.282151
O O12 0.798093 0.250919 0.362766
O O13 0.770823 0.555588 0.391514
O O14 0.500000 0.115036 0.500000
O O15 0.193759 0.963558 0.596368
O O16 0.242024 0.729336 0.514543
O O17 0.057215 0.977745 0.546409
O O18 0.500000 0.723890 0.500000
#
# Coordination Sequence:
#
# PCOD9123017 Si02
#       8
#     4   4   4   4   4   4   4   4
#     4   9  21  39  63  87 124 157 194 256 308 366
#     4   9  20  39  63  91 119 151 203 250 302 377
#     4   9  20  39  63  90 120 154 201 248 308 368
#     4  10  22  40  57  85 126 158 202 247 309 358
#     4  10  20  37  59  84 120 163 196 245 311 351
#     4  11  21  37  58  84 120 162 207 256 296 346
#     4  11  23  36  58  87 116 159 211 248 291 352
#     4  11  21  35  58  82 114 158 206 246 288 346
#
# _framework density 21.007171
#
# number of rings (size 3 to 8) (size 9 to 14) (size 15 to 20)
#    0.750    1.250    0.000    5.250    0.000    3.500 
#    9.000    0.000    0.000    0.000    0.000    0.000 
#    0.000    0.000    0.000    0.000    0.000    0.000 
#
# Total GULP energy -89117.862869 kJ/mol
# GULP energy per Si atom -5569.866429 kJ/mol
# Density = 2.095936 g / cm^3
# Si number density = 21.007171 Si / 1000 Ang^3
#
#
#
# Elastic Constant Matrix: (Units=GPa)
#
#
# Indices 1 2 3 4 5 6 
#
# 1 152.6113 20.5033 15.4202 0.0000 -6.4873 0.0000
# 2 20.5033 32.9698 -0.5071 0.0000 -7.2683 0.0000
# 3 15.4202 -0.5071 41.7628 0.0000 6.0353 0.0000
# 4 0.0000 0.0000 0.0000 4.7420 0.0000 7.0434
# 5 -6.4873 -7.2683 6.0353 0.0000 31.1927 0.0000
# 6 0.0000 0.0000 0.0000 7.0434 0.0000 35.6256
#
#
#
# Elastic Compliance Matrix: (Units=1/GPa)
#
#
# Indices 1 2 3 4 5 6 
#
# 1 0.007501 -0.004469 -0.002982 0.000000 0.001096 0.000000
# 2 -0.004469 0.034656 0.001068 0.000000 0.006939 0.000000
# 3 -0.002982 0.001068 0.025835 0.000000 -0.005370 0.000000
# 4 0.000000 0.000000 0.000000 0.298553 0.000000 -0.059026
# 5 0.001096 0.006939 -0.005370 0.000000 0.034943 0.000000
# 6 0.000000 0.000000 0.000000 -0.059026 0.000000 0.039739
#
#
# Mechanical properties :
#
#
# Convention : Reuss Voigt Hill
#
# Bulk Modulus (GPa) = 18.10746 33.13074 25.61910
# Shear Modulus (GPa) = 10.58422 27.10723 18.84573
#
# Velocity S-wave (km/s) = 2.24707 3.59608 2.99843
# Velocity P-wave (km/s) = 3.92056 5.74872 4.92030
#
# Compressibility (1/GPa) = 0.05522585
#
# Stress axis : x y z
#
# Youngs Moduli (GPa) = 133.31717 28.85485 38.70730
#
# Poissons Ratio (x) = 0.12895 0.11543
# Poissons Ratio (y) = 0.59580 -0.04134
# Poissons Ratio (z) = 0.39758 -0.03082
#
# Static dielectric constant tensor:
#      x y z
#    x 1.814970 0.000000 -0.011970 
#    y 0.000000 1.761860 0.000000 
#    z -0.011970 0.000000 1.771040 
# 
# From -- ./inp_files/68222.got.cif
#   From: 2010.05.17/outbox.cif.g08.bks.cpg/sg5_35_cif.got.tgz:68222.got - 2010.06.03 18:56:24.
