data_PCOD9123165
_publ_section_title
;
Structure prediction by ZEFSAII (Michael W. Deem and Ramdas Pophale) SiO2 
 PCOD9123165
Probable space group: C 2
;
_chemical_formula_sum "Si O2"
_cell_formula_units_Z 24
_cell_length_a 9.737428
_cell_length_b 10.359489
_cell_length_c 9.891040
_cell_angle_alpha 90.000000
_cell_angle_beta 125.035509
_cell_angle_gamma 90.000000
_cell_volume 816.959417
_symmetry_space_group_name_H-M "C 2"
_symmetry_group_IT_number 5
_symmetry_cell_setting 'monoclinic'
loop_
_space_group_symop_operation_xyz
x,y,z
-x,y,-z
1/2+x,1/2+y,z
1/2-x,1/2+y,-z
loop_
_atom_site_type_symbol
_atom_site_label
_atom_site_fract_x
_atom_site_fract_y
_atom_site_fract_z
Si Si1 0.423213 0.361390 0.751177
Si Si2 0.345329 0.096020 0.043003
Si Si3 0.228042 0.248139 0.386357
Si Si4 0.764802 0.310734 0.909469
Si Si5 0.577668 0.611722 0.695148
Si Si6 0.127538 0.496027 0.669820
O O1 0.324827 0.303559 0.568853
O O2 0.582649 0.273273 0.885200
O O3 0.521862 0.484004 0.746195
O O4 0.290586 0.408068 0.784776
O O5 0.179726 0.164070 0.027753
O O6 0.449679 0.061954 0.243530
O O7 0.275612 0.129464 0.844295
O O8 0.345811 0.937709 0.009848
O O9 0.251828 0.324465 0.260409
O O10 0.034091 0.228698 0.310482
O O11 0.305460 0.110015 0.390570
O O12 0.500000 0.595041 0.500000
O O13 0.000000 0.423864 0.500000
#
# Coordination Sequence:
#
# PCOD9123165 Si02
#       6
#     4   4   4   4   4   4
#     4  10  20  37  64  91 127 172 219 269 323 386
#     4  10  22  41  66  95 134 172 218 270 320 390
#     4  10  20  37  64  91 127 172 219 269 323 386
#     4  10  21  38  63  94 130 174 220 268 326 382
#     4  10  22  39  62  94 130 172 219 269 326 385
#     4  10  22  39  62  94 130 172 219 269 326 385
#
# _framework density 29.377223999999998
#
# number of rings (size 3 to 8) (size 9 to 14) (size 15 to 20)
#    0.000    2.000    0.000    4.500    0.000   14.000 
#    0.000    0.000    0.000   24.000    0.000    0.000 
#    0.000    0.000    0.000    0.000    0.000    0.000 
#
# Total GULP energy -66826.647758 kJ/mol
# GULP energy per Si atom -5568.887313 kJ/mol
# Density = 2.931036 g / cm^3
# Si number density = 29.377224 Si / 1000 Ang^3
#
#
#
# Elastic Constant Matrix: (Units=GPa)
#
#
# Indices 1 2 3 4 5 6 
#
# 1 102.0561 23.4737 30.2683 0.0000 -2.8329 0.0000
# 2 23.4737 136.9509 32.3557 0.0000 -2.9911 0.0000
# 3 30.2683 32.3557 210.3433 0.0000 -18.0460 0.0000
# 4 0.0000 0.0000 0.0000 71.5163 0.0000 -11.8835
# 5 -2.8329 -2.9911 -18.0460 0.0000 32.9633 0.0000
# 6 0.0000 0.0000 0.0000 -11.8835 0.0000 39.7189
#
#
#
# Elastic Compliance Matrix: (Units=1/GPa)
#
#
# Indices 1 2 3 4 5 6 
#
# 1 0.010525 -0.001501 -0.001278 0.000000 0.000069 0.000000
# 2 -0.001501 0.007791 -0.000979 0.000000 0.000042 0.000000
# 3 -0.001278 -0.000979 0.005321 0.000000 0.002715 0.000000
# 4 0.000000 0.000000 0.000000 0.014714 0.000000 0.004402
# 5 0.000069 0.000042 0.002715 0.000000 0.031833 0.000000
# 6 0.000000 0.000000 0.000000 0.004402 0.000000 0.026494
#
#
# Mechanical properties :
#
#
# Convention : Reuss Voigt Hill
#
# Bulk Modulus (GPa) = 62.02385 69.06061 65.54223
# Shear Modulus (GPa) = 45.63412 53.05654 49.34533
#
# Velocity S-wave (km/s) = 3.94558 4.25437 4.10288
# Velocity P-wave (km/s) = 6.47422 6.90595 6.69356
#
# Compressibility (1/GPa) = 0.01612283
#
# Stress axis : x y z
#
# Youngs Moduli (GPa) = 95.01596 128.34850 187.91763
#
# Poissons Ratio (x) = 0.19259 0.24011
# Poissons Ratio (y) = 0.14258 0.18396
# Poissons Ratio (z) = 0.12141 0.12565
#
# Static dielectric constant tensor:
#      x y z
#    x 2.491170 0.000000 0.202930 
#    y 0.000000 2.434390 0.000000 
#    z 0.202930 0.000000 2.482650 
# 
# From -- ./inp_files/38944.got.cif
#   From: 2010.05.17/outbox.cif.g08.bks.cpg/sg5_20_cif.got.tgz:38944.got - 2010.06.03 18:56:24.
