data_PCOD9123943
_publ_section_title
;
Structure prediction by ZEFSAII (Michael W. Deem and Ramdas Pophale) SiO2 
 PCOD9123943
Probable space group: C 2
;
_chemical_formula_sum "Si O2"
_cell_formula_units_Z 24
_cell_length_a 9.545266
_cell_length_b 17.220364
_cell_length_c 9.054797
_cell_angle_alpha 90.000000
_cell_angle_beta 48.817167
_cell_angle_gamma 90.000000
_cell_volume 1120.160756
_symmetry_space_group_name_H-M "C 2"
_symmetry_group_IT_number 5
_symmetry_cell_setting 'monoclinic'
loop_
_space_group_symop_operation_xyz
x,y,z
-x,y,-z
1/2+x,1/2+y,z
1/2-x,1/2+y,-z
loop_
_atom_site_type_symbol
_atom_site_label
_atom_site_fract_x
_atom_site_fract_y
_atom_site_fract_z
Si Si1 0.441791 0.582410 0.196569
Si Si2 0.347847 0.104877 0.998277
Si Si3 0.698206 0.235219 0.303502
Si Si4 0.669353 0.284073 0.983487
Si Si5 0.542207 0.865278 0.794774
Si Si6 0.083099 0.523801 0.600507
O O1 0.352252 0.666160 0.207317
O O2 0.287430 0.552226 0.415997
O O3 0.500000 0.542902 0.000000
O O4 0.638609 0.576560 0.141934
O O5 0.447288 0.087506 0.772071
O O6 0.500000 0.068769 0.000000
O O7 0.318104 0.193683 0.069620
O O8 0.500000 0.208238 0.500000
O O9 0.789058 0.304370 0.335983
O O10 0.655068 0.270980 0.171220
O O11 0.859498 0.332009 0.838350
O O12 0.500000 0.316173 0.000000
O O13 0.587903 0.948686 0.699358
O O14 0.500000 0.868228 0.000000
O O15 0.000000 0.501972 0.500000
#
# Coordination Sequence:
#
# PCOD9123943 Si02
#       6
#     4   4   4   4   4   4
#     4  12  21  43  74  97 129 178 222 274 333 389
#     4  11  23  43  71 103 132 167 223 280 328 391
#     4  11  21  41  71  99 128 174 227 270 329 397
#     4  10  20  40  70  98 128 171 218 274 329 385
#     4  10  23  46  66  94 137 177 218 273 334 393
#     4  12  25  43  68 102 134 176 225 270 330 403
#
# _framework density 21.425495999999999
#
# number of rings (size 3 to 8) (size 9 to 14) (size 15 to 20)
#    0.000    1.000    5.000    2.500    0.000    2.000 
#   12.000    0.000    0.000    0.000    0.000    0.000 
#    0.000    0.000    0.000    0.000    0.000    0.000 
#
# Total GULP energy -66859.859785 kJ/mol
# GULP energy per Si atom -5571.654982 kJ/mol
# Density = 2.137673 g / cm^3
# Si number density = 21.425496 Si / 1000 Ang^3
#
#
#
# Elastic Constant Matrix: (Units=GPa)
#
#
# Indices 1 2 3 4 5 6 
#
# 1 175.2535 41.7065 45.1881 0.0000 -32.6511 0.0000
# 2 41.7065 76.1109 50.9232 0.0000 -12.3791 0.0000
# 3 45.1881 50.9232 113.1157 0.0000 -43.6593 0.0000
# 4 0.0000 0.0000 0.0000 10.2851 0.0000 16.6133
# 5 -32.6511 -12.3791 -43.6593 0.0000 41.9559 0.0000
# 6 0.0000 0.0000 0.0000 16.6133 0.0000 8.1606
#
#
#
# Elastic Compliance Matrix: (Units=1/GPa)
#
#
# Indices 1 2 3 4 5 6 
#
# 1 0.007408 -0.003738 0.000874 0.000000 0.005572 0.000000
# 2 -0.003738 0.021464 -0.011445 0.000000 -0.008485 0.000000
# 3 0.000874 -0.011445 0.021062 0.000000 0.019221 0.000000
# 4 0.000000 0.000000 0.000000 -0.042487 0.000000 0.086496
# 5 0.005572 -0.008485 0.019221 0.000000 0.045668 0.000000
# 6 0.000000 0.000000 0.000000 0.086496 0.000000 -0.053549
#
#
# Mechanical properties :
#
#
# Convention : Reuss Voigt Hill
#
# Bulk Modulus (GPa) = 46.91086 71.12396 59.01741
# Shear Modulus (GPa) = 141.68278 27.19113 84.43696
#
# Velocity S-wave (km/s) = 8.14074 3.56631 6.28451
# Velocity P-wave (km/s) = 10.50260 7.08704 8.95909
#
# Compressibility (1/GPa) = 0.02131703
#
# Stress axis : x y z
#
# Youngs Moduli (GPa) = 134.98350 46.58931 47.47820
#
# Poissons Ratio (x) = 0.17415 -0.04148
# Poissons Ratio (y) = 0.50456 0.54337
# Poissons Ratio (z) = -0.11794 0.53320
#
# Static dielectric constant tensor:
#      x y z
#    x 1.863100 0.000000 0.054700 
#    y 0.000000 1.817270 0.000000 
#    z 0.054700 0.000000 1.850400 
# 
# From -- ./inp_files/16689.got.cif
#   From: 2010.05.17/outbox.cif.g08.bks.cpg/sg5_9_cif.got.tgz:16689.got - 2010.06.03 18:56:24.
