data_PCOD9123795
_publ_section_title
;
Structure prediction by ZEFSAII (Michael W. Deem and Ramdas Pophale) SiO2 
 PCOD9123795
Probable space group: C 2
;
_chemical_formula_sum "Si O2"
_cell_formula_units_Z 28
_cell_length_a 16.880314
_cell_length_b 6.876399
_cell_length_c 14.818193
_cell_angle_alpha 90.000000
_cell_angle_beta 135.693595
_cell_angle_gamma 90.000000
_cell_volume 1201.435102
_symmetry_space_group_name_H-M "C 2"
_symmetry_group_IT_number 5
_symmetry_cell_setting 'monoclinic'
loop_
_space_group_symop_operation_xyz
x,y,z
-x,y,-z
1/2+x,1/2+y,z
1/2-x,1/2+y,-z
loop_
_atom_site_type_symbol
_atom_site_label
_atom_site_fract_x
_atom_site_fract_y
_atom_site_fract_z
Si Si1 0.000000 0.064510 0.000000
Si Si2 0.676375 0.072623 0.764398
Si Si3 0.339722 0.916830 0.611179
Si Si4 0.463123 0.223085 0.184562
Si Si5 0.000000 0.800822 0.500000
Si Si6 0.587137 0.532586 0.395160
Si Si7 0.335755 0.244435 0.888730
Si Si8 0.355041 0.828048 0.816225
O O1 0.020460 0.231206 0.092703
O O2 0.092814 0.906860 0.105740
O O3 0.625840 0.129675 0.818782
O O4 0.590129 0.156585 0.620105
O O5 0.788248 0.202076 0.835864
O O6 0.712901 0.846509 0.793090
O O7 0.408271 0.766660 0.604501
O O8 0.305543 0.814068 0.677112
O O9 0.423923 0.089842 0.711138
O O10 0.217868 0.981487 0.475398
O O11 0.502074 0.433023 0.254323
O O12 0.398566 0.230695 0.036576
O O13 0.051984 0.936996 0.462763
O O14 0.345879 0.044714 0.845061
#
# Coordination Sequence:
#
# PCOD9123795 Si02
#       8
#     2   4   4   4   2   4   4   4
#     4  10  20  40  64 102 130 178 232 296 352 414
#     4  10  25  44  69 102 142 192 236 299 354 436
#     4  12  23  44  70 104 136 186 240 292 353 427
#     4  11  25  44  68 103 146 183 241 295 356 425
#     4  10  22  52  70 104 150 184 238 302 368 424
#     4  11  24  45  73 103 142 188 231 304 357 424
#     4  11  24  43  70 105 137 196 240 292 367 422
#     4  11  23  42  68  98 145 184 238 300 355 427
#
# _framework density 23.305461000000001
#
# number of rings (size 3 to 8) (size 9 to 14) (size 15 to 20)
#    0.000    1.143    2.857    3.000    2.000    4.571 
#    5.143    1.429    0.000    0.000    0.000    0.000 
#    0.000    0.000    0.000    0.000    0.000    0.000 
#
# Total GULP energy -78006.826630 kJ/mol
# GULP energy per Si atom -5571.916188 kJ/mol
# Density = 2.325242 g / cm^3
# Si number density = 23.305461 Si / 1000 Ang^3
#
#
#
# Elastic Constant Matrix: (Units=GPa)
#
#
# Indices 1 2 3 4 5 6 
#
# 1 90.6762 28.4720 24.4085 0.0000 -7.3898 0.0000
# 2 28.4720 131.6006 38.3803 0.0000 -8.2387 0.0000
# 3 24.4085 38.3803 87.3721 0.0000 -15.8803 0.0000
# 4 0.0000 0.0000 0.0000 38.0181 0.0000 3.7383
# 5 -7.3898 -8.2387 -15.8803 0.0000 30.8706 0.0000
# 6 0.0000 0.0000 0.0000 3.7383 0.0000 25.4207
#
#
#
# Elastic Compliance Matrix: (Units=1/GPa)
#
#
# Indices 1 2 3 4 5 6 
#
# 1 0.012370 -0.001900 -0.002399 0.000000 0.001220 0.000000
# 2 -0.001900 0.009011 -0.003390 0.000000 0.000206 0.000000
# 3 -0.002399 -0.003390 0.014711 0.000000 0.006089 0.000000
# 4 0.000000 0.000000 0.000000 0.026689 0.000000 -0.003925
# 5 0.001220 0.000206 0.006089 0.000000 0.035872 0.000000
# 6 0.000000 0.000000 0.000000 -0.003925 0.000000 0.039915
#
#
# Mechanical properties :
#
#
# Convention : Reuss Voigt Hill
#
# Bulk Modulus (GPa) = 48.27740 54.68562 51.48151
# Shear Modulus (GPa) = 31.08408 33.42106 32.25257
#
# Velocity S-wave (km/s) = 3.65604 3.79099 3.72412
# Velocity P-wave (km/s) = 6.21146 6.53282 6.37417
#
# Compressibility (1/GPa) = 0.02071363
#
# Stress axis : x y z
#
# Youngs Moduli (GPa) = 80.83953 110.96944 67.97421
#
# Poissons Ratio (x) = 0.21086 0.16309
# Poissons Ratio (y) = 0.15361 0.23045
# Poissons Ratio (z) = 0.19396 0.37621
#
# Static dielectric constant tensor:
#      x y z
#    x 2.231310 0.000000 0.318900 
#    y 0.000000 1.943130 0.000000 
#    z 0.318900 0.000000 2.148570 
# 
# From -- ./inp_files/62651.got.cif
#   From: 2010.05.17/outbox.cif.g08.bks.cpg/sg5_32_cif.got.tgz:62651.got - 2010.06.03 18:56:24.
