data_PCOD9123890
_publ_section_title
;
Structure prediction by ZEFSAII (Michael W. Deem and Ramdas Pophale) SiO2 
 PCOD9123890
Probable space group: C 2
;
_chemical_formula_sum "Si O2"
_cell_formula_units_Z 32
_cell_length_a 8.801307
_cell_length_b 21.389422
_cell_length_c 14.753837
_cell_angle_alpha 90.000000
_cell_angle_beta 30.899851
_cell_angle_gamma 90.000000
_cell_volume 1426.345212
_symmetry_space_group_name_H-M "C 2"
_symmetry_group_IT_number 5
_symmetry_cell_setting 'monoclinic'
loop_
_space_group_symop_operation_xyz
x,y,z
-x,y,-z
1/2+x,1/2+y,z
1/2-x,1/2+y,-z
loop_
_atom_site_type_symbol
_atom_site_label
_atom_site_fract_x
_atom_site_fract_y
_atom_site_fract_z
Si Si1 0.548562 0.754430 0.131520
Si Si2 0.203844 0.518244 0.815492
Si Si3 0.142179 0.756397 0.744285
Si Si4 0.961756 0.693195 0.365074
Si Si5 0.103661 0.157373 0.251245
Si Si6 0.816916 0.360373 0.796596
Si Si7 0.635493 0.970212 0.532244
Si Si8 0.145467 0.564041 0.186808
O O1 0.230848 0.730934 0.267584
O O2 0.674991 0.697088 0.126613
O O3 0.548392 0.815443 0.195058
O O4 0.784548 0.762759 0.931599
O O5 0.307086 0.586128 0.798880
O O6 0.508863 0.479784 0.647352
O O7 0.021592 0.534454 0.816119
O O8 0.000000 0.490346 0.000000
O O9 0.242468 0.694456 0.746187
O O10 0.247722 0.815497 0.746973
O O11 0.217174 0.744363 0.602207
O O12 0.072572 0.636918 0.243526
O O13 0.743311 0.664053 0.550083
O O14 0.029114 0.413480 0.650620
O O15 0.500000 0.383501 0.000000
O O16 0.500000 0.963302 0.500000
O O17 0.484254 0.029321 0.658741
O O18 0.500000 0.556436 0.000000
#
# Coordination Sequence:
#
# PCOD9123890 Si02
#       8
#     4   4   4   4   4   4   4   4
#     4  10  22  40  66 105 137 187 230 290 353 438
#     4  12  26  46  71 104 148 198 250 309 373 443
#     4  10  20  40  67  99 139 182 232 278 361 430
#     4  12  23  36  65 109 150 181 230 293 357 442
#     4  11  22  37  60  95 146 183 227 280 361 429
#     4   9  22  47  74 100 144 196 240 298 366 437
#     4  12  27  47  75 105 141 192 263 309 371 442
#     4  12  26  45  70 107 152 195 240 303 373 444
#
# _framework density 22.434961000000001
#
# number of rings (size 3 to 8) (size 9 to 14) (size 15 to 20)
#    0.000    1.000    2.500    5.250    3.500    2.000 
#    0.000    7.500    0.000    3.000    0.000    0.000 
#    0.000    0.000    0.000    0.000    0.000    0.000 
#
# Total GULP energy -89442.653326 kJ/mol
# GULP energy per Si atom -5590.165833 kJ/mol
# Density = 2.238390 g / cm^3
# Si number density = 22.434961 Si / 1000 Ang^3
#
#
#
# Elastic Constant Matrix: (Units=GPa)
#
#
# Indices 1 2 3 4 5 6 
#
# 1 99.6442 23.0080 51.6454 -0.0601 -14.4728 -0.0755
# 2 23.0080 96.6475 54.3701 -0.0141 -5.8684 -0.0230
# 3 51.6454 54.3701 184.8808 0.0481 -15.0388 0.0667
# 4 -0.0601 -0.0141 0.0481 84.9937 -0.0401 50.0659
# 5 -14.4728 -5.8684 -15.0388 -0.0401 40.3631 -0.0410
# 6 -0.0755 -0.0230 0.0667 50.0659 -0.0410 72.3429
#
#
#
# Elastic Compliance Matrix: (Units=1/GPa)
#
#
# Indices 1 2 3 4 5 6 
#
# 1 0.012220 -0.001128 -0.002824 0.000003 0.003165 0.000015
# 2 -0.001128 0.012510 -0.003350 0.000000 0.000166 0.000006
# 3 -0.002824 -0.003350 0.007282 0.000000 0.001213 -0.000010
# 4 0.000003 0.000000 0.000000 0.019863 0.000007 -0.013746
# 5 0.003165 0.000166 0.001213 0.000007 0.026386 0.000013
# 6 0.000015 0.000006 -0.000010 -0.013746 0.000013 0.023336
#
#
# Mechanical properties :
#
#
# Convention : Reuss Voigt Hill
#
# Bulk Modulus (GPa) = 57.45016 71.02439 64.23728
# Shear Modulus (GPa) = 40.98181 56.34988 48.66585
#
# Velocity S-wave (km/s) = 4.27862 5.01712 4.66252
# Velocity P-wave (km/s) = 7.07614 8.08014 7.59475
#
# Compressibility (1/GPa) = 0.01740639
#
# Stress axis : x y z
#
# Youngs Moduli (GPa) = 81.83467 79.93393 137.32768
#
# Poissons Ratio (x) = 0.09016 0.38786
# Poissons Ratio (y) = 0.09231 0.46011
# Poissons Ratio (z) = 0.23113 0.26781
#
# Static dielectric constant tensor:
#      x y z
#    x 1.782690 0.000010 0.075710 
#    y 0.000010 1.815780 0.000010 
#    z 0.075710 0.000010 1.722540 
# 
# From -- ./inp_files/51702.got.cif
#   From: 2010.05.17/outbox.cif.g08.bks.cpg/sg5_26_cif.got.tgz:51702.got - 2010.06.03 18:56:24.
