data_PCOD9123838
_publ_section_title
;
Structure prediction by ZEFSAII (Michael W. Deem and Ramdas Pophale) SiO2 
 PCOD9123838
Probable space group: C 2
;
_chemical_formula_sum "Si O2"
_cell_formula_units_Z 32
_cell_length_a 18.742939
_cell_length_b 8.933130
_cell_length_c 13.805309
_cell_angle_alpha 90.000000
_cell_angle_beta 145.177840
_cell_angle_gamma 90.000000
_cell_volume 1319.918914
_symmetry_space_group_name_H-M "C 2"
_symmetry_group_IT_number 5
_symmetry_cell_setting 'monoclinic'
loop_
_space_group_symop_operation_xyz
x,y,z
-x,y,-z
1/2+x,1/2+y,z
1/2-x,1/2+y,-z
loop_
_atom_site_type_symbol
_atom_site_label
_atom_site_fract_x
_atom_site_fract_y
_atom_site_fract_z
Si Si1 0.852797 0.983320 0.427166
Si Si2 0.474610 0.187831 0.586887
Si Si3 0.712903 0.543069 0.258598
Si Si4 0.368978 0.813483 0.738062
Si Si5 0.521646 0.089706 0.911630
Si Si6 0.776663 0.752607 0.615495
Si Si7 0.214429 0.015945 0.855691
Si Si8 0.749988 0.660130 0.083903
O O1 0.946062 0.862160 0.577719
O O2 0.720398 0.891266 0.281254
O O3 0.871376 0.022546 0.335337
O O4 0.818844 0.127621 0.451228
O O5 0.500000 0.192483 0.500000
O O6 0.348177 0.093239 0.453384
O O7 0.602152 0.121473 0.770439
O O8 0.614853 0.645394 0.208121
O O9 0.698125 0.372885 0.272679
O O10 0.713852 0.586458 0.146642
O O11 0.289894 0.822009 0.551677
O O12 0.489459 0.914216 0.862969
O O13 0.409563 0.178792 0.734645
O O14 0.500000 0.124564 0.000000
O O15 0.662895 0.110450 0.039136
O O16 0.246470 0.840752 0.908584
O O17 0.171981 0.092363 0.908201
#
# Coordination Sequence:
#
# PCOD9123838 Si02
#       8
#     4   4   4   4   4   4   4   4
#     4  10  20  41  65  88 133 168 214 274 331 391
#     4   9  18  41  67  87 119 183 215 256 328 386
#     4  10  20  41  65  96 130 163 225 275 326 381
#     4  10  20  40  65  91 129 172 216 271 333 399
#     4  11  22  43  67  93 133 179 206 271 350 389
#     4  11  23  36  67 104 126 165 224 284 321 397
#     4  12  24  44  66  95 133 178 221 265 343 395
#     4  11  25  42  70  92 136 182 221 273 325 405
#
# _framework density 24.243914
#
# number of rings (size 3 to 8) (size 9 to 14) (size 15 to 20)
#    0.000    1.500    6.250    1.500    7.000    0.000 
#    2.250    3.750    0.000    0.000    0.000    0.000 
#    0.000    0.000    0.000    0.000    0.000    0.000 
#
# Total GULP energy -89461.150815 kJ/mol
# GULP energy per Si atom -5591.321926 kJ/mol
# Density = 2.418873 g / cm^3
# Si number density = 24.243914 Si / 1000 Ang^3
#
#
#
# Elastic Constant Matrix: (Units=GPa)
#
#
# Indices 1 2 3 4 5 6 
#
# 1 61.6523 28.5184 33.9114 0.0000 -15.7635 0.0000
# 2 28.5184 95.5363 11.8212 0.0000 -9.0116 0.0000
# 3 33.9114 11.8212 101.2750 0.0000 -17.8956 0.0000
# 4 0.0000 0.0000 0.0000 36.2990 0.0000 -7.1982
# 5 -15.7635 -9.0116 -17.8956 0.0000 46.7108 0.0000
# 6 0.0000 0.0000 0.0000 -7.1982 0.0000 31.2299
#
#
#
# Elastic Compliance Matrix: (Units=1/GPa)
#
#
# Indices 1 2 3 4 5 6 
#
# 1 0.023576 -0.005829 -0.006443 0.000000 0.004363 0.000000
# 2 -0.005829 0.012187 0.000640 0.000000 0.000630 0.000000
# 3 -0.006443 0.000640 0.012436 0.000000 0.002714 0.000000
# 4 0.000000 0.000000 0.000000 0.028868 0.000000 0.006654
# 5 0.004363 0.000630 0.002714 0.000000 0.024042 0.000000
# 6 0.000000 0.000000 0.000000 0.006654 0.000000 0.033554
#
#
# Mechanical properties :
#
#
# Convention : Reuss Voigt Hill
#
# Bulk Modulus (GPa) = 40.10131 45.21840 42.65986
# Shear Modulus (GPa) = 30.07730 35.12879 32.60305
#
# Velocity S-wave (km/s) = 3.52605 3.81067 3.67112
# Velocity P-wave (km/s) = 5.75796 6.16875 5.96689
#
# Compressibility (1/GPa) = 0.02493684
#
# Stress axis : x y z
#
# Youngs Moduli (GPa) = 42.41668 82.05267 80.41020
#
# Poissons Ratio (x) = 0.47827 0.51807
# Poissons Ratio (y) = 0.24724 -0.05150
# Poissons Ratio (z) = 0.27328 -0.05255
#
# Static dielectric constant tensor:
#      x y z
#    x 1.957000 0.000000 0.033100 
#    y 0.000000 1.919000 0.000000 
#    z 0.033100 0.000000 1.976910 
# 
# From -- ./inp_files/57725.got.cif
#   From: 2010.05.17/outbox.cif.g08.bks.cpg/sg5_29_cif.got.tgz:57725.got - 2010.06.03 18:56:24.
