data_PCOD9123237
_publ_section_title
;
Structure prediction by ZEFSAII (Michael W. Deem and Ramdas Pophale) SiO2 
 PCOD9123237
Probable space group: C 2
;
_chemical_formula_sum "Si O2"
_cell_formula_units_Z 16
_cell_length_a 7.356186
_cell_length_b 20.494169
_cell_length_c 5.300919
_cell_angle_alpha 90.000000
_cell_angle_beta 118.694191
_cell_angle_gamma 90.000000
_cell_volume 701.019752
_symmetry_space_group_name_H-M "C 2"
_symmetry_group_IT_number 5
_symmetry_cell_setting 'monoclinic'
loop_
_space_group_symop_operation_xyz
x,y,z
-x,y,-z
1/2+x,1/2+y,z
1/2-x,1/2+y,-z
loop_
_atom_site_type_symbol
_atom_site_label
_atom_site_fract_x
_atom_site_fract_y
_atom_site_fract_z
Si Si1 0.000000 0.074131 0.000000
Si Si2 0.868423 0.672766 0.157549
Si Si3 0.000000 0.987542 0.500000
Si Si4 0.246482 0.815716 0.958732
Si Si5 0.275119 0.367989 0.549398
O O1 0.200850 0.120229 0.134627
O O2 0.974484 0.030427 0.233472
O O3 0.759475 0.739332 0.986094
O O4 0.000000 0.688172 0.500000
O O5 0.000000 0.649756 0.000000
O O6 0.811752 0.938689 0.451015
O O7 0.332479 0.824123 0.734168
O O8 0.005244 0.837813 0.751496
O O9 0.313442 0.863280 0.229712
#
# Coordination Sequence:
#
# PCOD9123237 Si02
#       5
#     2   4   2   4   4
#     4  12  26  38  60  98 122 172 206 232 318 376
#     4  12  22  40  62  91 131 160 200 258 306 372
#     4  10  20  38  52  92 128 152 220 248 278 388
#     4   9  14  28  52  90 104 141 204 235 307 345
#     4   9  15  28  58  86 104 151 207 243 289 359
#
# _framework density 22.823891
#
# number of rings (size 3 to 8) (size 9 to 14) (size 15 to 20)
#    0.000    2.000    5.000    4.500    0.000    0.000 
#    0.000    0.000    0.000    0.000   81.250    0.000 
#    0.000    0.000    0.000    0.000    0.000    0.000 
#
# Total GULP energy -44613.292104 kJ/mol
# GULP energy per Si atom -5576.661513 kJ/mol
# Density = 2.277194 g / cm^3
# Si number density = 22.823891 Si / 1000 Ang^3
#
#
#
# Elastic Constant Matrix: (Units=GPa)
#
#
# Indices 1 2 3 4 5 6 
#
# 1 112.5929 27.3500 23.7699 0.0000 -43.8839 0.0000
# 2 27.3500 124.2760 39.7762 0.0000 -13.3908 0.0000
# 3 23.7699 39.7762 163.9238 0.0000 -44.6026 0.0000
# 4 0.0000 0.0000 0.0000 32.0179 0.0000 -61.3374
# 5 -43.8839 -13.3908 -44.6026 0.0000 38.3810 0.0000
# 6 0.0000 0.0000 0.0000 -61.3374 0.0000 -339.8176
#
#
#
# Elastic Compliance Matrix: (Units=1/GPa)
#
#
# Indices 1 2 3 4 5 6 
#
# 1 0.018870 -0.002957 0.005222 0.000000 0.026612 0.000000
# 2 -0.002957 0.009207 -0.002707 0.000000 -0.003314 0.000000
# 3 0.005222 -0.002707 0.010775 0.000000 0.017548 0.000000
# 4 0.000000 0.000000 0.000000 0.023208 0.000000 -0.004189
# 5 0.026612 -0.003314 0.017548 0.000000 0.075718 0.000000
# 6 0.000000 0.000000 0.000000 -0.004189 0.000000 -0.002187
#
#
# Mechanical properties :
#
#
# Convention : Reuss Voigt Hill
#
# Bulk Modulus (GPa) = 26.33809 64.73163 45.53486
# Shear Modulus (GPa) = 33.52805 -33.22394 0.15206
#
# Velocity S-wave (km/s) = 3.83690 -3.81946 0.25839
# Velocity P-wave (km/s) = 5.58514 2.99532 4.48139
#
# Compressibility (1/GPa) = 0.03796783
#
# Stress axis : x y z
#
# Youngs Moduli (GPa) = 52.99540 108.61765 92.81049
#
# Poissons Ratio (x) = 0.32115 -0.48468
# Poissons Ratio (y) = 0.15669 0.25124
# Poissons Ratio (z) = -0.27676 0.29404
#
# Static dielectric constant tensor:
#      x y z
#    x 6.844930 0.000000 0.261290 
#    y 0.000000 1.815960 0.000000 
#    z 0.261290 0.000000 1.954010 
# 
# From -- ./inp_files/2237.got.cif
#   From: 2010.05.17/outbox.cif.g08.bks.cpg/sg5_2_cif.got.tgz:2237.got - 2010.06.03 18:56:24.
