data_PCOD9123981
_publ_section_title
;
Structure prediction by ZEFSAII (Michael W. Deem and Ramdas Pophale) SiO2 
 PCOD9123981
Probable space group: C 2
;
_chemical_formula_sum "Si O2"
_cell_formula_units_Z 20
_cell_length_a 11.657300
_cell_length_b 7.407473
_cell_length_c 22.723052
_cell_angle_alpha 90.000000
_cell_angle_beta 24.832516
_cell_angle_gamma 90.000000
_cell_volume 824.043378
_symmetry_space_group_name_H-M "C 2"
_symmetry_group_IT_number 5
_symmetry_cell_setting 'monoclinic'
loop_
_space_group_symop_operation_xyz
x,y,z
-x,y,-z
1/2+x,1/2+y,z
1/2-x,1/2+y,-z
loop_
_atom_site_type_symbol
_atom_site_label
_atom_site_fract_x
_atom_site_fract_y
_atom_site_fract_z
Si Si1 0.502239 0.239570 0.188015
Si Si2 0.010185 0.089959 0.240899
Si Si3 0.819314 0.355330 0.929186
Si Si4 0.971238 0.305073 0.377796
Si Si5 0.379720 0.197994 0.677452
O O1 0.562742 0.377335 0.212075
O O2 0.176495 0.228210 0.331735
O O3 0.647692 0.047516 0.117534
O O4 0.601193 0.342143 0.082220
O O5 0.217951 0.199747 0.101885
O O6 0.002156 0.175906 0.307789
O O7 0.725228 0.133547 0.338994
O O8 0.114563 0.308673 0.820770
O O9 0.658823 0.306270 0.543622
O O10 0.055270 0.508962 0.321542
#
# Coordination Sequence:
#
# PCOD9123981 Si02
#       5
#     4   4   4   4   4
#     4  11  20  40  64  89 125 170 203 263 320 375
#     4   9  22  38  63  90 124 161 213 259 312 381
#     4  10  20  41  61  87 131 163 205 262 324 361
#     4  11  20  40  64  90 126 163 218 257 316 383
#     4   9  21  38  61  92 125 168 203 269 316 371
#
# _framework density 24.270568999999998
#
# number of rings (size 3 to 8) (size 9 to 14) (size 15 to 20)
#    1.200    0.800    2.000    1.800    0.000    0.800 
#    7.200    0.000    4.400    0.000    0.000    0.000 
#    0.000    0.000    0.000    0.000    0.000    0.000 
#
# Total GULP energy -55883.468139 kJ/mol
# GULP energy per Si atom -5588.346814 kJ/mol
# Density = 2.421533 g / cm^3
# Si number density = 24.270569 Si / 1000 Ang^3
#
#
#
# Elastic Constant Matrix: (Units=GPa)
#
#
# Indices 1 2 3 4 5 6 
#
# 1 70.3360 28.0340 13.8363 -0.0014 -0.6817 0.0003
# 2 28.0340 144.9341 14.6667 -0.0014 -7.9810 0.0002
# 3 13.8363 14.6667 97.8482 -0.0141 -15.2654 0.0008
# 4 -0.0014 -0.0014 -0.0141 27.0489 -0.0014 -5.3339
# 5 -0.6817 -7.9810 -15.2654 -0.0014 21.5761 -0.0007
# 6 0.0003 0.0002 0.0008 -5.3339 -0.0007 17.2639
#
#
#
# Elastic Compliance Matrix: (Units=1/GPa)
#
#
# Indices 1 2 3 4 5 6 
#
# 1 0.015791 -0.002955 -0.002116 -0.000001 -0.002092 0.000000
# 2 -0.002955 0.007643 -0.000339 0.000000 0.002494 0.000000
# 3 -0.002116 -0.000339 0.011848 0.000007 0.008190 0.000002
# 4 -0.000001 0.000000 0.000007 0.039369 0.000008 0.012163
# 5 -0.002092 0.002494 0.008190 0.000008 0.052999 0.000004
# 6 0.000000 0.000000 0.000002 0.012163 0.000004 0.061682
#
#
# Mechanical properties :
#
#
# Convention : Reuss Voigt Hill
#
# Bulk Modulus (GPa) = 40.88075 47.35469 44.11772
# Shear Modulus (GPa) = 24.00311 30.28322 27.14316
#
# Velocity S-wave (km/s) = 3.14822 3.53616 3.34781
# Velocity P-wave (km/s) = 5.48592 6.01881 5.75853
#
# Compressibility (1/GPa) = 0.02446139
#
# Stress axis : x y z
#
# Youngs Moduli (GPa) = 63.32526 130.83927 84.40456
#
# Poissons Ratio (x) = 0.38670 0.17863
# Poissons Ratio (y) = 0.18716 0.02858
# Poissons Ratio (z) = 0.13402 0.04430
#
# Static dielectric constant tensor:
#      x y z
#    x 1.916780 0.000000 -0.031880 
#    y 0.000000 1.958760 0.000000 
#    z -0.031880 0.000000 1.919900 
# 
# From -- ./inp_files/68196.got.cif
#   From: 2010.05.17/outbox.cif.g08.bks.cpg/sg5_35_cif.got.tgz:68196.got - 2010.06.03 18:56:24.
