data_PCOD9123573
_publ_section_title
;
Structure prediction by ZEFSAII (Michael W. Deem and Ramdas Pophale) SiO2 
 PCOD9123573
Probable space group: C 2
;
_chemical_formula_sum "Si O2"
_cell_formula_units_Z 28
_cell_length_a 19.736973
_cell_length_b 13.922775
_cell_length_c 5.534879
_cell_angle_alpha 90.000000
_cell_angle_beta 113.602427
_cell_angle_gamma 90.000000
_cell_volume 1393.714641
_symmetry_space_group_name_H-M "C 2"
_symmetry_group_IT_number 5
_symmetry_cell_setting 'monoclinic'
loop_
_space_group_symop_operation_xyz
x,y,z
-x,y,-z
1/2+x,1/2+y,z
1/2-x,1/2+y,-z
loop_
_atom_site_type_symbol
_atom_site_label
_atom_site_fract_x
_atom_site_fract_y
_atom_site_fract_z
Si Si1 0.830955 0.053460 0.912654
Si Si2 0.195310 0.437939 0.481699
Si Si3 0.132913 0.781757 0.598699
Si Si4 0.584045 0.077918 0.562564
Si Si5 0.216929 0.581686 0.127672
Si Si6 0.225779 0.226898 0.419307
Si Si7 0.416413 0.374896 0.959393
O O1 0.832872 0.148325 0.752640
O O2 0.762755 0.984474 0.728694
O O3 0.797177 0.086292 0.117592
O O4 0.901353 0.986466 0.000427
O O5 0.121898 0.494744 0.458014
O O6 0.211449 0.476683 0.237699
O O7 0.194572 0.323764 0.488591
O O8 0.086157 0.686396 0.464026
O O9 0.219878 0.754490 0.725585
O O10 0.106905 0.821657 0.822706
O O11 0.126566 0.849656 0.352474
O O12 0.500000 0.053348 0.500000
O O13 0.642938 0.090193 0.865081
O O14 0.220512 0.666160 0.328654
O O15 0.500000 0.356167 0.000000
#
# Coordination Sequence:
#
# PCOD9123573 Si02
#       7
#     4   4   4   4   4   4   4
#     4  10  22  36  62  91 122 166 213 266 310 385
#     4  10  21  38  59  88 123 164 213 262 319 376
#     4  12  23  41  65  98 130 165 211 268 329 393
#     4  11  23  38  58  93 129 165 208 258 330 399
#     4  10  20  39  61  94 121 169 209 270 328 368
#     4  11  21  38  66  94 121 163 225 268 320 377
#     4  12  26  42  64  96 134 172 210 266 333 392
#
# _framework density 20.090195999999999
#
# number of rings (size 3 to 8) (size 9 to 14) (size 15 to 20)
#    0.000    1.143    5.714    3.000    2.000    2.857 
#    0.000    0.000    6.286    0.000    0.000    0.000 
#    0.000    0.000    0.000    0.000    0.000    0.000 
#
# Total GULP energy -78020.157262 kJ/mol
# GULP energy per Si atom -5572.868376 kJ/mol
# Density = 2.004447 g / cm^3
# Si number density = 20.090196 Si / 1000 Ang^3
#
#
#
# Elastic Constant Matrix: (Units=GPa)
#
#
# Indices 1 2 3 4 5 6 
#
# 1 66.7189 29.1715 19.9304 0.0000 -19.2971 0.0000
# 2 29.1715 140.7698 22.1150 0.0000 -11.6811 0.0000
# 3 19.9304 22.1150 56.0560 0.0000 -20.3520 0.0000
# 4 0.0000 0.0000 0.0000 19.7115 0.0000 -3.4676
# 5 -19.2971 -11.6811 -20.3520 0.0000 22.1173 0.0000
# 6 0.0000 0.0000 0.0000 -3.4676 0.0000 29.3181
#
#
#
# Elastic Compliance Matrix: (Units=1/GPa)
#
#
# Indices 1 2 3 4 5 6 
#
# 1 0.021188 -0.002960 -0.000333 0.000000 0.016617 0.000000
# 2 -0.002960 0.008039 -0.002275 0.000000 -0.000430 0.000000
# 3 -0.000333 -0.002275 0.027501 0.000000 0.023814 0.000000
# 4 0.000000 0.000000 0.000000 0.051810 0.000000 0.006128
# 5 0.016617 -0.000430 0.023814 0.000000 0.081398 0.000000
# 6 0.000000 0.000000 0.000000 0.006128 0.000000 0.034833
#
#
# Mechanical properties :
#
#
# Convention : Reuss Voigt Hill
#
# Bulk Modulus (GPa) = 21.93322 45.10875 33.52099
# Shear Modulus (GPa) = 19.91222 27.05123 23.48172
#
# Velocity S-wave (km/s) = 3.15165 3.67343 3.42250
# Velocity P-wave (km/s) = 4.91782 6.36349 5.68678
#
# Compressibility (1/GPa) = 0.04559293
#
# Stress axis : x y z
#
# Youngs Moduli (GPa) = 47.19699 124.39557 36.36175
#
# Poissons Ratio (x) = 0.36816 0.01209
# Poissons Ratio (y) = 0.13968 0.08274
# Poissons Ratio (z) = 0.01569 0.28306
#
# Static dielectric constant tensor:
#      x y z
#    x 1.731650 0.000000 -0.051940 
#    y 0.000000 1.758260 0.000000 
#    z -0.051940 0.000000 1.806180 
# 
# From -- ./inp_files/8561.got.cif
#   From: 2010.05.17/outbox.cif.g08.bks.cpg/sg5_5_cif.got.tgz:8561.got - 2010.06.03 18:56:24.
