data_PCOD9123600
_publ_section_title
;
Structure prediction by ZEFSAII (Michael W. Deem and Ramdas Pophale) SiO2 
 PCOD9123600
Probable space group: C 2
;
_chemical_formula_sum "Si O2"
_cell_formula_units_Z 24
_cell_length_a 9.176693
_cell_length_b 15.886228
_cell_length_c 11.788571
_cell_angle_alpha 90.000000
_cell_angle_beta 37.252508
_cell_angle_gamma 90.000000
_cell_volume 1040.302200
_symmetry_space_group_name_H-M "C 2"
_symmetry_group_IT_number 5
_symmetry_cell_setting 'monoclinic'
loop_
_space_group_symop_operation_xyz
x,y,z
-x,y,-z
1/2+x,1/2+y,z
1/2-x,1/2+y,-z
loop_
_atom_site_type_symbol
_atom_site_label
_atom_site_fract_x
_atom_site_fract_y
_atom_site_fract_z
Si Si1 0.029606 0.043050 0.778965
Si Si2 0.764385 0.336534 0.510845
Si Si3 0.731334 0.377044 0.122954
Si Si4 0.862318 0.654780 0.463932
Si Si5 0.212811 0.194958 0.960068
Si Si6 0.758309 0.907237 0.218046
O O1 0.205175 0.070308 0.568892
O O2 0.202866 0.005374 0.770644
O O3 0.848043 0.966401 0.876896
O O4 0.885615 0.127653 0.891872
O O5 0.485972 0.358375 0.651998
O O6 0.794320 0.239360 0.459573
O O7 0.750974 0.357521 0.655116
O O8 0.998319 0.388013 0.324603
O O9 0.737605 0.292153 0.042470
O O10 0.000000 0.385892 0.000000
O O11 0.000000 0.663265 0.500000
O O12 0.052809 0.658248 0.245509
O O13 0.000000 0.199760 0.000000
O O14 0.000000 0.884909 0.000000
#
# Coordination Sequence:
#
# PCOD9123600 Si02
#       6
#     4   4   4   4   4   4
#     4  11  23  38  68  97 127 173 225 281 329 394
#     4   9  22  42  65  96 131 175 224 271 333 397
#     4   9  21  41  62  92 135 172 215 271 332 402
#     4  11  23  38  64  95 133 170 225 276 325 400
#     4  10  20  39  63  90 125 166 221 271 327 391
#     4  10  22  41  69 100 130 171 226 282 337 387
#
# _framework density 23.070218000000001
#
# number of rings (size 3 to 8) (size 9 to 14) (size 15 to 20)
#    0.000    2.000    1.667    0.500    4.667    4.000 
#    0.000   10.833    0.000    0.000    0.000    0.000 
#    0.000    0.000    0.000    0.000    0.000    0.000 
#
# Total GULP energy -66886.310626 kJ/mol
# GULP energy per Si atom -5573.859219 kJ/mol
# Density = 2.301771 g / cm^3
# Si number density = 23.070218 Si / 1000 Ang^3
#
#
#
# Elastic Constant Matrix: (Units=GPa)
#
#
# Indices 1 2 3 4 5 6 
#
# 1 30.0520 38.4493 38.9377 -0.0009 -19.1456 -0.0001
# 2 38.4493 168.1079 70.8537 -0.0028 -19.2543 0.0006
# 3 38.9377 70.8537 176.1270 -0.0077 -36.8297 0.0017
# 4 -0.0009 -0.0028 -0.0077 56.3794 0.0032 -8.9501
# 5 -19.1456 -19.2543 -36.8297 0.0032 43.7409 -0.0009
# 6 -0.0001 0.0006 0.0017 -8.9501 -0.0009 60.9115
#
#
#
# Elastic Compliance Matrix: (Units=1/GPa)
#
#
# Indices 1 2 3 4 5 6 
#
# 1 0.067651 -0.010426 -0.006711 -0.000001 0.019371 0.000000
# 2 -0.010426 0.008798 -0.001673 0.000000 -0.002100 0.000000
# 3 -0.006711 -0.001673 0.008576 0.000001 0.003547 0.000000
# 4 -0.000001 0.000000 0.000001 0.018161 -0.000001 0.002668
# 5 0.019371 -0.002100 0.003547 -0.000001 0.033403 0.000000
# 6 0.000000 0.000000 0.000000 0.002668 0.000000 0.016809
#
#
# Mechanical properties :
#
#
# Convention : Reuss Voigt Hill
#
# Bulk Modulus (GPa) = 21.09504 74.52982 47.81243
# Shear Modulus (GPa) = 24.17545 47.27609 35.72577
#
# Velocity S-wave (km/s) = 3.24065 4.53175 3.93945
# Velocity P-wave (km/s) = 4.81312 7.73034 6.43911
#
# Compressibility (1/GPa) = 0.04740451
#
# Stress axis : x y z
#
# Youngs Moduli (GPa) = 14.78168 113.66283 116.59904
#
# Poissons Ratio (x) = 1.18501 0.78255
# Poissons Ratio (y) = 0.15411 0.19513
# Poissons Ratio (z) = 0.09921 0.19021
#
# Static dielectric constant tensor:
#      x y z
#    x 1.989060 0.000000 -0.019850 
#    y 0.000000 1.875660 0.000000 
#    z -0.019850 0.000000 1.914150 
# 
# From -- ./inp_files/53131.got.cif
#   From: 2010.05.17/outbox.cif.g08.bks.cpg/sg5_27_cif.got.tgz:53131.got - 2010.06.03 18:56:24.
