data_PCOD9123120
_publ_section_title
;
Structure prediction by ZEFSAII (Michael W. Deem and Ramdas Pophale) SiO2 
 PCOD9123120
Probable space group: C 2
;
_chemical_formula_sum "Si O2"
_cell_formula_units_Z 24
_cell_length_a 8.494562
_cell_length_b 28.164406
_cell_length_c 9.262857
_cell_angle_alpha 90.000000
_cell_angle_beta 147.946965
_cell_angle_gamma 90.000000
_cell_volume 1176.085577
_symmetry_space_group_name_H-M "C 2"
_symmetry_group_IT_number 5
_symmetry_cell_setting 'monoclinic'
loop_
_space_group_symop_operation_xyz
x,y,z
-x,y,-z
1/2+x,1/2+y,z
1/2-x,1/2+y,-z
loop_
_atom_site_type_symbol
_atom_site_label
_atom_site_fract_x
_atom_site_fract_y
_atom_site_fract_z
Si Si1 0.717436 0.094890 0.390842
Si Si2 0.414139 0.643162 0.099519
Si Si3 0.839249 0.490250 0.723979
Si Si4 0.702616 0.393472 0.515947
Si Si5 0.702128 0.334550 0.015646
Si Si6 0.666993 0.733508 0.782113
O O1 0.000000 0.102492 0.500000
O O2 0.874622 0.103071 0.666492
O O3 0.573194 0.042531 0.260241
O O4 0.433554 0.129306 0.153535
O O5 0.476841 0.690186 0.243478
O O6 0.500000 0.650223 0.000000
O O7 0.500000 0.498251 0.500000
O O8 0.830565 0.447309 0.602275
O O9 0.000000 0.476747 0.000000
O O10 0.500000 0.396326 0.500000
O O11 0.989933 0.361415 0.745057
O O12 0.492794 0.365088 0.245215
O O13 0.792083 0.278988 0.080745
O O14 0.500000 0.336296 0.000000
O O15 0.500000 0.745087 0.500000
O O16 0.000000 0.719228 0.000000
#
# Coordination Sequence:
#
# PCOD9123120 Si02
#       6
#     4   4   4   4   4   4
#     4  11  22  41  66  89 120 168 212 244 293 367
#     4  12  25  40  61  95 130 154 196 262 318 356
#     4  10  20  37  62  92 120 158 211 252 286 354
#     4  11  22  39  63  91 122 158 202 251 302 355
#     4  11  23  41  61  89 123 158 202 251 302 360
#     4  11  23  42  65  86 117 166 213 244 291 372
#
# _framework density 20.406679
#
# number of rings (size 3 to 8) (size 9 to 14) (size 15 to 20)
#    0.000    1.000    0.000   10.500    0.000    1.333 
#    0.000    5.000    0.000    0.000    0.000    0.000 
#    0.000    0.000    0.000    0.000    0.000    0.000 
#
# Total GULP energy -66862.449457 kJ/mol
# GULP energy per Si atom -5571.870788 kJ/mol
# Density = 2.036023 g / cm^3
# Si number density = 20.406679 Si / 1000 Ang^3
#
#
#
# Elastic Constant Matrix: (Units=GPa)
#
#
# Indices 1 2 3 4 5 6 
#
# 1 33.0233 39.3063 5.9519 0.0000 5.1763 0.0000
# 2 39.3063 137.0710 36.6560 0.0000 -10.9505 0.0000
# 3 5.9519 36.6560 148.7658 0.0000 1.6488 0.0000
# 4 0.0000 0.0000 0.0000 36.2364 0.0000 -1.5012
# 5 5.1763 -10.9505 1.6488 0.0000 38.6272 0.0000
# 6 0.0000 0.0000 0.0000 -1.5012 0.0000 32.3236
#
#
#
# Elastic Compliance Matrix: (Units=1/GPa)
#
#
# Indices 1 2 3 4 5 6 
#
# 1 0.050772 -0.016019 0.002042 0.000000 -0.011432 0.000000
# 2 -0.016019 0.013073 -0.002647 0.000000 0.005966 0.000000
# 3 0.002042 -0.002647 0.007307 0.000000 -0.001336 0.000000
# 4 0.000000 0.000000 0.000000 0.027650 0.000000 0.001284
# 5 -0.011432 0.005966 -0.001336 0.000000 0.029169 0.000000
# 6 0.000000 0.000000 0.000000 0.001284 0.000000 0.030997
#
#
# Mechanical properties :
#
#
# Convention : Reuss Voigt Hill
#
# Bulk Modulus (GPa) = 26.38051 53.63206 40.00628
# Shear Modulus (GPa) = 24.40818 37.23383 30.82100
#
# Velocity S-wave (km/s) = 3.46220 4.27616 3.89052
# Velocity P-wave (km/s) = 5.37940 7.12175 6.31099
#
# Compressibility (1/GPa) = 0.03790678
#
# Stress axis : x y z
#
# Youngs Moduli (GPa) = 19.69586 76.49132 136.85193
#
# Poissons Ratio (x) = 1.22530 -0.27951
# Poissons Ratio (y) = 0.31551 0.36218
# Poissons Ratio (z) = -0.04023 0.20244
#
# Static dielectric constant tensor:
#      x y z
#    x 1.700280 0.000000 -0.027930 
#    y 0.000000 1.871700 0.000000 
#    z -0.027930 0.000000 1.732950 
# 
# From -- ./inp_files/17662.got.cif
#   From: 2010.05.17/outbox.cif.g08.bks.cpg/sg5_9_cif.got.tgz:17662.got - 2010.06.03 18:56:24.
