data_PCOD9123226
_publ_section_title
;
Structure prediction by ZEFSAII (Michael W. Deem and Ramdas Pophale) SiO2 
 PCOD9123226
Probable space group: C 2
;
_chemical_formula_sum "Si O2"
_cell_formula_units_Z 26
_cell_length_a 18.952483
_cell_length_b 9.448070
_cell_length_c 7.272802
_cell_angle_alpha 90.000000
_cell_angle_beta 59.189235
_cell_angle_gamma 90.000000
_cell_volume 1118.498016
_symmetry_space_group_name_H-M "C 2"
_symmetry_group_IT_number 5
_symmetry_cell_setting 'monoclinic'
loop_
_space_group_symop_operation_xyz
x,y,z
-x,y,-z
1/2+x,1/2+y,z
1/2-x,1/2+y,-z
loop_
_atom_site_type_symbol
_atom_site_label
_atom_site_fract_x
_atom_site_fract_y
_atom_site_fract_z
Si Si1 0.303819 0.811230 0.209706
Si Si2 0.674895 0.765890 0.382441
Si Si3 0.973337 0.850128 0.818447
Si Si4 0.000000 0.343864 0.500000
Si Si5 0.941800 0.528733 0.901600
Si Si6 0.185750 0.989142 0.877083
Si Si7 0.148028 0.955992 0.491849
O O1 0.328529 0.801587 0.393954
O O2 0.310898 0.658077 0.106131
O O3 0.206758 0.835912 0.338050
O O4 0.359153 0.939198 0.055357
O O5 0.584807 0.765962 0.415749
O O6 0.736169 0.881650 0.208369
O O7 0.691376 0.598549 0.356969
O O8 0.941186 0.690057 0.832153
O O9 0.052719 0.910579 0.605126
O O10 0.892275 0.942348 0.900943
O O11 0.000000 0.856461 0.000000
O O12 0.989939 0.440109 0.688854
O O13 0.000000 0.531389 0.000000
O O14 0.163086 0.967469 0.691779
#
# Coordination Sequence:
#
# PCOD9123226 Si02
#       7
#     4   4   4   2   4   4   4
#     4  10  20  37  68  98 126 174 219 263 330 388
#     4  10  21  39  62  94 138 170 215 274 321 383
#     4   9  19  35  63  99 130 169 219 266 323 393
#     4  12  26  40  66 102 132 168 224 270 316 392
#     4  11  23  41  67  94 134 176 217 265 328 382
#     4   9  19  34  63  99 132 166 220 269 321 389
#     4   9  19  35  64  97 130 171 218 266 327 387
#
# _framework density 23.245460000000001
#
# number of rings (size 3 to 8) (size 9 to 14) (size 15 to 20)
#    0.000    2.154    1.538    0.923    4.308    4.308 
#    0.000    3.846    0.000    0.000    0.000    0.000 
#    0.000    0.000    0.000    0.000    0.000    0.000 
#
# Total GULP energy -72525.255601 kJ/mol
# GULP energy per Si atom -5578.865815 kJ/mol
# Density = 2.319255 g / cm^3
# Si number density = 23.245460 Si / 1000 Ang^3
#
#
#
# Elastic Constant Matrix: (Units=GPa)
#
#
# Indices 1 2 3 4 5 6 
#
# 1 88.7780 30.4527 24.7397 0.0000 -28.9990 0.0000
# 2 30.4527 129.4152 50.4458 0.0000 -42.7440 0.0000
# 3 24.7397 50.4458 84.3898 0.0000 -38.6239 0.0000
# 4 0.0000 0.0000 0.0000 49.6896 0.0000 -11.6808
# 5 -28.9990 -42.7440 -38.6239 0.0000 51.0367 0.0000
# 6 0.0000 0.0000 0.0000 -11.6808 0.0000 20.1936
#
#
#
# Elastic Compliance Matrix: (Units=1/GPa)
#
#
# Indices 1 2 3 4 5 6 
#
# 1 0.013919 -0.000833 -0.000432 0.000000 0.006884 0.000000
# 2 -0.000833 0.011455 -0.003716 0.000000 0.006308 0.000000
# 3 -0.000432 -0.003716 0.019370 0.000000 0.011302 0.000000
# 4 0.000000 0.000000 0.000000 0.023292 0.000000 0.013473
# 5 0.006884 0.006308 0.011302 0.000000 0.037341 0.000000
# 6 0.000000 0.000000 0.000000 0.013473 0.000000 0.057314
#
#
# Mechanical properties :
#
#
# Convention : Reuss Voigt Hill
#
# Bulk Modulus (GPa) = 28.75027 57.09549 42.92288
# Shear Modulus (GPa) = 27.13735 37.31362 32.22548
#
# Velocity S-wave (km/s) = 3.42047 4.01084 3.72736
# Velocity P-wave (km/s) = 5.29098 6.78708 6.08518
#
# Compressibility (1/GPa) = 0.03478229
#
# Stress axis : x y z
#
# Youngs Moduli (GPa) = 71.84502 87.29685 51.62541
#
# Poissons Ratio (x) = 0.07274 0.02228
# Poissons Ratio (y) = 0.05987 0.19185
# Poissons Ratio (z) = 0.03100 0.32441
#
# Static dielectric constant tensor:
#      x y z
#    x 1.950790 0.000000 0.030270 
#    y 0.000000 1.909920 0.000000 
#    z 0.030270 0.000000 1.842500 
# 
# From -- ./inp_files/28888.got.cif
#   From: 2010.05.17/outbox.cif.g08.bks.cpg/sg5_15_cif.got.tgz:28888.got - 2010.06.03 18:56:24.
