data_PCOD9123528
_publ_section_title
;
Structure prediction by ZEFSAII (Michael W. Deem and Ramdas Pophale) SiO2 
 PCOD9123528
Probable space group: C 2
;
_chemical_formula_sum "Si O2"
_cell_formula_units_Z 32
_cell_length_a 20.588676
_cell_length_b 11.031900
_cell_length_c 12.226305
_cell_angle_alpha 90.000000
_cell_angle_beta 149.910361
_cell_angle_gamma 90.000000
_cell_volume 1392.254687
_symmetry_space_group_name_H-M "C 2"
_symmetry_group_IT_number 5
_symmetry_cell_setting 'monoclinic'
loop_
_space_group_symop_operation_xyz
x,y,z
-x,y,-z
1/2+x,1/2+y,z
1/2-x,1/2+y,-z
loop_
_atom_site_type_symbol
_atom_site_label
_atom_site_fract_x
_atom_site_fract_y
_atom_site_fract_z
Si Si1 0.786530 0.418050 0.186934
Si Si2 0.745213 0.559758 0.582266
Si Si3 0.119183 0.692175 0.412426
Si Si4 0.800621 0.151015 0.250056
Si Si5 0.502301 0.436101 0.871539
Si Si6 0.107011 0.645995 0.758264
Si Si7 0.791271 0.888377 0.176395
Si Si8 0.638860 0.817409 0.152359
O O1 0.851340 0.290702 0.319660
O O2 0.868681 0.538280 0.290856
O O3 0.652840 0.444246 0.056640
O O4 0.745540 0.404740 0.001524
O O5 0.839693 0.613031 0.629841
O O6 0.750987 0.639854 0.700997
O O7 0.598125 0.537870 0.322791
O O8 0.806061 0.430935 0.700239
O O9 0.051888 0.813395 0.264930
O O10 0.019753 0.637078 0.352338
O O11 0.254683 0.716315 0.670200
O O12 0.856822 0.011656 0.319986
O O13 0.711858 0.149791 0.011791
O O14 0.500000 0.432390 0.000000
O O15 0.124737 0.767654 0.712754
O O16 0.663288 0.858855 0.062889
O O17 0.500000 0.786588 0.000000
#
# Coordination Sequence:
#
# PCOD9123528 Si02
#       8
#     4   4   4   4   4   4   4   4
#     4  10  20  38  69 105 133 188 230 285 363 414
#     4  10  24  39  67 102 131 181 243 296 352 421
#     4  11  23  41  65 102 135 183 240 291 362 419
#     4   9  18  39  65  97 135 182 230 291 343 418
#     4  11  23  43  68  99 140 186 240 302 357 425
#     4  10  21  37  66 104 139 184 232 290 356 424
#     4   9  19  38  63 100 137 181 230 276 348 423
#     4  10  24  41  65  99 135 186 235 295 346 413
#
# _framework density 22.984300999999999
#
# number of rings (size 3 to 8) (size 9 to 14) (size 15 to 20)
#    0.000    2.000    2.500    0.750    5.250    3.000 
#    2.250    1.875    0.000    1.500    0.000    0.000 
#    0.000    0.000    0.000    0.000    0.000    0.000 
#
# Total GULP energy -89130.069180 kJ/mol
# GULP energy per Si atom -5570.629324 kJ/mol
# Density = 2.293199 g / cm^3
# Si number density = 22.984301 Si / 1000 Ang^3
#
#
#
# Elastic Constant Matrix: (Units=GPa)
#
#
# Indices 1 2 3 4 5 6 
#
# 1 215.2161 73.5709 46.6538 0.0000 7.3561 0.0000
# 2 73.5709 154.7558 18.0247 0.0000 5.8249 0.0000
# 3 46.6538 18.0247 55.1839 0.0000 8.7951 0.0000
# 4 0.0000 0.0000 0.0000 2.7280 0.0000 -12.7985
# 5 7.3561 5.8249 8.7951 0.0000 42.6184 0.0000
# 6 0.0000 0.0000 0.0000 -12.7985 0.0000 35.5931
#
#
#
# Elastic Compliance Matrix: (Units=1/GPa)
#
#
# Indices 1 2 3 4 5 6 
#
# 1 0.006541 -0.002567 -0.004723 0.000000 0.000196 0.000000
# 2 -0.002567 0.007734 -0.000267 0.000000 -0.000559 0.000000
# 3 -0.004723 -0.000267 0.022816 0.000000 -0.003857 0.000000
# 4 0.000000 0.000000 0.000000 -0.533597 0.000000 -0.191870
# 5 0.000196 -0.000559 -0.003857 0.000000 0.024302 0.000000
# 6 0.000000 0.000000 0.000000 -0.191870 0.000000 -0.040897
#
#
# Mechanical properties :
#
#
# Convention : Reuss Voigt Hill
#
# Bulk Modulus (GPa) = 45.50078 77.96164 61.73121
# Shear Modulus (GPa) = -10.19034 35.31499 12.56233
#
# Velocity S-wave (km/s) = -2.10790 3.92405 2.34040
# Velocity P-wave (km/s) = 3.73030 7.38404 5.84975
#
# Compressibility (1/GPa) = 0.02197765
#
# Stress axis : x y z
#
# Youngs Moduli (GPa) = 152.87989 129.29489 43.82904
#
# Poissons Ratio (x) = 0.33189 0.20700
# Poissons Ratio (y) = 0.39243 0.01170
# Poissons Ratio (z) = 0.72203 0.03452
#
# Static dielectric constant tensor:
#      x y z
#    x 1.807320 0.000000 0.022870 
#    y 0.000000 2.013310 0.000000 
#    z 0.022870 0.000000 1.892810 
# 
# From -- ./inp_files/47509.got.cif
#   From: 2010.05.17/outbox.cif.g08.bks.cpg/sg5_24_cif.got.tgz:47509.got - 2010.06.03 18:56:24.
