data_PCOD9123807
_publ_section_title
;
Structure prediction by ZEFSAII (Michael W. Deem and Ramdas Pophale) SiO2 
 PCOD9123807
Probable space group: C 2
;
_chemical_formula_sum "Si O2"
_cell_formula_units_Z 26
_cell_length_a 17.908916
_cell_length_b 7.849106
_cell_length_c 27.732523
_cell_angle_alpha 90.000000
_cell_angle_beta 19.764489
_cell_angle_gamma 90.000000
_cell_volume 1318.239496
_symmetry_space_group_name_H-M "C 2"
_symmetry_group_IT_number 5
_symmetry_cell_setting 'monoclinic'
loop_
_space_group_symop_operation_xyz
x,y,z
-x,y,-z
1/2+x,1/2+y,z
1/2-x,1/2+y,-z
loop_
_atom_site_type_symbol
_atom_site_label
_atom_site_fract_x
_atom_site_fract_y
_atom_site_fract_z
Si Si1 0.045161 0.424010 0.809095
Si Si2 0.419856 0.725550 0.449723
Si Si3 0.760429 0.422450 0.885435
Si Si4 0.500000 0.552808 0.500000
Si Si5 0.418113 0.619730 0.142814
Si Si6 0.078067 0.729529 0.858394
Si Si7 0.517485 0.054991 0.638630
O O1 0.303161 0.440007 0.640043
O O2 0.008206 0.258746 0.864035
O O3 0.990964 0.593704 0.872932
O O4 0.916186 0.416999 0.837459
O O5 0.406306 0.667205 0.513312
O O6 0.671376 0.676576 0.281318
O O7 0.225003 0.644361 0.536805
O O8 0.402747 0.926475 0.451108
O O9 0.895940 0.444325 0.754486
O O10 0.602109 0.586426 0.990078
O O11 0.593688 0.263150 0.993945
O O12 0.399915 0.425220 0.175037
O O13 0.180894 0.664605 0.263862
#
# Coordination Sequence:
#
# PCOD9123807 Si02
#       7
#     4   4   4   2   4   4   4
#     4  11  19  39  65  92 125 169 218 261 317 384
#     4  10  22  40  63  89 129 170 210 263 326 379
#     4  10  20  40  64  90 127 172 210 269 328 370
#     4  10  22  40  62  92 128 172 210 270 310 388
#     4   9  22  36  64  88 129 164 214 266 317 378
#     4   8  21  37  60  91 129 160 214 265 314 377
#     4  11  22  41  65  93 130 172 207 270 333 382
#
# _framework density 19.723275000000001
#
# number of rings (size 3 to 8) (size 9 to 14) (size 15 to 20)
#    0.923    1.231    1.538    1.385    4.308    0.000 
#    0.000   13.077   10.154    0.000    0.000    0.000 
#    0.000    0.000    0.000    0.000    0.000    0.000 
#
# Total GULP energy -72379.384177 kJ/mol
# GULP energy per Si atom -5567.644937 kJ/mol
# Density = 1.967838 g / cm^3
# Si number density = 19.723275 Si / 1000 Ang^3
#
#
#
# Elastic Constant Matrix: (Units=GPa)
#
#
# Indices 1 2 3 4 5 6 
#
# 1 76.0753 25.0230 -1.6864 -0.0038 -20.8015 -0.0041
# 2 25.0230 54.5871 13.6053 -0.0116 -0.9949 -0.0107
# 3 -1.6864 13.6053 52.3793 -0.0087 -2.3816 -0.0055
# 4 -0.0038 -0.0116 -0.0087 16.1411 -0.0130 -3.3352
# 5 -20.8015 -0.9949 -2.3816 -0.0130 34.4938 -0.0080
# 6 -0.0041 -0.0107 -0.0055 -3.3352 -0.0080 19.8318
#
#
#
# Elastic Compliance Matrix: (Units=1/GPa)
#
#
# Indices 1 2 3 4 5 6 
#
# 1 0.019657 -0.009716 0.003694 0.000010 0.011829 0.000006
# 2 -0.009716 0.024391 -0.006905 0.000009 -0.005632 0.000008
# 3 0.003694 -0.006905 0.021163 0.000011 0.003490 0.000006
# 4 0.000010 0.000009 0.000011 0.064184 0.000034 0.010794
# 5 0.011829 -0.005632 0.003490 0.000034 0.036203 0.000021
# 6 0.000006 0.000008 0.000006 0.010794 0.000021 0.052239
#
#
# Mechanical properties :
#
#
# Convention : Reuss Voigt Hill
#
# Bulk Modulus (GPa) = 25.40726 28.54726 26.97726
# Shear Modulus (GPa) = 19.46971 23.83334 21.65153
#
# Velocity S-wave (km/s) = 3.14529 3.47996 3.31685
# Velocity P-wave (km/s) = 5.10885 5.53644 5.32693
#
# Compressibility (1/GPa) = 0.03935883
#
# Stress axis : x y z
#
# Youngs Moduli (GPa) = 50.87224 40.99792 47.25324
#
# Poissons Ratio (x) = 0.39834 -0.17457
# Poissons Ratio (y) = 0.49428 0.32626
# Poissons Ratio (z) = -0.18794 0.28307
#
# Static dielectric constant tensor:
#      x y z
#    x 1.687710 0.000020 -0.024170 
#    y 0.000020 1.691300 0.000020 
#    z -0.024170 0.000020 1.742940 
# 
# From -- ./inp_files/72082.got.cif
#   From: 2010.05.17/outbox.cif.g08.bks.cpg/sg5_37_cif.got.tgz:72082.got - 2010.06.03 18:56:24.
