data_PCOD9123840
_publ_section_title
;
Structure prediction by ZEFSAII (Michael W. Deem and Ramdas Pophale) SiO2 
 PCOD9123840
Probable space group: C 2
;
_chemical_formula_sum "Si O2"
_cell_formula_units_Z 26
_cell_length_a 14.772103
_cell_length_b 8.491634
_cell_length_c 16.363575
_cell_angle_alpha 90.000000
_cell_angle_beta 37.225292
_cell_angle_gamma 90.000000
_cell_volume 1241.743072
_symmetry_space_group_name_H-M "C 2"
_symmetry_group_IT_number 5
_symmetry_cell_setting 'monoclinic'
loop_
_space_group_symop_operation_xyz
x,y,z
-x,y,-z
1/2+x,1/2+y,z
1/2-x,1/2+y,-z
loop_
_atom_site_type_symbol
_atom_site_label
_atom_site_fract_x
_atom_site_fract_y
_atom_site_fract_z
Si Si1 0.915728 0.740980 0.641413
Si Si2 0.500000 0.573277 0.000000
Si Si3 0.109442 0.747434 0.659726
Si Si4 0.686971 0.898100 0.250735
Si Si5 0.603448 0.820240 0.809326
Si Si6 0.417522 0.180661 0.145700
Si Si7 0.388175 0.877071 0.375260
O O1 0.892142 0.550826 0.651425
O O2 0.751993 0.812515 0.756749
O O3 0.000000 0.796037 0.500000
O O4 0.000391 0.787646 0.663075
O O5 0.345483 0.475909 0.109712
O O6 0.500801 0.687288 0.077989
O O7 0.042734 0.772626 0.798462
O O8 0.268642 0.829757 0.529754
O O9 0.134749 0.560557 0.629034
O O10 0.746712 0.743280 0.254931
O O11 0.560378 0.850430 0.276899
O O12 0.642204 0.785765 0.687389
O O13 0.550919 0.998855 0.855732
O O14 0.500000 0.202562 0.000000
#
# Coordination Sequence:
#
# PCOD9123840 Si02
#       7
#     4   2   4   4   4   4   4
#     4  10  20  40  65  93 122 165 206 260 307 384
#     4  10  20  42  62  86 120 178 210 256 306 386
#     4  10  23  39  65  91 130 158 212 251 321 362
#     4  10  23  39  62  92 122 165 212 254 320 361
#     4  10  21  41  66  87 128 164 212 257 318 366
#     4  11  23  43  60  91 130 165 203 267 309 374
#     4  10  22  41  61  99 123 166 205 264 307 381
#
# _framework density 20.938309
#
# number of rings (size 3 to 8) (size 9 to 14) (size 15 to 20)
#    0.000    1.846    3.077    0.000    4.308    1.231 
#   11.077    0.000    0.000    0.000    0.000    0.000 
#    0.000    0.000    0.000    0.000    0.000    0.000 
#
# Total GULP energy -72368.479004 kJ/mol
# GULP energy per Si atom -5566.806077 kJ/mol
# Density = 2.089065 g / cm^3
# Si number density = 20.938309 Si / 1000 Ang^3
#
#
#
# Elastic Constant Matrix: (Units=GPa)
#
#
# Indices 1 2 3 4 5 6 
#
# 1 109.3954 4.2626 49.2600 0.0000 5.2511 0.0000
# 2 4.2626 23.6192 3.0147 0.0000 -0.0086 0.0000
# 3 49.2600 3.0147 105.3205 0.0000 21.5583 0.0000
# 4 0.0000 0.0000 0.0000 -12.5433 0.0000 0.8867
# 5 5.2511 -0.0086 21.5583 0.0000 36.9461 0.0000
# 6 0.0000 0.0000 0.0000 0.8867 0.0000 22.1008
#
#
#
# Elastic Compliance Matrix: (Units=1/GPa)
#
#
# Indices 1 2 3 4 5 6 
#
# 1 0.011721 -0.001375 -0.005794 0.000000 0.001714 0.000000
# 2 -0.001375 0.042677 -0.000705 0.000000 0.000617 0.000000
# 3 -0.005794 -0.000705 0.013692 0.000000 -0.007166 0.000000
# 4 0.000000 0.000000 0.000000 -0.079498 0.000000 0.003190
# 5 0.001714 0.000617 -0.007166 0.000000 0.031004 0.000000
# 6 0.000000 0.000000 0.000000 0.003190 0.000000 0.045119
#
#
# Mechanical properties :
#
#
# Convention : Reuss Voigt Hill
#
# Bulk Modulus (GPa) = 19.10489 39.04550 29.07519
# Shear Modulus (GPa) = 51.06738 21.42057 36.24397
#
# Velocity S-wave (km/s) = 4.94393 3.20196 4.16503
# Velocity P-wave (km/s) = 6.46019 5.68844 6.08656
#
# Compressibility (1/GPa) = 0.05234263
#
# Stress axis : x y z
#
# Youngs Moduli (GPa) = 85.31428 23.43191 73.03718
#
# Poissons Ratio (x) = 0.03222 0.42317
# Poissons Ratio (y) = 0.11733 0.05146
# Poissons Ratio (z) = 0.49430 0.01651
#
# Static dielectric constant tensor:
#      x y z
#    x 1.757630 0.000000 0.027350 
#    y 0.000000 1.826000 0.000000 
#    z 0.027350 0.000000 1.797790 
# 
# From -- ./inp_files/54101.got.cif
#   From: 2010.05.17/outbox.cif.g08.bks.cpg/sg5_28_cif.got.tgz:54101.got - 2010.06.03 18:56:24.
