data_PCOD9123035
_publ_section_title
;
Structure prediction by ZEFSAII (Michael W. Deem and Ramdas Pophale) SiO2 
 PCOD9123035
Probable space group: C 2
;
_chemical_formula_sum "Si O2"
_cell_formula_units_Z 30
_cell_length_a 14.264682
_cell_length_b 5.637473
_cell_length_c 15.496036
_cell_angle_alpha 90.000000
_cell_angle_beta 112.397242
_cell_angle_gamma 90.000000
_cell_volume 1152.137578
_symmetry_space_group_name_H-M "C 2"
_symmetry_group_IT_number 5
_symmetry_cell_setting 'monoclinic'
loop_
_space_group_symop_operation_xyz
x,y,z
-x,y,-z
1/2+x,1/2+y,z
1/2-x,1/2+y,-z
loop_
_atom_site_type_symbol
_atom_site_label
_atom_site_fract_x
_atom_site_fract_y
_atom_site_fract_z
Si Si1 0.500000 0.132340 0.500000
Si Si2 0.356565 0.305348 0.816267
Si Si3 0.397264 0.206102 0.204505
Si Si4 0.814553 0.305244 0.767248
Si Si5 0.218033 0.269691 0.443516
Si Si6 0.866912 0.331662 0.326736
Si Si7 0.806840 0.782005 0.001107
Si Si8 0.975174 0.985484 0.627187
O O1 0.439968 0.296833 0.545607
O O2 0.418401 0.992423 0.416387
O O3 0.385643 0.578571 0.811785
O O4 0.252049 0.315005 0.722108
O O5 0.337018 0.290001 0.912117
O O6 0.384493 0.036553 0.802573
O O7 0.285220 0.295086 0.202910
O O8 0.494018 0.345622 0.276359
O O9 0.399996 0.942379 0.245785
O O10 0.395033 0.240966 0.102138
O O11 0.768578 0.292188 0.654767
O O12 0.242638 0.519556 0.499561
O O13 0.096891 0.210083 0.400876
O O14 0.915872 0.081092 0.362511
O O15 0.740225 0.541923 0.993267
#
# Coordination Sequence:
#
# PCOD9123035 Si02
#       8
#     2   4   4   4   4   4   4   4
#     4  10  24  34  64  90 130 162 230 274 330 390
#     4  11  21  38  67  98 133 170 212 277 336 395
#     4  10  22  37  67  97 132 167 219 276 338 390
#     4  11  22  42  63  93 131 174 219 267 336 395
#     4  12  31  47  65  93 134 184 231 276 337 407
#     4  10  20  37  59  97 127 169 214 279 335 380
#     4  12  19  35  62 108 139 160 212 278 346 391
#     4  11  24  42  63  93 126 181 223 284 332 393
#
# _framework density 26.038561000000001
#
# number of rings (size 3 to 8) (size 9 to 14) (size 15 to 20)
#    0.000    1.067    5.333    1.200    9.333    3.200 
#    0.000    0.000    0.000    0.800    0.000    0.000 
#    0.000    0.000    0.000    0.000    0.000    0.000 
#
# Total GULP energy -83773.821969 kJ/mol
# GULP energy per Si atom -5584.921465 kJ/mol
# Density = 2.597930 g / cm^3
# Si number density = 26.038561 Si / 1000 Ang^3
#
#
#
# Elastic Constant Matrix: (Units=GPa)
#
#
# Indices 1 2 3 4 5 6 
#
# 1 39.4819 19.7197 -2.9682 0.0000 -2.6699 0.0000
# 2 19.7197 214.5501 69.9721 0.0000 -4.9481 0.0000
# 3 -2.9682 69.9721 171.6773 0.0000 -7.2953 0.0000
# 4 0.0000 0.0000 0.0000 41.2257 0.0000 7.0722
# 5 -2.6699 -4.9481 -7.2953 0.0000 24.4264 0.0000
# 6 0.0000 0.0000 0.0000 7.0722 0.0000 42.1472
#
#
#
# Elastic Compliance Matrix: (Units=1/GPa)
#
#
# Indices 1 2 3 4 5 6 
#
# 1 0.027173 -0.003026 0.001827 0.000000 0.002903 0.000000
# 2 -0.003026 0.005717 -0.002378 0.000000 0.000117 0.000000
# 3 0.001827 -0.002378 0.006901 0.000000 0.001779 0.000000
# 4 0.000000 0.000000 0.000000 0.024976 0.000000 -0.004191
# 5 0.002903 0.000117 0.001779 0.000000 0.041812 0.000000
# 6 0.000000 0.000000 0.000000 -0.004191 0.000000 0.024430
#
#
# Mechanical properties :
#
#
# Convention : Reuss Voigt Hill
#
# Bulk Modulus (GPa) = 30.64006 66.57295 48.60650
# Shear Modulus (GPa) = 33.54759 44.15888 38.85323
#
# Velocity S-wave (km/s) = 3.59330 4.12260 3.86702
# Velocity P-wave (km/s) = 5.38595 6.94865 6.21660
#
# Compressibility (1/GPa) = 0.03263701
#
# Stress axis : x y z
#
# Youngs Moduli (GPa) = 36.80094 174.91158 144.90431
#
# Poissons Ratio (x) = 0.52934 -0.26469
# Poissons Ratio (y) = 0.11137 0.34452
# Poissons Ratio (z) = -0.06722 0.41586
#
# Static dielectric constant tensor:
#      x y z
#    x 2.256380 0.000000 -0.061730 
#    y 0.000000 2.126520 0.000000 
#    z -0.061730 0.000000 2.048120 
# 
# From -- ./inp_files/55474.got.cif
#   From: 2010.05.17/outbox.cif.g08.bks.cpg/sg5_28_cif.got.tgz:55474.got - 2010.06.03 18:56:24.
