data_PCOD9123810
_publ_section_title
;
Structure prediction by ZEFSAII (Michael W. Deem and Ramdas Pophale) SiO2 
 PCOD9123810
Probable space group: C 2
;
_chemical_formula_sum "Si O2"
_cell_formula_units_Z 30
_cell_length_a 5.279636
_cell_length_b 17.287097
_cell_length_c 18.200416
_cell_angle_alpha 90.000000
_cell_angle_beta 55.352681
_cell_angle_gamma 90.000000
_cell_volume 1366.568814
_symmetry_space_group_name_H-M "C 2"
_symmetry_group_IT_number 5
_symmetry_cell_setting 'monoclinic'
loop_
_space_group_symop_operation_xyz
x,y,z
-x,y,-z
1/2+x,1/2+y,z
1/2-x,1/2+y,-z
loop_
_atom_site_type_symbol
_atom_site_label
_atom_site_fract_x
_atom_site_fract_y
_atom_site_fract_z
Si Si1 0.900209 0.070520 0.333286
Si Si2 0.500123 0.272505 0.740833
Si Si3 0.327172 0.963787 0.866464
Si Si4 0.264633 0.375266 0.906954
Si Si5 0.627442 0.104607 0.220430
Si Si6 0.000000 0.840872 0.500000
Si Si7 0.682615 0.414852 0.328697
Si Si8 0.411625 0.702413 0.438206
O O1 0.739966 0.073517 0.280918
O O2 0.766224 0.137036 0.408829
O O3 0.260039 0.095065 0.269969
O O4 0.928915 0.982126 0.356704
O O5 0.463635 0.318923 0.822696
O O6 0.300389 0.195269 0.785986
O O7 0.387249 0.334218 0.699984
O O8 0.823013 0.241421 0.655943
O O9 0.573403 0.936238 0.886885
O O10 0.504158 0.942962 0.760767
O O11 0.009537 0.918330 0.917440
O O12 0.247364 0.053912 0.867888
O O13 0.000000 0.336486 0.000000
O O14 0.816840 0.894053 0.586378
O O15 0.776115 0.776859 0.501811
O O16 0.500000 0.660990 0.500000
#
# Coordination Sequence:
#
# PCOD9123810 Si02
#       8
#     4   4   4   4   4   2   4   4
#     4  10  23  38  60  85 124 163 219 254 312 371
#     4  10  21  41  65  89 128 167 207 266 320 373
#     4  10  21  41  66  88 129 162 211 255 322 379
#     4  11  23  41  67  98 128 165 211 263 322 384
#     4  10  20  40  64  91 116 168 206 253 315 383
#     4  12  22  36  58  86 124 158 226 258 322 364
#     4  10  21  38  61  90 118 168 208 265 311 375
#     4  11  23  39  58  86 127 173 215 267 322 376
#
# _framework density 21.952791000000001
#
# number of rings (size 3 to 8) (size 9 to 14) (size 15 to 20)
#    0.000    1.600    1.333    4.400    2.800    4.267 
#    0.000    2.667    0.000    0.000    0.000    0.000 
#    0.000    0.000    0.000    0.000    0.000    0.000 
#
# Total GULP energy -83571.747850 kJ/mol
# GULP energy per Si atom -5571.449857 kJ/mol
# Density = 2.190283 g / cm^3
# Si number density = 21.952791 Si / 1000 Ang^3
#
#
#
# Elastic Constant Matrix: (Units=GPa)
#
#
# Indices 1 2 3 4 5 6 
#
# 1 80.8498 8.8228 22.8316 0.0000 14.7299 0.0000
# 2 8.8228 112.5720 14.0117 0.0000 12.5216 0.0000
# 3 22.8316 14.0117 82.9471 0.0000 1.1072 0.0000
# 4 0.0000 0.0000 0.0000 2.1227 0.0000 2.8107
# 5 14.7299 12.5216 1.1072 0.0000 36.9316 0.0000
# 6 0.0000 0.0000 0.0000 2.8107 0.0000 27.7333
#
#
#
# Elastic Compliance Matrix: (Units=1/GPa)
#
#
# Indices 1 2 3 4 5 6 
#
# 1 0.014508 -0.000020 -0.003914 0.000000 -0.005662 0.000000
# 2 -0.000020 0.009427 -0.001545 0.000000 -0.003142 0.000000
# 3 -0.003914 -0.001545 0.013372 0.000000 0.001684 0.000000
# 4 0.000000 0.000000 0.000000 0.544116 0.000000 -0.055144
# 5 -0.005662 -0.003142 0.001684 0.000000 0.030350 0.000000
# 6 0.000000 0.000000 0.000000 -0.055144 0.000000 0.041646
#
#
# Mechanical properties :
#
#
# Convention : Reuss Voigt Hill
#
# Bulk Modulus (GPa) = 37.95424 40.85568 39.40496
# Shear Modulus (GPa) = 7.42766 28.73771 18.08268
#
# Velocity S-wave (km/s) = 1.84142 3.62203 2.87314
# Velocity P-wave (km/s) = 4.67415 6.01192 5.38474
#
# Compressibility (1/GPa) = 0.02634752
#
# Stress axis : x y z
#
# Youngs Moduli (GPa) = 68.92860 106.08365 74.78412
#
# Poissons Ratio (x) = 0.00212 0.29273
# Poissons Ratio (y) = 0.00138 0.11553
# Poissons Ratio (z) = 0.26981 0.16389
#
# Static dielectric constant tensor:
#      x y z
#    x 1.922800 0.000000 -0.063920 
#    y 0.000000 1.877330 0.000000 
#    z -0.063920 0.000000 1.887160 
# 
# From -- ./inp_files/58980.got.cif
#   From: 2010.05.17/outbox.cif.g08.bks.cpg/sg5_30_cif.got.tgz:58980.got - 2010.06.03 18:56:24.
