data_PCOD9123518
_publ_section_title
;
Structure prediction by ZEFSAII (Michael W. Deem and Ramdas Pophale) SiO2 
 PCOD9123518
Probable space group: C 2
;
_chemical_formula_sum "Si O2"
_cell_formula_units_Z 20
_cell_length_a 27.779369
_cell_length_b 4.783681
_cell_length_c 11.596287
_cell_angle_alpha 90.000000
_cell_angle_beta 28.363753
_cell_angle_gamma 90.000000
_cell_volume 732.080730
_symmetry_space_group_name_H-M "C 2"
_symmetry_group_IT_number 5
_symmetry_cell_setting 'monoclinic'
loop_
_space_group_symop_operation_xyz
x,y,z
-x,y,-z
1/2+x,1/2+y,z
1/2-x,1/2+y,-z
loop_
_atom_site_type_symbol
_atom_site_label
_atom_site_fract_x
_atom_site_fract_y
_atom_site_fract_z
Si Si1 0.673623 0.493530 0.527729
Si Si2 0.500000 0.177261 0.000000
Si Si3 0.500000 0.250622 0.500000
Si Si4 0.294412 0.500218 0.216251
Si Si5 0.708176 0.575984 0.036752
Si Si6 0.008901 0.713672 0.736633
O O1 0.598830 0.379208 0.783842
O O2 0.774535 0.307432 0.304533
O O3 0.604631 0.416930 0.561167
O O4 0.715903 0.801238 0.447762
O O5 0.504841 0.029196 0.864476
O O6 0.507601 0.097280 0.609272
O O7 0.402540 0.452853 0.710341
O O8 0.255810 0.498299 0.165983
O O9 0.407803 0.397046 0.962333
O O10 0.781981 0.405461 0.966386
#
# Coordination Sequence:
#
# PCOD9123518 Si02
#       6
#     4   2   2   4   4   4
#     4  10  23  43  63  95 128 165 212 272 309 382
#     4   8  22  44  62  92 130 166 212 266 322 370
#     4  10  20  38  68  88 136 158 220 256 324 370
#     4  11  22  39  68  91 126 169 215 257 324 373
#     4  11  23  39  62  95 128 171 208 261 318 383
#     4   9  21  41  60 100 120 175 205 269 310 388
#
# _framework density 27.319389999999999
#
# number of rings (size 3 to 8) (size 9 to 14) (size 15 to 20)
#    1.200    0.800    0.000    3.600    0.000    4.800 
#    0.000    4.000    0.000    0.000    0.000    0.000 
#    0.000    0.000    0.000    0.000    0.000    0.000 
#
# Total GULP energy -55897.159085 kJ/mol
# GULP energy per Si atom -5589.715908 kJ/mol
# Density = 2.725721 g / cm^3
# Si number density = 27.319390 Si / 1000 Ang^3
#
#
#
# Elastic Constant Matrix: (Units=GPa)
#
#
# Indices 1 2 3 4 5 6 
#
# 1 159.2364 11.1577 49.6521 -0.0002 43.8917 0.0005
# 2 11.1577 68.7419 15.9093 -0.0004 -10.4678 0.0022
# 3 49.6521 15.9093 131.8385 0.0001 -1.7142 0.0000
# 4 -0.0002 -0.0004 0.0001 27.9448 -0.0002 -3.1810
# 5 43.8917 -10.4678 -1.7142 -0.0002 80.1198 -0.0003
# 6 0.0005 0.0022 0.0000 -3.1810 -0.0003 16.1315
#
#
#
# Elastic Compliance Matrix: (Units=1/GPa)
#
#
# Indices 1 2 3 4 5 6 
#
# 1 0.008774 -0.001456 -0.003195 0.000000 -0.005065 0.000000
# 2 -0.001456 0.015507 -0.001287 0.000000 0.002796 -0.000002
# 3 -0.003195 -0.001287 0.008967 0.000000 0.001774 0.000000
# 4 0.000000 0.000000 0.000000 0.036606 0.000000 0.007218
# 5 -0.005065 0.002796 0.001774 0.000000 0.015660 0.000000
# 6 0.000000 -0.000002 0.000000 0.007218 0.000000 0.063414
#
#
# Mechanical properties :
#
#
# Convention : Reuss Voigt Hill
#
# Bulk Modulus (GPa) = 46.78754 57.02834 51.90794
# Shear Modulus (GPa) = 29.77485 43.71241 36.74363
#
# Velocity S-wave (km/s) = 3.30491 4.00440 3.67136
# Velocity P-wave (km/s) = 5.63264 6.50387 6.08387
#
# Compressibility (1/GPa) = 0.02137321
#
# Stress axis : x y z
#
# Youngs Moduli (GPa) = 113.96809 64.48670 111.52608
#
# Poissons Ratio (x) = 0.09390 0.35629
# Poissons Ratio (y) = 0.16596 0.14348
# Poissons Ratio (z) = 0.36409 0.08296
#
# Static dielectric constant tensor:
#      x y z
#    x 2.270950 0.000000 0.014270 
#    y 0.000000 1.981740 0.000000 
#    z 0.014270 0.000000 2.065730 
# 
# From -- ./inp_files/48121.got.cif
#   From: 2010.05.17/outbox.cif.g08.bks.cpg/sg5_25_cif.got.tgz:48121.got - 2010.06.03 18:56:24.
