data_PCOD9123742
_publ_section_title
;
Structure prediction by ZEFSAII (Michael W. Deem and Ramdas Pophale) SiO2 
 PCOD9123742
Probable space group: C 2
;
_chemical_formula_sum "Si O2"
_cell_formula_units_Z 30
_cell_length_a 21.004141
_cell_length_b 5.276961
_cell_length_c 21.444227
_cell_angle_alpha 90.000000
_cell_angle_beta 33.858034
_cell_angle_gamma 90.000000
_cell_volume 1324.223294
_symmetry_space_group_name_H-M "C 2"
_symmetry_group_IT_number 5
_symmetry_cell_setting 'monoclinic'
loop_
_space_group_symop_operation_xyz
x,y,z
-x,y,-z
1/2+x,1/2+y,z
1/2-x,1/2+y,-z
loop_
_atom_site_type_symbol
_atom_site_label
_atom_site_fract_x
_atom_site_fract_y
_atom_site_fract_z
Si Si1 0.717933 0.363120 0.218975
Si Si2 0.859272 0.125743 0.468245
Si Si3 0.678693 0.738986 0.983052
Si Si4 0.152208 0.953178 0.661126
Si Si5 0.500000 0.899505 0.500000
Si Si6 0.586854 0.840016 0.305381
Si Si7 0.201687 0.770755 0.375404
Si Si8 0.598097 0.239838 0.115016
O O1 0.680346 0.627139 0.216303
O O2 0.731906 0.390900 0.282543
O O3 0.630532 0.125254 0.277934
O O4 0.823031 0.277701 0.089819
O O5 0.756125 0.263480 0.586837
O O6 0.970522 0.298853 0.362836
O O7 0.825338 0.041130 0.427393
O O8 0.868808 0.897561 0.509744
O O9 0.636125 0.462566 0.037127
O O10 0.611704 0.962940 0.073342
O O11 0.809918 0.751269 0.903120
O O12 0.030265 0.817117 0.762625
O O13 0.181108 0.169129 0.688330
O O14 0.542013 0.740137 0.408614
O O15 0.609121 0.059609 0.431153
#
# Coordination Sequence:
#
# PCOD9123742 Si02
#       8
#     4   4   4   4   2   4   4   4
#     4  11  24  41  72  99 133 173 231 282 339 397
#     4  12  24  42  63  97 143 181 226 269 340 419
#     4  10  22  47  70 101 125 168 228 292 340 388
#     4  12  26  41  66  98 137 187 220 278 341 412
#     4  10  20  40  60  92 132 182 218 266 322 396
#     4  11  22  38  65  98 131 176 218 274 330 401
#     4  11  24  42  62  95 140 182 225 272 334 408
#     4  10  24  43  73  97 132 169 225 284 340 397
#
# _framework density 22.654789000000001
#
# number of rings (size 3 to 8) (size 9 to 14) (size 15 to 20)
#    0.000    1.067    2.667    4.000    3.733    3.733 
#    0.000    0.667    0.000    0.000    0.000    0.000 
#    0.000    0.000    0.000    0.000    0.000    0.000 
#
# Total GULP energy -83601.307839 kJ/mol
# GULP energy per Si atom -5573.420523 kJ/mol
# Density = 2.260323 g / cm^3
# Si number density = 22.654789 Si / 1000 Ang^3
#
#
#
# Elastic Constant Matrix: (Units=GPa)
#
#
# Indices 1 2 3 4 5 6 
#
# 1 50.2918 9.3694 18.0611 -0.0556 8.2001 -0.0012
# 2 9.3694 50.1732 -7.5491 -0.0844 -12.3713 -0.0016
# 3 18.0611 -7.5491 34.8572 -0.1095 2.9438 0.0190
# 4 -0.0556 -0.0844 -0.1095 21.6998 0.0542 -7.2570
# 5 8.2001 -12.3713 2.9438 0.0542 33.8384 -0.0088
# 6 -0.0012 -0.0016 0.0190 -7.2570 -0.0088 22.0002
#
#
#
# Elastic Compliance Matrix: (Units=1/GPa)
#
#
# Indices 1 2 3 4 5 6 
#
# 1 0.029307 -0.010296 -0.016619 -0.000024 -0.009420 0.000003
# 2 -0.010296 0.026120 0.010049 0.000109 0.011170 0.000033
# 3 -0.016619 0.010049 0.039114 0.000194 0.004298 0.000032
# 4 -0.000024 0.000109 0.000194 0.051799 -0.000050 0.017086
# 5 -0.009420 0.011170 0.004298 -0.000050 0.035545 -0.000006
# 6 0.000003 0.000033 0.000032 0.017086 -0.000006 0.051090
#
#
# Mechanical properties :
#
#
# Convention : Reuss Voigt Hill
#
# Bulk Modulus (GPa) = 16.44557 19.45388 17.94973
# Shear Modulus (GPa) = 17.42304 23.20376 20.31340
#
# Velocity S-wave (km/s) = 2.77621 3.20383 2.99766
# Velocity P-wave (km/s) = 4.18944 4.72142 4.46336
#
# Compressibility (1/GPa) = 0.06080665
#
# Stress axis : x y z
#
# Youngs Moduli (GPa) = 34.12211 38.28475 25.56655
#
# Poissons Ratio (x) = 0.39418 0.42490
# Poissons Ratio (y) = 0.35133 -0.25691
# Poissons Ratio (z) = 0.56709 -0.38471
#
# Static dielectric constant tensor:
#      x y z
#    x 1.892350 -0.000060 -0.152670 
#    y -0.000060 1.983960 0.000220 
#    z -0.152670 0.000220 2.399620 
# 
# From -- ./inp_files/69361.got.cif
#   From: 2010.05.17/outbox.cif.g08.bks.cpg/sg5_35_cif.got.tgz:69361.got - 2010.06.03 18:56:24.
