data_PCOD9123208
_publ_section_title
;
Structure prediction by ZEFSAII (Michael W. Deem and Ramdas Pophale) SiO2 
 PCOD9123208
Probable space group: C 2
;
_chemical_formula_sum "Si O2"
_cell_formula_units_Z 28
_cell_length_a 15.183074
_cell_length_b 8.788904
_cell_length_c 17.393310
_cell_angle_alpha 90.000000
_cell_angle_beta 144.479269
_cell_angle_gamma 90.000000
_cell_volume 1348.499901
_symmetry_space_group_name_H-M "C 2"
_symmetry_group_IT_number 5
_symmetry_cell_setting 'monoclinic'
loop_
_space_group_symop_operation_xyz
x,y,z
-x,y,-z
1/2+x,1/2+y,z
1/2-x,1/2+y,-z
loop_
_atom_site_type_symbol
_atom_site_label
_atom_site_fract_x
_atom_site_fract_y
_atom_site_fract_z
Si Si1 0.265873 0.848590 0.626402
Si Si2 0.769541 0.395138 0.796199
Si Si3 0.500000 0.633089 0.000000
Si Si4 0.516088 0.341836 0.319730
Si Si5 0.469306 0.565682 0.800442
Si Si6 0.000000 0.639393 0.000000
Si Si7 0.936077 0.550676 0.191671
Si Si8 0.239457 0.750229 0.054330
O O1 0.196676 0.878338 0.661074
O O2 0.150858 0.867005 0.475270
O O3 0.331689 0.678964 0.683456
O O4 0.410251 0.959719 0.717691
O O5 0.855948 0.247096 0.891206
O O6 0.635611 0.428005 0.759787
O O7 0.900996 0.520628 0.879685
O O8 0.493551 0.554042 0.910621
O O9 0.557634 0.412210 0.266374
O O10 0.475491 0.162326 0.290222
O O11 0.611839 0.652220 0.862597
O O12 0.135195 0.730577 0.055610
O O13 0.805980 0.421130 0.101800
O O14 0.875230 0.676588 0.088850
#
# Coordination Sequence:
#
# PCOD9123208 Si02
#       8
#     4   4   2   4   4   2   4   4
#     4  10  22  41  63  95 135 181 228 268 327 406
#     4  10  20  37  66  97 130 173 222 277 337 398
#     4   9  20  38  63  96 136 166 222 288 336 400
#     4  12  22  39  65  98 135 183 226 267 327 414
#     4  10  21  38  67  97 129 180 221 277 342 392
#     4  11  20  40  65 100 136 162 222 292 344 394
#     4  11  24  40  63  97 132 175 223 277 338 397
#     4  11  22  41  66  94 136 168 222 286 343 396
#
# _framework density 20.763814
#
# number of rings (size 3 to 8) (size 9 to 14) (size 15 to 20)
#    0.000    1.429    2.857    3.000    2.000    0.000 
#    0.000   11.429    0.000    0.000    0.000    0.000 
#    0.000    0.000    0.000    0.000    0.000    0.000 
#
# Total GULP energy -77934.993632 kJ/mol
# GULP energy per Si atom -5566.785259 kJ/mol
# Density = 2.071655 g / cm^3
# Si number density = 20.763814 Si / 1000 Ang^3
#
#
#
# Elastic Constant Matrix: (Units=GPa)
#
#
# Indices 1 2 3 4 5 6 
#
# 1 97.1162 24.0704 46.0206 0.0000 -13.3820 0.0000
# 2 24.0704 80.8667 57.2769 0.0000 -15.1381 0.0000
# 3 46.0206 57.2769 135.3936 0.0000 -17.3105 0.0000
# 4 0.0000 0.0000 0.0000 -2.0894 0.0000 -43.2186
# 5 -13.3820 -15.1381 -17.3105 0.0000 29.6565 0.0000
# 6 0.0000 0.0000 0.0000 -43.2186 0.0000 -34.5027
#
#
#
# Elastic Compliance Matrix: (Units=1/GPa)
#
#
# Indices 1 2 3 4 5 6 
#
# 1 0.012608 -0.000572 -0.003624 0.000000 0.003282 0.000000
# 2 -0.000572 0.018405 -0.006941 0.000000 0.005085 0.000000
# 3 -0.003624 -0.006941 0.011771 0.000000 0.001692 0.000000
# 4 0.000000 0.000000 0.000000 0.019213 0.000000 -0.024067
# 5 0.003282 0.005085 0.001692 0.000000 0.038784 0.000000
# 6 0.000000 0.000000 0.000000 -0.024067 0.000000 0.001164
#
#
# Mechanical properties :
#
#
# Convention : Reuss Voigt Hill
#
# Bulk Modulus (GPa) = 48.75900 63.12358 55.94129
# Shear Modulus (GPa) = 38.15200 11.01346 24.58273
#
# Velocity S-wave (km/s) = 4.29117 2.30557 3.44455
# Velocity P-wave (km/s) = 6.93440 6.12816 6.54371
#
# Compressibility (1/GPa) = 0.02050903
#
# Stress axis : x y z
#
# Youngs Moduli (GPa) = 79.31323 54.33414 84.95761
#
# Poissons Ratio (x) = 0.03106 0.30790
# Poissons Ratio (y) = 0.04533 0.58973
# Poissons Ratio (z) = 0.28744 0.37716
#
# Static dielectric constant tensor:
#      x y z
#    x 1.800620 0.000000 -0.023320 
#    y 0.000000 1.787350 0.000000 
#    z -0.023320 0.000000 1.768350 
# 
# From -- ./inp_files/54342.got.cif
#   From: 2010.05.17/outbox.cif.g08.bks.cpg/sg5_28_cif.got.tgz:54342.got - 2010.06.03 18:56:24.
