data_PCOD9123455
_publ_section_title
;
Structure prediction by ZEFSAII (Michael W. Deem and Ramdas Pophale) SiO2 
 PCOD9123455
Probable space group: C 2
;
_chemical_formula_sum "Si O2"
_cell_formula_units_Z 32
_cell_length_a 10.450014
_cell_length_b 11.637620
_cell_length_c 23.128477
_cell_angle_alpha 90.000000
_cell_angle_beta 153.089133
_cell_angle_gamma 90.000000
_cell_volume 1273.052512
_symmetry_space_group_name_H-M "C 2"
_symmetry_group_IT_number 5
_symmetry_cell_setting 'monoclinic'
loop_
_space_group_symop_operation_xyz
x,y,z
-x,y,-z
1/2+x,1/2+y,z
1/2-x,1/2+y,-z
loop_
_atom_site_type_symbol
_atom_site_label
_atom_site_fract_x
_atom_site_fract_y
_atom_site_fract_z
Si Si1 0.375117 0.894510 0.760057
Si Si2 0.919448 0.069663 0.675818
Si Si3 0.694980 0.520339 0.487227
Si Si4 0.054650 0.023080 0.187447
Si Si5 0.942908 0.562473 0.084760
Si Si6 0.662035 0.819587 0.375613
Si Si7 0.453660 0.193320 0.302457
Si Si8 0.156098 0.773049 0.868760
O O1 0.487480 0.849443 0.744721
O O2 0.201608 0.793154 0.722531
O O3 0.608923 0.951714 0.894911
O O4 0.141156 0.991131 0.646163
O O5 0.242143 0.031735 0.808948
O O6 0.748636 0.003495 0.558340
O O7 0.934236 0.192597 0.650183
O O8 0.821917 0.069899 0.702102
O O9 0.855800 0.417159 0.584346
O O10 0.783392 0.636743 0.556505
O O11 0.994276 0.888819 0.169417
O O12 0.245242 0.082791 0.215538
O O13 0.751166 0.074079 0.048738
O O14 0.902904 0.672503 0.109102
O O15 0.000000 0.808413 0.500000
O O16 0.478606 0.241261 0.247933
O O17 0.500000 0.787392 0.000000
#
# Coordination Sequence:
#
# PCOD9123455 Si02
#       8
#     4   4   4   4   4   4   4   4
#     4  10  21  44  70  97 143 184 230 298 357 435
#     4  11  23  41  66  99 139 180 240 295 352 441
#     4  10  22  37  66  99 137 183 234 291 363 427
#     4  12  26  44  73 103 141 196 241 300 361 435
#     4  11  25  45  70 105 138 191 239 292 375 426
#     4  10  20  38  65  96 134 184 227 290 356 430
#     4  12  24  45  74 109 141 193 243 297 371 434
#     4  12  25  48  73 104 152 186 240 308 361 437
#
# _framework density 25.136433
#
# number of rings (size 3 to 8) (size 9 to 14) (size 15 to 20)
#    0.000    1.000    2.500    5.625    1.750    1.000 
#    0.000    0.000    0.000    0.000    0.000    0.000 
#    0.000    0.000    0.000    0.000    0.000    0.000 
#
# Total GULP energy -89416.076682 kJ/mol
# GULP energy per Si atom -5588.504793 kJ/mol
# Density = 2.507922 g / cm^3
# Si number density = 25.136433 Si / 1000 Ang^3
#
#
#
# Elastic Constant Matrix: (Units=GPa)
#
#
# Indices 1 2 3 4 5 6 
#
# 1 50.8127 21.9245 14.6151 -0.0015 -24.5235 -0.0001
# 2 21.9245 124.2390 13.6133 -0.0071 -17.1556 -0.0019
# 3 14.6151 13.6133 105.8602 -0.0068 -17.8278 -0.0015
# 4 -0.0015 -0.0071 -0.0068 29.8585 -0.0029 -4.4213
# 5 -24.5235 -17.1556 -17.8278 -0.0029 50.9234 -0.0004
# 6 -0.0001 -0.0019 -0.0015 -4.4213 -0.0004 39.2257
#
#
#
# Elastic Compliance Matrix: (Units=1/GPa)
#
#
# Indices 1 2 3 4 5 6 
#
# 1 0.026911 -0.003014 -0.001399 0.000001 0.011455 0.000000
# 2 -0.003014 0.008821 -0.000491 0.000002 0.001348 0.000001
# 3 -0.001399 -0.000491 0.010160 0.000003 0.002718 0.000001
# 4 0.000001 0.000002 0.000003 0.034060 0.000004 0.003839
# 5 0.011455 0.001348 0.002718 0.000004 0.026559 0.000001
# 6 0.000000 0.000001 0.000001 0.003839 0.000001 0.025926
#
#
# Mechanical properties :
#
#
# Convention : Reuss Voigt Hill
#
# Bulk Modulus (GPa) = 27.71256 42.35753 35.03504
# Shear Modulus (GPa) = 32.40986 39.38544 35.89765
#
# Velocity S-wave (km/s) = 3.59466 3.96266 3.78314
# Velocity P-wave (km/s) = 5.31766 6.15017 5.74900
#
# Compressibility (1/GPa) = 0.03608472
#
# Stress axis : x y z
#
# Youngs Moduli (GPa) = 37.15918 113.36730 98.42104
#
# Poissons Ratio (x) = 0.34170 0.13766
# Poissons Ratio (y) = 0.11200 0.04834
# Poissons Ratio (z) = 0.05197 0.05568
#
# Static dielectric constant tensor:
#      x y z
#    x 2.051200 0.000000 0.003430 
#    y 0.000000 2.038600 0.000000 
#    z 0.003430 0.000000 2.065350 
# 
# From -- ./inp_files/68394.got.cif
#   From: 2010.05.17/outbox.cif.g08.bks.cpg/sg5_35_cif.got.tgz:68394.got - 2010.06.03 18:56:24.
