data_PCOD9123306
_publ_section_title
;
Structure prediction by ZEFSAII (Michael W. Deem and Ramdas Pophale) SiO2 
 PCOD9123306
Probable space group: C 2
;
_chemical_formula_sum "Si O2"
_cell_formula_units_Z 28
_cell_length_a 14.951914
_cell_length_b 16.786460
_cell_length_c 9.131796
_cell_angle_alpha 90.000000
_cell_angle_beta 37.168358
_cell_angle_gamma 90.000000
_cell_volume 1384.724756
_symmetry_space_group_name_H-M "C 2"
_symmetry_group_IT_number 5
_symmetry_cell_setting 'monoclinic'
loop_
_space_group_symop_operation_xyz
x,y,z
-x,y,-z
1/2+x,1/2+y,z
1/2-x,1/2+y,-z
loop_
_atom_site_type_symbol
_atom_site_label
_atom_site_fract_x
_atom_site_fract_y
_atom_site_fract_z
Si Si1 0.081849 0.907500 0.141320
Si Si2 0.174683 0.634368 0.271697
Si Si3 0.253916 0.367623 0.517986
Si Si4 0.957589 0.235937 0.227247
Si Si5 0.153036 0.465926 0.396132
Si Si6 0.744063 0.812919 0.847065
Si Si7 0.563933 0.590101 0.256929
O O1 0.136925 0.849552 0.198590
O O2 0.928648 0.879109 0.271026
O O3 0.052444 0.996604 0.240067
O O4 0.220635 0.915949 0.852172
O O5 0.212096 0.557421 0.321296
O O6 0.209995 0.724681 0.267040
O O7 0.000000 0.631745 0.500000
O O8 0.266059 0.615733 0.002873
O O9 0.194829 0.280863 0.547538
O O10 0.156932 0.430898 0.554004
O O11 0.227160 0.369450 0.728335
O O12 0.972687 0.147448 0.267283
O O13 0.000000 0.235704 0.000000
O O14 0.086320 0.292886 0.127312
O O15 0.000000 0.461951 0.500000
O O16 0.500000 0.606554 0.500000
#
# Coordination Sequence:
#
# PCOD9123306 Si02
#       7
#     4   4   4   4   4   4   4
#     4  11  22  37  59  88 121 156 201 258 311 361
#     4   9  19  37  61  87 120 164 206 252 312 373
#     4  11  21  34  56  86 114 149 199 249 297 356
#     4   9  21  38  58  84 120 165 206 248 308 374
#     4  10  22  39  59  85 119 159 204 253 308 367
#     4  10  20  38  61  85 116 157 204 252 306 366
#     4  10  21  37  59  89 123 160 205 256 311 369
#
# _framework density 20.220625999999999
#
# number of rings (size 3 to 8) (size 9 to 14) (size 15 to 20)
#    0.000    2.000    0.000    3.429    0.000    7.429 
#    0.000    2.857    0.000    0.000    0.000   14.000 
#    0.000    0.000    0.000    0.000    0.000    0.000 
#
# Total GULP energy -77983.506243 kJ/mol
# GULP energy per Si atom -5570.250446 kJ/mol
# Density = 2.017460 g / cm^3
# Si number density = 20.220626 Si / 1000 Ang^3
#
#
#
# Elastic Constant Matrix: (Units=GPa)
#
#
# Indices 1 2 3 4 5 6 
#
# 1 104.8917 59.7827 31.4584 -0.0001 -17.6077 0.0002
# 2 59.7827 116.7377 39.0723 -0.0001 -4.4847 0.0002
# 3 31.4584 39.0723 87.1118 -0.0001 -16.3784 0.0001
# 4 -0.0001 -0.0001 -0.0001 30.8319 0.0001 -16.4978
# 5 -17.6077 -4.4847 -16.3784 0.0001 33.0065 -0.0002
# 6 0.0002 0.0002 0.0001 -16.4978 -0.0002 94.4174
#
#
#
# Elastic Compliance Matrix: (Units=1/GPa)
#
#
# Indices 1 2 3 4 5 6 
#
# 1 0.014962 -0.007076 -0.001003 0.000000 0.006523 0.000000
# 2 -0.007076 0.013454 -0.004241 0.000000 -0.004051 0.000000
# 3 -0.001003 -0.004241 0.014928 0.000000 0.006296 0.000000
# 4 0.000000 0.000000 0.000000 0.035779 0.000000 0.006252
# 5 0.006523 -0.004051 0.006296 0.000000 0.036350 0.000000
# 6 0.000000 0.000000 0.000000 0.006252 0.000000 0.011684
#
#
# Mechanical properties :
#
#
# Convention : Reuss Voigt Hill
#
# Bulk Modulus (GPa) = 53.46489 63.26312 58.36401
# Shear Modulus (GPa) = 31.63926 43.54634 37.59280
#
# Velocity S-wave (km/s) = 3.95992 4.64568 4.31644
# Velocity P-wave (km/s) = 6.88521 7.75441 7.33270
#
# Compressibility (1/GPa) = 0.01870386
#
# Stress axis : x y z
#
# Youngs Moduli (GPa) = 66.83411 74.32897 66.98999
#
# Poissons Ratio (x) = 0.52596 0.06720
# Poissons Ratio (y) = 0.47292 0.28409
# Poissons Ratio (z) = 0.06704 0.31521
#
# Static dielectric constant tensor:
#      x y z
#    x 1.768790 0.000000 -0.010920 
#    y 0.000000 1.736240 0.000000 
#    z -0.010920 0.000000 1.723860 
# 
# From -- ./inp_files/25181.got.cif
#   From: 2010.05.17/outbox.cif.g08.bks.cpg/sg5_13_cif.got.tgz:25181.got - 2010.06.03 18:56:24.
