data_PCOD9123355
_publ_section_title
;
Structure prediction by ZEFSAII (Michael W. Deem and Ramdas Pophale) SiO2 
 PCOD9123355
Probable space group: C 2
;
_chemical_formula_sum "Si O2"
_cell_formula_units_Z 18
_cell_length_a 24.345133
_cell_length_b 4.846723
_cell_length_c 22.753995
_cell_angle_alpha 90.000000
_cell_angle_beta 19.019271
_cell_angle_gamma 90.000000
_cell_volume 874.951376
_symmetry_space_group_name_H-M "C 2"
_symmetry_group_IT_number 5
_symmetry_cell_setting 'monoclinic'
loop_
_space_group_symop_operation_xyz
x,y,z
-x,y,-z
1/2+x,1/2+y,z
1/2-x,1/2+y,-z
loop_
_atom_site_type_symbol
_atom_site_label
_atom_site_fract_x
_atom_site_fract_y
_atom_site_fract_z
Si Si1 0.000000 0.369730 0.500000
Si Si2 0.822561 0.843926 0.959891
Si Si3 0.383200 0.603240 0.731166
Si Si4 0.321136 0.652450 0.395827
Si Si5 0.600124 0.085827 0.513547
O O1 0.113573 0.188844 0.340635
O O2 0.115058 0.547453 0.428084
O O3 0.803668 0.584247 0.935130
O O4 0.771588 0.710647 0.074122
O O5 0.999854 0.001318 0.781541
O O6 0.441312 0.291816 0.680351
O O7 0.541505 0.784681 0.594316
O O8 0.193921 0.450814 0.559737
O O9 0.255604 0.676447 0.395180
#
# Coordination Sequence:
#
# PCOD9123355 Si02
#       5
#     2   4   4   4   4
#     4   8  22  36  68  88 118 176 208 250 302 376
#     4  12  24  39  61  94 130 167 204 257 315 374
#     4  10  20  38  62  91 120 163 211 251 303 369
#     4  12  24  39  61  94 130 167 204 257 315 374
#     4  10  20  38  62  91 120 163 211 251 303 369
#
# _framework density 20.572572000000001
#
# number of rings (size 3 to 8) (size 9 to 14) (size 15 to 20)
#    1.333    0.000    0.000    8.667    0.000    0.000 
#    0.000    1.111    0.000    0.000   11.556    0.000 
#    0.000    0.000    0.000    0.000    0.000    0.000 
#
# Total GULP energy -50132.453667 kJ/mol
# GULP energy per Si atom -5570.272630 kJ/mol
# Density = 2.052575 g / cm^3
# Si number density = 20.572572 Si / 1000 Ang^3
#
#
#
# Elastic Constant Matrix: (Units=GPa)
#
#
# Indices 1 2 3 4 5 6 
#
# 1 129.2208 21.1428 32.1361 -0.0032 14.3402 -0.0063
# 2 21.1428 93.2776 10.3344 -0.0379 9.3786 0.0074
# 3 32.1361 10.3344 79.3484 0.0324 11.3200 -0.0097
# 4 -0.0032 -0.0379 0.0324 29.6868 -0.0227 -0.6794
# 5 14.3402 9.3786 11.3200 -0.0227 39.4614 -0.0046
# 6 -0.0063 0.0074 -0.0097 -0.6794 -0.0046 19.1741
#
#
#
# Elastic Compliance Matrix: (Units=1/GPa)
#
#
# Indices 1 2 3 4 5 6 
#
# 1 0.008991 -0.001486 -0.003161 0.000001 -0.002007 0.000001
# 2 -0.001486 0.011322 -0.000590 0.000013 -0.001982 -0.000005
# 3 -0.003161 -0.000590 0.014364 -0.000019 -0.002831 0.000005
# 4 0.000001 0.000013 -0.000019 0.033712 0.000021 0.001194
# 5 -0.002007 -0.001982 -0.002831 0.000021 0.027354 0.000006
# 6 0.000001 -0.000005 0.000005 0.001194 0.000006 0.052196
#
#
# Mechanical properties :
#
#
# Convention : Reuss Voigt Hill
#
# Bulk Modulus (GPa) = 41.31898 47.67484 44.49691
# Shear Modulus (GPa) = 30.03349 33.54671 31.79010
#
# Velocity S-wave (km/s) = 3.82498 4.04251 3.93525
# Velocity P-wave (km/s) = 6.29567 6.70921 6.50573
#
# Compressibility (1/GPa) = 0.02420195
#
# Stress axis : x y z
#
# Youngs Moduli (GPa) = 111.22533 88.32284 69.61944
#
# Poissons Ratio (x) = 0.13123 0.22009
# Poissons Ratio (y) = 0.16526 0.04109
# Poissons Ratio (z) = 0.35163 0.05212
#
# Static dielectric constant tensor:
#      x y z
#    x 1.757520 -0.000010 0.032870 
#    y -0.000010 1.734240 0.000000 
#    z 0.032870 0.000000 1.751250 
# 
# From -- ./inp_files/69818.got.cif
#   From: 2010.05.17/outbox.cif.g08.bks.cpg/sg5_35_cif.got.tgz:69818.got - 2010.06.03 18:56:24.
