data_PCOD9123885
_publ_section_title
;
Structure prediction by ZEFSAII (Michael W. Deem and Ramdas Pophale) SiO2 
 PCOD9123885
Probable space group: C 2
;
_chemical_formula_sum "Si O2"
_cell_formula_units_Z 28
_cell_length_a 13.264623
_cell_length_b 8.239484
_cell_length_c 12.079363
_cell_angle_alpha 90.000000
_cell_angle_beta 60.049689
_cell_angle_gamma 90.000000
_cell_volume 1143.896743
_symmetry_space_group_name_H-M "C 2"
_symmetry_group_IT_number 5
_symmetry_cell_setting 'monoclinic'
loop_
_space_group_symop_operation_xyz
x,y,z
-x,y,-z
1/2+x,1/2+y,z
1/2-x,1/2+y,-z
loop_
_atom_site_type_symbol
_atom_site_label
_atom_site_fract_x
_atom_site_fract_y
_atom_site_fract_z
Si Si1 0.270691 0.462630 0.117218
Si Si2 0.239997 0.979020 0.459451
Si Si3 0.000000 0.090302 0.500000
Si Si4 0.000000 0.546433 0.500000
Si Si5 0.461690 0.811237 0.708902
Si Si6 0.077586 0.967920 0.185749
Si Si7 0.161799 0.801851 0.702011
Si Si8 0.209812 0.760240 0.290688
O O1 0.135233 0.416792 0.176304
O O2 0.311622 0.327859 0.183663
O O3 0.277284 0.636248 0.174428
O O4 0.343633 0.462340 0.966425
O O5 0.232470 0.936151 0.592177
O O6 0.280548 0.834080 0.355471
O O7 0.099405 0.994843 0.509995
O O8 0.300502 0.138383 0.379469
O O9 0.074894 0.207792 0.380295
O O10 0.966767 0.442159 0.406029
O O11 0.103087 0.660002 0.400963
O O12 0.479096 0.649115 0.773731
O O13 0.157719 0.906217 0.244057
O O14 0.974177 0.838537 0.234829
#
# Coordination Sequence:
#
# PCOD9123885 Si02
#       8
#     4   4   2   2   4   4   4   4
#     4  11  24  42  63  95 132 176 222 257 313 397
#     4  12  23  42  68  97 131 165 212 283 336 383
#     4  11  17  40  70  89 125 164 214 273 325 368
#     4   9  21  34  66 105 123 150 210 281 321 368
#     4  10  20  40  67  95 127 166 217 268 315 375
#     4  12  23  42  67  92 134 179 212 263 316 392
#     4  12  25  41  62  97 132 170 209 267 344 383
#     4  11  22  41  66  99 126 166 226 268 319 382
#
# _framework density 24.477734999999999
#
# number of rings (size 3 to 8) (size 9 to 14) (size 15 to 20)
#    0.000    0.857    4.286    3.429    0.000    1.143 
#    2.571    0.000    0.000    5.143    0.000    0.000 
#    0.000    0.000    0.000    0.000    0.000    0.000 
#
# Total GULP energy -78153.808989 kJ/mol
# GULP energy per Si atom -5582.414928 kJ/mol
# Density = 2.442202 g / cm^3
# Si number density = 24.477735 Si / 1000 Ang^3
#
#
#
# Elastic Constant Matrix: (Units=GPa)
#
#
# Indices 1 2 3 4 5 6 
#
# 1 11.9730 9.3968 33.6696 0.0000 -1.2548 0.0000
# 2 9.3968 119.0295 62.5506 0.0000 -2.0859 0.0000
# 3 33.6696 62.5506 211.1618 0.0000 -12.4138 0.0000
# 4 0.0000 0.0000 0.0000 30.7471 0.0000 0.8868
# 5 -1.2548 -2.0859 -12.4138 0.0000 33.7693 0.0000
# 6 0.0000 0.0000 0.0000 0.8868 0.0000 42.3774
#
#
#
# Elastic Compliance Matrix: (Units=1/GPa)
#
#
# Indices 1 2 3 4 5 6 
#
# 1 0.151865 0.000925 -0.024687 0.000000 -0.003375 0.000000
# 2 0.000925 0.009963 -0.003128 0.000000 -0.000500 0.000000
# 3 -0.024687 -0.003128 0.009744 0.000000 0.002471 0.000000
# 4 0.000000 0.000000 0.000000 0.032543 0.000000 -0.000681
# 5 -0.003375 -0.000500 0.002471 0.000000 0.030365 0.000000
# 6 0.000000 0.000000 0.000000 -0.000681 0.000000 0.023612
#
#
# Mechanical properties :
#
#
# Convention : Reuss Voigt Hill
#
# Bulk Modulus (GPa) = 8.48955 61.48872 34.98914
# Shear Modulus (GPa) = 14.23944 37.14858 25.69401
#
# Velocity S-wave (km/s) = 2.41453 3.89993 3.24341
# Velocity P-wave (km/s) = 3.35396 6.74196 5.32462
#
# Compressibility (1/GPa) = 0.11779185
#
# Stress axis : x y z
#
# Youngs Moduli (GPa) = 6.58478 100.36727 102.62696
#
# Poissons Ratio (x) = -0.09285 2.53358
# Poissons Ratio (y) = -0.00609 0.32105
# Poissons Ratio (z) = 0.16256 0.31398
#
# Static dielectric constant tensor:
#      x y z
#    x 2.165490 0.000000 -0.003050 
#    y 0.000000 2.029470 0.000000 
#    z -0.003050 0.000000 1.893920 
# 
# From -- ./inp_files/41921.got.cif
#   From: 2010.05.17/outbox.cif.g08.bks.cpg/sg5_21_cif.got.tgz:41921.got - 2010.06.03 18:56:24.
