data_PCOD9123999
_publ_section_title
;
Structure prediction by ZEFSAII (Michael W. Deem and Ramdas Pophale) SiO2 
 PCOD9123999
Probable space group: C 2
;
_chemical_formula_sum "Si O2"
_cell_formula_units_Z 28
_cell_length_a 19.242260
_cell_length_b 8.249833
_cell_length_c 17.035538
_cell_angle_alpha 90.000000
_cell_angle_beta 150.609114
_cell_angle_gamma 90.000000
_cell_volume 1327.183021
_symmetry_space_group_name_H-M "C 2"
_symmetry_group_IT_number 5
_symmetry_cell_setting 'monoclinic'
loop_
_space_group_symop_operation_xyz
x,y,z
-x,y,-z
1/2+x,1/2+y,z
1/2-x,1/2+y,-z
loop_
_atom_site_type_symbol
_atom_site_label
_atom_site_fract_x
_atom_site_fract_y
_atom_site_fract_z
Si Si1 0.000000 0.036451 0.000000
Si Si2 0.963821 0.174387 0.376180
Si Si3 0.981115 0.804874 0.565923
Si Si4 0.656612 0.614732 0.422562
Si Si5 0.659778 0.275655 0.056778
Si Si6 0.851962 0.287873 0.747250
Si Si7 0.500000 0.035016 0.000000
Si Si8 0.960627 0.745841 0.713341
O O1 0.112500 0.142266 0.158481
O O2 0.088039 0.933840 0.023342
O O3 0.826969 0.268853 0.210851
O O4 0.000000 0.228363 0.500000
O O5 0.088138 0.184239 0.434545
O O6 0.939390 0.978383 0.357666
O O7 0.812498 0.833931 0.408504
O O8 0.021456 0.714731 0.685766
O O9 0.000000 0.722986 0.500000
O O10 0.616362 0.725680 0.308541
O O11 0.826480 0.629263 0.595709
O O12 0.599763 0.432486 0.349715
O O13 0.625782 0.144204 0.091013
O O14 0.575998 0.235460 0.894773
O O15 0.946903 0.430090 0.875001
#
# Coordination Sequence:
#
# PCOD9123999 Si02
#       8
#     2   4   4   4   4   4   2   4
#     4  10  22  40  64  90 134 160 218 272 328 388
#     4  10  22  39  63  92 126 168 210 267 320 380
#     4   9  19  39  63  87 124 167 215 259 313 384
#     4  10  22  41  62  90 127 169 216 264 323 387
#     4  11  23  40  63  97 128 167 218 277 321 386
#     4  10  20  41  63  92 121 174 212 266 324 388
#     4  10  22  34  66  90 118 168 222 260 320 388
#     4  10  22  39  66  90 129 170 218 268 319 386
#
# _framework density 21.097314999999998
#
# number of rings (size 3 to 8) (size 9 to 14) (size 15 to 20)
#    0.000    2.000    1.429    1.714   10.000    0.000 
#   10.286    3.571    0.000    0.000    0.000    0.000 
#    0.000    0.000    0.000    0.000    0.000    0.000 
#
# Total GULP energy -78164.083413 kJ/mol
# GULP energy per Si atom -5583.148815 kJ/mol
# Density = 2.104930 g / cm^3
# Si number density = 21.097315 Si / 1000 Ang^3
#
#
#
# Elastic Constant Matrix: (Units=GPa)
#
#
# Indices 1 2 3 4 5 6 
#
# 1 118.4504 3.3660 28.7966 0.0000 -29.2427 0.0000
# 2 3.3660 40.2577 14.7731 0.0000 -1.2343 0.0000
# 3 28.7966 14.7731 112.6534 0.0000 -24.2160 0.0000
# 4 0.0000 0.0000 0.0000 24.9018 0.0000 -5.5679
# 5 -29.2427 -1.2343 -24.2160 0.0000 36.8078 0.0000
# 6 0.0000 0.0000 0.0000 -5.5679 0.0000 17.8672
#
#
#
# Elastic Compliance Matrix: (Units=1/GPa)
#
#
# Indices 1 2 3 4 5 6 
#
# 1 0.010610 -0.000279 -0.001008 0.000000 0.007757 0.000000
# 2 -0.000279 0.026185 -0.003752 0.000000 -0.001812 0.000000
# 3 -0.001008 -0.003752 0.010980 0.000000 0.006297 0.000000
# 4 0.000000 0.000000 0.000000 0.043165 0.000000 0.013451
# 5 0.007757 -0.001812 0.006297 0.000000 0.037413 0.000000
# 6 0.000000 0.000000 0.000000 0.013451 0.000000 0.060160
#
#
# Mechanical properties :
#
#
# Convention : Reuss Voigt Hill
#
# Bulk Modulus (GPa) = 26.52787 40.58145 33.55466
# Shear Modulus (GPa) = 23.67892 30.87707 27.27800
#
# Velocity S-wave (km/s) = 3.35381 3.82979 3.59968
# Velocity P-wave (km/s) = 5.25345 6.23166 5.76334
#
# Compressibility (1/GPa) = 0.03769621
#
# Stress axis : x y z
#
# Youngs Moduli (GPa) = 94.24692 38.19040 91.07359
#
# Poissons Ratio (x) = 0.01067 0.09182
# Poissons Ratio (y) = 0.02633 0.34170
# Poissons Ratio (z) = 0.09502 0.14329
#
# Static dielectric constant tensor:
#      x y z
#    x 1.790660 0.000000 0.004280 
#    y 0.000000 1.784960 0.000000 
#    z 0.004280 0.000000 1.754480 
# 
# From -- ./inp_files/62751.got.cif
#   From: 2010.05.17/outbox.cif.g08.bks.cpg/sg5_32_cif.got.tgz:62751.got - 2010.06.03 18:56:24.
