data_PCOD9123936
_publ_section_title
;
Structure prediction by ZEFSAII (Michael W. Deem and Ramdas Pophale) SiO2 
 PCOD9123936
Probable space group: C 2
;
_chemical_formula_sum "Si O2"
_cell_formula_units_Z 22
_cell_length_a 19.501202
_cell_length_b 7.337822
_cell_length_c 5.860428
_cell_angle_alpha 90.000000
_cell_angle_beta 113.450194
_cell_angle_gamma 90.000000
_cell_volume 769.342334
_symmetry_space_group_name_H-M "C 2"
_symmetry_group_IT_number 5
_symmetry_cell_setting 'monoclinic'
loop_
_space_group_symop_operation_xyz
x,y,z
-x,y,-z
1/2+x,1/2+y,z
1/2-x,1/2+y,-z
loop_
_atom_site_type_symbol
_atom_site_label
_atom_site_fract_x
_atom_site_fract_y
_atom_site_fract_z
Si Si1 0.500000 0.347400 0.500000
Si Si2 0.834863 0.871446 0.847490
Si Si3 0.856167 0.235025 0.052505
Si Si4 0.597366 0.020920 0.507332
Si Si5 0.500000 0.403040 0.000000
Si Si6 0.234874 0.519358 0.345112
Si Si7 0.500000 0.848203 0.000000
O O1 0.570632 0.207034 0.590757
O O2 0.506777 0.463052 0.277717
O O3 0.834276 0.024473 0.043631
O O4 0.808888 0.977429 0.583246
O O5 0.776413 0.708373 0.803824
O O6 0.919240 0.804026 0.919453
O O7 0.793203 0.351208 0.840657
O O8 0.927726 0.232570 0.974307
O O9 0.884709 0.354049 0.300393
O O10 0.671950 0.044406 0.459425
O O11 0.529399 0.964974 0.250661
#
# Coordination Sequence:
#
# PCOD9123936 Si02
#       7
#     2   4   4   4   2   4   2
#     4  12  22  48  82 122 164 216 278 346 426 496
#     4  12  25  51  77 114 157 215 274 344 411 502
#     4  11  23  44  73 108 152 207 270 336 407 494
#     4  11  22  42  77 113 159 219 269 339 421 503
#     4  12  28  50  82 121 167 216 287 351 416 513
#     4  11  25  49  74 108 160 214 269 340 421 495
#     4  10  20  40  70 109 155 198 263 337 404 487
#
# _framework density 28.595856999999999
#
# number of rings (size 3 to 8) (size 9 to 14) (size 15 to 20)
#    0.000    0.727    5.455    2.182    0.000    0.000 
#   19.636    0.000    0.000    0.000    0.000    0.000 
#    0.000    0.000    0.000    0.000    0.000    0.000 
#
# Total GULP energy -61668.285604 kJ/mol
# GULP energy per Si atom -5606.207782 kJ/mol
# Density = 2.853077 g / cm^3
# Si number density = 28.595857 Si / 1000 Ang^3
#
#
#
# Elastic Constant Matrix: (Units=GPa)
#
#
# Indices 1 2 3 4 5 6 
#
# 1 126.7724 26.9649 44.2706 0.0000 9.8635 0.0000
# 2 26.9649 177.2205 58.8970 0.0000 1.8685 0.0000
# 3 44.2706 58.8970 184.1992 0.0000 2.8087 0.0000
# 4 0.0000 0.0000 0.0000 75.1873 0.0000 5.6081
# 5 9.8635 1.8685 2.8087 0.0000 69.0459 0.0000
# 6 0.0000 0.0000 0.0000 5.6081 0.0000 34.9172
#
#
#
# Elastic Compliance Matrix: (Units=1/GPa)
#
#
# Indices 1 2 3 4 5 6 
#
# 1 0.008780 -0.000703 -0.001868 0.000000 -0.001159 0.000000
# 2 -0.000703 0.006370 -0.001868 0.000000 0.000004 0.000000
# 3 -0.001868 -0.001868 0.006474 0.000000 0.000054 0.000000
# 4 0.000000 0.000000 0.000000 0.013461 0.000000 -0.002162
# 5 -0.001159 0.000004 0.000054 0.000000 0.014646 0.000000
# 6 0.000000 0.000000 0.000000 -0.002162 0.000000 0.028986
#
#
# Mechanical properties :
#
#
# Convention : Reuss Voigt Hill
#
# Bulk Modulus (GPa) = 78.44815 83.16188 80.80502
# Shear Modulus (GPa) = 54.43912 59.70072 57.06992
#
# Velocity S-wave (km/s) = 4.36792 4.57414 4.47222
# Velocity P-wave (km/s) = 7.27539 7.55261 7.41529
#
# Compressibility (1/GPa) = 0.01274727
#
# Stress axis : x y z
#
# Youngs Moduli (GPa) = 113.89357 156.97544 154.45748
#
# Poissons Ratio (x) = 0.11035 0.28849
# Poissons Ratio (y) = 0.08007 0.28853
# Poissons Ratio (z) = 0.21273 0.29323
#
# Static dielectric constant tensor:
#      x y z
#    x 2.190870 0.000000 -0.052250 
#    y 0.000000 2.356970 0.000000 
#    z -0.052250 0.000000 2.178160 
# 
# From -- ./inp_files/9268.got.cif
#   From: 2010.05.17/outbox.cif.g08.bks.cpg/sg5_5_cif.got.tgz:9268.got - 2010.06.03 18:56:24.
