data_PCOD9123654
_publ_section_title
;
Structure prediction by ZEFSAII (Michael W. Deem and Ramdas Pophale) SiO2 
 PCOD9123654
Probable space group: C 2
;
_chemical_formula_sum "Si O2"
_cell_formula_units_Z 24
_cell_length_a 11.412428
_cell_length_b 14.130762
_cell_length_c 12.952468
_cell_angle_alpha 90.000000
_cell_angle_beta 145.654714
_cell_angle_gamma 90.000000
_cell_volume 1178.454808
_symmetry_space_group_name_H-M "C 2"
_symmetry_group_IT_number 5
_symmetry_cell_setting 'monoclinic'
loop_
_space_group_symop_operation_xyz
x,y,z
-x,y,-z
1/2+x,1/2+y,z
1/2-x,1/2+y,-z
loop_
_atom_site_type_symbol
_atom_site_label
_atom_site_fract_x
_atom_site_fract_y
_atom_site_fract_z
Si Si1 0.979605 0.380330 0.604494
Si Si2 0.202425 0.886737 0.994836
Si Si3 0.446638 0.096345 0.296251
Si Si4 0.537793 0.028347 0.146425
Si Si5 0.947643 0.799203 0.635609
Si Si6 0.000000 0.950910 0.500000
Si Si7 0.000000 0.026030 0.000000
O O1 0.786221 0.324906 0.507748
O O2 0.000000 0.359912 0.500000
O O3 0.955409 0.494878 0.600460
O O4 0.179718 0.351782 0.817083
O O5 0.087645 0.813091 0.839354
O O6 0.385166 0.939066 0.061989
O O7 0.038434 0.961646 0.925524
O O8 0.537885 0.194598 0.400017
O O9 0.208559 0.086464 0.158181
O O10 0.468056 0.098280 0.187174
O O11 0.782342 0.007335 0.343184
O O12 0.500000 0.055778 0.000000
O O13 0.019278 0.881330 0.611008
#
# Coordination Sequence:
#
# PCOD9123654 Si02
#       7
#     4   4   4   4   4   2   2
#     4  10  22  45  63  88 130 169 214 255 311 377
#     4  10  20  39  66  88 119 169 207 254 320 365
#     4  10  23  40  64  99 124 165 215 259 317 369
#     4  10  20  42  63  86 124 170 205 254 321 373
#     4  12  23  40  64  96 127 164 214 261 313 374
#     4  12  22  38  66  88 124 170 210 260 314 366
#     4   8  18  42  64  90 118 166 212 254 314 364
#
# _framework density 20.365649999999999
#
# number of rings (size 3 to 8) (size 9 to 14) (size 15 to 20)
#    0.000    2.000    5.000    2.000    1.167    1.333 
#    6.000    3.333    0.000    0.000    0.000    0.000 
#    0.000    0.000    0.000    0.000    0.000    0.000 
#
# Total GULP energy -66913.121563 kJ/mol
# GULP energy per Si atom -5576.093464 kJ/mol
# Density = 2.031930 g / cm^3
# Si number density = 20.365650 Si / 1000 Ang^3
#
#
#
# Elastic Constant Matrix: (Units=GPa)
#
#
# Indices 1 2 3 4 5 6 
#
# 1 112.3680 10.0081 45.0268 -0.0001 11.7478 -0.0047
# 2 10.0081 61.2285 45.1114 0.0000 25.7107 -0.0080
# 3 45.0268 45.1114 107.1099 -0.0009 9.9581 -0.0265
# 4 -0.0001 0.0000 -0.0009 3.0478 -0.0001 -0.3621
# 5 11.7478 25.7107 9.9581 -0.0001 50.7048 -0.0115
# 6 -0.0047 -0.0080 -0.0265 -0.3621 -0.0115 -318.0769
#
#
#
# Elastic Compliance Matrix: (Units=1/GPa)
#
#
# Indices 1 2 3 4 5 6 
#
# 1 0.011396 0.004230 -0.006241 -0.000001 -0.003560 0.000000
# 2 0.004230 0.031939 -0.013887 -0.000004 -0.014448 0.000001
# 3 -0.006241 -0.013887 0.017336 0.000005 0.005083 -0.000001
# 4 -0.000001 -0.000004 0.000005 0.328066 0.000002 -0.000373
# 5 -0.003560 -0.014448 0.005083 0.000002 0.026875 -0.000001
# 6 0.000000 0.000001 -0.000001 -0.000373 -0.000001 -0.003143
#
#
# Mechanical properties :
#
#
# Convention : Reuss Voigt Hill
#
# Bulk Modulus (GPa) = 34.63147 53.44432 44.03790
# Shear Modulus (GPa) = 11.01591 -40.82752 -14.90581
#
# Velocity S-wave (km/s) = 2.32826 -4.48227 -2.70832
# Velocity P-wave (km/s) = 4.92641 0.69881 3.44827
#
# Compressibility (1/GPa) = 0.02887547
#
# Stress axis : x y z
#
# Youngs Moduli (GPa) = 87.75290 31.30933 57.68297
#
# Poissons Ratio (x) = -0.13245 0.36002
# Poissons Ratio (y) = -0.37124 0.80104
# Poissons Ratio (z) = 0.54769 0.43479
#
# Static dielectric constant tensor:
#      x y z
#    x 2.109110 -0.000020 0.044450 
#    y -0.000020 1.745540 0.000000 
#    z 0.044450 0.000000 1.752740 
# 
# From -- ./inp_files/53113.got.cif
#   From: 2010.05.17/outbox.cif.g08.bks.cpg/sg5_27_cif.got.tgz:53113.got - 2010.06.03 18:56:24.
