data_PCOD9123787
_publ_section_title
;
Structure prediction by ZEFSAII (Michael W. Deem and Ramdas Pophale) SiO2 
 PCOD9123787
Probable space group: C 2
;
_chemical_formula_sum "Si O2"
_cell_formula_units_Z 28
_cell_length_a 22.098979
_cell_length_b 8.387311
_cell_length_c 18.670366
_cell_angle_alpha 90.000000
_cell_angle_beta 19.524769
_cell_angle_gamma 90.000000
_cell_volume 1156.572490
_symmetry_space_group_name_H-M "C 2"
_symmetry_group_IT_number 5
_symmetry_cell_setting 'monoclinic'
loop_
_space_group_symop_operation_xyz
x,y,z
-x,y,-z
1/2+x,1/2+y,z
1/2-x,1/2+y,-z
loop_
_atom_site_type_symbol
_atom_site_label
_atom_site_fract_x
_atom_site_fract_y
_atom_site_fract_z
Si Si1 0.390969 0.377340 0.333690
Si Si2 0.053351 0.794798 0.015877
Si Si3 0.672993 0.970666 0.698100
Si Si4 0.948553 0.363722 0.387546
Si Si5 0.895481 0.129331 0.678674
Si Si6 0.671417 0.865086 0.000702
Si Si7 0.455530 0.216327 0.405168
O O1 0.531663 0.398540 0.112736
O O2 0.314718 0.507315 0.474631
O O3 0.452436 0.242428 0.321376
O O4 0.218339 0.340800 0.478527
O O5 0.930518 0.628791 0.158311
O O6 0.260564 0.743819 0.786482
O O7 0.000000 0.871214 0.000000
O O8 0.803034 0.848788 0.598388
O O9 0.509668 0.863385 0.845975
O O10 0.973669 0.226597 0.416471
O O11 0.914509 0.532984 0.463544
O O12 0.117406 0.365602 0.144244
O O13 0.768114 0.029318 0.872219
O O14 0.000000 0.035366 0.500000
O O15 0.838651 0.746833 0.800193
#
# Coordination Sequence:
#
# PCOD9123787 Si02
#       7
#     4   4   4   4   4   4   4
#     4   9  19  34  59  87 124 163 205 255 313 371
#     4  11  21  39  63  94 123 162 217 265 312 375
#     4   8  21  36  59  90 121 159 212 257 305 378
#     4  11  21  38  60  98 130 163 214 268 324 381
#     4  11  25  40  64  96 129 168 216 266 321 388
#     4  10  20  40  63  92 127 165 219 259 317 380
#     4  10  21  37  63  87 129 169 208 262 322 371
#
# _framework density 24.209464000000001
#
# number of rings (size 3 to 8) (size 9 to 14) (size 15 to 20)
#    0.857    1.143    0.000    5.143    4.000    0.000 
#    5.143    0.714    0.000    0.857    0.000    0.000 
#    0.000    0.000    0.000    0.000    0.000    0.000 
#
# Total GULP energy -77998.359594 kJ/mol
# GULP energy per Si atom -5571.311400 kJ/mol
# Density = 2.415436 g / cm^3
# Si number density = 24.209464 Si / 1000 Ang^3
#
#
#
# Elastic Constant Matrix: (Units=GPa)
#
#
# Indices 1 2 3 4 5 6 
#
# 1 78.2351 0.8982 18.9705 -0.0003 0.1231 0.0001
# 2 0.8982 46.5584 -0.1465 -0.0005 -5.5718 0.0002
# 3 18.9705 -0.1465 84.7789 -0.0010 -1.5163 0.0006
# 4 -0.0003 -0.0005 -0.0010 23.5378 0.0008 3.1007
# 5 0.1231 -5.5718 -1.5163 0.0008 35.0226 -0.0004
# 6 0.0001 0.0002 0.0006 3.1007 -0.0004 8.3622
#
#
#
# Elastic Compliance Matrix: (Units=1/GPa)
#
#
# Indices 1 2 3 4 5 6 
#
# 1 0.013520 -0.000297 -0.003030 0.000000 -0.000226 0.000000
# 2 -0.000297 0.021903 0.000167 0.000000 0.003493 -0.000001
# 3 -0.003030 0.000167 0.012484 0.000001 0.000578 -0.000001
# 4 0.000000 0.000000 0.000001 0.044667 -0.000001 -0.016562
# 5 -0.000226 0.003493 0.000578 -0.000001 0.029134 0.000002
# 6 0.000000 -0.000001 -0.000001 -0.016562 0.000002 0.125727
#
#
# Mechanical properties :
#
#
# Convention : Reuss Voigt Hill
#
# Bulk Modulus (GPa) = 24.04647 27.66852 25.85749
# Shear Modulus (GPa) = 18.68332 26.04121 22.36227
#
# Velocity S-wave (km/s) = 2.78103 3.28329 3.04254
# Velocity P-wave (km/s) = 4.50182 5.08202 4.80069
#
# Compressibility (1/GPa) = 0.04158615
#
# Stress axis : x y z
#
# Youngs Moduli (GPa) = 73.96203 45.65655 80.10255
#
# Poissons Ratio (x) = 0.01358 0.24271
# Poissons Ratio (y) = 0.02200 -0.01337
# Poissons Ratio (z) = 0.22410 -0.00762
#
# Static dielectric constant tensor:
#      x y z
#    x 1.995520 0.000000 0.051370 
#    y 0.000000 1.975050 0.000000 
#    z 0.051370 0.000000 2.061230 
# 
# From -- ./inp_files/67336.got.cif
#   From: 2010.05.17/outbox.cif.g08.bks.cpg/sg5_34_cif.got.tgz:67336.got - 2010.06.03 18:56:24.
