data_PCOD9123872
_publ_section_title
;
Structure prediction by ZEFSAII (Michael W. Deem and Ramdas Pophale) SiO2 
 PCOD9123872
Probable space group: C 2
;
_chemical_formula_sum "Si O2"
_cell_formula_units_Z 32
_cell_length_a 19.127940
_cell_length_b 13.808225
_cell_length_c 13.467267
_cell_angle_alpha 90.000000
_cell_angle_beta 151.589296
_cell_angle_gamma 90.000000
_cell_volume 1692.386299
_symmetry_space_group_name_H-M "C 2"
_symmetry_group_IT_number 5
_symmetry_cell_setting 'monoclinic'
loop_
_space_group_symop_operation_xyz
x,y,z
-x,y,-z
1/2+x,1/2+y,z
1/2-x,1/2+y,-z
loop_
_atom_site_type_symbol
_atom_site_label
_atom_site_fract_x
_atom_site_fract_y
_atom_site_fract_z
Si Si1 0.167668 0.906750 0.171037
Si Si2 0.545911 0.770929 0.943419
Si Si3 0.342569 0.182586 0.858855
Si Si4 0.891958 0.065247 0.062671
Si Si5 0.666271 0.389604 0.701694
Si Si6 0.692273 0.524914 0.545322
Si Si7 0.104228 0.438559 0.366493
Si Si8 0.808027 0.551697 0.008378
O O1 0.190466 0.795460 0.167643
O O2 0.280950 0.926477 0.401359
O O3 0.000000 0.914628 0.000000
O O4 0.178509 0.984846 0.097011
O O5 0.711364 0.808530 0.135159
O O6 0.500000 0.787775 0.000000
O O7 0.548117 0.658060 0.921455
O O8 0.445176 0.836689 0.745213
O O9 0.227390 0.126218 0.644173
O O10 0.340756 0.128199 0.962036
O O11 0.500000 0.173618 0.000000
O O12 0.772808 0.094166 0.997042
O O13 0.035866 0.023768 0.296804
O O14 0.500000 0.354865 0.500000
O O15 0.693950 0.443561 0.632188
O O16 0.698282 0.471632 0.824007
O O17 0.817805 0.500364 0.622755
O O18 0.958480 0.494968 0.218792
#
# Coordination Sequence:
#
# PCOD9123872 Si02
#       8
#     4   4   4   4   4   4   4   4
#     4  11  24  42  63  93 130 169 213 257 316 376
#     4  11  24  41  66  95 126 165 217 260 318 382
#     4  10  21  39  67 100 121 159 219 268 308 376
#     4  12  25  43  59  94 137 170 202 258 324 384
#     4  10  20  40  66  98 123 158 216 268 312 368
#     4  11  20  39  68  93 125 162 210 260 318 371
#     4  11  22  43  66  93 123 167 212 263 313 375
#     4  10  23  40  67  94 128 166 210 263 321 365
#
# _framework density 18.908213
#
# number of rings (size 3 to 8) (size 9 to 14) (size 15 to 20)
#    0.000    1.250    5.000    1.125    0.000    2.500 
#    2.250    1.250    0.000    0.000    0.000    0.000 
#    0.000    0.000    0.000    0.000    0.000    0.000 
#
# Total GULP energy -89367.502973 kJ/mol
# GULP energy per Si atom -5585.468936 kJ/mol
# Density = 1.886518 g / cm^3
# Si number density = 18.908213 Si / 1000 Ang^3
#
#
#
# Elastic Constant Matrix: (Units=GPa)
#
#
# Indices 1 2 3 4 5 6 
#
# 1 73.9721 20.1203 30.7006 0.0000 2.8071 0.0000
# 2 20.1203 84.3433 37.0224 0.0000 -15.9498 0.0000
# 3 30.7006 37.0224 132.5822 0.0000 -13.0339 0.0000
# 4 0.0000 0.0000 0.0000 11.3133 0.0000 -2.2870
# 5 2.8071 -15.9498 -13.0339 0.0000 25.7820 0.0000
# 6 0.0000 0.0000 0.0000 -2.2870 0.0000 19.6236
#
#
#
# Elastic Compliance Matrix: (Units=1/GPa)
#
#
# Indices 1 2 3 4 5 6 
#
# 1 0.016028 -0.003421 -0.003300 0.000000 -0.005530 0.000000
# 2 -0.003421 0.015475 -0.002685 0.000000 0.008589 0.000000
# 3 -0.003300 -0.002685 0.009395 0.000000 0.003448 0.000000
# 4 0.000000 0.000000 0.000000 0.090525 0.000000 0.010550
# 5 -0.005530 0.008589 0.003448 0.000000 0.046445 0.000000
# 6 0.000000 0.000000 0.000000 0.010550 0.000000 0.052189
#
#
# Mechanical properties :
#
#
# Convention : Reuss Voigt Hill
#
# Bulk Modulus (GPa) = 45.27412 51.84270 48.55841
# Shear Modulus (GPa) = 19.51365 24.88072 22.19718
#
# Velocity S-wave (km/s) = 3.21599 3.63143 3.43000
# Velocity P-wave (km/s) = 6.14705 6.71272 6.43610
#
# Compressibility (1/GPa) = 0.02208767
#
# Stress axis : x y z
#
# Youngs Moduli (GPa) = 62.38898 64.62026 106.43623
#
# Poissons Ratio (x) = 0.22106 0.35123
# Poissons Ratio (y) = 0.21342 0.28576
# Poissons Ratio (z) = 0.20588 0.17349
#
# Static dielectric constant tensor:
#      x y z
#    x 1.640710 0.000000 0.000240 
#    y 0.000000 1.638120 0.000000 
#    z 0.000240 0.000000 1.635230 
# 
# From -- ./inp_files/44982.got.cif
#   From: 2010.05.17/outbox.cif.g08.bks.cpg/sg5_23_cif.got.tgz:44982.got - 2010.06.03 18:56:24.
