data_PCOD9123191
_publ_section_title
;
Structure prediction by ZEFSAII (Michael W. Deem and Ramdas Pophale) SiO2 
 PCOD9123191
Probable space group: C 2
;
_chemical_formula_sum "Si O2"
_cell_formula_units_Z 16
_cell_length_a 4.842426
_cell_length_b 17.530445
_cell_length_c 9.275113
_cell_angle_alpha 90.000000
_cell_angle_beta 51.273230
_cell_angle_gamma 90.000000
_cell_volume 614.252147
_symmetry_space_group_name_H-M "C 2"
_symmetry_group_IT_number 5
_symmetry_cell_setting 'monoclinic'
loop_
_space_group_symop_operation_xyz
x,y,z
-x,y,-z
1/2+x,1/2+y,z
1/2-x,1/2+y,-z
loop_
_atom_site_type_symbol
_atom_site_label
_atom_site_fract_x
_atom_site_fract_y
_atom_site_fract_z
Si Si1 0.726396 0.674710 0.722706
Si Si2 0.089135 0.951176 0.806078
Si Si3 0.291404 0.274686 0.277192
Si Si4 0.334492 0.041737 0.304217
O O1 0.642653 0.705902 0.222324
O O2 0.847183 0.745875 0.774743
O O3 0.844666 0.603422 0.785282
O O4 0.000000 0.666800 0.500000
O O5 0.108438 0.860000 0.799203
O O6 0.498934 0.974596 0.655706
O O7 0.831432 0.000454 0.783939
O O8 0.000000 0.971500 0.000000
O O9 0.000000 0.280227 0.500000
O O10 0.000000 0.074789 0.500000
#
# Coordination Sequence:
#
# PCOD9123191 Si02
#       4
#     4   4   4   4
#     4  10  20  37  65  98 128 161 219 284 331 384
#     4  12  26  43  64  99 141 180 222 276 336 403
#     4  10  20  38  64  94 127 171 221 273 330 395
#     4  12  23  42  70  99 131 176 227 279 336 402
#
# _framework density 26.047934999999999
#
# number of rings (size 3 to 8) (size 9 to 14) (size 15 to 20)
#    0.000    1.000    0.000    9.750    0.000    2.000 
#    0.000    5.000    0.000    3.000    0.000    0.000 
#    0.000    0.000    0.000    0.000    0.000    0.000 
#
# Total GULP energy -44556.977472 kJ/mol
# GULP energy per Si atom -5569.622184 kJ/mol
# Density = 2.598865 g / cm^3
# Si number density = 26.047935 Si / 1000 Ang^3
#
#
#
# Elastic Constant Matrix: (Units=GPa)
#
#
# Indices 1 2 3 4 5 6 
#
# 1 174.6378 50.0870 51.0583 0.0000 47.2874 0.0000
# 2 50.0870 166.1843 42.7979 0.0000 30.5598 0.0000
# 3 51.0583 42.7979 102.3038 0.0000 19.3383 0.0000
# 4 0.0000 0.0000 0.0000 26.5884 0.0000 21.0731
# 5 47.2874 30.5598 19.3383 0.0000 36.8473 0.0000
# 6 0.0000 0.0000 0.0000 21.0731 0.0000 35.4952
#
#
#
# Elastic Compliance Matrix: (Units=1/GPa)
#
#
# Indices 1 2 3 4 5 6 
#
# 1 0.009398 -0.000229 -0.002610 0.000000 -0.010501 0.000000
# 2 -0.000229 0.007521 -0.002118 0.000000 -0.004831 0.000000
# 3 -0.002610 -0.002118 0.012210 0.000000 -0.001302 0.000000
# 4 0.000000 0.000000 0.000000 0.071035 0.000000 -0.042172
# 5 -0.010501 -0.004831 -0.001302 0.000000 0.045306 0.000000
# 6 0.000000 0.000000 0.000000 -0.042172 0.000000 0.053210
#
#
# Mechanical properties :
#
#
# Convention : Reuss Voigt Hill
#
# Bulk Modulus (GPa) = 52.04653 81.22359 66.63506
# Shear Modulus (GPa) = 23.25598 39.73171 31.49384
#
# Velocity S-wave (km/s) = 2.99124 3.90978 3.48094
# Velocity P-wave (km/s) = 5.65283 7.18554 6.46477
#
# Compressibility (1/GPa) = 0.01921358
#
# Stress axis : x y z
#
# Youngs Moduli (GPa) = 106.40114 132.96970 81.90321
#
# Poissons Ratio (x) = 0.03051 0.21373
# Poissons Ratio (y) = 0.02442 0.17351
# Poissons Ratio (z) = 0.27766 0.28169
#
# Static dielectric constant tensor:
#      x y z
#    x 2.071450 0.000000 -0.054670 
#    y 0.000000 2.071860 0.000000 
#    z -0.054670 0.000000 2.201250 
# 
# From -- ./inp_files/12004.got.cif
#   From: 2010.05.17/outbox.cif.g08.bks.cpg/sg5_7_cif.got.tgz:12004.got - 2010.06.03 18:56:24.
