data_PCOD9123007
_publ_section_title
;
Structure prediction by ZEFSAII (Michael W. Deem and Ramdas Pophale) SiO2 
 PCOD9123007
Probable space group: C 2
;
_chemical_formula_sum "Si O2"
_cell_formula_units_Z 24
_cell_length_a 15.799106
_cell_length_b 9.252290
_cell_length_c 17.973133
_cell_angle_alpha 90.000000
_cell_angle_beta 150.070269
_cell_angle_gamma 90.000000
_cell_volume 1310.846056
_symmetry_space_group_name_H-M "C 2"
_symmetry_group_IT_number 5
_symmetry_cell_setting 'monoclinic'
loop_
_space_group_symop_operation_xyz
x,y,z
-x,y,-z
1/2+x,1/2+y,z
1/2-x,1/2+y,-z
loop_
_atom_site_type_symbol
_atom_site_label
_atom_site_fract_x
_atom_site_fract_y
_atom_site_fract_z
Si Si1 0.501873 0.630790 0.825921
Si Si2 0.601261 0.066640 0.855393
Si Si3 0.995988 0.307370 0.673038
Si Si4 0.930780 0.397845 0.864165
Si Si5 0.328872 0.643622 0.322866
Si Si6 0.844040 0.818728 0.684298
O O1 0.458087 0.710025 0.715602
O O2 0.424093 0.733872 0.830137
O O3 0.427906 0.471610 0.763566
O O4 0.705087 0.618210 0.990954
O O5 0.477129 0.203918 0.751832
O O6 0.572336 0.954755 0.765445
O O7 0.544409 0.982218 0.888148
O O8 0.125560 0.215534 0.720884
O O9 0.824262 0.332439 0.494928
O O10 0.757244 0.487470 0.739104
O O11 0.000000 0.402110 0.000000
O O12 0.500000 0.634613 0.500000
O O13 0.209238 0.751226 0.277419
#
# Coordination Sequence:
#
# PCOD9123007 Si02
#       6
#     4   4   4   4   4   4
#     4  11  22  36  55  84 113 143 185 231 275 329
#     4  10  21  37  58  83 112 147 185 227 277 330
#     4  10  20  37  59  83 108 147 187 225 277 331
#     4  10  21  37  55  79 110 147 184 224 277 331
#     4   9  20  38  58  79 109 146 184 226 277 328
#     4  10  20  37  58  82 113 144 182 231 276 327
#
# _framework density 18.308786999999999
#
# number of rings (size 3 to 8) (size 9 to 14) (size 15 to 20)
#    0.000    2.000    0.000    4.000    0.000    4.000 
#    0.000    5.000    0.000    0.000    0.000    0.000 
#    0.000    0.000    0.000    0.000    0.000    0.000 
#
# Total GULP energy -66938.703464 kJ/mol
# GULP energy per Si atom -5578.225289 kJ/mol
# Density = 1.826711 g / cm^3
# Si number density = 18.308787 Si / 1000 Ang^3
#
#
#
# Elastic Constant Matrix: (Units=GPa)
#
#
# Indices 1 2 3 4 5 6 
#
# 1 63.8671 32.8095 28.5247 -0.0001 -1.2973 0.0000
# 2 32.8095 123.0401 29.8624 -0.0006 8.5628 -0.0002
# 3 28.5247 29.8624 49.9732 -0.0005 4.8961 -0.0002
# 4 -0.0001 -0.0006 -0.0005 25.2073 -0.0002 -0.3332
# 5 -1.2973 8.5628 4.8961 -0.0002 25.6374 -0.0001
# 6 0.0000 -0.0002 -0.0002 -0.3332 -0.0001 25.2602
#
#
#
# Elastic Compliance Matrix: (Units=1/GPa)
#
#
# Indices 1 2 3 4 5 6 
#
# 1 0.022603 -0.003628 -0.011174 0.000000 0.004489 0.000000
# 2 -0.003628 0.010204 -0.003745 0.000000 -0.002876 0.000000
# 3 -0.011174 -0.003745 0.029104 0.000000 -0.004873 0.000000
# 4 0.000000 0.000000 0.000000 0.039678 0.000000 0.000523
# 5 0.004489 -0.002876 -0.004873 0.000000 0.041124 0.000000
# 6 0.000000 0.000000 0.000000 0.000523 0.000000 0.039595
#
#
# Mechanical properties :
#
#
# Convention : Reuss Voigt Hill
#
# Bulk Modulus (GPa) = 40.29364 46.58595 43.43980
# Shear Modulus (GPa) = 21.96133 24.93322 23.44727
#
# Velocity S-wave (km/s) = 3.46713 3.69428 3.58251
# Velocity P-wave (km/s) = 6.17119 6.61036 6.39454
#
# Compressibility (1/GPa) = 0.02481781
#
# Stress axis : x y z
#
# Youngs Moduli (GPa) = 44.24237 98.00176 34.35956
#
# Poissons Ratio (x) = 0.35552 0.38392
# Poissons Ratio (y) = 0.16050 0.12868
# Poissons Ratio (z) = 0.49435 0.36702
#
# Static dielectric constant tensor:
#      x y z
#    x 1.636280 0.000000 0.020660 
#    y 0.000000 1.630660 0.000000 
#    z 0.020660 0.000000 1.622620 
# 
# From -- ./inp_files/22716.got.cif
#   From: 2010.05.17/outbox.cif.g08.bks.cpg/sg5_12_cif.got.tgz:22716.got - 2010.06.03 18:56:24.
