data_PCOD9123249
_publ_section_title
;
Structure prediction by ZEFSAII (Michael W. Deem and Ramdas Pophale) SiO2 
 PCOD9123249
Probable space group: C 2
;
_chemical_formula_sum "Si O2"
_cell_formula_units_Z 30
_cell_length_a 23.189126
_cell_length_b 7.317582
_cell_length_c 11.872542
_cell_angle_alpha 90.000000
_cell_angle_beta 42.418923
_cell_angle_gamma 90.000000
_cell_volume 1358.962329
_symmetry_space_group_name_H-M "C 2"
_symmetry_group_IT_number 5
_symmetry_cell_setting 'monoclinic'
loop_
_space_group_symop_operation_xyz
x,y,z
-x,y,-z
1/2+x,1/2+y,z
1/2-x,1/2+y,-z
loop_
_atom_site_type_symbol
_atom_site_label
_atom_site_fract_x
_atom_site_fract_y
_atom_site_fract_z
Si Si1 0.611430 0.606030 0.853973
Si Si2 0.934604 0.561869 0.499384
Si Si3 0.582927 0.504947 0.453036
Si Si4 0.750351 0.046229 0.170406
Si Si5 0.500000 0.925776 0.000000
Si Si6 0.061207 0.610601 0.131420
Si Si7 0.518297 0.499168 0.783465
Si Si8 0.248973 0.461326 0.920018
O O1 0.697089 0.542304 0.788940
O O2 0.582959 0.800725 0.842695
O O3 0.581891 0.466781 0.798283
O O4 0.552192 0.620725 0.052213
O O5 0.920287 0.782102 0.531676
O O6 0.843243 0.482293 0.657846
O O7 0.000000 0.505190 0.500000
O O8 0.985494 0.520096 0.313351
O O9 0.500000 0.558550 0.500000
O O10 0.568213 0.569288 0.602575
O O11 0.671366 0.550686 0.262451
O O12 0.756546 0.258218 0.122930
O O13 0.770933 0.950037 0.021411
O O14 0.457367 0.050070 0.967338
O O15 0.038069 0.824661 0.172024
O O16 0.156061 0.556043 0.035840
#
# Coordination Sequence:
#
# PCOD9123249 Si02
#       8
#     4   4   4   4   2   4   4   4
#     4  10  21  39  62  82 122 167 194 252 305 370
#     4   9  18  35  59  85 120 154 199 248 307 347
#     4   9  18  35  59  90 118 159 200 252 295 362
#     4  11  22  40  60  93 120 162 202 255 305 366
#     4  10  20  38  58  82 122 156 196 250 310 348
#     4  11  20  39  61  89 115 159 207 253 292 371
#     4   9  20  37  64  84 117 162 207 237 306 362
#     4  11  23  36  66  89 125 156 206 255 306 359
#
# _framework density 22.075668
#
# number of rings (size 3 to 8) (size 9 to 14) (size 15 to 20)
#    0.000    2.133    2.667    1.600    3.733    0.000 
#    2.400    2.667    2.933    0.000    0.000    0.000 
#    0.000    0.000    0.000    0.000    0.000    0.000 
#
# Total GULP energy -83522.283521 kJ/mol
# GULP energy per Si atom -5568.152235 kJ/mol
# Density = 2.202542 g / cm^3
# Si number density = 22.075668 Si / 1000 Ang^3
#
#
#
# Elastic Constant Matrix: (Units=GPa)
#
#
# Indices 1 2 3 4 5 6 
#
# 1 137.3862 5.7885 56.3785 0.0000 -18.0503 0.0000
# 2 5.7885 33.1894 14.0070 0.0000 -6.0543 0.0000
# 3 56.3785 14.0070 152.0335 0.0000 -10.0238 0.0000
# 4 0.0000 0.0000 0.0000 19.0412 0.0000 0.7441
# 5 -18.0503 -6.0543 -10.0238 0.0000 32.3356 0.0000
# 6 0.0000 0.0000 0.0000 0.7441 0.0000 25.3544
#
#
#
# Elastic Compliance Matrix: (Units=1/GPa)
#
#
# Indices 1 2 3 4 5 6 
#
# 1 0.009099 0.000506 -0.003144 0.000000 0.004200 0.000000
# 2 0.000506 0.032216 -0.002797 0.000000 0.005447 0.000000
# 3 -0.003144 -0.002797 0.008015 0.000000 0.000206 0.000000
# 4 0.000000 0.000000 0.000000 0.052578 0.000000 -0.001543
# 5 0.004200 0.005447 0.000206 0.000000 0.034354 0.000000
# 6 0.000000 0.000000 0.000000 -0.001543 0.000000 0.039486
#
#
# Mechanical properties :
#
#
# Convention : Reuss Voigt Hill
#
# Bulk Modulus (GPa) = 26.00069 52.77299 39.38684
# Shear Modulus (GPa) = 25.07057 31.77525 28.42291
#
# Velocity S-wave (km/s) = 3.37362 3.79803 3.59210
# Velocity P-wave (km/s) = 5.19410 6.57197 5.92323
#
# Compressibility (1/GPa) = 0.03846052
#
# Stress axis : x y z
#
# Youngs Moduli (GPa) = 109.89746 31.04070 124.77197
#
# Poissons Ratio (x) = -0.01571 0.39229
# Poissons Ratio (y) = -0.05560 0.34893
# Poissons Ratio (z) = 0.34552 0.08681
#
# Static dielectric constant tensor:
#      x y z
#    x 1.868990 0.000000 0.020840 
#    y 0.000000 1.942730 0.000000 
#    z 0.020840 0.000000 1.759200 
# 
# From -- ./inp_files/47309.got.cif
#   From: 2010.05.17/outbox.cif.g08.bks.cpg/sg5_24_cif.got.tgz:47309.got - 2010.06.03 18:56:24.
