data_PCOD9123258
_publ_section_title
;
Structure prediction by ZEFSAII (Michael W. Deem and Ramdas Pophale) SiO2 
 PCOD9123258
Probable space group: C 2
;
_chemical_formula_sum "Si O2"
_cell_formula_units_Z 22
_cell_length_a 24.508367
_cell_length_b 5.228901
_cell_length_c 7.246509
_cell_angle_alpha 90.000000
_cell_angle_beta 76.454008
_cell_angle_gamma 90.000000
_cell_volume 902.820274
_symmetry_space_group_name_H-M "C 2"
_symmetry_group_IT_number 5
_symmetry_cell_setting 'monoclinic'
loop_
_space_group_symop_operation_xyz
x,y,z
-x,y,-z
1/2+x,1/2+y,z
1/2-x,1/2+y,-z
loop_
_atom_site_type_symbol
_atom_site_label
_atom_site_fract_x
_atom_site_fract_y
_atom_site_fract_z
Si Si1 0.933477 0.574630 0.773555
Si Si2 0.389625 0.487771 0.099643
Si Si3 0.667826 0.678472 0.173152
Si Si4 0.874791 0.769760 0.509340
Si Si5 0.000000 0.332659 0.000000
Si Si6 0.223290 0.422588 0.434016
O O1 0.890351 0.341622 0.769443
O O2 0.931075 0.719944 0.581455
O O3 0.991619 0.491874 0.818692
O O4 0.906069 0.747072 0.957337
O O5 0.380462 0.416304 0.316098
O O6 0.335421 0.604445 0.038550
O O7 0.443941 0.668439 0.054449
O O8 0.661079 0.433106 0.312232
O O9 0.718464 0.838471 0.222098
O O10 0.840660 0.514834 0.480783
O O11 0.257607 0.673410 0.467979
#
# Coordination Sequence:
#
# PCOD9123258 Si02
#       6
#     4   4   4   4   2   4
#     4   9  20  38  59  87 129 170 213 275 327 381
#     4  10  21  40  65  92 130 174 224 268 327 393
#     4   9  20  39  65  89 128 170 208 275 333 378
#     4  10  21  40  68  94 127 177 217 270 335 390
#     4  10  20  38  58  88 136 176 220 274 322 384
#     4  11  21  39  71  96 134 176 220 271 333 396
#
# _framework density 24.368082000000001
#
# number of rings (size 3 to 8) (size 9 to 14) (size 15 to 20)
#    0.000    2.182    1.818    0.545    0.000    5.818 
#    0.000   21.818   16.000    0.000    0.000    0.000 
#    0.000    0.000    0.000    0.000    0.000    0.000 
#
# Total GULP energy -61369.901611 kJ/mol
# GULP energy per Si atom -5579.081965 kJ/mol
# Density = 2.431262 g / cm^3
# Si number density = 24.368082 Si / 1000 Ang^3
#
#
#
# Elastic Constant Matrix: (Units=GPa)
#
#
# Indices 1 2 3 4 5 6 
#
# 1 112.5785 51.3630 72.6664 0.0000 55.5611 0.0000
# 2 51.3630 108.5866 52.8388 0.0000 38.5056 0.0000
# 3 72.6664 52.8388 188.2808 0.0000 62.3518 0.0000
# 4 0.0000 0.0000 0.0000 39.2678 0.0000 28.4852
# 5 55.5611 38.5056 62.3518 0.0000 52.9589 0.0000
# 6 0.0000 0.0000 0.0000 28.4852 0.0000 25.0504
#
#
#
# Elastic Compliance Matrix: (Units=1/GPa)
#
#
# Indices 1 2 3 4 5 6 
#
# 1 0.019064 -0.002497 -0.001040 0.000000 -0.016960 0.000000
# 2 -0.002497 0.012812 -0.000679 0.000000 -0.005896 0.000000
# 3 -0.001040 -0.000679 0.008816 0.000000 -0.008794 0.000000
# 4 0.000000 0.000000 0.000000 0.145415 0.000000 -0.165354
# 5 -0.016960 -0.005896 -0.008794 0.000000 0.051316 0.000000
# 6 0.000000 0.000000 0.000000 -0.165354 0.000000 0.227946
#
#
# Mechanical properties :
#
#
# Convention : Reuss Voigt Hill
#
# Bulk Modulus (GPa) = 31.00034 84.79803 57.89918
# Shear Modulus (GPa) = 10.31876 38.96062 24.63969
#
# Velocity S-wave (km/s) = 2.06003 4.00289 3.18330
# Velocity P-wave (km/s) = 4.29041 7.49923 6.10926
#
# Compressibility (1/GPa) = 0.03225771
#
# Stress axis : x y z
#
# Youngs Moduli (GPa) = 52.45537 78.05474 113.43646
#
# Poissons Ratio (x) = 0.19491 0.11800
# Poissons Ratio (y) = 0.13098 0.07706
# Poissons Ratio (z) = 0.05457 0.05302
#
# Static dielectric constant tensor:
#      x y z
#    x 1.973090 0.000000 -0.016810 
#    y 0.000000 2.067990 0.000000 
#    z -0.016810 0.000000 1.986550 
# 
# From -- ./inp_files/11021.got.cif
#   From: 2010.05.17/outbox.cif.g08.bks.cpg/sg5_6_cif.got.tgz:11021.got - 2010.06.03 18:56:24.
