data_PCOD9123153
_publ_section_title
;
Structure prediction by ZEFSAII (Michael W. Deem and Ramdas Pophale) SiO2 
 PCOD9123153
Probable space group: C 2
;
_chemical_formula_sum "Si O2"
_cell_formula_units_Z 30
_cell_length_a 14.779739
_cell_length_b 12.544923
_cell_length_c 8.802512
_cell_angle_alpha 90.000000
_cell_angle_beta 112.740157
_cell_angle_gamma 90.000000
_cell_volume 1505.213984
_symmetry_space_group_name_H-M "C 2"
_symmetry_group_IT_number 5
_symmetry_cell_setting 'monoclinic'
loop_
_space_group_symop_operation_xyz
x,y,z
-x,y,-z
1/2+x,1/2+y,z
1/2-x,1/2+y,-z
loop_
_atom_site_type_symbol
_atom_site_label
_atom_site_fract_x
_atom_site_fract_y
_atom_site_fract_z
Si Si1 0.087305 0.666670 0.344114
Si Si2 0.172758 0.442991 0.431762
Si Si3 0.284661 0.859673 0.856593
Si Si4 0.701165 0.529081 0.012077
Si Si5 0.812442 0.854026 0.768485
Si Si6 0.630858 0.745393 0.832478
Si Si7 0.364118 0.170276 0.267670
Si Si8 0.000000 0.336337 0.500000
O O1 0.148548 0.559428 0.349546
O O2 0.117275 0.766180 0.259621
O O3 0.115592 0.682956 0.539902
O O4 0.969894 0.653055 0.260314
O O5 0.183678 0.365387 0.295880
O O6 0.266463 0.422796 0.599631
O O7 0.082313 0.411066 0.480347
O O8 0.196187 0.775112 0.819311
O O9 0.371278 0.822891 0.023874
O O10 0.245804 0.970508 0.895294
O O11 0.649651 0.439477 0.083204
O O12 0.790730 0.575440 0.172448
O O13 0.640653 0.628262 0.908667
O O14 0.726286 0.786547 0.798543
O O15 0.542812 0.763781 0.661045
#
# Coordination Sequence:
#
# PCOD9123153 Si02
#       8
#     4   4   4   4   4   4   4   2
#     4  11  21  36  65  98 122 162 214 265 299 377
#     4  11  21  36  64  95 128 161 212 259 320 375
#     4  10  21  38  62  87 126 167 203 256 329 376
#     4  10  20  41  62  89 126 176 201 261 326 380
#     4  10  20  37  63  94 129 165 209 260 325 383
#     4   9  21  39  62  87 128 165 211 263 320 381
#     4  10  21  38  63  92 125 160 216 260 307 371
#     4  10  22  40  62  94 128 164 218 274 310 376
#
# _framework density 19.930720000000001
#
# number of rings (size 3 to 8) (size 9 to 14) (size 15 to 20)
#    0.000    1.867    2.667    1.600    3.733    0.533 
#    0.000   11.333   14.667    0.000    0.000    0.000 
#    0.000    0.000    0.000    0.000    0.000    0.000 
#
# Total GULP energy -83671.817418 kJ/mol
# GULP energy per Si atom -5578.121161 kJ/mol
# Density = 1.988536 g / cm^3
# Si number density = 19.930720 Si / 1000 Ang^3
#
#
#
# Elastic Constant Matrix: (Units=GPa)
#
#
# Indices 1 2 3 4 5 6 
#
# 1 20.8007 12.4096 0.4410 0.0000 -4.5079 0.0000
# 2 12.4096 87.2123 2.0501 0.0000 2.4547 0.0000
# 3 0.4410 2.0501 70.5171 0.0000 2.5125 0.0000
# 4 0.0000 0.0000 0.0000 39.4747 0.0000 -13.7544
# 5 -4.5079 2.4547 2.5125 0.0000 28.0358 0.0000
# 6 0.0000 0.0000 0.0000 -13.7544 0.0000 19.7990
#
#
#
# Elastic Compliance Matrix: (Units=1/GPa)
#
#
# Indices 1 2 3 4 5 6 
#
# 1 0.054985 -0.008083 -0.000451 0.000000 0.009589 0.000000
# 2 -0.008083 0.012689 -0.000233 0.000000 -0.002390 0.000000
# 3 -0.000451 -0.000233 0.014238 0.000000 -0.001328 0.000000
# 4 0.000000 0.000000 0.000000 0.033423 0.000000 0.023219
# 5 0.009589 -0.002390 -0.001328 0.000000 0.037539 0.000000
# 6 0.000000 0.000000 0.000000 0.023219 0.000000 0.066638
#
#
# Mechanical properties :
#
#
# Convention : Reuss Voigt Hill
#
# Bulk Modulus (GPa) = 15.53316 23.14796 19.34056
# Shear Modulus (GPa) = 19.34194 28.37052 23.85623
#
# Velocity S-wave (km/s) = 3.11860 3.77697 3.46346
# Velocity P-wave (km/s) = 4.55829 5.53715 5.07139
#
# Compressibility (1/GPa) = 0.06437841
#
# Stress axis : x y z
#
# Youngs Moduli (GPa) = 18.18664 78.80713 70.23526
#
# Poissons Ratio (x) = 0.63702 0.03164
# Poissons Ratio (y) = 0.14701 0.01638
# Poissons Ratio (z) = 0.00819 0.01838
#
# Static dielectric constant tensor:
#      x y z
#    x 1.699200 0.000000 -0.000600 
#    y 0.000000 1.719800 0.000000 
#    z -0.000600 0.000000 1.709910 
# 
# From -- ./inp_files/23610.got.cif
#   From: 2010.05.17/outbox.cif.g08.bks.cpg/sg5_12_cif.got.tgz:23610.got - 2010.06.03 18:56:24.
