data_PCOD9123233
_publ_section_title
;
Structure prediction by ZEFSAII (Michael W. Deem and Ramdas Pophale) SiO2 
 PCOD9123233
Probable space group: C 2
;
_chemical_formula_sum "Si O2"
_cell_formula_units_Z 28
_cell_length_a 13.984540
_cell_length_b 11.763923
_cell_length_c 8.368943
_cell_angle_alpha 90.000000
_cell_angle_beta 60.935099
_cell_angle_gamma 90.000000
_cell_volume 1203.419863
_symmetry_space_group_name_H-M "C 2"
_symmetry_group_IT_number 5
_symmetry_cell_setting 'monoclinic'
loop_
_space_group_symop_operation_xyz
x,y,z
-x,y,-z
1/2+x,1/2+y,z
1/2-x,1/2+y,-z
loop_
_atom_site_type_symbol
_atom_site_label
_atom_site_fract_x
_atom_site_fract_y
_atom_site_fract_z
Si Si1 0.210523 0.085410 0.229045
Si Si2 0.883617 0.885141 0.508579
Si Si3 0.813333 0.242843 0.209894
Si Si4 0.911072 0.445537 0.940416
Si Si5 0.114326 0.025554 0.998490
Si Si6 0.433398 0.837892 0.415481
Si Si7 0.289155 0.336363 0.257257
O O1 0.251697 0.208233 0.249823
O O2 0.176420 0.005124 0.404124
O O3 0.310597 0.029408 0.047574
O O4 0.112589 0.071483 0.180195
O O5 0.804300 0.792583 0.654050
O O6 0.878556 0.854385 0.325042
O O7 0.000000 0.883533 0.500000
O O8 0.866064 0.321084 0.028375
O O9 0.811705 0.114504 0.158375
O O10 0.890113 0.264152 0.302103
O O11 0.980545 0.428996 0.723976
O O12 0.000000 0.480158 0.000000
O O13 0.166403 0.901393 0.933241
O O14 0.000000 0.029552 0.000000
O O15 0.500000 0.773844 0.500000
O O16 0.677335 0.888632 0.420375
#
# Coordination Sequence:
#
# PCOD9123233 Si02
#       7
#     4   4   4   4   4   4   4
#     4  11  26  44  73 103 145 192 240 294 360 436
#     4  10  23  49  74 101 146 185 233 302 372 415
#     4   9  22  41  68  97 135 183 238 288 346 437
#     4   9  19  43  67  94 133 185 231 288 359 427
#     4  12  26  45  71 101 146 192 241 288 360 434
#     4  10  20  37  69  98 135 174 236 297 351 411
#     4  11  27  43  69 113 142 180 252 296 350 436
#
# _framework density 23.267022999999998
#
# number of rings (size 3 to 8) (size 9 to 14) (size 15 to 20)
#    0.000    1.714    0.000    3.857   12.000    1.143 
#    2.571    0.714    0.000    0.000    0.000    0.000 
#    0.000    0.000    0.000    0.000    0.000    0.000 
#
# Total GULP energy -78251.817633 kJ/mol
# GULP energy per Si atom -5589.415545 kJ/mol
# Density = 2.321407 g / cm^3
# Si number density = 23.267023 Si / 1000 Ang^3
#
#
#
# Elastic Constant Matrix: (Units=GPa)
#
#
# Indices 1 2 3 4 5 6 
#
# 1 138.9136 48.5783 35.8113 0.0000 19.8412 0.0000
# 2 48.5783 114.7167 37.6317 0.0000 7.9544 0.0000
# 3 35.8113 37.6317 71.7822 0.0000 3.4041 0.0000
# 4 0.0000 0.0000 0.0000 26.4433 0.0000 4.8840
# 5 19.8412 7.9544 3.4041 0.0000 38.1514 0.0000
# 6 0.0000 0.0000 0.0000 4.8840 0.0000 12.6373
#
#
#
# Elastic Compliance Matrix: (Units=1/GPa)
#
#
# Indices 1 2 3 4 5 6 
#
# 1 0.009550 -0.002729 -0.003139 0.000000 -0.004118 0.000000
# 2 -0.002729 0.011420 -0.004599 0.000000 -0.000551 0.000000
# 3 -0.003139 -0.004599 0.017861 0.000000 0.000997 0.000000
# 4 0.000000 0.000000 0.000000 0.040724 0.000000 -0.015739
# 5 -0.004118 -0.000551 0.000997 0.000000 0.028379 0.000000
# 6 0.000000 0.000000 0.000000 -0.015739 0.000000 0.085213
#
#
# Mechanical properties :
#
#
# Convention : Reuss Voigt Hill
#
# Bulk Modulus (GPa) = 55.87496 63.27282 59.57389
# Shear Modulus (GPa) = 22.72256 29.00580 25.86418
#
# Velocity S-wave (km/s) = 3.12845 3.53462 3.33772
# Velocity P-wave (km/s) = 6.09232 6.62656 6.36505
#
# Compressibility (1/GPa) = 0.01789710
#
# Stress axis : x y z
#
# Youngs Moduli (GPa) = 104.70823 87.56772 55.98921
#
# Poissons Ratio (x) = 0.23898 0.17572
# Poissons Ratio (y) = 0.28576 0.25750
# Poissons Ratio (z) = 0.32863 0.40273
#
# Static dielectric constant tensor:
#      x y z
#    x 1.930100 0.000000 0.027780 
#    y 0.000000 1.837150 0.000000 
#    z 0.027780 0.000000 1.936990 
# 
# From -- ./inp_files/20315.got.cif
#   From: 2010.05.17/outbox.cif.g08.bks.cpg/sg5_11_cif.got.tgz:20315.got - 2010.06.03 18:56:24.
