data_PCOD9123276
_publ_section_title
;
Structure prediction by ZEFSAII (Michael W. Deem and Ramdas Pophale) SiO2 
 PCOD9123276
Probable space group: C 2
;
_chemical_formula_sum "Si O2"
_cell_formula_units_Z 24
_cell_length_a 26.499900
_cell_length_b 4.959663
_cell_length_c 15.512229
_cell_angle_alpha 90.000000
_cell_angle_beta 153.446287
_cell_angle_gamma 90.000000
_cell_volume 911.409775
_symmetry_space_group_name_H-M "C 2"
_symmetry_group_IT_number 5
_symmetry_cell_setting 'monoclinic'
loop_
_space_group_symop_operation_xyz
x,y,z
-x,y,-z
1/2+x,1/2+y,z
1/2-x,1/2+y,-z
loop_
_atom_site_type_symbol
_atom_site_label
_atom_site_fract_x
_atom_site_fract_y
_atom_site_fract_z
Si Si1 0.891316 0.330450 0.519764
Si Si2 0.202748 0.619817 0.970751
Si Si3 0.797253 0.061563 0.529252
Si Si4 0.967415 0.858827 0.047936
Si Si5 0.391313 0.850945 0.019755
Si Si6 0.032583 0.822565 0.452060
O O1 0.794363 0.204258 0.431757
O O2 0.879660 0.619839 0.458789
O O3 0.000001 0.340701 0.750004
O O4 0.926205 0.122862 0.499401
O O5 0.205640 0.477135 0.068250
O O6 0.084043 0.771418 0.777489
O O7 0.212046 0.363494 0.920192
O O8 0.787951 0.317879 0.579805
O O9 0.915960 0.909968 0.722515
O O10 0.879657 0.061551 0.958784
O O11 0.926201 0.558529 0.999389
O O12 0.000000 0.917050 0.000000
O O13 0.000000 0.764351 0.500000
#
# Coordination Sequence:
#
# PCOD9123276 Si02
#       6
#     4   4   4   4   4   4
#     4  10  20  38  60  82 112 156 191 220 277 354
#     4  11  21  37  59  85 112 148 192 235 277 333
#     4  11  21  37  59  85 112 148 192 235 277 333
#     4  11  22  39  60  85 114 150 190 233 280 335
#     4  10  20  38  60  82 112 156 191 220 277 354
#     4  11  22  39  60  85 114 150 190 233 280 335
#
# _framework density 26.332833000000001
#
# number of rings (size 3 to 8) (size 9 to 14) (size 15 to 20)
#    0.000    1.333    0.000   11.000    0.000    0.000 
#    0.000   10.000    0.000    0.000    0.000    0.000 
#    0.000    0.000    0.000    0.000    0.000    0.000 
#
# Total GULP energy -67220.904798 kJ/mol
# GULP energy per Si atom -5601.742066 kJ/mol
# Density = 2.627290 g / cm^3
# Si number density = 26.332833 Si / 1000 Ang^3
#
#
#
# Elastic Constant Matrix: (Units=GPa)
#
#
# Indices 1 2 3 4 5 6 
#
# 1 90.3797 4.3765 2.6049 0.0002 0.8763 0.0000
# 2 4.3765 110.0119 -7.3216 0.0012 5.6108 0.0001
# 3 2.6049 -7.3216 67.5492 0.0005 -0.4597 0.0001
# 4 0.0002 0.0012 0.0005 -111.8835 0.0001 -44.8543
# 5 0.8763 5.6108 -0.4597 0.0001 29.4449 0.0000
# 6 0.0000 0.0001 0.0001 -44.8543 0.0000 44.1338
#
#
#
# Elastic Compliance Matrix: (Units=1/GPa)
#
#
# Indices 1 2 3 4 5 6 
#
# 1 0.011103 -0.000461 -0.000480 0.000000 -0.000250 0.000000
# 2 -0.000461 0.009264 0.001010 0.000000 -0.001736 0.000000
# 3 -0.000480 0.001010 0.014932 0.000000 0.000055 0.000000
# 4 0.000000 0.000000 0.000000 -0.006350 0.000000 -0.006454
# 5 -0.000250 -0.001736 0.000055 0.000000 0.034301 0.000000
# 6 0.000000 0.000000 0.000000 -0.006454 0.000000 0.016099
#
#
# Mechanical properties :
#
#
# Convention : Reuss Voigt Hill
#
# Bulk Modulus (GPa) = 28.21819 29.69562 28.95690
# Shear Modulus (GPa) = 54.93137 10.22444 32.57791
#
# Velocity S-wave (km/s) = 4.57227 1.97261 3.52114
# Velocity P-wave (km/s) = 6.21398 4.06076 5.24897
#
# Compressibility (1/GPa) = 0.03543813
#
# Stress axis : x y z
#
# Youngs Moduli (GPa) = 90.06569 107.94461 66.96852
#
# Poissons Ratio (x) = 0.04975 0.03213
# Poissons Ratio (y) = 0.04151 -0.06764
# Poissons Ratio (z) = 0.04322 -0.10903
#
# Static dielectric constant tensor:
#      x y z
#    x 2.087730 0.000000 0.037370 
#    y 0.000000 1.977030 0.000000 
#    z 0.037370 0.000000 2.141780 
# 
# From -- ./inp_files/56599.got.cif
#   From: 2010.05.17/outbox.cif.g08.bks.cpg/sg5_29_cif.got.tgz:56599.got - 2010.06.03 18:56:24.
