data_PCOD9123252
_publ_section_title
;
Structure prediction by ZEFSAII (Michael W. Deem and Ramdas Pophale) SiO2 
 PCOD9123252
Probable space group: C 2
;
_chemical_formula_sum "Si O2"
_cell_formula_units_Z 28
_cell_length_a 7.492861
_cell_length_b 12.659767
_cell_length_c 14.360389
_cell_angle_alpha 90.000000
_cell_angle_beta 82.709697
_cell_angle_gamma 90.000000
_cell_volume 1351.183893
_symmetry_space_group_name_H-M "C 2"
_symmetry_group_IT_number 5
_symmetry_cell_setting 'monoclinic'
loop_
_space_group_symop_operation_xyz
x,y,z
-x,y,-z
1/2+x,1/2+y,z
1/2-x,1/2+y,-z
loop_
_atom_site_type_symbol
_atom_site_label
_atom_site_fract_x
_atom_site_fract_y
_atom_site_fract_z
Si Si1 0.029394 0.676160 0.607572
Si Si2 0.155730 0.973339 0.116670
Si Si3 0.077834 0.438123 0.598787
Si Si4 0.835196 0.216180 0.889317
Si Si5 0.500000 0.305438 0.000000
Si Si6 0.597995 0.382969 0.316210
Si Si7 0.222824 0.306483 0.307121
Si Si8 0.000000 0.386072 0.000000
O O1 0.018549 0.554761 0.633006
O O2 0.227572 0.718930 0.619501
O O3 0.000000 0.689136 0.500000
O O4 0.899681 0.755006 0.673594
O O5 0.099087 0.095617 0.115247
O O6 0.018658 0.886637 0.084679
O O7 0.185872 0.937796 0.221005
O O8 0.330257 0.956198 0.039999
O O9 0.291123 0.424691 0.601976
O O10 0.000000 0.423614 0.500000
O O11 0.972304 0.354318 0.667969
O O12 0.764062 0.249288 0.792655
O O13 0.671590 0.232707 0.972531
O O14 0.970763 0.306088 0.915596
O O15 0.380611 0.393881 0.317017
#
# Coordination Sequence:
#
# PCOD9123252 Si02
#       8
#     4   4   4   4   2   4   4   2
#     4   9  20  40  60  88 121 155 202 245 290 359
#     4  11  21  39  60  83 119 156 191 245 298 342
#     4  11  22  40  64  86 121 161 195 247 303 347
#     4  11  21  39  59  85 119 152 195 245 292 352
#     4  10  20  38  58  86 112 156 196 236 298 346
#     4  10  22  40  61  90 121 155 199 248 292 357
#     4  10  22  40  61  90 121 154 198 249 293 356
#     4  10  24  38  60  90 112 154 204 238 288 362
#
# _framework density 20.722567000000002
#
# number of rings (size 3 to 8) (size 9 to 14) (size 15 to 20)
#    0.857    0.857    1.429    3.429    0.000    0.000 
#    7.714    1.429    0.000    0.000    0.000    0.000 
#    0.000    0.000    0.000    0.000    0.000    0.000 
#
# Total GULP energy -77935.329306 kJ/mol
# GULP energy per Si atom -5566.809236 kJ/mol
# Density = 2.067540 g / cm^3
# Si number density = 20.722567 Si / 1000 Ang^3
#
#
#
# Elastic Constant Matrix: (Units=GPa)
#
#
# Indices 1 2 3 4 5 6 
#
# 1 37.3614 -4.6110 0.8631 0.0000 12.2081 0.0000
# 2 -4.6110 76.7559 13.8968 0.0000 -1.2185 0.0000
# 3 0.8631 13.8968 27.3618 0.0000 18.3130 0.0000
# 4 0.0000 0.0000 0.0000 18.5428 0.0000 -0.6491
# 5 12.2081 -1.2185 18.3130 0.0000 35.7943 0.0000
# 6 0.0000 0.0000 0.0000 -0.6491 0.0000 1.8172
#
#
#
# Elastic Compliance Matrix: (Units=1/GPa)
#
#
# Indices 1 2 3 4 5 6 
#
# 1 0.031659 -0.000072 0.009530 0.000000 -0.015675 0.000000
# 2 -0.000072 0.015386 -0.012438 0.000000 0.006912 0.000000
# 3 0.009530 -0.012438 0.068467 0.000000 -0.038702 0.000000
# 4 0.000000 0.000000 0.000000 0.054612 0.000000 0.019506
# 5 -0.015675 0.006912 -0.038702 0.000000 0.053320 0.000000
# 6 0.000000 0.000000 0.000000 0.019506 0.000000 0.557270
#
#
# Mechanical properties :
#
#
# Convention : Reuss Voigt Hill
#
# Bulk Modulus (GPa) = 9.12829 17.97522 13.55175
# Shear Modulus (GPa) = 6.07392 19.98620 13.03006
#
# Velocity S-wave (km/s) = 1.71389 3.10895 2.51028
# Velocity P-wave (km/s) = 2.88637 4.64548 3.86728
#
# Compressibility (1/GPa) = 0.10954958
#
# Stress axis : x y z
#
# Youngs Moduli (GPa) = 31.58704 64.99582 14.60558
#
# Poissons Ratio (x) = 0.00470 -0.13918
# Poissons Ratio (y) = 0.00229 0.18166
# Poissons Ratio (z) = -0.30101 0.80842
#
# Static dielectric constant tensor:
#      x y z
#    x 1.785110 0.000000 0.039520 
#    y 0.000000 1.708680 0.000000 
#    z 0.039520 0.000000 1.783310 
# 
# From -- ./inp_files/50118.got.cif
#   From: 2010.05.17/outbox.cif.g08.bks.cpg/sg5_26_cif.got.tgz:50118.got - 2010.06.03 18:56:24.
