data_PCOD9123660
_publ_section_title
;
Structure prediction by ZEFSAII (Michael W. Deem and Ramdas Pophale) SiO2 
 PCOD9123660
Probable space group: C 2
;
_chemical_formula_sum "Si O2"
_cell_formula_units_Z 26
_cell_length_a 18.413773
_cell_length_b 9.835475
_cell_length_c 8.437050
_cell_angle_alpha 90.000000
_cell_angle_beta 135.824177
_cell_angle_gamma 90.000000
_cell_volume 1064.819163
_symmetry_space_group_name_H-M "C 2"
_symmetry_group_IT_number 5
_symmetry_cell_setting 'monoclinic'
loop_
_space_group_symop_operation_xyz
x,y,z
-x,y,-z
1/2+x,1/2+y,z
1/2-x,1/2+y,-z
loop_
_atom_site_type_symbol
_atom_site_label
_atom_site_fract_x
_atom_site_fract_y
_atom_site_fract_z
Si Si1 0.107077 0.295870 0.721740
Si Si2 0.650089 0.988099 0.484720
Si Si3 0.668402 0.206008 0.993233
Si Si4 0.611375 0.446337 0.127092
Si Si5 0.500000 0.275693 0.500000
Si Si6 0.639627 0.923309 0.113398
Si Si7 0.860066 0.792876 0.519428
O O1 0.128587 0.400193 0.607933
O O2 0.213593 0.210152 0.886050
O O3 0.000000 0.225483 0.500000
O O4 0.092706 0.361356 0.875176
O O5 0.776268 0.017141 0.668428
O O6 0.606399 0.926607 0.249298
O O7 0.607113 0.137393 0.438652
O O8 0.632811 0.354103 0.005657
O O9 0.658914 0.081694 0.100272
O O10 0.588196 0.188761 0.725816
O O11 0.613498 0.332384 0.263961
O O12 0.500000 0.518380 0.000000
O O13 0.435681 0.369314 0.518522
O O14 0.745191 0.835835 0.295243
#
# Coordination Sequence:
#
# PCOD9123660 Si02
#       7
#     4   4   4   4   2   4   4
#     4  11  26  45  66  98 136 180 224 274 338 403
#     4  10  24  42  69  97 134 174 227 275 333 401
#     4  11  23  43  65 100 131 172 227 275 332 400
#     4  10  20  39  66  92 129 169 219 275 325 392
#     4  12  22  38  70  96 130 168 230 280 326 394
#     4  11  24  44  69  95 139 172 219 286 332 389
#     4  11  22  41  64  96 130 176 220 273 336 392
#
# _framework density 24.417292
#
# number of rings (size 3 to 8) (size 9 to 14) (size 15 to 20)
#    0.000    1.231    4.615    0.923    4.308    0.615 
#    1.385    3.077    0.000    0.000    0.000    0.000 
#    0.000    0.000    0.000    0.000    0.000    0.000 
#
# Total GULP energy -72401.741563 kJ/mol
# GULP energy per Si atom -5569.364736 kJ/mol
# Density = 2.436172 g / cm^3
# Si number density = 24.417292 Si / 1000 Ang^3
#
#
#
# Elastic Constant Matrix: (Units=GPa)
#
#
# Indices 1 2 3 4 5 6 
#
# 1 122.7831 0.1878 58.5630 0.0000 -8.0996 0.0000
# 2 0.1878 16.8701 16.2297 0.0000 -3.8275 0.0000
# 3 58.5630 16.2297 153.6378 0.0000 -8.1307 0.0000
# 4 0.0000 0.0000 0.0000 -7.4425 0.0000 0.6274
# 5 -8.0996 -3.8275 -8.1307 0.0000 52.6211 0.0000
# 6 0.0000 0.0000 0.0000 0.6274 0.0000 6.0080
#
#
#
# Elastic Compliance Matrix: (Units=1/GPa)
#
#
# Indices 1 2 3 4 5 6 
#
# 1 0.010273 0.004307 -0.004306 0.000000 0.001229 0.000000
# 2 0.004307 0.068531 -0.008653 0.000000 0.004311 0.000000
# 3 -0.004306 -0.008653 0.009070 0.000000 0.000109 0.000000
# 4 0.000000 0.000000 0.000000 -0.133191 0.000000 0.013910
# 5 0.001229 0.004311 0.000109 0.000000 0.019523 0.000000
# 6 0.000000 0.000000 0.000000 0.013910 0.000000 0.164991
#
#
# Mechanical properties :
#
#
# Convention : Reuss Voigt Hill
#
# Bulk Modulus (GPa) = 14.17037 49.25021 31.71029
# Shear Modulus (GPa) = 27.77412 24.79136 26.28274
#
# Velocity S-wave (km/s) = 3.37631 3.18987 3.28441
# Velocity P-wave (km/s) = 4.58425 5.81214 5.23432
#
# Compressibility (1/GPa) = 0.07056977
#
# Stress axis : x y z
#
# Youngs Moduli (GPa) = 97.34716 14.59198 110.25600
#
# Poissons Ratio (x) = -0.06284 0.47471
# Poissons Ratio (y) = -0.41924 0.95402
# Poissons Ratio (z) = 0.41913 0.12626
#
# Static dielectric constant tensor:
#      x y z
#    x 2.086640 0.000000 -0.001020 
#    y 0.000000 1.876570 0.000000 
#    z -0.001020 0.000000 2.007580 
# 
# From -- ./inp_files/29555.got.cif
#   From: 2010.05.17/outbox.cif.g08.bks.cpg/sg5_15_cif.got.tgz:29555.got - 2010.06.03 18:56:24.
