data_PCOD9123864
_publ_section_title
;
Structure prediction by ZEFSAII (Michael W. Deem and Ramdas Pophale) SiO2 
 PCOD9123864
Probable space group: C 2
;
_chemical_formula_sum "Si O2"
_cell_formula_units_Z 30
_cell_length_a 7.777747
_cell_length_b 12.146660
_cell_length_c 14.301871
_cell_angle_alpha 90.000000
_cell_angle_beta 92.981906
_cell_angle_gamma 90.000000
_cell_volume 1349.320492
_symmetry_space_group_name_H-M "C 2"
_symmetry_group_IT_number 5
_symmetry_cell_setting 'monoclinic'
loop_
_space_group_symop_operation_xyz
x,y,z
-x,y,-z
1/2+x,1/2+y,z
1/2-x,1/2+y,-z
loop_
_atom_site_type_symbol
_atom_site_label
_atom_site_fract_x
_atom_site_fract_y
_atom_site_fract_z
Si Si1 0.550429 0.655970 0.900612
Si Si2 0.693510 0.848599 0.148436
Si Si3 0.498615 0.363898 0.609613
Si Si4 0.806191 0.850312 0.955009
Si Si5 0.000000 0.250733 0.500000
Si Si6 0.882769 0.403605 0.657155
Si Si7 0.844982 0.641033 0.568580
Si Si8 0.531937 0.452515 0.207188
O O1 0.386686 0.728606 0.865722
O O2 0.708405 0.739427 0.919972
O O3 0.570264 0.561642 0.825416
O O4 0.500000 0.605648 0.000000
O O5 0.584888 0.899796 0.230878
O O6 0.891461 0.856275 0.186185
O O7 0.699820 0.894965 0.042274
O O8 0.500000 0.394142 0.500000
O O9 0.699003 0.345597 0.634990
O O10 0.395372 0.251995 0.624461
O O11 0.425864 0.451026 0.682433
O O12 0.822546 0.929044 0.865387
O O13 0.000000 0.830732 0.000000
O O14 0.001152 0.333603 0.589929
O O15 0.834387 0.172019 0.485814
O O16 0.848863 0.528851 0.626004
O O17 0.000000 0.628888 0.500000
#
# Coordination Sequence:
#
# PCOD9123864 Si02
#       8
#     4   4   4   4   2   4   4   4
#     4  10  20  40  66  94 130 167 216 272 330 401
#     4   9  21  39  61  96 134 162 214 278 321 393
#     4  10  22  44  62  93 139 175 229 286 325 398
#     4   9  19  40  66  96 131 170 215 275 332 400
#     4  12  24  40  70  98 128 184 234 276 344 400
#     4  11  23  42  66  95 136 180 228 282 342 406
#     4  11  24  44  69  97 134 180 232 283 335 402
#     4  10  21  39  66  92 132 176 218 270 337 394
#
# _framework density 22.233414
#
# number of rings (size 3 to 8) (size 9 to 14) (size 15 to 20)
#    0.000    1.867    3.333    1.200    0.933    5.333 
#    0.000   12.667    0.000    0.000    0.000    0.000 
#    0.000    0.000    0.000    0.000    0.000    0.000 
#
# Total GULP energy -83580.991884 kJ/mol
# GULP energy per Si atom -5572.066126 kJ/mol
# Density = 2.218281 g / cm^3
# Si number density = 22.233414 Si / 1000 Ang^3
#
#
#
# Elastic Constant Matrix: (Units=GPa)
#
#
# Indices 1 2 3 4 5 6 
#
# 1 75.8340 30.0440 20.1823 0.0000 3.7246 0.0000
# 2 30.0440 88.7049 66.9459 0.0000 1.1999 0.0000
# 3 20.1823 66.9459 162.1029 0.0000 -30.9714 0.0000
# 4 0.0000 0.0000 0.0000 24.6131 0.0000 15.9289
# 5 3.7246 1.1999 -30.9714 0.0000 28.9268 0.0000
# 6 0.0000 0.0000 0.0000 15.9289 0.0000 9.7958
#
#
#
# Elastic Compliance Matrix: (Units=1/GPa)
#
#
# Indices 1 2 3 4 5 6 
#
# 1 0.015323 -0.004986 -0.000234 0.000000 -0.002017 0.000000
# 2 -0.004986 0.020652 -0.009993 0.000000 -0.010914 0.000000
# 3 -0.000234 -0.009993 0.013087 0.000000 0.014457 0.000000
# 4 0.000000 0.000000 0.000000 -0.775848 0.000000 1.261604
# 5 -0.002017 -0.010914 0.014457 0.000000 0.050761 0.000000
# 6 0.000000 0.000000 0.000000 1.261604 0.000000 -1.949407
#
#
# Mechanical properties :
#
#
# Convention : Reuss Voigt Hill
#
# Bulk Modulus (GPa) = 53.66064 62.33180 57.99622
# Shear Modulus (GPa) = -1.93140 26.63178 12.35019
#
# Velocity S-wave (km/s) = -0.93305 3.46472 2.35942
# Velocity P-wave (km/s) = 4.79862 6.64091 5.79347
#
# Compressibility (1/GPa) = 0.01863563
#
# Stress axis : x y z
#
# Youngs Moduli (GPa) = 65.25950 48.42187 76.40997
#
# Poissons Ratio (x) = 0.24144 0.01787
# Poissons Ratio (y) = 0.32540 0.76359
# Poissons Ratio (z) = 0.01526 0.48390
#
# Static dielectric constant tensor:
#      x y z
#    x 1.959660 0.000000 -0.033890 
#    y 0.000000 1.816980 0.000000 
#    z -0.033890 0.000000 1.949860 
# 
# From -- ./inp_files/50319.got.cif
#   From: 2010.05.17/outbox.cif.g08.bks.cpg/sg5_26_cif.got.tgz:50319.got - 2010.06.03 18:56:24.
