data_PCOD9123335
_publ_section_title
;
Structure prediction by ZEFSAII (Michael W. Deem and Ramdas Pophale) SiO2 
 PCOD9123335
Probable space group: C 2
;
_chemical_formula_sum "Si O2"
_cell_formula_units_Z 28
_cell_length_a 5.078060
_cell_length_b 33.438491
_cell_length_c 9.349599
_cell_angle_alpha 90.000000
_cell_angle_beta 119.546035
_cell_angle_gamma 90.000000
_cell_volume 1381.136661
_symmetry_space_group_name_H-M "C 2"
_symmetry_group_IT_number 5
_symmetry_cell_setting 'monoclinic'
loop_
_space_group_symop_operation_xyz
x,y,z
-x,y,-z
1/2+x,1/2+y,z
1/2-x,1/2+y,-z
loop_
_atom_site_type_symbol
_atom_site_label
_atom_site_fract_x
_atom_site_fract_y
_atom_site_fract_z
Si Si1 0.705324 0.115530 0.697879
Si Si2 0.839236 0.244759 0.107754
Si Si3 0.140255 0.309175 0.384369
Si Si4 0.104788 0.477417 0.189533
Si Si5 0.300159 0.667927 0.300927
Si Si6 0.644391 0.899179 0.386125
Si Si7 0.271476 0.523524 0.689778
O O1 0.500000 0.113950 0.500000
O O2 0.514529 0.145719 0.746687
O O3 0.780505 0.069352 0.747162
O O4 0.015809 0.136238 0.742173
O O5 0.791801 0.207668 0.204005
O O6 0.043041 0.277876 0.239153
O O7 0.500000 0.261475 0.000000
O O8 0.000000 0.233755 0.000000
O O9 0.500000 0.308545 0.500000
O O10 0.028761 0.354467 0.320377
O O11 0.000000 0.297838 0.500000
O O12 0.119903 0.433437 0.262051
O O13 0.416236 0.503729 0.283892
O O14 0.842707 0.498491 0.208008
O O15 0.000000 0.475161 0.000000
O O16 0.500000 0.674961 0.500000
O O17 0.500000 0.911739 0.500000
O O18 0.000000 0.894243 0.500000
O O19 0.000000 0.521087 0.500000
#
# Coordination Sequence:
#
# PCOD9123335 Si02
#       7
#     4   4   4   4   4   4   4
#     4   9  19  36  61  88 110 148 207 258 295 344
#     4  12  25  40  60  93 130 161 199 248 311 370
#     4  10  22  42  67  91 118 160 211 254 298 359
#     4  12  24  38  58  90 127 159 195 245 308 365
#     4  10  20  38  62  85 115 156 204 251 296 355
#     4  10  21  40  65  90 117 158 210 254 297 357
#     4  11  22  40  64  87 116 158 207 252 298 358
#
# _framework density 20.273156
#
# number of rings (size 3 to 8) (size 9 to 14) (size 15 to 20)
#    0.000    1.429    0.000    6.000    0.000    4.571 
#    0.000    8.571    0.000    0.000    0.000    0.000 
#    0.000    0.000    0.000    0.000    0.000    0.000 
#
# Total GULP energy -78153.160181 kJ/mol
# GULP energy per Si atom -5582.368584 kJ/mol
# Density = 2.022701 g / cm^3
# Si number density = 20.273156 Si / 1000 Ang^3
#
#
#
# Elastic Constant Matrix: (Units=GPa)
#
#
# Indices 1 2 3 4 5 6 
#
# 1 96.2144 -0.8257 20.4577 0.0000 -18.2730 0.0000
# 2 -0.8257 114.1486 50.4409 0.0000 -11.7352 0.0000
# 3 20.4577 50.4409 64.6447 0.0000 -7.3727 0.0000
# 4 0.0000 0.0000 0.0000 -207.8026 0.0000 -6.6037
# 5 -18.2730 -11.7352 -7.3727 0.0000 27.9916 0.0000
# 6 0.0000 0.0000 0.0000 -6.6037 0.0000 37.9678
#
#
#
# Elastic Compliance Matrix: (Units=1/GPa)
#
#
# Indices 1 2 3 4 5 6 
#
# 1 0.013374 0.003695 -0.006127 0.000000 0.008666 0.000000
# 2 0.003695 0.014632 -0.011971 0.000000 0.005393 0.000000
# 3 -0.006127 -0.011971 0.026517 0.000000 -0.002034 0.000000
# 4 0.000000 0.000000 0.000000 -0.004786 0.000000 -0.000832
# 5 0.008666 0.005393 -0.002034 0.000000 0.043107 0.000000
# 6 0.000000 0.000000 0.000000 -0.000832 0.000000 0.026193
#
#
# Mechanical properties :
#
#
# Convention : Reuss Voigt Hill
#
# Bulk Modulus (GPa) = 38.88604 46.12814 42.50709
# Shear Modulus (GPa) = 31.96617 -14.70633 8.62992
#
# Velocity S-wave (km/s) = 3.97517 -2.69626 2.06544
# Velocity P-wave (km/s) = 6.34760 3.62072 5.16728
#
# Compressibility (1/GPa) = 0.02571617
#
# Stress axis : x y z
#
# Youngs Moduli (GPa) = 74.77307 68.34547 37.71175
#
# Poissons Ratio (x) = -0.25255 0.23107
# Poissons Ratio (y) = -0.27630 0.45145
# Poissons Ratio (z) = 0.45816 0.81816
#
# Static dielectric constant tensor:
#      x y z
#    x 1.710180 0.000000 -0.048790 
#    y 0.000000 1.787460 0.000000 
#    z -0.048790 0.000000 1.915540 
# 
# From -- ./inp_files/13379.got.cif
#   From: 2010.05.17/outbox.cif.g08.bks.cpg/sg5_7_cif.got.tgz:13379.got - 2010.06.03 18:56:24.
