data_PCOD9123521
_publ_section_title
;
Structure prediction by ZEFSAII (Michael W. Deem and Ramdas Pophale) SiO2 
 PCOD9123521
Probable space group: C 2
;
_chemical_formula_sum "Si O2"
_cell_formula_units_Z 18
_cell_length_a 21.940825
_cell_length_b 6.360498
_cell_length_c 7.954185
_cell_angle_alpha 90.000000
_cell_angle_beta 143.729581
_cell_angle_gamma 90.000000
_cell_volume 656.698059
_symmetry_space_group_name_H-M "C 2"
_symmetry_group_IT_number 5
_symmetry_cell_setting 'monoclinic'
loop_
_space_group_symop_operation_xyz
x,y,z
-x,y,-z
1/2+x,1/2+y,z
1/2-x,1/2+y,-z
loop_
_atom_site_type_symbol
_atom_site_label
_atom_site_fract_x
_atom_site_fract_y
_atom_site_fract_z
Si Si1 0.500000 0.826140 0.000000
Si Si2 0.598630 0.095090 0.646826
Si Si3 0.701206 0.813314 0.288747
Si Si4 0.072365 0.918069 0.314027
Si Si5 0.725520 0.378456 0.183090
O O1 0.594900 0.926625 0.109155
O O2 0.451369 0.663832 0.755614
O O3 0.500000 0.972905 0.500000
O O4 0.828308 0.097539 0.874588
O O5 0.549014 0.280846 0.423781
O O6 0.677144 0.959433 0.709804
O O7 0.748640 0.776800 0.579796
O O8 0.804258 0.887558 0.424514
O O9 0.835565 0.713605 0.064939
O O10 0.000000 0.835086 0.000000
#
# Coordination Sequence:
#
# PCOD9123521 Si02
#       5
#     2   4   4   4   4
#     4  10  20  38  68  94 130 182 220 282 330 410
#     4  11  24  46  67 105 141 182 224 292 349 407
#     4  11  21  45  66 103 129 187 232 277 339 414
#     4   9  20  41  68  95 135 185 220 278 346 410
#     4  11  26  44  74  98 144 179 234 286 343 413
#
# _framework density 27.409856000000001
#
# number of rings (size 3 to 8) (size 9 to 14) (size 15 to 20)
#    0.667    0.889    2.222    2.667    3.111    0.000 
#   20.000    0.000    0.000    0.000    0.000    0.000 
#    0.000    0.000    0.000    0.000    0.000    0.000 
#
# Total GULP energy -50257.115176 kJ/mol
# GULP energy per Si atom -5584.123908 kJ/mol
# Density = 2.734747 g / cm^3
# Si number density = 27.409856 Si / 1000 Ang^3
#
#
#
# Elastic Constant Matrix: (Units=GPa)
#
#
# Indices 1 2 3 4 5 6 
#
# 1 152.5873 30.4872 58.5232 0.0000 37.7593 0.0000
# 2 30.4872 52.7395 48.0073 0.0000 19.4674 0.0000
# 3 58.5232 48.0073 113.4522 0.0000 8.2196 0.0000
# 4 0.0000 0.0000 0.0000 45.2370 0.0000 2.0220
# 5 37.7593 19.4674 8.2196 0.0000 91.1679 0.0000
# 6 0.0000 0.0000 0.0000 2.0220 0.0000 36.8400
#
#
#
# Elastic Compliance Matrix: (Units=1/GPa)
#
#
# Indices 1 2 3 4 5 6 
#
# 1 0.009092 0.000060 -0.004470 0.000000 -0.003375 0.000000
# 2 0.000060 0.033781 -0.013892 0.000000 -0.005986 0.000000
# 3 -0.004470 -0.013892 0.016759 0.000000 0.003307 0.000000
# 4 0.000000 0.000000 0.000000 0.022160 0.000000 -0.001216
# 5 -0.003375 -0.005986 0.003307 0.000000 0.013347 0.000000
# 6 0.000000 0.000000 0.000000 -0.001216 0.000000 0.027211
#
#
# Mechanical properties :
#
#
# Convention : Reuss Voigt Hill
#
# Bulk Modulus (GPa) = 43.42758 65.86827 54.64792
# Shear Modulus (GPa) = 30.00652 46.76638 38.38645
#
# Velocity S-wave (km/s) = 3.31227 4.13508 3.74633
# Velocity P-wave (km/s) = 5.52325 6.84701 6.22045
#
# Compressibility (1/GPa) = 0.02302684
#
# Stress axis : x y z
#
# Youngs Moduli (GPa) = 109.99256 29.60218 59.66940
#
# Poissons Ratio (x) = -0.00177 0.26675
# Poissons Ratio (y) = -0.00656 0.82891
# Poissons Ratio (z) = 0.49172 0.41122
#
# Static dielectric constant tensor:
#      x y z
#    x 2.185540 0.000000 -0.003980 
#    y 0.000000 2.245100 0.000000 
#    z -0.003980 0.000000 2.169130 
# 
# From -- ./inp_files/18658.got.cif
#   From: 2010.05.17/outbox.cif.g08.bks.cpg/sg5_10_cif.got.tgz:18658.got - 2010.06.03 18:56:24.
