data_PCOD9123768
_publ_section_title
;
Structure prediction by ZEFSAII (Michael W. Deem and Ramdas Pophale) SiO2 
 PCOD9123768
Probable space group: C 2
;
_chemical_formula_sum "Si O2"
_cell_formula_units_Z 18
_cell_length_a 13.196742
_cell_length_b 12.242140
_cell_length_c 11.477271
_cell_angle_alpha 90.000000
_cell_angle_beta 153.611732
_cell_angle_gamma 90.000000
_cell_volume 824.114085
_symmetry_space_group_name_H-M "C 2"
_symmetry_group_IT_number 5
_symmetry_cell_setting 'monoclinic'
loop_
_space_group_symop_operation_xyz
x,y,z
-x,y,-z
1/2+x,1/2+y,z
1/2-x,1/2+y,-z
loop_
_atom_site_type_symbol
_atom_site_label
_atom_site_fract_x
_atom_site_fract_y
_atom_site_fract_z
Si Si1 0.149898 0.767650 0.541760
Si Si2 0.175581 0.489321 0.330050
Si Si3 0.000000 0.135193 0.500000
Si Si4 0.805457 0.660094 0.020295
Si Si5 0.945813 0.055806 0.824642
O O1 0.331674 0.864104 0.713476
O O2 0.280889 0.654678 0.692423
O O3 0.000000 0.793604 0.500000
O O4 0.981039 0.746287 0.257615
O O5 0.330060 0.558457 0.399389
O O6 0.309418 0.487631 0.589839
O O7 0.947896 0.557790 0.115439
O O8 0.856309 0.198883 0.252614
O O9 0.653973 0.611056 0.969099
O O10 0.000000 0.995050 0.000000
#
# Coordination Sequence:
#
# PCOD9123768 Si02
#       5
#     4   4   2   4   4
#     4  11  21  39  66  99 121 161 218 267 309 372
#     4  10  22  37  63  95 127 163 210 262 314 375
#     4  10  20  40  62  90 128 174 202 254 322 374
#     4  10  22  39  62  95 132 165 210 257 319 373
#     4  10  21  38  60  90 130 169 198 258 322 372
#
# _framework density 21.841636000000001
#
# number of rings (size 3 to 8) (size 9 to 14) (size 15 to 20)
#    0.000    1.778    3.333    0.667    0.000    5.333 
#    0.000    6.667    0.000    2.667    0.000    0.000 
#    0.000    0.000    0.000    0.000    0.000    0.000 
#
# Total GULP energy -50264.979193 kJ/mol
# GULP energy per Si atom -5584.997688 kJ/mol
# Density = 2.179192 g / cm^3
# Si number density = 21.841636 Si / 1000 Ang^3
#
#
#
# Elastic Constant Matrix: (Units=GPa)
#
#
# Indices 1 2 3 4 5 6 
#
# 1 119.1233 -0.9143 44.0686 0.0001 -25.9438 0.0000
# 2 -0.9143 43.6417 0.7606 0.0000 -8.0017 0.0000
# 3 44.0686 0.7606 98.8396 0.0004 -32.6590 0.0001
# 4 0.0001 0.0000 0.0004 -5.2339 0.0001 5.3635
# 5 -25.9438 -8.0017 -32.6590 0.0001 46.6295 0.0000
# 6 0.0000 0.0000 0.0001 5.3635 0.0000 10.3154
#
#
#
# Elastic Compliance Matrix: (Units=1/GPa)
#
#
# Indices 1 2 3 4 5 6 
#
# 1 0.010468 0.000927 -0.003510 0.000000 0.003525 0.000000
# 2 0.000927 0.023914 0.001209 0.000000 0.005466 0.000000
# 3 -0.003510 0.001209 0.014437 0.000001 0.008367 0.000000
# 4 0.000000 0.000000 0.000001 -0.124648 0.000001 0.064810
# 5 0.003525 0.005466 0.008367 0.000001 0.030205 -0.000001
# 6 0.000000 0.000000 0.000000 0.064810 -0.000001 0.063245
#
#
# Mechanical properties :
#
#
# Convention : Reuss Voigt Hill
#
# Bulk Modulus (GPa) = 21.70518 38.82606 30.26562
# Shear Modulus (GPa) = 139.95128 24.85485 82.40307
#
# Velocity S-wave (km/s) = 8.01340 3.37702 6.14894
# Velocity P-wave (km/s) = 9.77643 5.74634 8.01870
#
# Compressibility (1/GPa) = 0.04607196
#
# Stress axis : x y z
#
# Youngs Moduli (GPa) = 95.53084 41.81572 69.26446
#
# Poissons Ratio (x) = -0.03875 0.24309
# Poissons Ratio (y) = -0.08854 -0.08373
# Poissons Ratio (z) = 0.33527 -0.05055
#
# Static dielectric constant tensor:
#      x y z
#    x 1.810680 0.000000 -0.040720 
#    y 0.000000 1.715320 0.000000 
#    z -0.040720 0.000000 1.846800 
# 
# From -- ./inp_files/39027.got.cif
#   From: 2010.05.17/outbox.cif.g08.bks.cpg/sg5_20_cif.got.tgz:39027.got - 2010.06.03 18:56:24.
