data_PCOD9123879
_publ_section_title
;
Structure prediction by ZEFSAII (Michael W. Deem and Ramdas Pophale) SiO2 
 PCOD9123879
Probable space group: C 2
;
_chemical_formula_sum "Si O2"
_cell_formula_units_Z 26
_cell_length_a 6.944356
_cell_length_b 13.385188
_cell_length_c 12.653228
_cell_angle_alpha 90.000000
_cell_angle_beta 65.302777
_cell_angle_gamma 90.000000
_cell_volume 1068.553590
_symmetry_space_group_name_H-M "C 2"
_symmetry_group_IT_number 5
_symmetry_cell_setting 'monoclinic'
loop_
_space_group_symop_operation_xyz
x,y,z
-x,y,-z
1/2+x,1/2+y,z
1/2-x,1/2+y,-z
loop_
_atom_site_type_symbol
_atom_site_label
_atom_site_fract_x
_atom_site_fract_y
_atom_site_fract_z
Si Si1 0.325064 0.271440 0.400126
Si Si2 0.909924 0.499121 0.859077
Si Si3 0.875853 0.301990 0.133124
Si Si4 0.000000 0.884995 0.000000
Si Si5 0.301973 0.703669 0.357573
Si Si6 0.073460 0.719163 0.831931
Si Si7 0.807869 0.486677 0.628974
O O1 0.554671 0.228711 0.382615
O O2 0.176666 0.258451 0.535865
O O3 0.273695 0.212131 0.304443
O O4 0.319975 0.386407 0.366538
O O5 0.694996 0.463630 0.968296
O O6 0.990013 0.608561 0.874408
O O7 0.871601 0.494193 0.739422
O O8 0.083089 0.416832 0.849615
O O9 0.925830 0.240532 0.227041
O O10 0.634395 0.280032 0.159721
O O11 0.000000 0.271461 0.000000
O O12 0.137360 0.799864 0.904532
O O13 0.323339 0.586100 0.364517
O O14 0.000000 0.488367 0.500000
#
# Coordination Sequence:
#
# PCOD9123879 Si02
#       7
#     4   4   4   2   4   4   4
#     4  10  20  40  67  91 123 165 214 260 318 379
#     4  12  25  41  68  95 126 175 211 263 325 378
#     4  11  23  42  64  95 131 170 213 262 318 378
#     4  12  26  40  66  98 128 172 218 262 316 390
#     4  10  21  42  65  90 131 169 205 268 318 375
#     4  11  24  44  65  93 131 168 215 271 316 378
#     4  12  21  39  70  93 122 170 212 259 327 377
#
# _framework density 24.331956999999999
#
# number of rings (size 3 to 8) (size 9 to 14) (size 15 to 20)
#    0.000    0.923    7.692    0.923    2.154    0.000 
#    0.000    3.077   10.154    0.000    0.000    0.000 
#    0.000    0.000    0.000    0.000    0.000    0.000 
#
# Total GULP energy -72550.486758 kJ/mol
# GULP energy per Si atom -5580.806674 kJ/mol
# Density = 2.427658 g / cm^3
# Si number density = 24.331957 Si / 1000 Ang^3
#
#
#
# Elastic Constant Matrix: (Units=GPa)
#
#
# Indices 1 2 3 4 5 6 
#
# 1 39.8757 20.2180 16.0107 0.0000 4.4660 0.0000
# 2 20.2180 214.5710 30.7897 0.0000 -2.1319 0.0000
# 3 16.0107 30.7897 175.6628 0.0000 11.0996 0.0000
# 4 0.0000 0.0000 0.0000 38.4951 0.0000 -13.4656
# 5 4.4660 -2.1319 11.0996 0.0000 34.8775 0.0000
# 6 0.0000 0.0000 0.0000 -13.4656 0.0000 52.4273
#
#
#
# Elastic Compliance Matrix: (Units=1/GPa)
#
#
# Indices 1 2 3 4 5 6 
#
# 1 0.027364 -0.002337 -0.001892 0.000000 -0.003045 0.000000
# 2 -0.002337 0.004991 -0.000714 0.000000 0.000832 0.000000
# 3 -0.001892 -0.000714 0.006101 0.000000 -0.001743 0.000000
# 4 0.000000 0.000000 0.000000 0.028542 0.000000 0.007331
# 5 -0.003045 0.000832 -0.001743 0.000000 0.029667 0.000000
# 6 0.000000 0.000000 0.000000 0.007331 0.000000 0.020957
#
#
# Mechanical properties :
#
#
# Convention : Reuss Voigt Hill
#
# Bulk Modulus (GPa) = 35.00367 62.68292 48.84329
# Shear Modulus (GPa) = 36.48808 49.36605 42.92707
#
# Velocity S-wave (km/s) = 3.87666 4.50917 4.20483
# Velocity P-wave (km/s) = 5.86985 7.27514 6.60995
#
# Compressibility (1/GPa) = 0.02856844
#
# Stress axis : x y z
#
# Youngs Moduli (GPa) = 36.54499 200.34236 163.92041
#
# Poissons Ratio (x) = 0.46822 0.31014
# Poissons Ratio (y) = 0.08541 0.11711
# Poissons Ratio (z) = 0.06914 0.14313
#
# Static dielectric constant tensor:
#      x y z
#    x 1.835320 0.000000 -0.032670 
#    y 0.000000 1.872780 0.000000 
#    z -0.032670 0.000000 2.104090 
# 
# From -- ./inp_files/50218.got.cif
#   From: 2010.05.17/outbox.cif.g08.bks.cpg/sg5_26_cif.got.tgz:50218.got - 2010.06.03 18:56:24.
