data_PCOD9123185
_publ_section_title
;
Structure prediction by ZEFSAII (Michael W. Deem and Ramdas Pophale) SiO2 
 PCOD9123185
Probable space group: C 2
;
_chemical_formula_sum "Si O2"
_cell_formula_units_Z 32
_cell_length_a 21.278193
_cell_length_b 14.043059
_cell_length_c 8.046703
_cell_angle_alpha 90.000000
_cell_angle_beta 145.977421
_cell_angle_gamma 90.000000
_cell_volume 1345.332748
_symmetry_space_group_name_H-M "C 2"
_symmetry_group_IT_number 5
_symmetry_cell_setting 'monoclinic'
loop_
_space_group_symop_operation_xyz
x,y,z
-x,y,-z
1/2+x,1/2+y,z
1/2-x,1/2+y,-z
loop_
_atom_site_type_symbol
_atom_site_label
_atom_site_fract_x
_atom_site_fract_y
_atom_site_fract_z
Si Si1 0.625330 0.062570 0.233356
Si Si2 0.774124 0.751049 0.524678
Si Si3 0.409860 0.981137 0.182945
Si Si4 0.835068 0.938932 0.816007
Si Si5 0.056204 0.991928 0.445879
Si Si6 0.781607 0.855498 0.063856
Si Si7 0.825570 0.184577 0.336679
Si Si8 0.463191 0.795977 0.112038
O O1 0.642283 0.168092 0.340898
O O2 0.727988 0.002127 0.532487
O O3 0.500000 0.030426 0.000000
O O4 0.633211 0.052721 0.051239
O O5 0.832936 0.851334 0.684292
O O6 0.722064 0.715048 0.587201
O O7 0.666528 0.764470 0.171394
O O8 0.500000 0.029243 0.500000
O O9 0.471702 0.897799 0.215583
O O10 0.319051 0.921208 0.087807
O O11 0.812512 0.895008 0.948618
O O12 0.954519 0.991448 0.091260
O O13 0.113866 0.887676 0.591805
O O14 0.000000 0.014323 0.500000
O O15 0.150165 0.072585 0.625044
O O16 0.745770 0.745691 0.954640
O O17 0.951874 0.227099 0.609402
O O18 0.500000 0.801373 0.000000
#
# Coordination Sequence:
#
# PCOD9123185 Si02
#       8
#     4   4   4   4   4   4   4   4
#     4  12  25  43  66  99 134 177 225 276 335 407
#     4  10  22  42  65  90 129 172 218 270 339 392
#     4  12  22  37  65  98 133 164 221 276 335 382
#     4  10  22  46  67  88 135 179 219 277 333 401
#     4  10  22  40  63  96 130 175 220 270 337 398
#     4  10  22  39  62  97 131 167 215 279 334 387
#     4  10  20  38  67  95 128 166 222 273 330 396
#     4  10  20  37  65  95 123 167 216 277 327 383
#
# _framework density 23.785936
#
# number of rings (size 3 to 8) (size 9 to 14) (size 15 to 20)
#    0.000    1.500    2.500    2.625    3.500    0.000 
#    2.250    6.250    0.000    0.000    0.000    0.000 
#    0.000    0.000    0.000    0.000    0.000    0.000 
#
# Total GULP energy -89443.438240 kJ/mol
# GULP energy per Si atom -5590.214890 kJ/mol
# Density = 2.373180 g / cm^3
# Si number density = 23.785936 Si / 1000 Ang^3
#
#
#
# Elastic Constant Matrix: (Units=GPa)
#
#
# Indices 1 2 3 4 5 6 
#
# 1 62.1508 -6.8806 20.5017 0.0000 -0.3002 0.0000
# 2 -6.8806 112.0049 58.1081 0.0000 7.2256 0.0000
# 3 20.5017 58.1081 155.5861 0.0000 11.6718 0.0000
# 4 0.0000 0.0000 0.0000 40.4772 0.0000 11.9229
# 5 -0.3002 7.2256 11.6718 0.0000 18.7252 0.0000
# 6 0.0000 0.0000 0.0000 11.9229 0.0000 8.3649
#
#
#
# Elastic Compliance Matrix: (Units=1/GPa)
#
#
# Indices 1 2 3 4 5 6 
#
# 1 0.017543 0.002781 -0.003452 0.000000 0.001360 0.000000
# 2 0.002781 0.011571 -0.004570 0.000000 -0.001572 0.000000
# 3 -0.003452 -0.004570 0.008876 0.000000 -0.003824 0.000000
# 4 0.000000 0.000000 0.000000 0.042584 0.000000 -0.060698
# 5 0.001360 -0.001572 -0.003824 0.000000 0.056416 0.000000
# 6 0.000000 0.000000 0.000000 -0.060698 0.000000 0.206062
#
#
# Mechanical properties :
#
#
# Convention : Reuss Voigt Hill
#
# Bulk Modulus (GPa) = 36.35364 52.57781 44.46573
# Shear Modulus (GPa) = 13.78529 30.71429 22.24979
#
# Velocity S-wave (km/s) = 2.41001 3.59734 3.06178
# Velocity P-wave (km/s) = 4.80219 6.27750 5.58874
#
# Compressibility (1/GPa) = 0.02750756
#
# Stress axis : x y z
#
# Youngs Moduli (GPa) = 57.00217 86.41944 112.66314
#
# Poissons Ratio (x) = -0.24034 0.38896
# Poissons Ratio (y) = -0.15853 0.51490
# Poissons Ratio (z) = 0.19679 0.39496
#
# Static dielectric constant tensor:
#      x y z
#    x 1.952440 0.000000 0.002260 
#    y 0.000000 1.904030 0.000000 
#    z 0.002260 0.000000 1.921190 
# 
# From -- ./inp_files/31082.got.cif
#   From: 2010.05.17/outbox.cif.g08.bks.cpg/sg5_16_cif.got.tgz:31082.got - 2010.06.03 18:56:24.
