data_PCOD9123824
_publ_section_title
;
Structure prediction by ZEFSAII (Michael W. Deem and Ramdas Pophale) SiO2 
 PCOD9123824
Probable space group: C 2
;
_chemical_formula_sum "Si O2"
_cell_formula_units_Z 22
_cell_length_a 16.441333
_cell_length_b 8.630025
_cell_length_c 8.616158
_cell_angle_alpha 90.000000
_cell_angle_beta 129.706184
_cell_angle_gamma 90.000000
_cell_volume 940.536696
_symmetry_space_group_name_H-M "C 2"
_symmetry_group_IT_number 5
_symmetry_cell_setting 'monoclinic'
loop_
_space_group_symop_operation_xyz
x,y,z
-x,y,-z
1/2+x,1/2+y,z
1/2-x,1/2+y,-z
loop_
_atom_site_type_symbol
_atom_site_label
_atom_site_fract_x
_atom_site_fract_y
_atom_site_fract_z
Si Si1 0.688186 0.582120 0.740497
Si Si2 0.878070 0.411785 0.836343
Si Si3 0.500000 0.334158 0.500000
Si Si4 0.854637 0.088691 0.967303
Si Si5 0.529587 0.322260 0.202933
Si Si6 0.731719 0.873074 0.602576
O O1 0.803484 0.509621 0.857976
O O2 0.601935 0.446923 0.614291
O O3 0.679427 0.716923 0.603238
O O4 0.673558 0.645907 0.895660
O O5 0.862576 0.230876 0.859746
O O6 0.840964 0.446684 0.616549
O O7 0.000000 0.438030 0.000000
O O8 0.498728 0.249387 0.331629
O O9 0.763942 0.977873 0.787785
O O10 0.960586 0.983050 0.113838
O O11 0.655249 0.344181 0.343859
O O12 0.500000 0.250365 0.000000
#
# Coordination Sequence:
#
# PCOD9123824 Si02
#       6
#     4   4   2   4   4   4
#     4  11  24  41  68  96 132 168 223 277 327 389
#     4  12  25  40  66  98 133 173 219 267 332 395
#     4  10  20  40  64  98 120 178 218 264 322 404
#     4  10  23  44  68  95 129 175 224 268 330 406
#     4   9  19  37  67  91 127 165 222 262 325 392
#     4  11  22  41  67  96 133 174 217 271 336 392
#
# _framework density 23.390899999999998
#
# number of rings (size 3 to 8) (size 9 to 14) (size 15 to 20)
#    0.000    1.455    1.818    3.818    7.636    2.182 
#    0.000    0.000    0.000    0.000    0.000    0.000 
#    0.000    0.000    0.000    0.000    0.000    0.000 
#
# Total GULP energy -61524.216527 kJ/mol
# GULP energy per Si atom -5593.110593 kJ/mol
# Density = 2.333766 g / cm^3
# Si number density = 23.390900 Si / 1000 Ang^3
#
#
#
# Elastic Constant Matrix: (Units=GPa)
#
#
# Indices 1 2 3 4 5 6 
#
# 1 108.6855 4.8254 60.3484 0.0000 -11.5726 0.0000
# 2 4.8254 48.1073 -11.1975 0.0000 -7.9990 0.0000
# 3 60.3484 -11.1975 126.5357 0.0000 -8.5909 0.0000
# 4 0.0000 0.0000 0.0000 27.9587 0.0000 9.0991
# 5 -11.5726 -7.9990 -8.5909 0.0000 59.4397 0.0000
# 6 0.0000 0.0000 0.0000 9.0991 0.0000 54.1090
#
#
#
# Elastic Compliance Matrix: (Units=1/GPa)
#
#
# Indices 1 2 3 4 5 6 
#
# 1 0.012959 -0.002561 -0.006321 0.000000 0.001265 0.000000
# 2 -0.002561 0.022334 0.003401 0.000000 0.002999 0.000000
# 3 -0.006321 0.003401 0.011277 0.000000 0.000857 0.000000
# 4 0.000000 0.000000 0.000000 0.037838 0.000000 -0.006363
# 5 0.001265 0.002999 0.000857 0.000000 0.017597 0.000000
# 6 0.000000 0.000000 0.000000 -0.006363 0.000000 0.019551
#
#
# Mechanical properties :
#
#
# Convention : Reuss Voigt Hill
#
# Bulk Modulus (GPa) = 28.08333 43.47566 35.77950
# Shear Modulus (GPa) = 34.62893 43.59162 39.11027
#
# Velocity S-wave (km/s) = 3.85183 4.32164 4.09348
# Velocity P-wave (km/s) = 5.64041 6.59766 6.13772
#
# Compressibility (1/GPa) = 0.03560831
#
# Stress axis : x y z
#
# Youngs Moduli (GPa) = 77.16520 44.77474 88.67680
#
# Poissons Ratio (x) = 0.11466 0.56056
# Poissons Ratio (y) = 0.19761 -0.30162
# Poissons Ratio (z) = 0.48779 -0.15230
#
# Static dielectric constant tensor:
#      x y z
#    x 1.840380 0.000000 -0.029060 
#    y 0.000000 1.885880 0.000000 
#    z -0.029060 0.000000 1.829110 
# 
# From -- ./inp_files/26654.got.cif
#   From: 2010.05.17/outbox.cif.g08.bks.cpg/sg5_14_cif.got.tgz:26654.got - 2010.06.03 18:56:24.
