data_PCOD9123912
_publ_section_title
;
Structure prediction by ZEFSAII (Michael W. Deem and Ramdas Pophale) SiO2 
 PCOD9123912
Probable space group: C 2
;
_chemical_formula_sum "Si O2"
_cell_formula_units_Z 30
_cell_length_a 10.704661
_cell_length_b 9.273207
_cell_length_c 13.713229
_cell_angle_alpha 90.000000
_cell_angle_beta 117.180585
_cell_angle_gamma 90.000000
_cell_volume 1210.941941
_symmetry_space_group_name_H-M "C 2"
_symmetry_group_IT_number 5
_symmetry_cell_setting 'monoclinic'
loop_
_space_group_symop_operation_xyz
x,y,z
-x,y,-z
1/2+x,1/2+y,z
1/2-x,1/2+y,-z
loop_
_atom_site_type_symbol
_atom_site_label
_atom_site_fract_x
_atom_site_fract_y
_atom_site_fract_z
Si Si1 0.227755 0.342240 0.713402
Si Si2 0.322106 0.657108 0.766928
Si Si3 0.913610 0.022297 0.084100
Si Si4 0.278047 0.452183 0.221199
Si Si5 0.500000 0.946654 0.000000
Si Si6 0.731964 0.793386 0.946983
Si Si7 0.726361 0.103951 0.398035
Si Si8 0.409944 0.805576 0.601965
O O1 0.250144 0.511560 0.705154
O O2 0.228845 0.309922 0.829449
O O3 0.331319 0.239075 0.688348
O O4 0.070090 0.303501 0.625961
O O5 0.438048 0.593704 0.882577
O O6 0.226515 0.778598 0.781172
O O7 0.396212 0.749416 0.708422
O O8 0.786347 0.132192 0.020833
O O9 0.902927 0.003814 0.197014
O O10 0.875062 0.869194 0.028795
O O11 0.126951 0.501724 0.118858
O O12 0.299930 0.513068 0.336801
O O13 0.398908 0.869093 0.043986
O O14 0.814802 0.191436 0.509462
O O15 0.637901 0.974349 0.415728
#
# Coordination Sequence:
#
# PCOD9123912 Si02
#       8
#     4   4   4   4   2   4   4   4
#     4  12  25  44  69 103 141 185 237 291 353 420
#     4  11  24  44  70 102 145 188 234 293 348 421
#     4  11  23  43  64 104 141 189 238 287 346 417
#     4  10  21  41  71  98 143 190 232 288 354 411
#     4  10  20  40  68  94 144 194 218 280 350 406
#     4  11  23  41  68  99 143 190 238 284 350 414
#     4  11  23  45  73 103 136 185 235 295 359 423
#     4  11  24  47  74 103 143 184 233 299 363 422
#
# _framework density 24.774104999999999
#
# number of rings (size 3 to 8) (size 9 to 14) (size 15 to 20)
#    0.000    1.067    4.000    2.000    3.733    1.600 
#    4.800    5.333    0.000    0.000    0.000    0.000 
#    0.000    0.000    0.000    0.000    0.000    0.000 
#
# Total GULP energy -83675.361299 kJ/mol
# GULP energy per Si atom -5578.357420 kJ/mol
# Density = 2.471772 g / cm^3
# Si number density = 24.774105 Si / 1000 Ang^3
#
#
#
# Elastic Constant Matrix: (Units=GPa)
#
#
# Indices 1 2 3 4 5 6 
#
# 1 60.2448 47.3486 11.5226 0.0000 1.3099 0.0000
# 2 47.3486 173.8073 16.6383 0.0000 13.7858 0.0000
# 3 11.5226 16.6383 90.3874 0.0000 -10.2433 0.0000
# 4 0.0000 0.0000 0.0000 53.7389 0.0000 -1.4350
# 5 1.3099 13.7858 -10.2433 0.0000 20.9807 0.0000
# 6 0.0000 0.0000 0.0000 -1.4350 0.0000 40.4424
#
#
#
# Elastic Compliance Matrix: (Units=1/GPa)
#
#
# Indices 1 2 3 4 5 6 
#
# 1 0.021428 -0.005840 -0.001454 0.000000 0.001790 0.000000
# 2 -0.005840 0.007907 -0.001332 0.000000 -0.005481 0.000000
# 3 -0.001454 -0.001332 0.012283 0.000000 0.006963 0.000000
# 4 0.000000 0.000000 0.000000 0.018626 0.000000 0.000661
# 5 0.001790 -0.005481 0.006963 0.000000 0.054552 0.000000
# 6 0.000000 0.000000 0.000000 0.000661 0.000000 0.024750
#
#
# Mechanical properties :
#
#
# Convention : Reuss Voigt Hill
#
# Bulk Modulus (GPa) = 41.04111 52.82871 46.93491
# Shear Modulus (GPa) = 30.31765 39.62773 34.97269
#
# Velocity S-wave (km/s) = 3.50203 4.00379 3.76129
# Velocity P-wave (km/s) = 5.74059 6.53791 6.15218
#
# Compressibility (1/GPa) = 0.02436581
#
# Stress axis : x y z
#
# Youngs Moduli (GPa) = 46.66761 126.47414 81.41255
#
# Poissons Ratio (x) = 0.73864 0.11835
# Poissons Ratio (y) = 0.27255 0.10845
# Poissons Ratio (z) = 0.06784 0.16847
#
# Static dielectric constant tensor:
#      x y z
#    x 1.937760 0.000000 -0.023100 
#    y 0.000000 2.010880 0.000000 
#    z -0.023100 0.000000 2.030000 
# 
# From -- ./inp_files/52517.got.cif
#   From: 2010.05.17/outbox.cif.g08.bks.cpg/sg5_27_cif.got.tgz:52517.got - 2010.06.03 18:56:24.
