data_PCOD9123021
_publ_section_title
;
Structure prediction by ZEFSAII (Michael W. Deem and Ramdas Pophale) SiO2 
 PCOD9123021
Probable space group: C 2
;
_chemical_formula_sum "Si O2"
_cell_formula_units_Z 28
_cell_length_a 13.876992
_cell_length_b 5.473346
_cell_length_c 16.414301
_cell_angle_alpha 90.000000
_cell_angle_beta 110.147417
_cell_angle_gamma 90.000000
_cell_volume 1170.437211
_symmetry_space_group_name_H-M "C 2"
_symmetry_group_IT_number 5
_symmetry_cell_setting 'monoclinic'
loop_
_space_group_symop_operation_xyz
x,y,z
-x,y,-z
1/2+x,1/2+y,z
1/2-x,1/2+y,-z
loop_
_atom_site_type_symbol
_atom_site_label
_atom_site_fract_x
_atom_site_fract_y
_atom_site_fract_z
Si Si1 0.701575 0.856610 0.015768
Si Si2 0.310118 0.022778 0.389297
Si Si3 0.373768 0.823860 0.717069
Si Si4 0.240945 0.069448 0.798027
Si Si5 0.417525 0.903691 0.165046
Si Si6 0.446339 0.272407 0.309047
Si Si7 0.156892 0.690999 0.423779
O O1 0.717575 0.900809 0.115836
O O2 0.729333 0.577104 0.002474
O O3 0.596559 0.908729 0.935934
O O4 0.214935 0.124234 0.308415
O O5 0.407544 0.058572 0.359899
O O6 0.331928 0.180307 0.476638
O O7 0.263584 0.777799 0.414837
O O8 0.334176 0.050394 0.762115
O O9 0.484134 0.743002 0.781113
O O10 0.374656 0.935780 0.626965
O O11 0.143241 0.970050 0.718754
O O12 0.188881 0.301325 0.827164
O O13 0.442268 0.155823 0.217755
O O14 0.558484 0.354502 0.369921
#
# Coordination Sequence:
#
# PCOD9123021 Si02
#       7
#     4   4   4   4   4   4   4
#     4  10  20  37  64  89 124 162 200 252 311 365
#     4  11  21  37  57  81 115 150 193 247 301 354
#     4  10  22  37  58  84 114 154 196 247 300 358
#     4  10  20  37  59  85 116 152 198 241 302 363
#     4  10  20  37  59  85 116 152 198 241 302 363
#     4  10  21  36  58  82 110 152 194 240 299 364
#     4  11  21  37  57  81 115 150 193 247 301 354
#
# _framework density 23.922685000000001
#
# number of rings (size 3 to 8) (size 9 to 14) (size 15 to 20)
#    0.000    1.714    2.857    2.143    0.000    0.571 
#    0.000    0.000    0.000    1.714    0.000    0.000 
#    0.000    0.000    0.000    0.000    0.000    0.000 
#
# Total GULP energy -78033.914934 kJ/mol
# GULP energy per Si atom -5573.851067 kJ/mol
# Density = 2.386824 g / cm^3
# Si number density = 23.922685 Si / 1000 Ang^3
#
#
#
# Elastic Constant Matrix: (Units=GPa)
#
#
# Indices 1 2 3 4 5 6 
#
# 1 92.9367 9.3905 25.3190 0.0000 3.2698 0.0000
# 2 9.3905 40.6706 8.6487 0.0000 -0.1278 0.0000
# 3 25.3190 8.6487 137.4263 0.0000 12.8074 0.0000
# 4 0.0000 0.0000 0.0000 31.5490 0.0000 -0.1233
# 5 3.2698 -0.1278 12.8074 0.0000 28.0081 0.0000
# 6 0.0000 0.0000 0.0000 -0.1233 0.0000 23.4583
#
#
#
# Elastic Compliance Matrix: (Units=1/GPa)
#
#
# Indices 1 2 3 4 5 6 
#
# 1 0.011532 -0.002252 -0.001939 0.000000 -0.000470 0.000000
# 2 -0.002252 0.025381 -0.001272 0.000000 0.000960 0.000000
# 3 -0.001939 -0.001272 0.008036 0.000000 -0.003454 0.000000
# 4 0.000000 0.000000 0.000000 0.031697 0.000000 0.000167
# 5 -0.000470 0.000960 -0.003454 0.000000 0.037343 0.000000
# 6 0.000000 0.000000 0.000000 0.000167 0.000000 0.042630
#
#
# Mechanical properties :
#
#
# Convention : Reuss Voigt Hill
#
# Bulk Modulus (GPa) = 29.39145 39.75000 34.57073
# Shear Modulus (GPa) = 27.95072 31.78143 29.86607
#
# Velocity S-wave (km/s) = 3.42186 3.64882 3.53716
# Velocity P-wave (km/s) = 5.28440 5.86549 5.58251
#
# Compressibility (1/GPa) = 0.03402350
#
# Stress axis : x y z
#
# Youngs Moduli (GPa) = 86.71249 39.39920 124.44245
#
# Poissons Ratio (x) = 0.08872 0.24132
# Poissons Ratio (y) = 0.19526 0.15829
# Poissons Ratio (z) = 0.16815 0.05011
#
# Static dielectric constant tensor:
#      x y z
#    x 1.949070 0.000000 0.004170 
#    y 0.000000 2.080860 0.000000 
#    z 0.004170 0.000000 1.927910 
# 
# From -- ./inp_files/61034.got.cif
#   From: 2010.05.17/outbox.cif.g08.bks.cpg/sg5_31_cif.got.tgz:61034.got - 2010.06.03 18:56:24.
