data_PCOD9123010
_publ_section_title
;
Structure prediction by ZEFSAII (Michael W. Deem and Ramdas Pophale) SiO2 
 PCOD9123010
Probable space group: C 2
;
_chemical_formula_sum "Si O2"
_cell_formula_units_Z 24
_cell_length_a 9.082018
_cell_length_b 7.178718
_cell_length_c 20.165845
_cell_angle_alpha 90.000000
_cell_angle_beta 45.468404
_cell_angle_gamma 90.000000
_cell_volume 937.243098
_symmetry_space_group_name_H-M "C 2"
_symmetry_group_IT_number 5
_symmetry_cell_setting 'monoclinic'
loop_
_space_group_symop_operation_xyz
x,y,z
-x,y,-z
1/2+x,1/2+y,z
1/2-x,1/2+y,-z
loop_
_atom_site_type_symbol
_atom_site_label
_atom_site_fract_x
_atom_site_fract_y
_atom_site_fract_z
Si Si1 0.213320 0.984920 0.906584
Si Si2 0.022212 0.468091 0.704367
Si Si3 0.041146 0.482350 0.415333
Si Si4 0.926603 0.409670 0.094973
Si Si5 0.029645 0.907855 0.418390
Si Si6 0.487589 0.419427 0.290552
O O1 0.323947 0.901275 0.806960
O O2 0.390321 0.959364 0.909043
O O3 0.135421 0.191260 0.904068
O O4 0.000000 0.899811 0.000000
O O5 0.057797 0.397903 0.618692
O O6 0.013879 0.693575 0.706502
O O7 0.228801 0.411898 0.676149
O O8 0.966053 0.693758 0.443147
O O9 0.281902 0.479853 0.318174
O O10 0.000000 0.395656 0.500000
O O11 0.705262 0.480528 0.191840
O O12 0.000000 0.482400 0.000000
O O13 0.937533 0.988801 0.380827
O O14 0.000000 0.994482 0.500000
#
# Coordination Sequence:
#
# PCOD9123010 Si02
#       6
#     4   4   4   4   4   4
#     4  10  22  43  69  97 137 178 227 286 348 416
#     4  10  21  38  60  87 124 165 218 267 336 402
#     4  10  22  37  57  90 125 166 218 276 335 403
#     4  10  22  43  68  98 136 178 228 285 349 416
#     4  10  20  37  58  85 121 163 210 273 331 400
#     4  10  21  38  60  85 127 164 217 269 335 403
#
# _framework density 25.607015000000001
#
# number of rings (size 3 to 8) (size 9 to 14) (size 15 to 20)
#    0.000    2.000    1.667    1.000    2.333    2.000 
#    0.000    3.333    0.000    0.000    0.000    0.000 
#    0.000    0.000    0.000    0.000    0.000    0.000 
#
# Total GULP energy -66904.664573 kJ/mol
# GULP energy per Si atom -5575.388714 kJ/mol
# Density = 2.554873 g / cm^3
# Si number density = 25.607015 Si / 1000 Ang^3
#
#
#
# Elastic Constant Matrix: (Units=GPa)
#
#
# Indices 1 2 3 4 5 6 
#
# 1 130.1022 17.9656 42.6423 0.0000 -15.2808 0.0000
# 2 17.9656 160.7960 20.7907 0.0000 0.0016 0.0000
# 3 42.6423 20.7907 173.3512 0.0000 -14.9322 0.0000
# 4 0.0000 0.0000 0.0000 -1.9055 0.0000 -19.1389
# 5 -15.2808 0.0016 -14.9322 0.0000 62.6320 0.0000
# 6 0.0000 0.0000 0.0000 -19.1389 0.0000 10.4585
#
#
#
# Elastic Compliance Matrix: (Units=1/GPa)
#
#
# Indices 1 2 3 4 5 6 
#
# 1 0.008597 -0.000717 -0.001887 0.000000 0.001648 0.000000
# 2 -0.000717 0.006379 -0.000617 0.000000 -0.000322 0.000000
# 3 -0.001887 -0.000617 0.006398 0.000000 0.001065 0.000000
# 4 0.000000 0.000000 0.000000 -0.027079 0.000000 -0.049554
# 5 0.001648 -0.000322 0.001065 0.000000 0.016622 0.000000
# 6 0.000000 0.000000 0.000000 -0.049554 0.000000 0.004934
#
#
# Mechanical properties :
#
#
# Convention : Reuss Voigt Hill
#
# Bulk Modulus (GPa) = 66.95920 69.67184 68.31552
# Shear Modulus (GPa) = 183.35190 39.76038 111.55614
#
# Velocity S-wave (km/s) = 8.47099 3.94472 6.60751
# Velocity P-wave (km/s) = 11.04004 6.92928 9.21676
#
# Compressibility (1/GPa) = 0.01493447
#
# Stress axis : x y z
#
# Youngs Moduli (GPa) = 116.31683 156.76828 156.28700
#
# Poissons Ratio (x) = 0.11234 0.29490
# Poissons Ratio (y) = 0.08335 0.09635
# Poissons Ratio (z) = 0.21948 0.09665
#
# Static dielectric constant tensor:
#      x y z
#    x 1.976930 0.000000 0.011900 
#    y 0.000000 2.041590 0.000000 
#    z 0.011900 0.000000 2.010420 
# 
# From -- ./inp_files/49884.got.cif
#   From: 2010.05.17/outbox.cif.g08.bks.cpg/sg5_25_cif.got.tgz:49884.got - 2010.06.03 18:56:24.
