data_PCOD9123014
_publ_section_title
;
Structure prediction by ZEFSAII (Michael W. Deem and Ramdas Pophale) SiO2 
 PCOD9123014
Probable space group: C 2
;
_chemical_formula_sum "Si O2"
_cell_formula_units_Z 32
_cell_length_a 14.618265
_cell_length_b 15.033322
_cell_length_c 20.319170
_cell_angle_alpha 90.000000
_cell_angle_beta 157.910866
_cell_angle_gamma 90.000000
_cell_volume 1679.193189
_symmetry_space_group_name_H-M "C 2"
_symmetry_group_IT_number 5
_symmetry_cell_setting 'monoclinic'
loop_
_space_group_symop_operation_xyz
x,y,z
-x,y,-z
1/2+x,1/2+y,z
1/2-x,1/2+y,-z
loop_
_atom_site_type_symbol
_atom_site_label
_atom_site_fract_x
_atom_site_fract_y
_atom_site_fract_z
Si Si1 0.689485 0.315870 0.685600
Si Si2 0.225397 0.801933 0.100825
Si Si3 0.782564 0.613722 0.905997
Si Si4 0.794246 0.560286 0.055012
Si Si5 0.249735 0.859544 0.976619
Si Si6 0.981101 0.486863 0.308684
Si Si7 0.336629 0.627694 0.827894
Si Si8 0.977685 0.928460 0.300105
O O1 0.500000 0.330252 0.500000
O O2 0.682041 0.212776 0.703206
O O3 0.618710 0.382053 0.697708
O O4 0.970790 0.333046 0.852567
O O5 0.361694 0.706942 0.198504
O O6 0.362484 0.892606 0.209727
O O7 0.155353 0.807072 0.977136
O O8 0.000000 0.801100 0.000000
O O9 0.877338 0.608847 0.044332
O O10 0.651278 0.522050 0.801637
O O11 0.000000 0.618045 0.000000
O O12 0.749661 0.460520 0.001314
O O13 0.537549 0.600872 0.907738
O O14 0.968551 0.549251 0.234673
O O15 0.089282 0.860643 0.803768
O O16 0.244214 0.457887 0.508110
O O17 0.824034 0.542669 0.257145
O O18 0.500000 0.653800 0.000000
#
# Coordination Sequence:
#
# PCOD9123014 Si02
#       8
#     4   4   4   4   4   4   4   4
#     4  12  24  38  61  91 122 158 204 254 303 361
#     4  10  20  39  62  85 114 156 203 244 294 359
#     4  10  21  37  59  82 112 154 201 244 291 358
#     4   9  18  36  58  83 116 156 194 236 295 353
#     4  10  20  37  59  83 119 157 193 239 298 358
#     4  10  21  37  60  88 120 154 195 248 303 362
#     4  10  21  38  61  90 123 157 198 251 304 358
#     4  11  23  38  58  88 122 156 194 248 307 363
#
# _framework density 19.05677
#
# number of rings (size 3 to 8) (size 9 to 14) (size 15 to 20)
#    0.000    1.750    0.000    6.750    0.000    5.000 
#    0.000    3.125    0.000    3.000    0.000    0.000 
#    0.000    0.000    0.000    0.000    0.000    0.000 
#
# Total GULP energy -89149.030523 kJ/mol
# GULP energy per Si atom -5571.814408 kJ/mol
# Density = 1.901340 g / cm^3
# Si number density = 19.056770 Si / 1000 Ang^3
#
#
#
# Elastic Constant Matrix: (Units=GPa)
#
#
# Indices 1 2 3 4 5 6 
#
# 1 150.7997 40.1503 60.9375 0.0001 -9.9960 -0.0099
# 2 40.1503 121.1045 28.2657 0.0039 -12.5296 0.0024
# 3 60.9375 28.2657 104.2346 -0.0370 -13.3819 -0.0702
# 4 0.0001 0.0039 -0.0370 26.6369 0.0127 0.2871
# 5 -9.9960 -12.5296 -13.3819 0.0127 13.5369 -0.0074
# 6 -0.0099 0.0024 -0.0702 0.2871 -0.0074 2.2174
#
#
#
# Elastic Compliance Matrix: (Units=1/GPa)
#
#
# Indices 1 2 3 4 5 6 
#
# 1 0.009071 -0.001869 -0.004763 -0.000005 0.000260 -0.000106
# 2 -0.001869 0.009754 -0.000654 -0.000005 0.007002 -0.000016
# 3 -0.004763 -0.000654 0.013775 0.000010 0.009495 0.000446
# 4 -0.000005 -0.000005 0.000010 0.037594 -0.000037 -0.004867
# 5 0.000260 0.007002 0.009495 -0.000037 0.089932 0.000599
# 6 -0.000106 -0.000016 0.000446 -0.004867 0.000599 0.451634
#
#
# Mechanical properties :
#
#
# Convention : Reuss Voigt Hill
#
# Bulk Modulus (GPa) = 55.46600 70.53840 63.00220
# Shear Modulus (GPa) = 7.90714 24.93060 16.41887
#
# Velocity S-wave (km/s) = 2.03918 3.62087 2.93845
# Velocity P-wave (km/s) = 5.89179 7.38757 6.68167
#
# Compressibility (1/GPa) = 0.01802906
#
# Stress axis : x y z
#
# Youngs Moduli (GPa) = 110.24461 102.52359 72.59646
#
# Poissons Ratio (x) = 0.19159 0.34577
# Poissons Ratio (y) = 0.20601 0.04745
# Poissons Ratio (z) = 0.52508 0.06701
#
# Static dielectric constant tensor:
#      x y z
#    x 1.692950 0.000010 -0.017330 
#    y 0.000010 1.719220 -0.000020 
#    z -0.017330 -0.000020 1.607780 
# 
# From -- ./inp_files/24668.got.cif
#   From: 2010.05.17/outbox.cif.g08.bks.cpg/sg5_13_cif.got.tgz:24668.got - 2010.06.03 18:56:24.
