data_PCOD9123995
_publ_section_title
;
Structure prediction by ZEFSAII (Michael W. Deem and Ramdas Pophale) SiO2 
 PCOD9123995
Probable space group: C 2
;
_chemical_formula_sum "Si O2"
_cell_formula_units_Z 30
_cell_length_a 8.068662
_cell_length_b 11.234005
_cell_length_c 16.246357
_cell_angle_alpha 90.000000
_cell_angle_beta 104.229666
_cell_angle_gamma 90.000000
_cell_volume 1427.442091
_symmetry_space_group_name_H-M "C 2"
_symmetry_group_IT_number 5
_symmetry_cell_setting 'monoclinic'
loop_
_space_group_symop_operation_xyz
x,y,z
-x,y,-z
1/2+x,1/2+y,z
1/2-x,1/2+y,-z
loop_
_atom_site_type_symbol
_atom_site_label
_atom_site_fract_x
_atom_site_fract_y
_atom_site_fract_z
Si Si1 0.912045 0.596660 0.708377
Si Si2 0.738140 0.315324 0.997237
Si Si3 0.523649 0.548143 0.647753
Si Si4 0.500000 0.739263 0.500000
Si Si5 0.220974 0.010975 0.239228
Si Si6 0.059139 0.783742 0.151661
Si Si7 0.383894 0.298142 0.564235
Si Si8 0.685047 0.554055 0.045002
O O1 0.726537 0.535759 0.688574
O O2 0.940270 0.660849 0.799850
O O3 0.905931 0.697705 0.636903
O O4 0.080686 0.518656 0.711914
O O5 0.628172 0.325774 0.899291
O O6 0.818499 0.185721 0.991553
O O7 0.651578 0.284406 0.075017
O O8 0.808605 0.449193 0.024203
O O9 0.501540 0.653324 0.579550
O O10 0.408234 0.574022 0.713762
O O11 0.452190 0.425331 0.602574
O O12 0.680732 0.807844 0.520784
O O13 0.203027 0.060920 0.144859
O O14 0.154822 0.876503 0.221791
O O15 0.500000 0.263769 0.500000
O O16 0.500000 0.501162 0.000000
#
# Coordination Sequence:
#
# PCOD9123995 Si02
#       8
#     4   4   4   2   4   4   4   4
#     4  11  24  42  67  97 132 174 217 272 343 390
#     4  10  21  40  66  87 135 179 228 284 338 397
#     4  11  24  43  68 101 131 169 223 270 327 410
#     4  10  24  46  68  96 132 174 214 268 328 402
#     4  11  22  43  66  95 136 174 219 281 335 392
#     4  10  20  41  62  90 131 176 217 281 330 391
#     4  11  23  45  69  96 134 172 216 269 332 404
#     4  11  22  41  63  96 132 182 232 282 342 402
#
# _framework density 21.016614000000001
#
# number of rings (size 3 to 8) (size 9 to 14) (size 15 to 20)
#    0.000    1.333    6.000    0.800    1.867    1.067 
#    6.000    2.667    0.000    0.000    0.000    0.000 
#    0.000    0.000    0.000    0.000    0.000    0.000 
#
# Total GULP energy -83568.390892 kJ/mol
# GULP energy per Si atom -5571.226059 kJ/mol
# Density = 2.096878 g / cm^3
# Si number density = 21.016614 Si / 1000 Ang^3
#
#
#
# Elastic Constant Matrix: (Units=GPa)
#
#
# Indices 1 2 3 4 5 6 
#
# 1 138.2882 48.8670 65.6370 0.0000 -1.2694 0.0000
# 2 48.8670 93.3960 28.7538 0.0000 -8.5929 0.0000
# 3 65.6370 28.7538 96.4409 0.0000 1.9551 0.0000
# 4 0.0000 0.0000 0.0000 16.7702 0.0000 6.7902
# 5 -1.2694 -8.5929 1.9551 0.0000 17.9539 0.0000
# 6 0.0000 0.0000 0.0000 6.7902 0.0000 26.7910
#
#
#
# Elastic Compliance Matrix: (Units=1/GPa)
#
#
# Indices 1 2 3 4 5 6 
#
# 1 0.011979 -0.004181 -0.006898 0.000000 -0.000403 0.000000
# 2 -0.004181 0.013940 -0.001443 0.000000 0.006533 0.000000
# 3 -0.006898 -0.001443 0.015552 0.000000 -0.002872 0.000000
# 4 0.000000 0.000000 0.000000 0.066449 0.000000 -0.016841
# 5 -0.000403 0.006533 -0.002872 0.000000 0.059109 0.000000
# 6 0.000000 0.000000 0.000000 -0.016841 0.000000 0.041594
#
#
# Mechanical properties :
#
#
# Convention : Reuss Voigt Hill
#
# Bulk Modulus (GPa) = 60.87547 68.29339 64.58443
# Shear Modulus (GPa) = 20.90785 24.62751 22.76768
#
# Velocity S-wave (km/s) = 3.15751 3.42689 3.29495
# Velocity P-wave (km/s) = 6.50549 6.94432 6.72848
#
# Compressibility (1/GPa) = 0.01642698
#
# Stress axis : x y z
#
# Youngs Moduli (GPa) = 83.47785 71.73526 64.29885
#
# Poissons Ratio (x) = 0.29993 0.44355
# Poissons Ratio (y) = 0.34903 0.09279
# Poissons Ratio (z) = 0.57585 0.10352
#
# Static dielectric constant tensor:
#      x y z
#    x 1.835630 0.000000 -0.001710 
#    y 0.000000 1.772460 0.000000 
#    z -0.001710 0.000000 1.756260 
# 
# From -- ./inp_files/50540.got.cif
#   From: 2010.05.17/outbox.cif.g08.bks.cpg/sg5_26_cif.got.tgz:50540.got - 2010.06.03 18:56:24.
