data_PCOD9123854
_publ_section_title
;
Structure prediction by ZEFSAII (Michael W. Deem and Ramdas Pophale) SiO2 
 PCOD9123854
Probable space group: C 2
;
_chemical_formula_sum "Si O2"
_cell_formula_units_Z 26
_cell_length_a 8.367325
_cell_length_b 21.076678
_cell_length_c 11.840548
_cell_angle_alpha 90.000000
_cell_angle_beta 144.582600
_cell_angle_gamma 90.000000
_cell_volume 1210.139793
_symmetry_space_group_name_H-M "C 2"
_symmetry_group_IT_number 5
_symmetry_cell_setting 'monoclinic'
loop_
_space_group_symop_operation_xyz
x,y,z
-x,y,-z
1/2+x,1/2+y,z
1/2-x,1/2+y,-z
loop_
_atom_site_type_symbol
_atom_site_label
_atom_site_fract_x
_atom_site_fract_y
_atom_site_fract_z
Si Si1 0.677264 0.715660 0.340172
Si Si2 0.103971 0.856208 0.876033
Si Si3 0.759591 0.461292 0.575656
Si Si4 0.184953 0.072383 0.360961
Si Si5 0.704758 0.996985 0.016481
Si Si6 0.000000 0.262398 0.000000
Si Si7 0.562816 0.838187 0.695452
O O1 0.624770 0.645095 0.355800
O O2 0.584660 0.771177 0.370958
O O3 0.000000 0.721870 0.500000
O O4 0.529186 0.723643 0.132591
O O5 0.156839 0.929041 0.873619
O O6 0.238281 0.809213 0.862957
O O7 0.795283 0.839011 0.733689
O O8 0.280084 0.847688 0.093380
O O9 0.500000 0.439880 0.500000
O O10 0.666349 0.521781 0.450492
O O11 0.869794 0.399755 0.573524
O O12 0.012462 0.485139 0.798444
O O13 0.500000 0.068855 0.500000
O O14 0.951381 0.046630 0.140988
O O15 0.500000 0.016474 0.000000
#
# Coordination Sequence:
#
# PCOD9123854 Si02
#       7
#     4   4   4   4   4   2   4
#     4  10  23  42  62  89 131 168 214 262 322 389
#     4   9  18  35  63  96 124 156 216 265 316 390
#     4  11  22  40  66  96 129 172 217 267 326 383
#     4  11  25  42  61  94 130 171 222 272 314 389
#     4  11  21  39  66  93 126 168 211 264 329 379
#     4  10  20  40  66  88 122 174 204 260 334 378
#     4   9  19  37  62  96 127 163 209 274 319 376
#
# _framework density 21.485122
#
# number of rings (size 3 to 8) (size 9 to 14) (size 15 to 20)
#    0.000    1.846    2.308    1.385    0.000    5.538 
#    5.538    5.385    0.000    0.000    0.000    0.000 
#    0.000    0.000    0.000    0.000    0.000    0.000 
#
# Total GULP energy -72682.782240 kJ/mol
# GULP energy per Si atom -5590.983249 kJ/mol
# Density = 2.143622 g / cm^3
# Si number density = 21.485122 Si / 1000 Ang^3
#
#
#
# Elastic Constant Matrix: (Units=GPa)
#
#
# Indices 1 2 3 4 5 6 
#
# 1 73.0798 45.2755 19.2964 0.0000 15.5971 0.0000
# 2 45.2755 154.4843 54.1807 0.0000 15.9715 0.0000
# 3 19.2964 54.1807 101.6425 0.0000 13.6627 0.0000
# 4 0.0000 0.0000 0.0000 28.1245 0.0000 1.7439
# 5 15.5971 15.9715 13.6627 0.0000 42.8544 0.0000
# 6 0.0000 0.0000 0.0000 1.7439 0.0000 15.1278
#
#
#
# Elastic Compliance Matrix: (Units=1/GPa)
#
#
# Indices 1 2 3 4 5 6 
#
# 1 0.017575 -0.004578 -0.000278 0.000000 -0.004602 0.000000
# 2 -0.004578 0.009272 -0.004005 0.000000 -0.000513 0.000000
# 3 -0.000278 -0.004005 0.012340 0.000000 -0.002341 0.000000
# 4 0.000000 0.000000 0.000000 0.035812 0.000000 -0.004128
# 5 -0.004602 -0.000513 -0.002341 0.000000 0.025947 0.000000
# 6 0.000000 0.000000 0.000000 -0.004128 0.000000 0.066579
#
#
# Mechanical properties :
#
#
# Convention : Reuss Voigt Hill
#
# Bulk Modulus (GPa) = 46.58159 62.96799 54.77479
# Shear Modulus (GPa) = 25.98716 31.25161 28.61938
#
# Velocity S-wave (km/s) = 3.48162 3.81802 3.65369
# Velocity P-wave (km/s) = 6.15550 6.98625 6.58399
#
# Compressibility (1/GPa) = 0.02146771
#
# Stress axis : x y z
#
# Youngs Moduli (GPa) = 56.89833 107.84857 81.03428
#
# Poissons Ratio (x) = 0.49369 0.02252
# Poissons Ratio (y) = 0.26046 0.32451
# Poissons Ratio (z) = 0.01581 0.43189
#
# Static dielectric constant tensor:
#      x y z
#    x 1.756240 0.000000 -0.042140 
#    y 0.000000 1.726960 0.000000 
#    z -0.042140 0.000000 1.896750 
# 
# From -- ./inp_files/17090.got.cif
#   From: 2010.05.17/outbox.cif.g08.bks.cpg/sg5_9_cif.got.tgz:17090.got - 2010.06.03 18:56:24.
