data_PCOD9123290
_publ_section_title
;
Structure prediction by ZEFSAII (Michael W. Deem and Ramdas Pophale) SiO2 
 PCOD9123290
Probable space group: C 2
;
_chemical_formula_sum "Si O2"
_cell_formula_units_Z 26
_cell_length_a 10.179484
_cell_length_b 14.680744
_cell_length_c 8.383297
_cell_angle_alpha 90.000000
_cell_angle_beta 69.739359
_cell_angle_gamma 90.000000
_cell_volume 1175.304328
_symmetry_space_group_name_H-M "C 2"
_symmetry_group_IT_number 5
_symmetry_cell_setting 'monoclinic'
loop_
_space_group_symop_operation_xyz
x,y,z
-x,y,-z
1/2+x,1/2+y,z
1/2-x,1/2+y,-z
loop_
_atom_site_type_symbol
_atom_site_label
_atom_site_fract_x
_atom_site_fract_y
_atom_site_fract_z
Si Si1 0.709325 0.819950 0.010906
Si Si2 0.824707 0.644036 0.860612
Si Si3 0.218372 0.008930 0.105333
Si Si4 0.921725 0.094054 0.277329
Si Si5 0.500000 0.112044 0.500000
Si Si6 0.273967 0.974652 0.451269
Si Si7 0.078662 0.299995 0.705912
O O1 0.798322 0.728653 0.986653
O O2 0.645551 0.806715 0.857245
O O3 0.798602 0.911480 0.971216
O O4 0.582937 0.824827 0.190005
O O5 0.686271 0.609815 0.822212
O O6 0.934026 0.666141 0.675389
O O7 0.848385 0.557354 0.962137
O O8 0.079211 0.070355 0.162952
O O9 0.254608 0.992596 0.273153
O O10 0.915804 0.195589 0.357039
O O11 0.866984 0.007974 0.401970
O O12 0.384140 0.045726 0.476179
O O13 0.336948 0.872738 0.435941
#
# Coordination Sequence:
#
# PCOD9123290 Si02
#       7
#     4   4   4   4   2   4   4
#     4   9  18  33  59  88 109 162 198 240 292 357
#     4  10  20  38  62  84 118 161 198 241 306 355
#     4  11  20  36  63  88 120 151 206 247 291 359
#     4  10  20  38  60  89 124 158 195 247 303 358
#     4  10  22  40  58  84 122 158 200 250 298 354
#     4  10  22  38  57  92 118 161 197 251 295 348
#     4   9  17  36  60  82 119 158 204 232 296 363
#
# _framework density 22.121929999999999
#
# number of rings (size 3 to 8) (size 9 to 14) (size 15 to 20)
#    0.000    2.154    1.538    1.846    0.000    1.846 
#   13.846    1.538    3.385    0.000    0.000    0.000 
#    0.000    0.000    0.000    0.000    0.000    0.000 
#
# Total GULP energy -72484.145435 kJ/mol
# GULP energy per Si atom -5575.703495 kJ/mol
# Density = 2.207158 g / cm^3
# Si number density = 22.121930 Si / 1000 Ang^3
#
#
#
# Elastic Constant Matrix: (Units=GPa)
#
#
# Indices 1 2 3 4 5 6 
#
# 1 30.4039 -2.6424 6.3676 0.0000 -11.9491 0.0000
# 2 -2.6424 145.3794 52.5647 0.0000 -23.4013 0.0000
# 3 6.3676 52.5647 98.7702 0.0000 -23.0134 0.0000
# 4 0.0000 0.0000 0.0000 34.3540 0.0000 -13.8976
# 5 -11.9491 -23.4013 -23.0134 0.0000 18.3425 0.0000
# 6 0.0000 0.0000 0.0000 -13.8976 0.0000 17.4978
#
#
#
# Elastic Compliance Matrix: (Units=1/GPa)
#
#
# Indices 1 2 3 4 5 6 
#
# 1 0.051382 0.007160 0.003963 0.000000 0.047579 0.000000
# 2 0.007160 0.010272 -0.002527 0.000000 0.014599 0.000000
# 3 0.003963 -0.002527 0.015635 0.000000 0.018974 0.000000
# 4 0.000000 0.000000 0.000000 0.042889 0.000000 0.034065
# 5 0.047579 0.014599 0.018974 0.000000 0.127944 0.000000
# 6 0.000000 0.000000 0.000000 0.034065 0.000000 0.084206
#
#
# Mechanical properties :
#
#
# Convention : Reuss Voigt Hill
#
# Bulk Modulus (GPa) = 10.58422 43.01481 26.79951
# Shear Modulus (GPa) = 14.42462 28.58980 21.50721
#
# Velocity S-wave (km/s) = 2.55630 3.59886 3.12141
# Velocity P-wave (km/s) = 3.67529 6.06265 5.01316
#
# Compressibility (1/GPa) = 0.09448031
#
# Stress axis : x y z
#
# Youngs Moduli (GPa) = 19.46217 97.34943 63.96028
#
# Poissons Ratio (x) = -0.69698 -0.25348
# Poissons Ratio (y) = -0.13934 0.16161
# Poissons Ratio (z) = -0.07713 0.24598
#
# Static dielectric constant tensor:
#      x y z
#    x 1.848940 0.000000 0.003430 
#    y 0.000000 1.860290 0.000000 
#    z 0.003430 0.000000 1.860900 
# 
# From -- ./inp_files/20256.got.cif
#   From: 2010.05.17/outbox.cif.g08.bks.cpg/sg5_11_cif.got.tgz:20256.got - 2010.06.03 18:56:24.
