data_PCOD9123158
_publ_section_title
;
Structure prediction by ZEFSAII (Michael W. Deem and Ramdas Pophale) SiO2 
 PCOD9123158
Probable space group: C 2
;
_chemical_formula_sum "Si O2"
_cell_formula_units_Z 22
_cell_length_a 8.336109
_cell_length_b 13.997378
_cell_length_c 8.258888
_cell_angle_alpha 90.000000
_cell_angle_beta 82.036184
_cell_angle_gamma 90.000000
_cell_volume 954.383419
_symmetry_space_group_name_H-M "C 2"
_symmetry_group_IT_number 5
_symmetry_cell_setting 'monoclinic'
loop_
_space_group_symop_operation_xyz
x,y,z
-x,y,-z
1/2+x,1/2+y,z
1/2-x,1/2+y,-z
loop_
_atom_site_type_symbol
_atom_site_label
_atom_site_fract_x
_atom_site_fract_y
_atom_site_fract_z
Si Si1 0.818310 0.206440 0.662298
Si Si2 0.312477 0.299517 0.007906
Si Si3 0.379153 0.038161 0.276778
Si Si4 0.500000 0.876598 0.500000
Si Si5 0.388154 0.674369 0.166662
Si Si6 0.789530 0.507624 0.942975
O O1 0.721830 0.225967 0.842728
O O2 0.707546 0.121429 0.606202
O O3 0.851985 0.307518 0.573722
O O4 0.002373 0.179795 0.690051
O O5 0.209292 0.393650 0.065186
O O6 0.500000 0.326143 0.000000
O O7 0.260103 0.248167 0.846450
O O8 0.548055 0.053158 0.156917
O O9 0.423318 0.946352 0.376641
O O10 0.262669 0.022077 0.138808
O O11 0.342391 0.565465 0.138458
O O12 0.500000 0.705819 0.000000
#
# Coordination Sequence:
#
# PCOD9123158 Si02
#       6
#     4   4   4   2   4   4
#     4  11  24  45  68 101 140 196 236 290 361 429
#     4  11  21  36  65 107 140 173 232 297 363 414
#     4  11  24  42  74  99 137 192 243 292 363 416
#     4  12  26  48  66 100 154 198 234 288 356 448
#     4  10  20  37  64 102 135 173 227 303 357 407
#     4  11  21  40  71 105 134 174 241 317 351 412
#
# _framework density 23.051534
#
# number of rings (size 3 to 8) (size 9 to 14) (size 15 to 20)
#    0.000    1.091    5.455    2.727    5.091    1.455 
#    0.000    1.818    0.000    2.182    0.000    0.000 
#    0.000    0.000    0.000    0.000    0.000    0.000 
#
# Total GULP energy -61278.693810 kJ/mol
# GULP energy per Si atom -5570.790346 kJ/mol
# Density = 2.299907 g / cm^3
# Si number density = 23.051534 Si / 1000 Ang^3
#
#
#
# Elastic Constant Matrix: (Units=GPa)
#
#
# Indices 1 2 3 4 5 6 
#
# 1 71.0542 40.0019 14.0787 0.0000 -1.8865 0.0000
# 2 40.0019 155.5252 34.8686 0.0000 6.2400 0.0000
# 3 14.0787 34.8686 58.6952 0.0000 6.0974 0.0000
# 4 0.0000 0.0000 0.0000 28.5314 0.0000 -4.3048
# 5 -1.8865 6.2400 6.0974 0.0000 19.7379 0.0000
# 6 0.0000 0.0000 0.0000 -4.3048 0.0000 49.0819
#
#
#
# Elastic Compliance Matrix: (Units=1/GPa)
#
#
# Indices 1 2 3 4 5 6 
#
# 1 0.016827 -0.004017 -0.002013 0.000000 0.003500 0.000000
# 2 -0.004017 0.008397 -0.003832 0.000000 -0.001855 0.000000
# 3 -0.002013 -0.003832 0.020343 0.000000 -0.005266 0.000000
# 4 0.000000 0.000000 0.000000 0.035519 0.000000 0.003115
# 5 0.003500 -0.001855 -0.005266 0.000000 0.053211 0.000000
# 6 0.000000 0.000000 0.000000 0.003115 0.000000 0.020647
#
#
# Mechanical properties :
#
#
# Convention : Reuss Voigt Hill
#
# Bulk Modulus (GPa) = 38.69597 51.46367 45.07982
# Shear Modulus (GPa) = 27.28008 32.55860 29.91934
#
# Velocity S-wave (km/s) = 3.44385 3.76230 3.60659
# Velocity P-wave (km/s) = 5.71285 6.42240 6.07798
#
# Compressibility (1/GPa) = 0.02584249
#
# Stress axis : x y z
#
# Youngs Moduli (GPa) = 59.42778 119.09648 49.15583
#
# Poissons Ratio (x) = 0.47842 0.09897
# Poissons Ratio (y) = 0.23873 0.18836
# Poissons Ratio (z) = 0.11965 0.45636
#
# Static dielectric constant tensor:
#      x y z
#    x 1.999550 0.000000 0.022830 
#    y 0.000000 1.891420 0.000000 
#    z 0.022830 0.000000 1.934460 
# 
# From -- ./inp_files/14957.got.cif
#   From: 2010.05.17/outbox.cif.g08.bks.cpg/sg5_8_cif.got.tgz:14957.got - 2010.06.03 18:56:24.
