data_PCOD9123219
_publ_section_title
;
Structure prediction by ZEFSAII (Michael W. Deem and Ramdas Pophale) SiO2 
 PCOD9123219
Probable space group: C 2
;
_chemical_formula_sum "Si O2"
_cell_formula_units_Z 30
_cell_length_a 6.011976
_cell_length_b 17.033731
_cell_length_c 16.664731
_cell_angle_alpha 90.000000
_cell_angle_beta 59.361039
_cell_angle_gamma 90.000000
_cell_volume 1468.329594
_symmetry_space_group_name_H-M "C 2"
_symmetry_group_IT_number 5
_symmetry_cell_setting 'monoclinic'
loop_
_space_group_symop_operation_xyz
x,y,z
-x,y,-z
1/2+x,1/2+y,z
1/2-x,1/2+y,-z
loop_
_atom_site_type_symbol
_atom_site_label
_atom_site_fract_x
_atom_site_fract_y
_atom_site_fract_z
Si Si1 0.582782 0.098930 0.155834
Si Si2 0.183746 0.716894 0.265414
Si Si3 0.500000 0.028490 0.000000
Si Si4 0.036700 0.967763 0.853173
Si Si5 0.116429 0.995716 0.299783
Si Si6 0.382010 0.772944 0.602356
Si Si7 0.488042 0.857838 0.747731
Si Si8 0.777322 0.125177 0.407117
O O1 0.630201 0.182715 0.187171
O O2 0.819843 0.044552 0.139845
O O3 0.325866 0.063992 0.243966
O O4 0.542228 0.083796 0.069455
O O5 0.402574 0.782872 0.225388
O O6 0.253705 0.648771 0.316944
O O7 0.920470 0.754593 0.347706
O O8 0.749253 0.973176 0.941122
O O9 0.005123 0.971614 0.763038
O O10 0.234304 0.896911 0.833555
O O11 0.901178 0.038904 0.391944
O O12 0.285916 0.923088 0.298919
O O13 0.500000 0.808234 0.500000
O O14 0.425481 0.827502 0.670700
O O15 0.537793 0.691815 0.589428
O O16 0.500000 0.129258 0.500000
#
# Coordination Sequence:
#
# PCOD9123219 Si02
#       8
#     4   4   2   4   4   4   4   4
#     4  10  20  37  68 100 123 161 219 269 327 386
#     4  11  21  39  65  97 125 179 216 264 320 387
#     4  10  22  36  70 108 120 160 214 286 326 390
#     4  10  20  41  63 101 126 162 216 266 334 389
#     4  10  20  39  62  94 128 166 216 268 324 382
#     4  11  22  40  64  92 134 179 225 263 319 381
#     4  10  24  38  65  95 131 179 215 260 329 394
#     4  11  21  36  65  95 127 170 228 272 314 371
#
# _framework density 20.431379
#
# number of rings (size 3 to 8) (size 9 to 14) (size 15 to 20)
#    0.000    1.600    4.000    1.200    0.000    0.000 
#    0.000    4.000    5.867    0.000  156.000    0.000 
#    0.000    0.000    0.000    0.000    0.000    0.000 
#
# Total GULP energy -83783.180037 kJ/mol
# GULP energy per Si atom -5585.545336 kJ/mol
# Density = 2.038488 g / cm^3
# Si number density = 20.431379 Si / 1000 Ang^3
#
#
#
# Elastic Constant Matrix: (Units=GPa)
#
#
# Indices 1 2 3 4 5 6 
#
# 1 88.5579 29.7732 25.4935 0.0000 -17.1818 0.0000
# 2 29.7732 78.3940 38.1470 0.0000 -6.5754 0.0000
# 3 25.4935 38.1470 71.7563 0.0000 -16.3073 0.0000
# 4 0.0000 0.0000 0.0000 13.8786 0.0000 -3.2119
# 5 -17.1818 -6.5754 -16.3073 0.0000 36.6572 0.0000
# 6 0.0000 0.0000 0.0000 -3.2119 0.0000 17.3446
#
#
#
# Elastic Compliance Matrix: (Units=1/GPa)
#
#
# Indices 1 2 3 4 5 6 
#
# 1 0.014162 -0.004138 -0.001659 0.000000 0.005157 0.000000
# 2 -0.004138 0.018456 -0.008933 0.000000 -0.002603 0.000000
# 3 -0.001659 -0.008933 0.020841 0.000000 0.006891 0.000000
# 4 0.000000 0.000000 0.000000 0.075280 0.000000 0.013941
# 5 0.005157 -0.002603 0.006891 0.000000 0.032296 0.000000
# 6 0.000000 0.000000 0.000000 0.013941 0.000000 0.060236
#
#
# Mechanical properties :
#
#
# Convention : Reuss Voigt Hill
#
# Bulk Modulus (GPa) = 41.67149 47.28170 44.47659
# Shear Modulus (GPa) = 19.32511 23.26238 21.29374
#
# Velocity S-wave (km/s) = 3.07881 3.37792 3.23183
# Velocity P-wave (km/s) = 5.75142 6.19723 5.97849
#
# Compressibility (1/GPa) = 0.02399722
#
# Stress axis : x y z
#
# Youngs Moduli (GPa) = 70.61318 54.18188 47.98338
#
# Poissons Ratio (x) = 0.22423 0.07961
# Poissons Ratio (y) = 0.29223 0.42864
# Poissons Ratio (z) = 0.11716 0.48401
#
# Static dielectric constant tensor:
#      x y z
#    x 1.763790 0.000000 -0.001810 
#    y 0.000000 1.720280 0.000000 
#    z -0.001810 0.000000 1.718970 
# 
# From -- ./inp_files/58977.got.cif
#   From: 2010.05.17/outbox.cif.g08.bks.cpg/sg5_30_cif.got.tgz:58977.got - 2010.06.03 18:56:24.
