data_PCOD9123685
_publ_section_title
;
Structure prediction by ZEFSAII (Michael W. Deem and Ramdas Pophale) SiO2 
 PCOD9123685
Probable space group: C 2
;
_chemical_formula_sum "Si O2"
_cell_formula_units_Z 30
_cell_length_a 5.231644
_cell_length_b 18.604905
_cell_length_c 14.597847
_cell_angle_alpha 90.000000
_cell_angle_beta 114.746253
_cell_angle_gamma 90.000000
_cell_volume 1290.392598
_symmetry_space_group_name_H-M "C 2"
_symmetry_group_IT_number 5
_symmetry_cell_setting 'monoclinic'
loop_
_space_group_symop_operation_xyz
x,y,z
-x,y,-z
1/2+x,1/2+y,z
1/2-x,1/2+y,-z
loop_
_atom_site_type_symbol
_atom_site_label
_atom_site_fract_x
_atom_site_fract_y
_atom_site_fract_z
Si Si1 0.286229 0.665740 0.790873
Si Si2 0.713316 0.582954 0.472945
Si Si3 0.778023 0.325595 0.281918
Si Si4 0.294959 0.915662 0.774334
Si Si5 0.914377 0.735088 0.586180
Si Si6 0.207905 0.083756 0.748815
Si Si7 0.078998 0.751880 0.917846
Si Si8 0.500000 0.876274 0.000000
O O1 0.183033 0.718582 0.692531
O O2 0.563998 0.618545 0.816545
O O3 0.296792 0.712430 0.883979
O O4 0.007335 0.616677 0.766328
O O5 0.500000 0.537432 0.500000
O O6 0.455886 0.603069 0.641478
O O7 0.000000 0.542693 0.500000
O O8 0.797308 0.655858 0.540109
O O9 0.501824 0.375009 0.257254
O O10 0.796034 0.279751 0.379420
O O11 0.686830 0.270337 0.187137
O O12 0.025354 0.374796 0.277407
O O13 0.459009 0.914717 0.896595
O O14 0.237533 0.998801 0.747957
O O15 0.000000 0.767699 0.500000
O O16 0.228670 0.825693 0.967787
O O17 0.000000 0.713857 0.000000
#
# Coordination Sequence:
#
# PCOD9123685 Si02
#       8
#     4   4   4   4   4   4   4   2
#     4  11  24  38  66 101 135 177 226 291 358 408
#     4  11  20  37  63  95 128 179 221 270 350 413
#     4  10  23  40  67 100 131 180 234 288 344 405
#     4  11  24  44  68  93 140 190 237 275 339 423
#     4  10  20  39  68 103 136 171 229 290 357 420
#     4  12  23  43  63 100 139 186 231 282 337 430
#     4  10  21  39  67  97 138 169 230 298 360 420
#     4  10  22  44  68  96 132 192 230 286 362 418
#
# _framework density 23.248737999999999
#
# number of rings (size 3 to 8) (size 9 to 14) (size 15 to 20)
#    0.000    1.333    5.333    0.800    1.867    5.333 
#    1.200    0.667    0.000    0.800    0.000    0.000 
#    0.000    0.000    0.000    0.000    0.000    0.000 
#
# Total GULP energy -83785.980886 kJ/mol
# GULP energy per Si atom -5585.732059 kJ/mol
# Density = 2.319582 g / cm^3
# Si number density = 23.248738 Si / 1000 Ang^3
#
#
#
# Elastic Constant Matrix: (Units=GPa)
#
#
# Indices 1 2 3 4 5 6 
#
# 1 169.2275 50.8858 37.4419 0.0000 -28.1908 0.0000
# 2 50.8858 106.6028 37.9806 0.0000 -15.7799 0.0000
# 3 37.4419 37.9806 128.0828 0.0000 -26.0254 0.0000
# 4 0.0000 0.0000 0.0000 16.3852 0.0000 0.0914
# 5 -28.1908 -15.7799 -26.0254 0.0000 45.0190 0.0000
# 6 0.0000 0.0000 0.0000 0.0914 0.0000 24.5077
#
#
#
# Elastic Compliance Matrix: (Units=1/GPa)
#
#
# Indices 1 2 3 4 5 6 
#
# 1 0.007458 -0.002834 -0.000672 0.000000 0.003288 0.000000
# 2 -0.002834 0.011749 -0.002469 0.000000 0.000916 0.000000
# 3 -0.000672 -0.002469 0.009603 0.000000 0.004265 0.000000
# 4 0.000000 0.000000 0.000000 0.061032 0.000000 -0.000228
# 5 0.003288 0.000916 0.004265 0.000000 0.027059 0.000000
# 6 0.000000 0.000000 0.000000 -0.000228 0.000000 0.040804
#
#
# Mechanical properties :
#
#
# Convention : Reuss Voigt Hill
#
# Bulk Modulus (GPa) = 59.31330 72.94773 66.13052
# Shear Modulus (GPa) = 28.52680 35.68936 32.10808
#
# Velocity S-wave (km/s) = 3.50669 3.92230 3.72030
# Velocity P-wave (km/s) = 6.47794 7.20817 6.85279
#
# Compressibility (1/GPa) = 0.01685962
#
# Stress axis : x y z
#
# Youngs Moduli (GPa) = 134.08937 85.11588 104.13784
#
# Poissons Ratio (x) = 0.24120 0.06994
# Poissons Ratio (y) = 0.37999 0.25715
# Poissons Ratio (z) = 0.09005 0.21018
#
# Static dielectric constant tensor:
#      x y z
#    x 2.028520 0.000000 -0.051410 
#    y 0.000000 1.840390 0.000000 
#    z -0.051410 0.000000 2.110630 
# 
# From -- ./inp_files/49360.got.cif
#   From: 2010.05.17/outbox.cif.g08.bks.cpg/sg5_25_cif.got.tgz:49360.got - 2010.06.03 18:56:24.
