data_PCOD9123498
_publ_section_title
;
Structure prediction by ZEFSAII (Michael W. Deem and Ramdas Pophale) SiO2 
 PCOD9123498
Probable space group: C 2
;
_chemical_formula_sum "Si O2"
_cell_formula_units_Z 28
_cell_length_a 19.446103
_cell_length_b 15.413163
_cell_length_c 9.445154
_cell_angle_alpha 90.000000
_cell_angle_beta 29.828121
_cell_angle_gamma 90.000000
_cell_volume 1408.117857
_symmetry_space_group_name_H-M "C 2"
_symmetry_group_IT_number 5
_symmetry_cell_setting 'monoclinic'
loop_
_space_group_symop_operation_xyz
x,y,z
-x,y,-z
1/2+x,1/2+y,z
1/2-x,1/2+y,-z
loop_
_atom_site_type_symbol
_atom_site_label
_atom_site_fract_x
_atom_site_fract_y
_atom_site_fract_z
Si Si1 0.212462 0.306980 0.991449
Si Si2 0.500000 0.235898 0.500000
Si Si3 0.380318 0.641156 0.329945
Si Si4 0.000000 0.438461 0.500000
Si Si5 0.164457 0.510989 0.675551
Si Si6 0.835944 0.315823 0.263421
Si Si7 0.920103 0.129671 0.768169
Si Si8 0.642790 0.082509 0.409706
O O1 0.369995 0.297610 0.758820
O O2 0.198814 0.308745 0.842649
O O3 0.125696 0.383378 0.214624
O O4 0.143272 0.219417 0.173483
O O5 0.557734 0.169259 0.518179
O O6 0.271765 0.567773 0.574532
O O7 0.301771 0.726910 0.408938
O O8 0.474846 0.658241 0.297249
O O9 0.500000 0.615020 0.000000
O O10 0.050243 0.501342 0.533267
O O11 0.211616 0.410222 0.594893
O O12 0.181485 0.564566 0.500479
O O13 0.000000 0.513594 0.000000
O O14 0.000000 0.318464 0.000000
O O15 0.000000 0.082586 0.500000
O O16 0.786154 0.081798 0.067948
#
# Coordination Sequence:
#
# PCOD9123498 Si02
#       8
#     4   2   4   2   4   4   4   4
#     4  11  20  39  62  96 125 171 221 262 330 400
#     4   9  22  40  64  85 136 170 204 275 338 388
#     4  11  20  41  66  89 126 173 217 273 324 384
#     4  11  22  36  62  89 130 168 206 263 328 398
#     4  11  23  39  65  95 127 172 223 268 331 400
#     4  10  20  38  67  91 124 174 219 267 320 399
#     4  11  22  38  68  95 123 169 225 271 331 396
#     4  10  22  42  60  90 134 169 211 276 335 387
#
# _framework density 19.884699999999999
#
# number of rings (size 3 to 8) (size 9 to 14) (size 15 to 20)
#    0.000    1.429    5.000    2.571    0.000    4.571 
#    3.857    0.714    0.000    0.000    0.000    0.000 
#    0.000    0.000    0.000    0.000    0.000    0.000 
#
# Total GULP energy -77950.375875 kJ/mol
# GULP energy per Si atom -5567.883991 kJ/mol
# Density = 1.983944 g / cm^3
# Si number density = 19.884700 Si / 1000 Ang^3
#
#
#
# Elastic Constant Matrix: (Units=GPa)
#
#
# Indices 1 2 3 4 5 6 
#
# 1 51.4544 3.9919 26.8041 0.0000 -14.7397 0.0000
# 2 3.9919 113.0884 38.2308 0.0000 -25.2056 0.0000
# 3 26.8041 38.2308 93.1974 0.0000 -18.2492 0.0000
# 4 0.0000 0.0000 0.0000 22.8114 0.0000 -21.5575
# 5 -14.7397 -25.2056 -18.2492 0.0000 31.8350 0.0000
# 6 0.0000 0.0000 0.0000 -21.5575 0.0000 9.8969
#
#
#
# Elastic Compliance Matrix: (Units=1/GPa)
#
#
# Indices 1 2 3 4 5 6 
#
# 1 0.025898 0.003888 -0.006863 0.000000 0.011135 0.000000
# 2 0.003888 0.012172 -0.004361 0.000000 0.008937 0.000000
# 3 -0.006863 -0.004361 0.014863 0.000000 0.001889 0.000000
# 4 0.000000 0.000000 0.000000 -0.041416 0.000000 -0.090213
# 5 0.011135 0.008937 0.001889 0.000000 0.044727 0.000000
# 6 0.000000 0.000000 0.000000 -0.090213 0.000000 -0.095460
#
#
# Mechanical properties :
#
#
# Convention : Reuss Voigt Hill
#
# Bulk Modulus (GPa) = 26.13724 43.97709 35.05716
# Shear Modulus (GPa) = -424.02629 25.48956 -199.26837
#
# Velocity S-wave (km/s) = -14.61867 3.58420 -10.02145
# Velocity P-wave (km/s) = 16.48538 6.26839 10.78135
#
# Compressibility (1/GPa) = 0.03825959
#
# Stress axis : x y z
#
# Youngs Moduli (GPa) = 38.61337 82.15811 67.28277
#
# Poissons Ratio (x) = -0.31940 0.46175
# Poissons Ratio (y) = -0.15011 0.29343
# Poissons Ratio (z) = 0.26499 0.35830
#
# Static dielectric constant tensor:
#      x y z
#    x 2.060240 0.000000 0.013760 
#    y 0.000000 1.722060 0.000000 
#    z 0.013760 0.000000 1.846430 
# 
# From -- ./inp_files/29912.got.cif
#   From: 2010.05.17/outbox.cif.g08.bks.cpg/sg5_15_cif.got.tgz:29912.got - 2010.06.03 18:56:24.
