data_PCOD9123743
_publ_section_title
;
Structure prediction by ZEFSAII (Michael W. Deem and Ramdas Pophale) SiO2 
 PCOD9123743
Probable space group: C 2
;
_chemical_formula_sum "Si O2"
_cell_formula_units_Z 32
_cell_length_a 26.940814
_cell_length_b 12.738717
_cell_length_c 8.441057
_cell_angle_alpha 90.000000
_cell_angle_beta 31.526450
_cell_angle_gamma 90.000000
_cell_volume 1514.765253
_symmetry_space_group_name_H-M "C 2"
_symmetry_group_IT_number 5
_symmetry_cell_setting 'monoclinic'
loop_
_space_group_symop_operation_xyz
x,y,z
-x,y,-z
1/2+x,1/2+y,z
1/2-x,1/2+y,-z
loop_
_atom_site_type_symbol
_atom_site_label
_atom_site_fract_x
_atom_site_fract_y
_atom_site_fract_z
Si Si1 0.550843 0.216200 0.031621
Si Si2 0.699661 0.369817 0.559783
Si Si3 0.910564 0.368343 0.482183
Si Si4 0.942275 0.202902 0.795421
Si Si5 0.757340 0.256899 0.105123
Si Si6 0.296818 0.084446 0.218211
Si Si7 0.355257 0.743123 0.335883
Si Si8 0.891544 0.600440 0.631930
O O1 0.475773 0.183538 0.370578
O O2 0.500000 0.204053 0.000000
O O3 0.601694 0.330225 0.905425
O O4 0.639081 0.136015 0.818143
O O5 0.693115 0.324621 0.398790
O O6 0.736200 0.487317 0.444775
O O7 0.786256 0.314728 0.417039
O O8 0.906232 0.318115 0.320704
O O9 0.917686 0.493141 0.469997
O O10 0.996531 0.309977 0.340430
O O11 0.812089 0.331866 0.833103
O O12 0.000000 0.142513 0.500000
O O13 0.841472 0.214962 0.987040
O O14 0.920146 0.175013 0.038316
O O15 0.699343 0.161286 0.190095
O O16 0.217409 0.166898 0.378086
O O17 0.365963 0.065551 0.880584
#
# Coordination Sequence:
#
# PCOD9123743 Si02
#       8
#     4   4   4   4   4   4   4   4
#     4  11  25  41  66 106 134 172 231 296 331 412
#     4  10  22  43  64  92 142 178 212 277 360 405
#     4  11  22  37  67 103 126 174 232 291 330 403
#     4   9  21  38  62  88 134 163 212 282 343 386
#     4  10  20  40  60  92 136 175 212 277 350 402
#     4  11  24  43  69  96 134 189 225 272 350 419
#     4  10  22  38  64  97 134 168 230 285 330 409
#     4  12  24  39  71 100 136 178 233 284 345 410
#
# _framework density 21.125385999999999
#
# number of rings (size 3 to 8) (size 9 to 14) (size 15 to 20)
#    0.000    1.500    3.750    0.750    5.250    1.000 
#    0.000    1.250    5.500    0.000    0.000    0.000 
#    0.000    0.000    0.000    0.000    0.000    0.000 
#
# Total GULP energy -89134.297417 kJ/mol
# GULP energy per Si atom -5570.893589 kJ/mol
# Density = 2.107730 g / cm^3
# Si number density = 21.125386 Si / 1000 Ang^3
#
#
#
# Elastic Constant Matrix: (Units=GPa)
#
#
# Indices 1 2 3 4 5 6 
#
# 1 99.5551 32.1456 26.8033 0.0000 -4.3816 0.0000
# 2 32.1456 69.9375 25.2318 0.0000 -17.8793 0.0000
# 3 26.8033 25.2318 114.6416 0.0000 1.7069 0.0000
# 4 0.0000 0.0000 0.0000 33.6429 0.0000 -3.8838
# 5 -4.3816 -17.8793 1.7069 0.0000 33.7308 0.0000
# 6 0.0000 0.0000 0.0000 -3.8838 0.0000 19.1340
#
#
#
# Elastic Compliance Matrix: (Units=1/GPa)
#
#
# Indices 1 2 3 4 5 6 
#
# 1 0.012145 -0.005272 -0.001662 0.000000 -0.001133 0.000000
# 2 -0.005272 0.020638 -0.003465 0.000000 0.010430 0.000000
# 3 -0.001662 -0.003465 0.009912 0.000000 -0.002554 0.000000
# 4 0.000000 0.000000 0.000000 0.030437 0.000000 0.006178
# 5 -0.001133 0.010430 -0.002554 0.000000 0.035157 0.000000
# 6 0.000000 0.000000 0.000000 0.006178 0.000000 0.053517
#
#
# Mechanical properties :
#
#
# Convention : Reuss Voigt Hill
#
# Bulk Modulus (GPa) = 45.66947 50.27729 47.97338
# Shear Modulus (GPa) = 26.32918 30.63178 28.48048
#
# Velocity S-wave (km/s) = 3.53417 3.81202 3.67572
# Velocity P-wave (km/s) = 6.19024 6.57468 6.38535
#
# Compressibility (1/GPa) = 0.02189646
#
# Stress axis : x y z
#
# Youngs Moduli (GPa) = 82.34088 48.45402 100.88660
#
# Poissons Ratio (x) = 0.25545 0.16770
# Poissons Ratio (y) = 0.43410 0.34957
# Poissons Ratio (z) = 0.13687 0.16789
#
# Static dielectric constant tensor:
#      x y z
#    x 1.769970 0.000000 0.042500 
#    y 0.000000 1.737530 0.000000 
#    z 0.042500 0.000000 1.868860 
# 
# From -- ./inp_files/32616.got.cif
#   From: 2010.05.17/outbox.cif.g08.bks.cpg/sg5_17_cif.got.tgz:32616.got - 2010.06.03 18:56:24.
