data_PCOD9123149
_publ_section_title
;
Structure prediction by ZEFSAII (Michael W. Deem and Ramdas Pophale) SiO2 
 PCOD9123149
Probable space group: C 2
;
_chemical_formula_sum "Si O2"
_cell_formula_units_Z 32
_cell_length_a 15.947548
_cell_length_b 10.267785
_cell_length_c 14.064345
_cell_angle_alpha 90.000000
_cell_angle_beta 149.285733
_cell_angle_gamma 90.000000
_cell_volume 1176.263259
_symmetry_space_group_name_H-M "C 2"
_symmetry_group_IT_number 5
_symmetry_cell_setting 'monoclinic'
loop_
_space_group_symop_operation_xyz
x,y,z
-x,y,-z
1/2+x,1/2+y,z
1/2-x,1/2+y,-z
loop_
_atom_site_type_symbol
_atom_site_label
_atom_site_fract_x
_atom_site_fract_y
_atom_site_fract_z
Si Si1 0.344437 0.850050 0.967361
Si Si2 0.966054 0.500214 0.577951
Si Si3 0.680356 0.415659 0.633370
Si Si4 0.616963 0.476886 0.197701
Si Si5 0.333647 0.191475 0.778648
Si Si6 0.063635 0.620526 0.859944
Si Si7 0.581667 0.726779 0.780145
Si Si8 0.494221 0.440955 0.706442
O O1 0.311382 0.836595 0.823713
O O2 0.163067 0.876426 0.836025
O O3 0.428476 0.744431 0.115469
O O4 0.435959 0.983118 0.084087
O O5 0.775750 0.543452 0.398371
O O6 0.000000 0.518481 0.500000
O O7 0.066866 0.587834 0.751398
O O8 0.009546 0.352457 0.656218
O O9 0.500000 0.388978 0.500000
O O10 0.721698 0.568340 0.692206
O O11 0.660741 0.385817 0.502887
O O12 0.703487 0.343190 0.241187
O O13 0.508467 0.442169 0.183315
O O14 0.500000 0.528205 0.000000
O O15 0.393315 0.182317 0.727189
O O16 0.500000 0.172782 0.000000
O O17 0.224798 0.698930 0.049619
O O18 0.499015 0.590700 0.676601
#
# Coordination Sequence:
#
# PCOD9123149 Si02
#       8
#     4   4   4   4   4   4   4   4
#     4   9  19  36  62  96 124 162 207 267 330 382
#     4  11  26  42  67 101 130 171 225 271 324 397
#     4  10  20  37  63  93 129 161 208 273 326 385
#     4  11  26  40  65  93 135 176 220 276 326 385
#     4  11  21  35  63  96 122 164 216 264 323 380
#     4  10  21  39  64  93 135 169 211 270 334 390
#     4  10  22  39  70  92 130 171 217 264 331 394
#     4  10  21  39  63  86 133 167 213 265 324 384
#
# _framework density 27.204794
#
# number of rings (size 3 to 8) (size 9 to 14) (size 15 to 20)
#    0.000    1.750    1.250    2.250    8.750    3.000 
#    0.000    3.125   11.000    0.000    0.000    0.000 
#    0.000    0.000    0.000    0.000    0.000    0.000 
#
# Total GULP energy -89479.325205 kJ/mol
# GULP energy per Si atom -5592.457825 kJ/mol
# Density = 2.714287 g / cm^3
# Si number density = 27.204794 Si / 1000 Ang^3
#
#
#
# Elastic Constant Matrix: (Units=GPa)
#
#
# Indices 1 2 3 4 5 6 
#
# 1 81.5351 -2.1416 37.4934 0.0000 -31.8630 0.0000
# 2 -2.1416 76.2296 24.5496 0.0000 -2.2788 0.0000
# 3 37.4934 24.5496 165.2530 0.0000 -28.6802 0.0000
# 4 0.0000 0.0000 0.0000 22.9458 0.0000 -10.2982
# 5 -31.8630 -2.2788 -28.6802 0.0000 56.7828 0.0000
# 6 0.0000 0.0000 0.0000 -10.2982 0.0000 17.9682
#
#
#
# Elastic Compliance Matrix: (Units=1/GPa)
#
#
# Indices 1 2 3 4 5 6 
#
# 1 0.016669 0.001550 -0.002607 0.000000 0.008099 0.000000
# 2 0.001550 0.013936 -0.002383 0.000000 0.000225 0.000000
# 3 -0.002607 -0.002383 0.007373 0.000000 0.002166 0.000000
# 4 0.000000 0.000000 0.000000 0.058673 0.000000 0.033628
# 5 0.008099 0.000225 0.002166 0.000000 0.023259 0.000000
# 6 0.000000 0.000000 0.000000 0.033628 0.000000 0.074927
#
#
# Mechanical properties :
#
#
# Convention : Reuss Voigt Hill
#
# Bulk Modulus (GPa) = 32.15584 49.20229 40.67907
# Shear Modulus (GPa) = 23.57580 37.08043 30.32812
#
# Velocity S-wave (km/s) = 2.94701 3.69590 3.34250
# Velocity P-wave (km/s) = 4.83998 6.02811 5.46642
#
# Compressibility (1/GPa) = 0.03109855
#
# Stress axis : x y z
#
# Youngs Moduli (GPa) = 59.99126 71.75695 135.63863
#
# Poissons Ratio (x) = -0.11121 0.35355
# Poissons Ratio (y) = -0.09298 0.32320
# Poissons Ratio (z) = 0.15637 0.17098
#
# Static dielectric constant tensor:
#      x y z
#    x 2.217980 0.000000 -0.010290 
#    y 0.000000 2.177710 0.000000 
#    z -0.010290 0.000000 2.079770 
# 
# From -- ./inp_files/32651.got.cif
#   From: 2010.05.17/outbox.cif.g08.bks.cpg/sg5_17_cif.got.tgz:32651.got - 2010.06.03 18:56:24.
