data_PCOD9123645
_publ_section_title
;
Structure prediction by ZEFSAII (Michael W. Deem and Ramdas Pophale) SiO2 
 PCOD9123645
Probable space group: C 2
;
_chemical_formula_sum "Si O2"
_cell_formula_units_Z 32
_cell_length_a 9.106174
_cell_length_b 18.117241
_cell_length_c 10.468135
_cell_angle_alpha 90.000000
_cell_angle_beta 129.388396
_cell_angle_gamma 90.000000
_cell_volume 1334.748176
_symmetry_space_group_name_H-M "C 2"
_symmetry_group_IT_number 5
_symmetry_cell_setting 'monoclinic'
loop_
_space_group_symop_operation_xyz
x,y,z
-x,y,-z
1/2+x,1/2+y,z
1/2-x,1/2+y,-z
loop_
_atom_site_type_symbol
_atom_site_label
_atom_site_fract_x
_atom_site_fract_y
_atom_site_fract_z
Si Si1 0.329118 0.969260 0.818623
Si Si2 0.523432 0.578389 0.664799
Si Si3 0.659368 0.191777 0.195639
Si Si4 0.608539 0.323215 0.436411
Si Si5 0.833810 0.663914 0.508948
Si Si6 0.785446 0.847858 0.860905
Si Si7 0.703363 0.804104 0.101300
Si Si8 0.425286 0.944922 0.589105
O O1 0.329450 0.881853 0.843268
O O2 0.363567 0.984308 0.687390
O O3 0.134130 0.004492 0.762761
O O4 0.500000 0.000153 0.000000
O O5 0.500000 0.572949 0.500000
O O6 0.663603 0.646910 0.761183
O O7 0.324612 0.603274 0.610943
O O8 0.619826 0.158195 0.313870
O O9 0.706541 0.278773 0.231637
O O10 0.500000 0.186363 0.000000
O O11 0.500000 0.356511 0.500000
O O12 0.731730 0.250335 0.540250
O O13 0.419718 0.287346 0.264503
O O14 0.749845 0.387425 0.465723
O O15 0.000000 0.656484 0.500000
O O16 0.616981 0.901955 0.733945
O O17 0.729249 0.815257 0.966157
O O18 0.000000 0.878454 0.000000
O O19 0.500000 0.761908 0.000000
O O20 0.500000 0.983072 0.500000
#
# Coordination Sequence:
#
# PCOD9123645 Si02
#       8
#     4   4   4   4   4   4   4   4
#     4  11  23  44  68  95 136 186 233 275 335 420
#     4  10  23  42  71  92 128 184 237 282 334 399
#     4  10  20  39  65  96 130 180 228 272 344 404
#     4  11  20  35  64  99 143 174 218 281 351 407
#     4  10  22  41  65 102 134 172 229 289 337 404
#     4  11  21  38  63  96 142 177 216 285 350 412
#     4  11  21  39  62  98 141 182 226 267 348 420
#     4  12  23  38  62 102 141 174 229 282 348 408
#
# _framework density 23.97456
#
# number of rings (size 3 to 8) (size 9 to 14) (size 15 to 20)
#    0.000    1.250    3.750    4.125    1.750    2.000 
#    0.000    3.125    0.000    3.000    0.000    0.000 
#    0.000    0.000    0.000    0.000    0.000    0.000 
#
# Total GULP energy -89251.436582 kJ/mol
# GULP energy per Si atom -5578.214786 kJ/mol
# Density = 2.391999 g / cm^3
# Si number density = 23.974560 Si / 1000 Ang^3
#
#
#
# Elastic Constant Matrix: (Units=GPa)
#
#
# Indices 1 2 3 4 5 6 
#
# 1 167.2021 19.8719 37.0206 0.0000 1.2833 0.0000
# 2 19.8719 68.3265 19.3369 0.0000 14.2959 0.0000
# 3 37.0206 19.3369 99.4321 0.0000 15.4196 0.0000
# 4 0.0000 0.0000 0.0000 12.1396 0.0000 22.1520
# 5 1.2833 14.2959 15.4196 0.0000 47.8221 0.0000
# 6 0.0000 0.0000 0.0000 22.1520 0.0000 32.0724
#
#
#
# Elastic Compliance Matrix: (Units=1/GPa)
#
#
# Indices 1 2 3 4 5 6 
#
# 1 0.006671 -0.001489 -0.002353 0.000000 0.001025 0.000000
# 2 -0.001489 0.016525 -0.001999 0.000000 -0.004255 0.000000
# 3 -0.002353 -0.001999 0.011810 0.000000 -0.003147 0.000000
# 4 0.000000 0.000000 0.000000 -0.316404 0.000000 0.218537
# 5 0.001025 -0.004255 -0.003147 0.000000 0.023170 0.000000
# 6 0.000000 0.000000 0.000000 0.218537 0.000000 -0.119761
#
#
# Mechanical properties :
#
#
# Convention : Reuss Voigt Hill
#
# Bulk Modulus (GPa) = 42.87557 54.15772 48.51664
# Shear Modulus (GPa) = -13.94571 35.65559 10.85494
#
# Velocity S-wave (km/s) = -2.41444 3.86064 2.13015
# Velocity P-wave (km/s) = 3.18590 6.52008 5.13134
#
# Compressibility (1/GPa) = 0.02332331
#
# Stress axis : x y z
#
# Youngs Moduli (GPa) = 149.90602 60.51537 84.67316
#
# Poissons Ratio (x) = 0.09008 0.19925
# Poissons Ratio (y) = 0.22315 0.16930
# Poissons Ratio (z) = 0.35275 0.12100
#
# Static dielectric constant tensor:
#      x y z
#    x 1.977210 0.000000 0.018690 
#    y 0.000000 1.989280 0.000000 
#    z 0.018690 0.000000 2.082530 
# 
# From -- ./inp_files/37390.got.cif
#   From: 2010.05.17/outbox.cif.g08.bks.cpg/sg5_19_cif.got.tgz:37390.got - 2010.06.03 18:56:24.
