data_PCOD9123952
_publ_section_title
;
Structure prediction by ZEFSAII (Michael W. Deem and Ramdas Pophale) SiO2 
 PCOD9123952
Probable space group: C 2
;
_chemical_formula_sum "Si O2"
_cell_formula_units_Z 32
_cell_length_a 19.135221
_cell_length_b 14.034690
_cell_length_c 14.115988
_cell_angle_alpha 90.000000
_cell_angle_beta 158.299452
_cell_angle_gamma 90.000000
_cell_volume 1401.723644
_symmetry_space_group_name_H-M "C 2"
_symmetry_group_IT_number 5
_symmetry_cell_setting 'monoclinic'
loop_
_space_group_symop_operation_xyz
x,y,z
-x,y,-z
1/2+x,1/2+y,z
1/2-x,1/2+y,-z
loop_
_atom_site_type_symbol
_atom_site_label
_atom_site_fract_x
_atom_site_fract_y
_atom_site_fract_z
Si Si1 0.596941 0.664280 0.019955
Si Si2 0.316061 0.127229 0.021544
Si Si3 0.625538 0.824104 0.369710
Si Si4 0.592845 0.052223 0.525522
Si Si5 0.552050 0.020895 0.171958
Si Si6 0.486394 0.541658 0.707739
Si Si7 0.941685 0.830492 0.154012
Si Si8 0.212267 0.866922 0.239039
O O1 0.518596 0.751452 0.860197
O O2 0.554952 0.575313 0.897969
O O3 0.500000 0.665822 0.000000
O O4 0.814437 0.650203 0.321715
O O5 0.440710 0.069245 0.254422
O O6 0.403993 0.095051 0.031589
O O7 0.358631 0.236952 0.097327
O O8 0.102443 0.097509 0.773986
O O9 0.641675 0.818400 0.504123
O O10 0.841809 0.807448 0.606063
O O11 0.567873 0.928481 0.259201
O O12 0.500000 0.005063 0.500000
O O13 0.752970 0.978663 0.694855
O O14 0.763771 0.061742 0.429833
O O15 0.500000 0.991574 0.000000
O O16 0.533713 0.429433 0.759107
O O17 0.798580 0.847479 0.885753
O O18 0.000000 0.840191 0.000000
#
# Coordination Sequence:
#
# PCOD9123952 Si02
#       8
#     4   4   4   4   4   4   4   4
#     4  12  23  39  69  98 136 181 238 286 351 411
#     4  12  25  45  72 105 145 185 237 292 353 422
#     4  10  22  40  68 104 137 182 238 289 352 417
#     4  12  22  41  66 103 136 181 238 292 347 416
#     4  11  25  45  72  97 146 192 230 286 358 427
#     4  11  25  46  70 103 140 184 238 293 352 417
#     4  10  22  41  69 105 137 175 239 298 342 424
#     4  10  20  40  71  96 133 182 234 292 353 411
#
# _framework density 22.829035999999999
#
# number of rings (size 3 to 8) (size 9 to 14) (size 15 to 20)
#    0.000    1.000    3.750    3.000    1.750    5.000 
#    2.250    0.000    0.000    0.000    0.000    0.000 
#    0.000    0.000    0.000    0.000    0.000    0.000 
#
# Total GULP energy -89367.820155 kJ/mol
# GULP energy per Si atom -5585.488760 kJ/mol
# Density = 2.277708 g / cm^3
# Si number density = 22.829036 Si / 1000 Ang^3
#
#
#
# Elastic Constant Matrix: (Units=GPa)
#
#
# Indices 1 2 3 4 5 6 
#
# 1 70.0834 17.3017 25.0432 0.0000 1.7803 0.0000
# 2 17.3017 74.6894 2.6565 -0.0001 19.4079 0.0000
# 3 25.0432 2.6565 58.9471 -0.0001 -0.3195 0.0000
# 4 0.0000 -0.0001 -0.0001 37.6150 0.0000 -2.8618
# 5 1.7803 19.4079 -0.3195 0.0000 34.1193 0.0000
# 6 0.0000 0.0000 0.0000 -2.8618 0.0000 15.1505
#
#
#
# Elastic Compliance Matrix: (Units=1/GPa)
#
#
# Indices 1 2 3 4 5 6 
#
# 1 0.017936 -0.004259 -0.007420 0.000000 0.001417 0.000000
# 2 -0.004259 0.016756 0.001004 0.000000 -0.009300 0.000000
# 3 -0.007420 0.001004 0.020072 0.000000 0.000004 0.000000
# 4 0.000000 0.000000 0.000000 0.026973 0.000000 0.005095
# 5 0.001417 -0.009300 0.000004 0.000000 0.034525 0.000000
# 6 0.000000 0.000000 0.000000 0.005095 0.000000 0.066967
#
#
# Mechanical properties :
#
#
# Convention : Reuss Voigt Hill
#
# Bulk Modulus (GPa) = 29.92888 32.63587 31.28238
# Shear Modulus (GPa) = 23.17858 27.95820 25.56839
#
# Velocity S-wave (km/s) = 3.18985 3.50334 3.35026
# Velocity P-wave (km/s) = 5.16772 5.53997 5.35708
#
# Compressibility (1/GPa) = 0.03341254
#
# Stress axis : x y z
#
# Youngs Moduli (GPa) = 55.75476 59.67939 49.82176
#
# Poissons Ratio (x) = 0.25418 0.36969
# Poissons Ratio (y) = 0.23747 -0.05002
# Poissons Ratio (z) = 0.41371 -0.05991
#
# Static dielectric constant tensor:
#      x y z
#    x 1.953520 0.000000 0.045840 
#    y 0.000000 1.876060 0.000000 
#    z 0.045840 0.000000 1.870360 
# 
# From -- ./inp_files/57199.got.cif
#   From: 2010.05.17/outbox.cif.g08.bks.cpg/sg5_29_cif.got.tgz:57199.got - 2010.06.03 18:56:24.
