data_PCOD9123136
_publ_section_title
;
Structure prediction by ZEFSAII (Michael W. Deem and Ramdas Pophale) SiO2 
 PCOD9123136
Probable space group: C 2
;
_chemical_formula_sum "Si O2"
_cell_formula_units_Z 28
_cell_length_a 10.193656
_cell_length_b 13.162751
_cell_length_c 19.458434
_cell_angle_alpha 90.000000
_cell_angle_beta 34.051160
_cell_angle_gamma 90.000000
_cell_volume 1461.909673
_symmetry_space_group_name_H-M "C 2"
_symmetry_group_IT_number 5
_symmetry_cell_setting 'monoclinic'
loop_
_space_group_symop_operation_xyz
x,y,z
-x,y,-z
1/2+x,1/2+y,z
1/2-x,1/2+y,-z
loop_
_atom_site_type_symbol
_atom_site_label
_atom_site_fract_x
_atom_site_fract_y
_atom_site_fract_z
Si Si1 0.464234 0.958230 0.837894
Si Si2 0.312585 0.980730 0.522299
Si Si3 0.069310 0.812170 0.047247
Si Si4 0.949519 0.350373 0.698240
Si Si5 0.610361 0.340648 0.271318
Si Si6 0.342120 0.203042 0.500774
Si Si7 0.233220 0.679969 0.096093
O O1 0.491538 0.907464 0.751401
O O2 0.667097 0.905611 0.796541
O O3 0.430726 0.079233 0.840009
O O4 0.219920 0.914245 0.973363
O O5 0.500000 0.993228 0.500000
O O6 0.431535 0.912127 0.413713
O O7 0.086812 0.927106 0.652859
O O8 0.281049 0.090549 0.502359
O O9 0.217208 0.733902 0.028568
O O10 0.825177 0.833320 0.190829
O O11 0.000000 0.776547 0.000000
O O12 0.094456 0.247498 0.632437
O O13 0.489499 0.267611 0.381280
O O14 0.663019 0.266302 0.183664
O O15 0.500000 0.203251 0.500000
O O16 0.500000 0.649560 0.000000
#
# Coordination Sequence:
#
# PCOD9123136 Si02
#       7
#     4   4   4   4   4   4   4
#     4  11  23  42  67  97 130 178 225 275 346 403
#     4  10  22  38  60  94 126 173 221 275 339 394
#     4  10  23  44  64  96 131 172 227 278 336 412
#     4  10  20  39  62  87 129 168 214 276 329 407
#     4  11  23  42  65 100 135 172 230 280 329 414
#     4  10  20  37  63  88 126 169 214 274 333 393
#     4  12  24  43  69  99 139 179 224 284 343 401
#
# _framework density 19.153032
#
# number of rings (size 3 to 8) (size 9 to 14) (size 15 to 20)
#    0.000    1.429    2.857    3.000    2.000    0.000 
#    2.571    0.000    0.000    0.000    0.000    0.000 
#    0.000    0.000    0.000    0.000    0.000    0.000 
#
# Total GULP energy -77996.042122 kJ/mol
# GULP energy per Si atom -5571.145866 kJ/mol
# Density = 1.910944 g / cm^3
# Si number density = 19.153032 Si / 1000 Ang^3
#
#
#
# Elastic Constant Matrix: (Units=GPa)
#
#
# Indices 1 2 3 4 5 6 
#
# 1 77.9185 42.6756 24.3666 0.0001 -11.1895 0.0007
# 2 42.6756 90.4076 23.0006 -0.0010 -17.0291 0.0011
# 3 24.3666 23.0006 85.0186 -0.0007 -25.0384 0.0016
# 4 0.0001 -0.0010 -0.0007 36.0796 0.0001 2.4462
# 5 -11.1895 -17.0291 -25.0384 0.0001 22.8111 -0.0006
# 6 0.0007 0.0011 0.0016 2.4462 -0.0006 25.4678
#
#
#
# Elastic Compliance Matrix: (Units=1/GPa)
#
#
# Indices 1 2 3 4 5 6 
#
# 1 0.018031 -0.007788 -0.003204 0.000000 -0.000486 0.000000
# 2 -0.007788 0.016288 0.000416 0.000000 0.008796 0.000000
# 3 -0.003204 0.000416 0.018022 0.000000 0.018521 -0.000001
# 4 0.000000 0.000000 0.000000 0.027898 0.000000 -0.002680
# 5 -0.000486 0.008796 0.018521 0.000000 0.070496 0.000000
# 6 0.000000 0.000000 -0.000001 -0.002680 0.000000 0.039523
#
#
# Mechanical properties :
#
#
# Convention : Reuss Voigt Hill
#
# Bulk Modulus (GPa) = 32.06153 48.15893 40.11023
# Shear Modulus (GPa) = 22.54212 27.75852 25.15032
#
# Velocity S-wave (km/s) = 3.43439 3.81110 3.62764
# Velocity P-wave (km/s) = 5.70111 6.67569 6.20756
#
# Compressibility (1/GPa) = 0.03119003
#
# Stress axis : x y z
#
# Youngs Moduli (GPa) = 55.45850 61.39445 55.48650
#
# Poissons Ratio (x) = 0.47813 0.17778
# Poissons Ratio (y) = 0.43190 -0.02308
# Poissons Ratio (z) = 0.17769 -0.02554
#
# Static dielectric constant tensor:
#      x y z
#    x 1.696350 0.000000 -0.022700 
#    y 0.000000 1.723970 0.000000 
#    z -0.022700 0.000000 1.649880 
# 
# From -- ./inp_files/46373.got.cif
#   From: 2010.05.17/outbox.cif.g08.bks.cpg/sg5_24_cif.got.tgz:46373.got - 2010.06.03 18:56:24.
