data_PCOD9123748
_publ_section_title
;
Structure prediction by ZEFSAII (Michael W. Deem and Ramdas Pophale) SiO2 
 PCOD9123748
Probable space group: C 2
;
_chemical_formula_sum "Si O2"
_cell_formula_units_Z 30
_cell_length_a 11.104009
_cell_length_b 12.034236
_cell_length_c 10.850741
_cell_angle_alpha 90.000000
_cell_angle_beta 99.842340
_cell_angle_gamma 90.000000
_cell_volume 1428.624879
_symmetry_space_group_name_H-M "C 2"
_symmetry_group_IT_number 5
_symmetry_cell_setting 'monoclinic'
loop_
_space_group_symop_operation_xyz
x,y,z
-x,y,-z
1/2+x,1/2+y,z
1/2-x,1/2+y,-z
loop_
_atom_site_type_symbol
_atom_site_label
_atom_site_fract_x
_atom_site_fract_y
_atom_site_fract_z
Si Si1 0.243322 0.813430 0.209407
Si Si2 0.227728 0.565592 0.803746
Si Si3 0.751585 0.472306 0.745308
Si Si4 0.252151 0.754094 0.619651
Si Si5 0.639768 0.432709 0.983399
Si Si6 0.500000 0.190436 0.500000
Si Si7 0.625160 0.666464 0.594553
Si Si8 0.952800 0.637470 0.754586
O O1 0.218892 0.833540 0.059999
O O2 0.353325 0.735716 0.275493
O O3 0.116746 0.755009 0.234243
O O4 0.271785 0.940658 0.255071
O O5 0.280588 0.649883 0.712402
O O6 0.093226 0.613549 0.813381
O O7 0.308630 0.543006 0.938727
O O8 0.802661 0.363866 0.688876
O O9 0.666536 0.439922 0.844819
O O10 0.675312 0.545628 0.635597
O O11 0.864415 0.549584 0.805013
O O12 0.293534 0.732558 0.489294
O O13 0.105311 0.761455 0.582609
O O14 0.500000 0.418686 0.000000
O O15 0.449082 0.119104 0.605224
O O16 0.500000 0.660001 0.500000
#
# Coordination Sequence:
#
# PCOD9123748 Si02
#       8
#     4   4   4   4   4   2   4   4
#     4   9  22  46  68 100 138 189 246 288 367 425
#     4   9  24  43  69 100 135 187 241 296 357 430
#     4  11  26  43  66 104 134 189 245 287 377 435
#     4  11  24  38  68  99 131 179 227 296 356 434
#     4  10  25  45  70 100 143 188 243 309 359 440
#     4  10  20  40  60  98 126 174 224 276 348 434
#     4  11  26  43  68 102 146 188 226 304 376 436
#     4  10  21  44  69  98 141 183 235 296 359 435
#
# _framework density 20.999215
#
# number of rings (size 3 to 8) (size 9 to 14) (size 15 to 20)
#    0.800    1.067    2.667    0.000   10.267    2.667 
#    1.200    0.000    0.000    0.000    0.000    0.000 
#    0.000    0.000    0.000    0.000    0.000    0.000 
#
# Total GULP energy -83508.093380 kJ/mol
# GULP energy per Si atom -5567.206225 kJ/mol
# Density = 2.095142 g / cm^3
# Si number density = 20.999215 Si / 1000 Ang^3
#
#
#
# Elastic Constant Matrix: (Units=GPa)
#
#
# Indices 1 2 3 4 5 6 
#
# 1 47.7965 -5.4894 10.5342 0.0000 7.8793 0.0000
# 2 -5.4894 80.6849 3.5490 0.0000 2.0999 0.0000
# 3 10.5342 3.5490 61.4556 0.0000 -3.7155 0.0000
# 4 0.0000 0.0000 0.0000 30.2453 0.0000 5.0735
# 5 7.8793 2.0999 -3.7155 0.0000 37.2814 0.0000
# 6 0.0000 0.0000 0.0000 5.0735 0.0000 20.5724
#
#
#
# Elastic Compliance Matrix: (Units=1/GPa)
#
#
# Indices 1 2 3 4 5 6 
#
# 1 0.022996 0.001898 -0.004378 0.000000 -0.005403 0.000000
# 2 0.001898 0.012604 -0.001127 0.000000 -0.001223 0.000000
# 3 -0.004378 -0.001127 0.017251 0.000000 0.002708 0.000000
# 4 0.000000 0.000000 0.000000 0.034490 0.000000 -0.008506
# 5 -0.005403 -0.001223 0.002708 0.000000 0.028304 0.000000
# 6 0.000000 0.000000 0.000000 -0.008506 0.000000 0.050707
#
#
# Mechanical properties :
#
#
# Convention : Reuss Voigt Hill
#
# Bulk Modulus (GPa) = 21.91235 23.01384 22.46309
# Shear Modulus (GPa) = 26.48608 29.70935 28.09771
#
# Velocity S-wave (km/s) = 3.55532 3.76544 3.66189
# Velocity P-wave (km/s) = 5.22601 5.46698 5.34785
#
# Compressibility (1/GPa) = 0.04563637
#
# Stress axis : x y z
#
# Youngs Moduli (GPa) = 43.48650 79.33718 57.96706
#
# Poissons Ratio (x) = -0.15056 0.25378
# Poissons Ratio (y) = -0.08253 0.06534
# Poissons Ratio (z) = 0.19038 0.08943
#
# Static dielectric constant tensor:
#      x y z
#    x 1.843800 0.000000 0.033000 
#    y 0.000000 1.762400 0.000000 
#    z 0.033000 0.000000 1.785830 
# 
# From -- ./inp_files/38873.got.cif
#   From: 2010.05.17/outbox.cif.g08.bks.cpg/sg5_20_cif.got.tgz:38873.got - 2010.06.03 18:56:24.
