data_PCOD9123586
_publ_section_title
;
Structure prediction by ZEFSAII (Michael W. Deem and Ramdas Pophale) SiO2 
 PCOD9123586
Probable space group: C 2
;
_chemical_formula_sum "Si O2"
_cell_formula_units_Z 18
_cell_length_a 4.852400
_cell_length_b 14.756267
_cell_length_c 10.545994
_cell_angle_alpha 90.000000
_cell_angle_beta 93.640892
_cell_angle_gamma 90.000000
_cell_volume 753.603973
_symmetry_space_group_name_H-M "C 2"
_symmetry_group_IT_number 5
_symmetry_cell_setting 'monoclinic'
loop_
_space_group_symop_operation_xyz
x,y,z
-x,y,-z
1/2+x,1/2+y,z
1/2-x,1/2+y,-z
loop_
_atom_site_type_symbol
_atom_site_label
_atom_site_fract_x
_atom_site_fract_y
_atom_site_fract_z
Si Si1 0.323647 0.014520 0.372438
Si Si2 0.077943 0.426844 0.139057
Si Si3 0.500000 0.851183 0.500000
Si Si4 0.076969 0.799137 0.140775
Si Si5 0.814149 0.707414 0.367971
O O1 0.500000 0.042826 0.500000
O O2 0.165824 0.108867 0.346221
O O3 0.500435 0.991255 0.253368
O O4 0.260601 0.914552 0.428149
O O5 0.885139 0.337270 0.141379
O O6 0.389923 0.390831 0.152483
O O7 0.000000 0.468155 0.000000
O O8 0.604623 0.787870 0.391724
O O9 0.994798 0.731829 0.250447
O O10 0.000000 0.761273 0.000000
O O11 0.000000 0.713041 0.500000
#
# Coordination Sequence:
#
# PCOD9123586 Si02
#       5
#     4   4   2   4   4
#     4   9  20  39  58  93 120 165 212 258 314 381
#     4  10  20  39  62  90 125 168 207 259 320 376
#     4  10  20  42  58  84 132 154 212 264 316 362
#     4  10  21  38  64  90 125 168 209 258 322 375
#     4  11  22  38  64  89 124 169 213 258 321 379
#
# _framework density 23.885223
#
# number of rings (size 3 to 8) (size 9 to 14) (size 15 to 20)
#    0.667    1.333    2.222    1.333    0.000    0.889 
#   14.000    0.000    0.000    8.000    0.000    0.000 
#    0.000    0.000    0.000    0.000    0.000    0.000 
#
# Total GULP energy -50105.336595 kJ/mol
# GULP energy per Si atom -5567.259622 kJ/mol
# Density = 2.383086 g / cm^3
# Si number density = 23.885223 Si / 1000 Ang^3
#
#
#
# Elastic Constant Matrix: (Units=GPa)
#
#
# Indices 1 2 3 4 5 6 
#
# 1 48.9224 9.1337 12.1979 0.0000 -8.4092 0.0000
# 2 9.1337 144.1745 34.2898 0.0000 -15.1369 0.0000
# 3 12.1979 34.2898 212.0433 0.0000 -7.9914 0.0000
# 4 0.0000 0.0000 0.0000 141.9558 0.0000 10.5858
# 5 -8.4092 -15.1369 -7.9914 0.0000 32.3207 0.0000
# 6 0.0000 0.0000 0.0000 10.5858 0.0000 2.5872
#
#
#
# Elastic Compliance Matrix: (Units=1/GPa)
#
#
# Indices 1 2 3 4 5 6 
#
# 1 0.021672 -0.000608 -0.000955 0.000000 0.005117 0.000000
# 2 -0.000608 0.007556 -0.001069 0.000000 0.003116 0.000000
# 3 -0.000955 -0.001069 0.004962 0.000000 0.000477 0.000000
# 4 0.000000 0.000000 0.000000 0.010138 0.000000 -0.041479
# 5 0.005117 0.003116 0.000477 0.000000 0.033849 0.000000
# 6 0.000000 0.000000 0.000000 -0.041479 0.000000 0.556229
#
#
# Mechanical properties :
#
#
# Convention : Reuss Voigt Hill
#
# Bulk Modulus (GPa) = 34.57420 57.37588 45.97504
# Shear Modulus (GPa) = 7.70044 58.67399 33.18722
#
# Velocity S-wave (km/s) = 1.79748 4.96168 3.73157
# Velocity P-wave (km/s) = 4.33757 7.54308 6.15274
#
# Compressibility (1/GPa) = 0.02892330
#
# Stress axis : x y z
#
# Youngs Moduli (GPa) = 46.14254 132.34346 201.53496
#
# Poissons Ratio (x) = 0.08052 0.19255
# Poissons Ratio (y) = 0.02807 0.21554
# Poissons Ratio (z) = 0.04409 0.14154
#
# Static dielectric constant tensor:
#      x y z
#    x 1.941010 0.000000 0.052160 
#    y 0.000000 2.072160 0.000000 
#    z 0.052160 0.000000 1.949760 
# 
# From -- ./inp_files/33064.got.cif
#   From: 2010.05.17/outbox.cif.g08.bks.cpg/sg5_17_cif.got.tgz:33064.got - 2010.06.03 18:56:24.
