data_PCOD9123212
_publ_section_title
;
Structure prediction by ZEFSAII (Michael W. Deem and Ramdas Pophale) SiO2 
 PCOD9123212
Probable space group: C 2
;
_chemical_formula_sum "Si O2"
_cell_formula_units_Z 32
_cell_length_a 15.302691
_cell_length_b 19.393209
_cell_length_c 8.545159
_cell_angle_alpha 90.000000
_cell_angle_beta 37.180198
_cell_angle_gamma 90.000000
_cell_volume 1532.524146
_symmetry_space_group_name_H-M "C 2"
_symmetry_group_IT_number 5
_symmetry_cell_setting 'monoclinic'
loop_
_space_group_symop_operation_xyz
x,y,z
-x,y,-z
1/2+x,1/2+y,z
1/2-x,1/2+y,-z
loop_
_atom_site_type_symbol
_atom_site_label
_atom_site_fract_x
_atom_site_fract_y
_atom_site_fract_z
Si Si1 0.075809 0.475170 0.133757
Si Si2 0.330031 0.732936 0.756586
Si Si3 0.849699 0.766571 0.283194
Si Si4 0.840281 0.646506 0.512168
Si Si5 0.570353 0.397188 0.644252
Si Si6 0.788023 0.510158 0.400461
Si Si7 0.217467 0.858075 0.102821
Si Si8 0.670862 0.114831 0.122913
O O1 0.141925 0.499178 0.871271
O O2 0.136879 0.402488 0.099982
O O3 0.140443 0.533729 0.153866
O O4 0.903736 0.475543 0.355059
O O5 0.500000 0.739677 0.500000
O O6 0.263938 0.761052 0.691088
O O7 0.255405 0.780536 0.997436
O O8 0.283592 0.653693 0.851244
O O9 0.803082 0.720253 0.495724
O O10 0.883030 0.842792 0.292319
O O11 0.000000 0.736564 0.000000
O O12 0.790469 0.588504 0.458567
O O13 0.782809 0.631521 0.766744
O O14 0.013822 0.644124 0.294197
O O15 0.635601 0.470800 0.602073
O O16 0.647429 0.370495 0.373775
O O17 0.400819 0.390120 0.848057
#
# Coordination Sequence:
#
# PCOD9123212 Si02
#       8
#     4   4   4   4   4   4   4   4
#     4   9  19  36  61  86 126 161 197 242 300 364
#     4  12  26  41  60  90 125 162 201 253 305 359
#     4  12  22  39  64  90 116 158 206 251 300 358
#     4  10  20  37  67  91 117 156 207 252 297 361
#     4  10  21  39  64  91 120 156 204 249 300 361
#     4   9  19  35  61  92 118 159 202 248 295 357
#     4  10  21  41  61  89 123 162 197 246 307 360
#     4  10  20  40  61  92 120 158 204 250 302 357
#
# _framework density 20.880583000000001
#
# number of rings (size 3 to 8) (size 9 to 14) (size 15 to 20)
#    0.000    1.750    2.500    1.500    3.500    3.000 
#    9.000    1.875    0.000    0.000    0.000    0.000 
#    0.000    0.000    0.000    0.000    0.000    0.000 
#
# Total GULP energy -89286.724699 kJ/mol
# GULP energy per Si atom -5580.420294 kJ/mol
# Density = 2.083306 g / cm^3
# Si number density = 20.880583 Si / 1000 Ang^3
#
#
#
# Elastic Constant Matrix: (Units=GPa)
#
#
# Indices 1 2 3 4 5 6 
#
# 1 83.7321 10.6388 23.1033 0.0001 1.4537 -0.0003
# 2 10.6388 38.6383 -3.5529 0.0003 2.0145 -0.0001
# 3 23.1033 -3.5529 25.0759 0.0006 -12.8305 -0.0004
# 4 0.0001 0.0003 0.0006 9.0071 0.0000 1.1731
# 5 1.4537 2.0145 -12.8305 0.0000 31.9870 0.0003
# 6 -0.0003 -0.0001 -0.0004 1.1731 0.0003 34.4860
#
#
#
# Elastic Compliance Matrix: (Units=1/GPa)
#
#
# Indices 1 2 3 4 5 6 
#
# 1 0.019797 -0.007169 -0.024516 0.000002 -0.010282 0.000000
# 2 -0.007169 0.028820 0.012490 -0.000002 0.003521 0.000000
# 3 -0.024516 0.012490 0.081036 -0.000005 0.032832 0.000001
# 4 0.000002 -0.000002 -0.000005 0.111518 -0.000002 -0.003793
# 5 -0.010282 0.003521 0.032832 -0.000002 0.044678 0.000000
# 6 0.000000 0.000000 0.000001 -0.003793 0.000000 0.029126
#
#
# Mechanical properties :
#
#
# Convention : Reuss Voigt Hill
#
# Bulk Modulus (GPa) = 10.95752 23.09164 17.02458
# Shear Modulus (GPa) = 13.02810 22.91314 17.97062
#
# Velocity S-wave (km/s) = 2.50058 3.31621 2.93685
# Velocity P-wave (km/s) = 3.68731 5.07404 4.43521
#
# Compressibility (1/GPa) = 0.09126151
#
# Stress axis : x y z
#
# Youngs Moduli (GPa) = 50.51325 34.69817 12.34024
#
# Poissons Ratio (x) = 0.24876 0.30254
# Poissons Ratio (y) = 0.36214 -0.15413
# Poissons Ratio (z) = 1.23840 -0.43338
#
# Static dielectric constant tensor:
#      x y z
#    x 1.741310 0.000000 0.019100 
#    y 0.000000 1.731110 0.000000 
#    z 0.019100 0.000000 1.800430 
# 
# From -- ./inp_files/25408.got.cif
#   From: 2010.05.17/outbox.cif.g08.bks.cpg/sg5_13_cif.got.tgz:25408.got - 2010.06.03 18:56:24.
