data_PCOD9123125
_publ_section_title
;
Structure prediction by ZEFSAII (Michael W. Deem and Ramdas Pophale) SiO2 
 PCOD9123125
Probable space group: C 2
;
_chemical_formula_sum "Si O2"
_cell_formula_units_Z 28
_cell_length_a 8.090677
_cell_length_b 13.400293
_cell_length_c 15.177060
_cell_angle_alpha 90.000000
_cell_angle_beta 127.096774
_cell_angle_gamma 90.000000
_cell_volume 1312.446762
_symmetry_space_group_name_H-M "C 2"
_symmetry_group_IT_number 5
_symmetry_cell_setting 'monoclinic'
loop_
_space_group_symop_operation_xyz
x,y,z
-x,y,-z
1/2+x,1/2+y,z
1/2-x,1/2+y,-z
loop_
_atom_site_type_symbol
_atom_site_label
_atom_site_fract_x
_atom_site_fract_y
_atom_site_fract_z
Si Si1 0.038093 0.337170 0.203362
Si Si2 0.170100 0.702367 0.128047
Si Si3 0.285821 0.036915 0.163562
Si Si4 0.500000 0.537146 0.500000
Si Si5 0.511919 0.342997 0.408246
Si Si6 0.377552 0.176273 0.683537
Si Si7 0.826909 0.021781 0.068477
Si Si8 0.500000 0.851743 0.000000
O O1 0.274739 0.347345 0.303142
O O2 0.880848 0.264814 0.200685
O O3 0.936816 0.444802 0.189465
O O4 0.034704 0.296918 0.101837
O O5 0.098405 0.698850 0.205126
O O6 0.240941 0.594702 0.115399
O O7 0.000000 0.739570 0.000000
O O8 0.410869 0.114118 0.263913
O O9 0.072489 0.005581 0.142215
O O10 0.228504 0.069350 0.044878
O O11 0.582157 0.456500 0.453241
O O12 0.681905 0.605701 0.597992
O O13 0.500000 0.290723 0.500000
O O14 0.633060 0.276337 0.377584
O O15 0.699622 0.920780 0.043827
#
# Coordination Sequence:
#
# PCOD9123125 Si02
#       8
#     4   4   4   2   4   4   4   2
#     4  11  24  40  63 101 145 183 242 295 362 433
#     4  12  25  39  64 107 147 184 238 293 356 454
#     4  10  20  40  64  98 135 192 231 292 360 428
#     4  10  26  50  80  96 146 188 248 316 362 416
#     4  10  25  48  72 102 138 183 253 303 352 441
#     4  12  24  47  78 101 144 192 235 306 376 414
#     4  10  20  37  62  93 140 180 237 276 354 444
#     4  10  22  38  64  92 136 196 222 294 372 420
#
# _framework density 21.334198000000001
#
# number of rings (size 3 to 8) (size 9 to 14) (size 15 to 20)
#    0.429    0.857    3.571    1.714    8.000    1.143 
#    0.000    0.000    0.000    0.000    0.000    0.000 
#    0.000    0.000    0.000    0.000    0.000    0.000 
#
# Total GULP energy -78101.807757 kJ/mol
# GULP energy per Si atom -5578.700554 kJ/mol
# Density = 2.128564 g / cm^3
# Si number density = 21.334198 Si / 1000 Ang^3
#
#
#
# Elastic Constant Matrix: (Units=GPa)
#
#
# Indices 1 2 3 4 5 6 
#
# 1 82.2085 14.5687 22.3103 0.0000 -8.9975 0.0000
# 2 14.5687 57.2240 23.6818 0.0000 -2.7982 0.0000
# 3 22.3103 23.6818 65.4112 0.0000 -3.0573 0.0000
# 4 0.0000 0.0000 0.0000 2.1673 0.0000 2.5011
# 5 -8.9975 -2.7982 -3.0573 0.0000 24.9247 0.0000
# 6 0.0000 0.0000 0.0000 2.5011 0.0000 31.1857
#
#
#
# Elastic Compliance Matrix: (Units=1/GPa)
#
#
# Indices 1 2 3 4 5 6 
#
# 1 0.014022 -0.001719 -0.003955 0.000000 0.004384 0.000000
# 2 -0.001719 0.020814 -0.006909 0.000000 0.000869 0.000000
# 3 -0.003955 -0.006909 0.019145 0.000000 0.000145 0.000000
# 4 0.000000 0.000000 0.000000 0.508469 0.000000 -0.040779
# 5 0.004384 0.000869 0.000145 0.000000 0.041819 0.000000
# 6 0.000000 0.000000 0.000000 -0.040779 0.000000 0.035336
#
#
# Mechanical properties :
#
#
# Convention : Reuss Voigt Hill
#
# Bulk Modulus (GPa) = 34.70355 36.21837 35.46096
# Shear Modulus (GPa) = 7.41425 21.27439 14.34432
#
# Velocity S-wave (km/s) = 1.86624 3.16127 2.59581
# Velocity P-wave (km/s) = 4.57665 5.50803 5.06380
#
# Compressibility (1/GPa) = 0.02881550
#
# Stress axis : x y z
#
# Youngs Moduli (GPa) = 71.31648 48.04353 52.23247
#
# Poissons Ratio (x) = 0.08257 0.20661
# Poissons Ratio (y) = 0.12256 0.36087
# Poissons Ratio (z) = 0.28209 0.33193
#
# Static dielectric constant tensor:
#      x y z
#    x 1.769930 0.000000 -0.017250 
#    y 0.000000 1.824920 0.000000 
#    z -0.017250 0.000000 1.764300 
# 
# From -- ./inp_files/50989.got.cif
#   From: 2010.05.17/outbox.cif.g08.bks.cpg/sg5_26_cif.got.tgz:50989.got - 2010.06.03 18:56:24.
