data_PCOD9123310
_publ_section_title
;
Structure prediction by ZEFSAII (Michael W. Deem and Ramdas Pophale) SiO2 
 PCOD9123310
Probable space group: C 2
;
_chemical_formula_sum "Si O2"
_cell_formula_units_Z 26
_cell_length_a 18.087524
_cell_length_b 9.284846
_cell_length_c 7.051563
_cell_angle_alpha 90.000000
_cell_angle_beta 58.130613
_cell_angle_gamma 90.000000
_cell_volume 1005.719268
_symmetry_space_group_name_H-M "C 2"
_symmetry_group_IT_number 5
_symmetry_cell_setting 'monoclinic'
loop_
_space_group_symop_operation_xyz
x,y,z
-x,y,-z
1/2+x,1/2+y,z
1/2-x,1/2+y,-z
loop_
_atom_site_type_symbol
_atom_site_label
_atom_site_fract_x
_atom_site_fract_y
_atom_site_fract_z
Si Si1 0.922896 0.190380 0.221155
Si Si2 0.830219 0.681841 0.989496
Si Si3 0.831707 0.908548 0.446932
Si Si4 0.024175 0.668329 0.746712
Si Si5 0.172552 0.991035 0.121533
Si Si6 0.347586 0.966706 0.313906
Si Si7 0.500000 0.648782 0.500000
O O1 0.898658 0.335957 0.146170
O O2 0.952932 0.229447 0.392931
O O3 0.852548 0.067376 0.342127
O O4 0.000000 0.119655 0.000000
O O5 0.825528 0.854656 0.020669
O O6 0.929880 0.665735 0.775164
O O7 0.748317 0.610342 0.989505
O O8 0.826527 0.593993 0.193413
O O9 0.918894 0.813875 0.325206
O O10 0.810468 0.913981 0.699734
O O11 0.735880 0.881431 0.495146
O O12 0.093109 0.543379 0.609705
O O13 0.000000 0.641710 0.000000
O O14 0.076956 0.058813 0.289574
#
# Coordination Sequence:
#
# PCOD9123310 Si02
#       7
#     4   4   4   4   4   4   2
#     4  11  22  41  68  95 131 174 218 277 336 399
#     4  10  21  39  63  91 127 180 227 274 341 401
#     4  10  21  39  63  95 129 173 224 271 336 406
#     4  10  20  38  61  87 124 167 220 276 333 406
#     4  10  22  41  64  92 137 177 226 289 338 408
#     4  10  22  40  63  94 131 172 226 278 333 404
#     4  10  24  44  68 104 136 174 230 282 346 412
#
# _framework density 25.852143000000002
#
# number of rings (size 3 to 8) (size 9 to 14) (size 15 to 20)
#    0.000    1.846    0.000    4.615    0.000    6.154 
#    0.000   10.769    0.000    0.923    0.000    0.000 
#    0.000    0.000    0.000    0.000    0.000    0.000 
#
# Total GULP energy -72499.122260 kJ/mol
# GULP energy per Si atom -5576.855558 kJ/mol
# Density = 2.579330 g / cm^3
# Si number density = 25.852143 Si / 1000 Ang^3
#
#
#
# Elastic Constant Matrix: (Units=GPa)
#
#
# Indices 1 2 3 4 5 6 
#
# 1 102.2700 49.7306 34.5826 0.0000 -51.1197 0.0000
# 2 49.7306 148.5744 35.5022 0.0000 -26.7098 0.0000
# 3 34.5826 35.5022 84.8535 0.0000 -29.9076 0.0000
# 4 0.0000 0.0000 0.0000 26.5557 0.0000 -4.0202
# 5 -51.1197 -26.7098 -29.9076 0.0000 51.9476 0.0000
# 6 0.0000 0.0000 0.0000 -4.0202 0.0000 27.2824
#
#
#
# Elastic Compliance Matrix: (Units=1/GPa)
#
#
# Indices 1 2 3 4 5 6 
#
# 1 0.020900 -0.003554 -0.000534 0.000000 0.018432 0.000000
# 2 -0.003554 0.008365 -0.002218 0.000000 -0.000474 0.000000
# 3 -0.000534 -0.002218 0.015486 0.000000 0.007249 0.000000
# 4 0.000000 0.000000 0.000000 0.038516 0.000000 0.005676
# 5 0.018432 -0.000474 0.007249 0.000000 0.041319 0.000000
# 6 0.000000 0.000000 0.000000 0.005676 0.000000 0.037490
#
#
# Mechanical properties :
#
#
# Convention : Reuss Voigt Hill
#
# Bulk Modulus (GPa) = 31.11625 63.92538 47.52081
# Shear Modulus (GPa) = 26.96826 35.54929 31.25878
#
# Velocity S-wave (km/s) = 3.23332 3.71226 3.48104
# Velocity P-wave (km/s) = 5.09917 6.56928 5.88035
#
# Compressibility (1/GPa) = 0.03213755
#
# Stress axis : x y z
#
# Youngs Moduli (GPa) = 47.84582 119.54176 64.57431
#
# Poissons Ratio (x) = 0.42491 0.03450
# Poissons Ratio (y) = 0.17007 0.14325
# Poissons Ratio (z) = 0.02556 0.26518
#
# Static dielectric constant tensor:
#      x y z
#    x 2.257690 0.000000 0.034110 
#    y 0.000000 2.008920 0.000000 
#    z 0.034110 0.000000 2.036930 
# 
# From -- ./inp_files/29114.got.cif
#   From: 2010.05.17/outbox.cif.g08.bks.cpg/sg5_15_cif.got.tgz:29114.got - 2010.06.03 18:56:24.
