data_PCOD9123766
_publ_section_title
;
Structure prediction by ZEFSAII (Michael W. Deem and Ramdas Pophale) SiO2 
 PCOD9123766
Probable space group: C 2
;
_chemical_formula_sum "Si O2"
_cell_formula_units_Z 24
_cell_length_a 20.066091
_cell_length_b 8.976981
_cell_length_c 8.766148
_cell_angle_alpha 90.000000
_cell_angle_beta 127.701300
_cell_angle_gamma 90.000000
_cell_volume 1249.376871
_symmetry_space_group_name_H-M "C 2"
_symmetry_group_IT_number 5
_symmetry_cell_setting 'monoclinic'
loop_
_space_group_symop_operation_xyz
x,y,z
-x,y,-z
1/2+x,1/2+y,z
1/2-x,1/2+y,-z
loop_
_atom_site_type_symbol
_atom_site_label
_atom_site_fract_x
_atom_site_fract_y
_atom_site_fract_z
Si Si1 0.588094 0.837340 0.192059
Si Si2 0.912026 0.246021 0.452347
Si Si3 0.176944 0.959554 0.724238
Si Si4 0.739635 0.189405 0.653389
Si Si5 0.263184 0.389806 0.860287
Si Si6 0.672936 0.131948 0.232374
O O1 0.591318 0.801357 0.377097
O O2 0.665877 0.752805 0.222228
O O3 0.600904 0.012368 0.168831
O O4 0.500000 0.786070 0.000000
O O5 0.828415 0.310732 0.251217
O O6 0.000000 0.292332 0.500000
O O7 0.901139 0.066717 0.421937
O O8 0.179830 0.787424 0.678541
O O9 0.250346 0.033290 0.724998
O O10 0.203722 0.960979 0.937759
O O11 0.701954 0.200457 0.432473
O O12 0.746836 0.020291 0.716785
O O13 0.329998 0.268397 0.890415
#
# Coordination Sequence:
#
# PCOD9123766 Si02
#       6
#     4   4   4   4   4   4
#     4  11  24  40  63  93 124 166 209 267 316 371
#     4  11  24  42  59  94 133 163 206 264 326 373
#     4  10  22  37  62  94 125 164 214 253 313 385
#     4  11  19  40  67  89 121 168 218 261 308 374
#     4  11  21  39  67  94 122 169 211 264 313 382
#     4  10  20  40  62  90 123 164 219 256 303 380
#
# _framework density 19.209575999999998
#
# number of rings (size 3 to 8) (size 9 to 14) (size 15 to 20)
#    0.000    1.333    5.000    3.000    7.000    0.000 
#    0.000    3.333    0.000    0.000    0.000    0.000 
#    0.000    0.000    0.000    0.000    0.000    0.000 
#
# Total GULP energy -66894.011703 kJ/mol
# GULP energy per Si atom -5574.500975 kJ/mol
# Density = 1.916585 g / cm^3
# Si number density = 19.209576 Si / 1000 Ang^3
#
#
#
# Elastic Constant Matrix: (Units=GPa)
#
#
# Indices 1 2 3 4 5 6 
#
# 1 74.8641 26.3698 23.1735 0.0000 4.9400 0.0000
# 2 26.3698 78.2672 -3.0881 0.0000 10.8633 0.0000
# 3 23.1735 -3.0881 57.2014 0.0000 -3.2466 0.0000
# 4 0.0000 0.0000 0.0000 31.0945 0.0000 -5.0971
# 5 4.9400 10.8633 -3.2466 0.0000 21.2182 0.0000
# 6 0.0000 0.0000 0.0000 -5.0971 0.0000 7.1033
#
#
#
# Elastic Compliance Matrix: (Units=1/GPa)
#
#
# Indices 1 2 3 4 5 6 
#
# 1 0.018052 -0.006072 -0.007771 0.000000 -0.002283 0.000000
# 2 -0.006072 0.015803 0.002960 0.000000 -0.006224 0.000000
# 3 -0.007771 0.002960 0.020989 0.000000 0.003505 0.000000
# 4 0.000000 0.000000 0.000000 0.036447 0.000000 0.026153
# 5 -0.002283 -0.006224 0.003505 0.000000 0.051384 0.000000
# 6 0.000000 0.000000 0.000000 0.026153 0.000000 0.159546
#
#
# Mechanical properties :
#
#
# Convention : Reuss Voigt Hill
#
# Bulk Modulus (GPa) = 30.23102 33.69368 31.96235
# Shear Modulus (GPa) = 14.92477 22.80837 18.86657
#
# Velocity S-wave (km/s) = 2.79040 3.44952 3.13732
# Velocity P-wave (km/s) = 5.11404 5.78306 5.45881
#
# Compressibility (1/GPa) = 0.03307861
#
# Stress axis : x y z
#
# Youngs Moduli (GPa) = 55.39455 63.27835 47.64408
#
# Poissons Ratio (x) = 0.38422 0.37023
# Poissons Ratio (y) = 0.33635 -0.14101
# Poissons Ratio (z) = 0.43046 -0.18729
#
# Static dielectric constant tensor:
#      x y z
#    x 1.725350 0.000000 0.019170 
#    y 0.000000 1.733020 0.000000 
#    z 0.019170 0.000000 1.640440 
# 
# From -- ./inp_files/22794.got.cif
#   From: 2010.05.17/outbox.cif.g08.bks.cpg/sg5_12_cif.got.tgz:22794.got - 2010.06.03 18:56:24.
