data_PCOD9123377
_publ_section_title
;
Structure prediction by ZEFSAII (Michael W. Deem and Ramdas Pophale) SiO2 
 PCOD9123377
Probable space group: C 2
;
_chemical_formula_sum "Si O2"
_cell_formula_units_Z 24
_cell_length_a 8.785863
_cell_length_b 10.426605
_cell_length_c 11.351793
_cell_angle_alpha 90.000000
_cell_angle_beta 83.558279
_cell_angle_gamma 90.000000
_cell_volume 1033.335133
_symmetry_space_group_name_H-M "C 2"
_symmetry_group_IT_number 5
_symmetry_cell_setting 'monoclinic'
loop_
_space_group_symop_operation_xyz
x,y,z
-x,y,-z
1/2+x,1/2+y,z
1/2-x,1/2+y,-z
loop_
_atom_site_type_symbol
_atom_site_label
_atom_site_fract_x
_atom_site_fract_y
_atom_site_fract_z
Si Si1 0.012067 0.564460 0.698421
Si Si2 0.149227 0.782145 0.525958
Si Si3 0.946382 0.281123 0.632667
Si Si4 0.663684 0.142499 0.924948
Si Si5 0.183243 0.370045 0.974853
Si Si6 0.207264 0.208211 0.736313
O O1 0.078901 0.653372 0.589861
O O2 0.119488 0.597087 0.798988
O O3 0.016452 0.418086 0.661488
O O4 0.835598 0.599153 0.745219
O O5 0.270302 0.817508 0.616902
O O6 0.232497 0.761884 0.394456
O O7 0.000000 0.864568 0.500000
O O8 0.000000 0.231664 0.500000
O O9 0.025846 0.187332 0.722641
O O10 0.741743 0.016260 0.975609
O O11 0.500000 0.168354 0.000000
O O12 0.757576 0.272550 0.931340
O O13 0.221148 0.301822 0.847067
O O14 0.000000 0.380651 0.000000
#
# Coordination Sequence:
#
# PCOD9123377 Si02
#       6
#     4   4   4   4   4   4
#     4  11  21  40  65  91 126 172 215 269 327 395
#     4   9  21  38  63  96 126 167 212 261 328 397
#     4  10  20  38  63  89 130 169 209 272 326 384
#     4  11  24  43  68  92 134 176 225 276 329 386
#     4  11  25  44  65  98 130 175 227 274 328 389
#     4  10  20  40  61  92 128 163 218 264 323 387
#
# _framework density 23.225766
#
# number of rings (size 3 to 8) (size 9 to 14) (size 15 to 20)
#    0.000    1.667    3.333    1.500    2.333    0.667 
#    0.000   10.833    0.000    0.000    0.000    0.000 
#    0.000    0.000    0.000    0.000    0.000    0.000 
#
# Total GULP energy -66829.150339 kJ/mol
# GULP energy per Si atom -5569.095862 kJ/mol
# Density = 2.317290 g / cm^3
# Si number density = 23.225766 Si / 1000 Ang^3
#
#
#
# Elastic Constant Matrix: (Units=GPa)
#
#
# Indices 1 2 3 4 5 6 
#
# 1 95.9914 25.4257 13.5125 0.0000 32.9401 0.0000
# 2 25.4257 77.1906 4.7385 0.0000 14.8837 0.0000
# 3 13.5125 4.7385 84.7265 0.0000 10.7035 0.0000
# 4 0.0000 0.0000 0.0000 23.5185 0.0000 2.4975
# 5 32.9401 14.8837 10.7035 0.0000 53.4004 0.0000
# 6 0.0000 0.0000 0.0000 2.4975 0.0000 25.4873
#
#
#
# Elastic Compliance Matrix: (Units=1/GPa)
#
#
# Indices 1 2 3 4 5 6 
#
# 1 0.013977 -0.003082 -0.001104 0.000000 -0.007542 0.000000
# 2 -0.003082 0.014377 -0.000048 0.000000 -0.002097 0.000000
# 3 -0.001104 -0.000048 0.012203 0.000000 -0.001752 0.000000
# 4 0.000000 0.000000 0.000000 0.042967 0.000000 -0.004210
# 5 -0.007542 -0.002097 -0.001752 0.000000 0.024314 0.000000
# 6 0.000000 0.000000 0.000000 -0.004210 0.000000 0.039648
#
#
# Mechanical properties :
#
#
# Convention : Reuss Voigt Hill
#
# Bulk Modulus (GPa) = 31.16258 38.36243 34.76250
# Shear Modulus (GPa) = 30.00299 34.76335 32.38317
#
# Velocity S-wave (km/s) = 3.59806 3.87299 3.73805
# Velocity P-wave (km/s) = 5.54146 6.04592 5.79918
#
# Compressibility (1/GPa) = 0.03208977
#
# Stress axis : x y z
#
# Youngs Moduli (GPa) = 71.54453 69.55404 81.94907
#
# Poissons Ratio (x) = 0.21437 0.09048
# Poissons Ratio (y) = 0.22050 0.00391
# Poissons Ratio (z) = 0.07899 0.00332
#
# Static dielectric constant tensor:
#      x y z
#    x 2.091850 0.000000 0.028400 
#    y 0.000000 1.842820 0.000000 
#    z 0.028400 0.000000 1.925730 
# 
# From -- ./inp_files/35414.got.cif
#   From: 2010.05.17/outbox.cif.g08.bks.cpg/sg5_18_cif.got.tgz:35414.got - 2010.06.03 18:56:24.
