data_PCOD9123609
_publ_section_title
;
Structure prediction by ZEFSAII (Michael W. Deem and Ramdas Pophale) SiO2 
 PCOD9123609
Probable space group: C 2
;
_chemical_formula_sum "Si O2"
_cell_formula_units_Z 28
_cell_length_a 8.872117
_cell_length_b 10.066056
_cell_length_c 14.024117
_cell_angle_alpha 90.000000
_cell_angle_beta 118.512873
_cell_angle_gamma 90.000000
_cell_volume 1100.544583
_symmetry_space_group_name_H-M "C 2"
_symmetry_group_IT_number 5
_symmetry_cell_setting 'monoclinic'
loop_
_space_group_symop_operation_xyz
x,y,z
-x,y,-z
1/2+x,1/2+y,z
1/2-x,1/2+y,-z
loop_
_atom_site_type_symbol
_atom_site_label
_atom_site_fract_x
_atom_site_fract_y
_atom_site_fract_z
Si Si1 0.529522 0.777820 0.267930
Si Si2 0.809127 0.474293 0.436302
Si Si3 0.144373 0.381711 0.112006
Si Si4 0.825286 0.746967 0.506830
Si Si5 0.432885 0.154646 0.076991
Si Si6 0.800463 0.537962 0.216893
Si Si7 0.911482 0.047699 0.115798
O O1 0.644679 0.803778 0.209242
O O2 0.658395 0.784690 0.394114
O O3 0.389464 0.894377 0.227594
O O4 0.439059 0.637163 0.219767
O O5 0.797668 0.589298 0.513407
O O6 0.679147 0.353247 0.409439
O O7 0.799599 0.548561 0.331816
O O8 0.000000 0.418661 0.500000
O O9 0.323031 0.406871 0.113402
O O10 0.063890 0.527484 0.109473
O O11 0.000000 0.320533 0.000000
O O12 0.000000 0.762232 0.500000
O O13 0.404282 0.145224 0.184753
O O14 0.237259 0.119287 0.988367
O O15 0.000000 0.733241 0.000000
O O16 0.599430 0.529751 0.130275
#
# Coordination Sequence:
#
# PCOD9123609 Si02
#       7
#     4   4   4   4   4   4   4
#     4  11  22  40  64  96 131 178 224 282 354 397
#     4  11  24  48  69 101 140 178 240 295 353 414
#     4   8  19  39  59  90 136 172 216 272 332 409
#     4  11  26  45  69 100 137 184 237 295 355 418
#     4   8  18  39  62  96 140 175 216 279 341 415
#     4  11  21  39  70  97 133 179 227 284 340 415
#     4  10  20  39  63  94 134 172 226 272 336 416
#
# _framework density 25.441946999999999
#
# number of rings (size 3 to 8) (size 9 to 14) (size 15 to 20)
#    0.000    2.286    2.857    0.429    2.000    1.714 
#    2.571   22.857    0.000    0.000    0.000    0.000 
#    0.000    0.000    0.000    0.000    0.000    0.000 
#
# Total GULP energy -78043.305901 kJ/mol
# GULP energy per Si atom -5574.521850 kJ/mol
# Density = 2.538404 g / cm^3
# Si number density = 25.441947 Si / 1000 Ang^3
#
#
#
# Elastic Constant Matrix: (Units=GPa)
#
#
# Indices 1 2 3 4 5 6 
#
# 1 144.2108 41.2120 20.1619 0.0000 5.1727 0.0000
# 2 41.2120 98.6928 4.5747 0.0000 -8.4658 0.0000
# 3 20.1619 4.5747 71.0224 0.0000 2.3474 0.0000
# 4 0.0000 0.0000 0.0000 24.4206 0.0000 -0.7419
# 5 5.1727 -8.4658 2.3474 0.0000 45.9946 0.0000
# 6 0.0000 0.0000 0.0000 -0.7419 0.0000 43.5467
#
#
#
# Elastic Compliance Matrix: (Units=1/GPa)
#
#
# Indices 1 2 3 4 5 6 
#
# 1 0.008273 -0.003484 -0.002076 0.000000 -0.001466 0.000000
# 2 -0.003484 0.011800 0.000145 0.000000 0.002556 0.000000
# 3 -0.002076 0.000145 0.014676 0.000000 -0.000489 0.000000
# 4 0.000000 0.000000 0.000000 0.040970 0.000000 0.000698
# 5 -0.001466 0.002556 -0.000489 0.000000 0.022402 0.000000
# 6 0.000000 0.000000 0.000000 0.000698 0.000000 0.022976
#
#
# Mechanical properties :
#
#
# Convention : Reuss Voigt Hill
#
# Bulk Modulus (GPa) = 41.80866 49.53591 45.67229
# Shear Modulus (GPa) = 35.73984 39.32420 37.53202
#
# Velocity S-wave (km/s) = 3.75208 3.93573 3.84500
# Velocity P-wave (km/s) = 5.93628 6.33765 6.14024
#
# Compressibility (1/GPa) = 0.02391849
#
# Stress axis : x y z
#
# Youngs Moduli (GPa) = 120.87946 84.74656 68.13774
#
# Poissons Ratio (x) = 0.29526 0.14143
# Poissons Ratio (y) = 0.42115 -0.00985
# Poissons Ratio (z) = 0.25090 -0.01225
#
# Static dielectric constant tensor:
#      x y z
#    x 2.030140 0.000000 -0.064090 
#    y 0.000000 2.150200 0.000000 
#    z -0.064090 0.000000 2.088110 
# 
# From -- ./inp_files/50546.got.cif
#   From: 2010.05.17/outbox.cif.g08.bks.cpg/sg5_26_cif.got.tgz:50546.got - 2010.06.03 18:56:24.
