data_PCOD9123756
_publ_section_title
;
Structure prediction by ZEFSAII (Michael W. Deem and Ramdas Pophale) SiO2 
 PCOD9123756
Probable space group: C 2
;
_chemical_formula_sum "Si O2"
_cell_formula_units_Z 30
_cell_length_a 13.351721
_cell_length_b 18.018933
_cell_length_c 15.634952
_cell_angle_alpha 90.000000
_cell_angle_beta 156.478325
_cell_angle_gamma 90.000000
_cell_volume 1501.205710
_symmetry_space_group_name_H-M "C 2"
_symmetry_group_IT_number 5
_symmetry_cell_setting 'monoclinic'
loop_
_space_group_symop_operation_xyz
x,y,z
-x,y,-z
1/2+x,1/2+y,z
1/2-x,1/2+y,-z
loop_
_atom_site_type_symbol
_atom_site_label
_atom_site_fract_x
_atom_site_fract_y
_atom_site_fract_z
Si Si1 0.109643 0.442860 0.320607
Si Si2 0.911178 0.609037 0.739791
Si Si3 0.500000 0.161698 0.000000
Si Si4 0.079912 0.141572 0.963924
Si Si5 0.918432 0.294768 0.115587
Si Si6 0.042595 0.982931 0.933496
Si Si7 0.135317 0.862266 0.324236
Si Si8 0.989808 0.234271 0.620428
O O1 0.178726 0.523563 0.338608
O O2 0.295976 0.410257 0.537919
O O3 0.066960 0.372611 0.224062
O O4 0.831776 0.460399 0.141379
O O5 0.685390 0.663447 0.536266
O O6 0.012591 0.619918 0.917335
O O7 0.133374 0.630845 0.846181
O O8 0.739826 0.212962 0.200356
O O9 0.003720 0.224595 0.879684
O O10 0.970944 0.064319 0.840398
O O11 0.000000 0.136077 0.000000
O O12 0.966900 0.260960 0.247899
O O13 0.627213 0.317301 0.873424
O O14 0.883070 0.920061 0.765534
O O15 0.000000 0.983012 0.000000
O O16 0.349500 0.803932 0.472312
#
# Coordination Sequence:
#
# PCOD9123756 Si02
#       8
#     4   4   2   4   4   4   4   4
#     4   9  22  38  62  89 124 164 216 261 324 386
#     4  11  23  43  67  96 127 176 216 265 325 391
#     4  12  24  42  66  96 132 168 216 276 324 378
#     4  10  20  41  69  92 128 168 213 261 320 378
#     4  10  20  41  63  94 127 171 210 273 321 374
#     4   9  20  38  57  94 127 166 210 258 325 383
#     4  10  20  40  61  90 129 171 207 270 324 386
#     4  11  22  40  64  97 129 171 221 257 330 387
#
# _framework density 19.983937000000001
#
# number of rings (size 3 to 8) (size 9 to 14) (size 15 to 20)
#    0.000    1.867    2.667    0.400    1.867    1.600 
#   30.000    0.667    0.000    0.000    0.000    0.000 
#    0.000    0.000    0.000    0.000    0.000    0.000 
#
# Total GULP energy -83518.709969 kJ/mol
# GULP energy per Si atom -5567.913998 kJ/mol
# Density = 1.993845 g / cm^3
# Si number density = 19.983937 Si / 1000 Ang^3
#
#
#
# Elastic Constant Matrix: (Units=GPa)
#
#
# Indices 1 2 3 4 5 6 
#
# 1 63.8687 47.6595 36.1790 -0.0046 -5.5502 0.0032
# 2 47.6595 192.2667 65.4602 0.0157 -18.3991 0.0535
# 3 36.1790 65.4602 87.0102 0.0325 -13.5969 0.0374
# 4 -0.0046 0.0157 0.0325 13.6906 0.0042 -18.9801
# 5 -5.5502 -18.3991 -13.5969 0.0042 17.8617 0.0064
# 6 0.0032 0.0535 0.0374 -18.9801 0.0064 -1.1492
#
#
#
# Elastic Compliance Matrix: (Units=1/GPa)
#
#
# Indices 1 2 3 4 5 6 
#
# 1 0.021835 -0.003225 -0.006937 -0.000018 -0.001818 -0.000033
# 2 -0.003225 0.007682 -0.003812 0.000014 0.004009 0.000012
# 3 -0.006937 -0.003812 0.018495 0.000024 0.007997 0.000049
# 4 -0.000018 0.000014 0.000024 0.003057 0.000045 -0.050482
# 5 -0.001818 0.004009 0.007997 0.000045 0.065638 0.000064
# 6 -0.000033 0.000012 0.000049 -0.050482 0.000064 -0.036413
#
#
# Mechanical properties :
#
#
# Convention : Reuss Voigt Hill
#
# Bulk Modulus (GPa) = 49.83967 71.30476 60.57221
# Shear Modulus (GPa) = 43.50521 19.00375 31.25448
#
# Velocity S-wave (km/s) = 4.67090 3.08710 3.95901
# Velocity P-wave (km/s) = 7.35417 6.96171 7.16063
#
# Compressibility (1/GPa) = 0.02006434
#
# Stress axis : x y z
#
# Youngs Moduli (GPa) = 45.79806 130.17506 54.06911
#
# Poissons Ratio (x) = 0.41976 0.37508
# Poissons Ratio (y) = 0.14768 0.20611
# Poissons Ratio (z) = 0.31770 0.49624
#
# Static dielectric constant tensor:
#      x y z
#    x 1.749210 -0.000010 -0.016130 
#    y -0.000010 1.733960 -0.000020 
#    z -0.016130 -0.000020 1.717690 
# 
# From -- ./inp_files/61875.got.cif
#   From: 2010.05.17/outbox.cif.g08.bks.cpg/sg5_31_cif.got.tgz:61875.got - 2010.06.03 18:56:24.
