data_PCOD9123894
_publ_section_title
;
Structure prediction by ZEFSAII (Michael W. Deem and Ramdas Pophale) SiO2 
 PCOD9123894
Probable space group: C 2
;
_chemical_formula_sum "Si O2"
_cell_formula_units_Z 28
_cell_length_a 9.076728
_cell_length_b 14.873671
_cell_length_c 11.193827
_cell_angle_alpha 90.000000
_cell_angle_beta 124.064006
_cell_angle_gamma 90.000000
_cell_volume 1251.908705
_symmetry_space_group_name_H-M "C 2"
_symmetry_group_IT_number 5
_symmetry_cell_setting 'monoclinic'
loop_
_space_group_symop_operation_xyz
x,y,z
-x,y,-z
1/2+x,1/2+y,z
1/2-x,1/2+y,-z
loop_
_atom_site_type_symbol
_atom_site_label
_atom_site_fract_x
_atom_site_fract_y
_atom_site_fract_z
Si Si1 0.830307 0.384500 0.601964
Si Si2 0.323687 0.777496 0.250230
Si Si3 0.874613 0.092871 0.328639
Si Si4 0.440477 0.265752 0.646893
Si Si5 0.207102 0.953442 0.068940
Si Si6 0.467862 0.063749 0.677317
Si Si7 0.792038 0.914524 0.198577
O O1 0.654605 0.329001 0.493646
O O2 0.860329 0.483822 0.560534
O O3 0.839827 0.397447 0.750258
O O4 0.991930 0.324059 0.634761
O O5 0.374093 0.675612 0.236527
O O6 0.200852 0.766393 0.309617
O O7 0.231027 0.850256 0.123729
O O8 0.668993 0.081138 0.275175
O O9 0.000000 0.113781 0.500000
O O10 0.923587 0.994317 0.303867
O O11 0.482361 0.163388 0.629788
O O12 0.609114 0.320127 0.770869
O O13 0.345061 0.019154 0.200287
O O14 0.262535 0.951150 0.954942
O O15 0.000000 0.977699 0.000000
#
# Coordination Sequence:
#
# PCOD9123894 Si02
#       7
#     4   4   4   4   4   4   4
#     4  10  21  39  63 100 132 165 213 273 331 398
#     4  10  21  39  67  93 126 173 218 265 324 393
#     4  10  20  40  68 101 127 167 219 267 331 404
#     4  11  20  40  66  96 131 171 216 269 332 394
#     4  11  23  45  64  90 133 179 232 271 322 390
#     4   9  22  39  67  95 128 178 221 258 329 395
#     4  11  23  39  64  92 135 175 211 273 324 385
#
# _framework density 22.365848
#
# number of rings (size 3 to 8) (size 9 to 14) (size 15 to 20)
#    0.000    1.714    1.429    4.286    0.000    6.286 
#    2.571    5.714    3.143    0.000    0.000    0.000 
#    0.000    0.000    0.000    0.000    0.000    0.000 
#
# Total GULP energy -78006.030254 kJ/mol
# GULP energy per Si atom -5571.859304 kJ/mol
# Density = 2.231494 g / cm^3
# Si number density = 22.365848 Si / 1000 Ang^3
#
#
#
# Elastic Constant Matrix: (Units=GPa)
#
#
# Indices 1 2 3 4 5 6 
#
# 1 65.6711 30.8996 27.0639 0.0000 4.7853 0.0000
# 2 30.8996 206.7883 29.8651 0.0000 15.5916 0.0000
# 3 27.0639 29.8651 75.6218 0.0000 4.9331 0.0000
# 4 0.0000 0.0000 0.0000 20.1622 0.0000 3.3352
# 5 4.7853 15.5916 4.9331 0.0000 37.2962 0.0000
# 6 0.0000 0.0000 0.0000 3.3352 0.0000 26.9724
#
#
#
# Elastic Compliance Matrix: (Units=1/GPa)
#
#
# Indices 1 2 3 4 5 6 
#
# 1 0.018581 -0.001868 -0.005858 0.000000 -0.000828 0.000000
# 2 -0.001868 0.005452 -0.001363 0.000000 -0.001859 0.000000
# 3 -0.005858 -0.001363 0.015910 0.000000 -0.000783 0.000000
# 4 0.000000 0.000000 0.000000 0.050633 0.000000 -0.006261
# 5 -0.000828 -0.001859 -0.000783 0.000000 0.027799 0.000000
# 6 0.000000 0.000000 0.000000 -0.006261 0.000000 0.037849
#
#
# Mechanical properties :
#
#
# Convention : Reuss Voigt Hill
#
# Bulk Modulus (GPa) = 45.94778 58.19317 52.07047
# Shear Modulus (GPa) = 27.52426 34.23634 30.88030
#
# Velocity S-wave (km/s) = 3.51185 3.91671 3.71979
# Velocity P-wave (km/s) = 6.08543 6.82125 6.46382
#
# Compressibility (1/GPa) = 0.02176384
#
# Stress axis : x y z
#
# Youngs Moduli (GPa) = 53.81884 183.41644 62.85479
#
# Poissons Ratio (x) = 0.34262 0.36821
# Poissons Ratio (y) = 0.10053 0.08569
# Poissons Ratio (z) = 0.31527 0.25006
#
# Static dielectric constant tensor:
#      x y z
#    x 1.854250 0.000000 -0.017640 
#    y 0.000000 1.894990 0.000000 
#    z -0.017640 0.000000 1.877600 
# 
# From -- ./inp_files/36506.got.cif
#   From: 2010.05.17/outbox.cif.g08.bks.cpg/sg5_19_cif.got.tgz:36506.got - 2010.06.03 18:56:24.
