data_PCOD9123747
_publ_section_title
;
Structure prediction by ZEFSAII (Michael W. Deem and Ramdas Pophale) SiO2 
 PCOD9123747
Probable space group: C 2
;
_chemical_formula_sum "Si O2"
_cell_formula_units_Z 26
_cell_length_a 26.369969
_cell_length_b 5.408273
_cell_length_c 18.773033
_cell_angle_alpha 90.000000
_cell_angle_beta 154.249028
_cell_angle_gamma 90.000000
_cell_volume 1163.196278
_symmetry_space_group_name_H-M "C 2"
_symmetry_group_IT_number 5
_symmetry_cell_setting 'monoclinic'
loop_
_space_group_symop_operation_xyz
x,y,z
-x,y,-z
1/2+x,1/2+y,z
1/2-x,1/2+y,-z
loop_
_atom_site_type_symbol
_atom_site_label
_atom_site_fract_x
_atom_site_fract_y
_atom_site_fract_z
Si Si1 0.709855 0.631450 0.554268
Si Si2 0.975736 0.621858 0.841732
Si Si3 0.000000 0.001158 0.000000
Si Si4 0.517786 0.468268 0.775959
Si Si5 0.754985 0.639688 0.320375
Si Si6 0.186610 0.274847 0.085278
Si Si7 0.699859 0.506533 0.902585
O O1 0.836921 0.600779 0.679253
O O2 0.598944 0.630216 0.361730
O O3 0.691246 0.381007 0.575806
O O4 0.707650 0.878892 0.598734
O O5 0.991343 0.710205 0.779964
O O6 0.014834 0.827251 0.949571
O O7 0.073084 0.412635 0.974129
O O8 0.116360 0.151546 0.161229
O O9 0.565293 0.474766 0.755737
O O10 0.625692 0.576623 0.957199
O O11 0.761403 0.658749 0.243391
O O12 0.263100 0.453013 0.131615
O O13 0.739002 0.780385 0.976109
#
# Coordination Sequence:
#
# PCOD9123747 Si02
#       7
#     4   4   2   4   4   4   4
#     4  11  28  39  64  97 142 169 208 269 345 396
#     4  11  22  38  66  96 133 172 219 268 334 390
#     4  10  20  40  60  98 126 168 220 268 314 386
#     4  11  25  42  65  97 136 169 224 272 333 394
#     4  11  23  43  62  95 131 175 216 270 322 400
#     4  11  22  41  72  92 125 176 234 267 324 383
#     4  10  22  41  66  99 126 165 224 285 320 373
#
# _framework density 22.352204
#
# number of rings (size 3 to 8) (size 9 to 14) (size 15 to 20)
#    0.000    1.231    3.077    2.769    6.462    0.615 
#    0.000    0.769    0.000    3.692    0.000    0.000 
#    0.000    0.000    0.000    0.000    0.000    0.000 
#
# Total GULP energy -72579.191092 kJ/mol
# GULP energy per Si atom -5583.014699 kJ/mol
# Density = 2.230133 g / cm^3
# Si number density = 22.352204 Si / 1000 Ang^3
#
#
#
# Elastic Constant Matrix: (Units=GPa)
#
#
# Indices 1 2 3 4 5 6 
#
# 1 81.2453 20.7304 8.8419 0.0000 12.9639 0.0000
# 2 20.7304 102.0848 19.6837 0.0000 0.4132 0.0000
# 3 8.8419 19.6837 46.7633 0.0001 16.0876 0.0000
# 4 0.0000 0.0000 0.0001 26.1951 0.0000 -9.5206
# 5 12.9639 0.4132 16.0876 0.0000 25.9109 0.0000
# 6 0.0000 0.0000 0.0000 -9.5206 0.0000 41.1028
#
#
#
# Elastic Compliance Matrix: (Units=1/GPa)
#
#
# Indices 1 2 3 4 5 6 
#
# 1 0.014217 -0.003113 0.001338 0.000000 -0.007894 0.000000
# 2 -0.003113 0.011573 -0.006047 0.000000 0.005127 0.000000
# 3 0.001338 -0.006047 0.030358 0.000000 -0.019422 0.000000
# 4 0.000000 0.000000 0.000000 0.041684 0.000000 0.009655
# 5 -0.007894 0.005127 -0.019422 0.000000 0.054520 0.000000
# 6 0.000000 0.000000 0.000000 0.009655 0.000000 0.026566
#
#
# Mechanical properties :
#
#
# Convention : Reuss Voigt Hill
#
# Bulk Modulus (GPa) = 24.68865 36.51170 30.60018
# Shear Modulus (GPa) = 24.03123 30.69759 27.36441
#
# Velocity S-wave (km/s) = 3.28245 3.70991 3.50271
# Velocity P-wave (km/s) = 5.04334 5.89249 5.48437
#
# Compressibility (1/GPa) = 0.04050444
#
# Stress axis : x y z
#
# Youngs Moduli (GPa) = 70.33974 86.40742 32.94036
#
# Poissons Ratio (x) = 0.26899 -0.04407
# Poissons Ratio (y) = 0.21897 0.19918
# Poissons Ratio (z) = -0.09412 0.52247
#
# Static dielectric constant tensor:
#      x y z
#    x 1.903650 0.000000 -0.016180 
#    y 0.000000 1.878980 0.000000 
#    z -0.016180 0.000000 1.831950 
# 
# From -- ./inp_files/45505.got.cif
#   From: 2010.05.17/outbox.cif.g08.bks.cpg/sg5_23_cif.got.tgz:45505.got - 2010.06.03 18:56:24.
