data_PCOD9123628
_publ_section_title
;
Structure prediction by ZEFSAII (Michael W. Deem and Ramdas Pophale) SiO2 
 PCOD9123628
Probable space group: C 2
;
_chemical_formula_sum "Si O2"
_cell_formula_units_Z 28
_cell_length_a 8.882336
_cell_length_b 15.279918
_cell_length_c 10.812371
_cell_angle_alpha 90.000000
_cell_angle_beta 60.866362
_cell_angle_gamma 90.000000
_cell_volume 1281.815094
_symmetry_space_group_name_H-M "C 2"
_symmetry_group_IT_number 5
_symmetry_cell_setting 'monoclinic'
loop_
_space_group_symop_operation_xyz
x,y,z
-x,y,-z
1/2+x,1/2+y,z
1/2-x,1/2+y,-z
loop_
_atom_site_type_symbol
_atom_site_label
_atom_site_fract_x
_atom_site_fract_y
_atom_site_fract_z
Si Si1 0.170546 0.533030 0.301351
Si Si2 0.770404 0.344961 0.798116
Si Si3 0.387818 0.751279 0.376483
Si Si4 0.313246 0.415206 0.632928
Si Si5 0.786857 0.588217 0.447125
Si Si6 0.121232 0.832017 0.128102
Si Si7 0.321891 0.678230 0.132227
O O1 0.140228 0.433239 0.284397
O O2 0.250059 0.541218 0.405920
O O3 0.294437 0.574988 0.149532
O O4 0.995101 0.589890 0.363884
O O5 0.583133 0.339121 0.809610
O O6 0.906872 0.268403 0.712538
O O7 0.725915 0.354807 0.961463
O O8 0.301945 0.847355 0.401610
O O9 0.308465 0.682048 0.506643
O O10 0.331149 0.708353 0.269780
O O11 0.500000 0.404006 0.500000
O O12 0.265702 0.517466 0.634952
O O13 0.316964 0.384847 0.774959
O O14 0.169576 0.730819 0.129931
O O15 0.500000 0.703666 0.000000
#
# Coordination Sequence:
#
# PCOD9123628 Si02
#       7
#     4   4   4   4   4   4   4
#     4  10  22  39  68  97 134 176 230 282 335 419
#     4  11  21  45  68 102 134 180 231 284 346 403
#     4  10  22  40  71  94 132 182 225 282 336 404
#     4  11  23  43  65  97 138 178 228 280 338 413
#     4  10  22  43  64 100 132 178 234 277 341 409
#     4  10  24  39  72  99 137 178 229 285 345 407
#     4  10  20  39  64  94 130 179 225 272 344 408
#
# _framework density 21.844024999999998
#
# number of rings (size 3 to 8) (size 9 to 14) (size 15 to 20)
#    0.000    1.714    2.857    0.857    8.000    0.000 
#    2.571    0.000    6.286    0.000    0.000    0.000 
#    0.000    0.000    0.000    0.000    0.000    0.000 
#
# Total GULP energy -78102.687195 kJ/mol
# GULP energy per Si atom -5578.763371 kJ/mol
# Density = 2.179431 g / cm^3
# Si number density = 21.844025 Si / 1000 Ang^3
#
#
#
# Elastic Constant Matrix: (Units=GPa)
#
#
# Indices 1 2 3 4 5 6 
#
# 1 90.9802 47.0296 41.6706 0.0000 -8.0862 0.0000
# 2 47.0296 81.3075 23.1186 0.0000 4.9970 0.0000
# 3 41.6706 23.1186 56.6151 0.0000 4.4406 0.0000
# 4 0.0000 0.0000 0.0000 28.3790 0.0000 -7.6061
# 5 -8.0862 4.9970 4.4406 0.0000 34.0835 0.0000
# 6 0.0000 0.0000 0.0000 -7.6061 0.0000 27.9642
#
#
#
# Elastic Compliance Matrix: (Units=1/GPa)
#
#
# Indices 1 2 3 4 5 6 
#
# 1 0.023264 -0.010105 -0.013686 0.000000 0.008784 0.000000
# 2 -0.010105 0.018362 0.000342 0.000000 -0.005134 0.000000
# 3 -0.013686 0.000342 0.028143 0.000000 -0.006964 0.000000
# 4 0.000000 0.000000 0.000000 0.038008 0.000000 0.010338
# 5 0.008784 -0.005134 -0.006964 0.000000 0.033084 0.000000
# 6 0.000000 0.000000 0.000000 0.010338 0.000000 0.038572
#
#
# Mechanical properties :
#
#
# Convention : Reuss Voigt Hill
#
# Bulk Modulus (GPa) = 43.72185 50.28228 47.00206
# Shear Modulus (GPa) = 21.37187 25.89093 23.63140
#
# Velocity S-wave (km/s) = 3.13131 3.44650 3.29268
# Velocity P-wave (km/s) = 5.75607 6.23751 6.00162
#
# Compressibility (1/GPa) = 0.02287186
#
# Stress axis : x y z
#
# Youngs Moduli (GPa) = 42.98557 54.46054 35.53308
#
# Poissons Ratio (x) = 0.55030 0.48629
# Poissons Ratio (y) = 0.43435 -0.01215
# Poissons Ratio (z) = 0.58828 -0.01862
#
# Static dielectric constant tensor:
#      x y z
#    x 1.811890 0.000000 0.014110 
#    y 0.000000 1.807010 0.000000 
#    z 0.014110 0.000000 1.817010 
# 
# From -- ./inp_files/36317.got.cif
#   From: 2010.05.17/outbox.cif.g08.bks.cpg/sg5_19_cif.got.tgz:36317.got - 2010.06.03 18:56:24.
