data_PCOD9123861
_publ_section_title
;
Structure prediction by ZEFSAII (Michael W. Deem and Ramdas Pophale) SiO2 
 PCOD9123861
Probable space group: C 2
;
_chemical_formula_sum "Si O2"
_cell_formula_units_Z 26
_cell_length_a 13.950846
_cell_length_b 7.215062
_cell_length_c 11.713844
_cell_angle_alpha 90.000000
_cell_angle_beta 117.691924
_cell_angle_gamma 90.000000
_cell_volume 1044.019408
_symmetry_space_group_name_H-M "C 2"
_symmetry_group_IT_number 5
_symmetry_cell_setting 'monoclinic'
loop_
_space_group_symop_operation_xyz
x,y,z
-x,y,-z
1/2+x,1/2+y,z
1/2-x,1/2+y,-z
loop_
_atom_site_type_symbol
_atom_site_label
_atom_site_fract_x
_atom_site_fract_y
_atom_site_fract_z
Si Si1 0.387337 0.863240 0.901934
Si Si2 0.000000 0.980124 0.500000
Si Si3 0.139819 0.739202 0.744993
Si Si4 0.644747 0.459462 0.398331
Si Si5 0.245999 0.401277 0.758130
Si Si6 0.172266 0.577748 0.343190
Si Si7 0.396873 0.256898 0.019818
O O1 0.268869 0.773242 0.837278
O O2 0.396380 0.954148 0.780257
O O3 0.500000 0.764742 0.000000
O O4 0.380671 0.039558 0.983988
O O5 0.091480 0.858582 0.615481
O O6 0.060694 0.074156 0.427051
O O7 0.139114 0.522271 0.710625
O O8 0.090469 0.789616 0.840145
O O9 0.670697 0.507501 0.282693
O O10 0.758560 0.466818 0.527622
O O11 0.611317 0.242548 0.375564
O O12 0.247708 0.201408 0.695407
O O13 0.296765 0.364438 0.909110
O O14 0.500000 0.309089 0.000000
#
# Coordination Sequence:
#
# PCOD9123861 Si02
#       7
#     4   2   4   4   4   4   4
#     4  10  22  41  64  93 129 174 227 275 330 386
#     4  12  24  36  64 102 130 180 214 276 336 408
#     4  12  23  41  67  97 136 176 229 273 338 401
#     4  10  20  40  66  92 133 171 219 270 342 394
#     4   9  22  39  65  94 126 175 224 275 325 399
#     4   9  20  39  68  91 129 174 219 278 333 396
#     4  10  21  42  68  94 131 178 224 280 337 398
#
# _framework density 24.903749999999999
#
# number of rings (size 3 to 8) (size 9 to 14) (size 15 to 20)
#    0.923    0.923    1.538    2.769    2.154    0.615 
#    0.000    2.308    6.769    0.000    0.000    0.000 
#    0.000    0.000    0.000    0.000    0.000    0.000 
#
# Total GULP energy -72510.562027 kJ/mol
# GULP energy per Si atom -5577.735541 kJ/mol
# Density = 2.484707 g / cm^3
# Si number density = 24.903750 Si / 1000 Ang^3
#
#
#
# Elastic Constant Matrix: (Units=GPa)
#
#
# Indices 1 2 3 4 5 6 
#
# 1 85.0196 9.4565 43.4828 0.0000 -16.6129 0.0000
# 2 9.4565 43.2401 22.8582 0.0000 1.8399 0.0000
# 3 43.4828 22.8582 143.0904 0.0000 -2.6327 0.0000
# 4 0.0000 0.0000 0.0000 28.2893 0.0000 -1.1119
# 5 -16.6129 1.8399 -2.6327 0.0000 54.3433 0.0000
# 6 0.0000 0.0000 0.0000 -1.1119 0.0000 22.9948
#
#
#
# Elastic Compliance Matrix: (Units=1/GPa)
#
#
# Indices 1 2 3 4 5 6 
#
# 1 0.014937 -0.001198 -0.004267 0.000000 0.004400 0.000000
# 2 -0.001198 0.025416 -0.003722 0.000000 -0.001407 0.000000
# 3 -0.004267 -0.003722 0.008866 0.000000 -0.000749 0.000000
# 4 0.000000 0.000000 0.000000 0.035416 0.000000 0.001712
# 5 0.004400 -0.001407 -0.000749 0.000000 0.019758 0.000000
# 6 0.000000 0.000000 0.000000 0.001712 0.000000 0.043571
#
#
# Mechanical properties :
#
#
# Convention : Reuss Voigt Hill
#
# Bulk Modulus (GPa) = 32.41981 46.99390 39.70686
# Shear Modulus (GPa) = 28.30924 34.16231 31.23578
#
# Velocity S-wave (km/s) = 3.37522 3.70776 3.54540
# Velocity P-wave (km/s) = 5.31374 6.10256 5.72176
#
# Compressibility (1/GPa) = 0.03084533
#
# Stress axis : x y z
#
# Youngs Moduli (GPa) = 66.94632 39.34502 112.79070
#
# Poissons Ratio (x) = 0.04715 0.48126
# Poissons Ratio (y) = 0.08023 0.41979
# Poissons Ratio (z) = 0.28565 0.14644
#
# Static dielectric constant tensor:
#      x y z
#    x 2.099180 0.000000 0.054160 
#    y 0.000000 2.007500 0.000000 
#    z 0.054160 0.000000 1.903410 
# 
# From -- ./inp_files/41808.got.cif
#   From: 2010.05.17/outbox.cif.g08.bks.cpg/sg5_21_cif.got.tgz:41808.got - 2010.06.03 18:56:24.
