data_PCOD9123547
_publ_section_title
;
Structure prediction by ZEFSAII (Michael W. Deem and Ramdas Pophale) SiO2 
 PCOD9123547
Probable space group: C 2
;
_chemical_formula_sum "Si O2"
_cell_formula_units_Z 32
_cell_length_a 7.700472
_cell_length_b 18.539276
_cell_length_c 14.316130
_cell_angle_alpha 90.000000
_cell_angle_beta 38.922725
_cell_angle_gamma 90.000000
_cell_volume 1284.053838
_symmetry_space_group_name_H-M "C 2"
_symmetry_group_IT_number 5
_symmetry_cell_setting 'monoclinic'
loop_
_space_group_symop_operation_xyz
x,y,z
-x,y,-z
1/2+x,1/2+y,z
1/2-x,1/2+y,-z
loop_
_atom_site_type_symbol
_atom_site_label
_atom_site_fract_x
_atom_site_fract_y
_atom_site_fract_z
Si Si1 0.533540 0.649760 0.212309
Si Si2 0.917426 0.653809 0.373312
Si Si3 0.523709 0.533123 0.619563
Si Si4 0.163857 0.851070 0.028756
Si Si5 0.939644 0.430420 0.272112
Si Si6 0.694531 0.775747 0.586253
Si Si7 0.290976 0.927786 0.658080
Si Si8 0.784174 0.687873 0.930977
O O1 0.608780 0.589549 0.254257
O O2 0.525684 0.728212 0.264258
O O3 0.212814 0.644889 0.306278
O O4 0.755601 0.647422 0.038938
O O5 0.724269 0.586345 0.477729
O O6 0.753914 0.726973 0.470824
O O7 0.984467 0.664386 0.237368
O O8 0.697379 0.483683 0.618034
O O9 0.687122 0.479864 0.344979
O O10 0.409167 0.902484 0.885865
O O11 0.236773 0.772669 0.036860
O O12 0.000000 0.842115 0.000000
O O13 0.970542 0.884224 0.190979
O O14 0.113570 0.466877 0.284031
O O15 0.876115 0.358490 0.361230
O O16 0.000000 0.771762 0.500000
O O17 0.500000 0.882928 0.500000
O O18 0.500000 0.668550 0.000000
#
# Coordination Sequence:
#
# PCOD9123547 Si02
#       8
#     4   4   4   4   4   4   4   4
#     4   9  18  41  73 103 149 205 247 316 385 454
#     4   9  20  39  72 110 151 202 249 319 385 459
#     4  11  24  45  76 105 154 201 253 300 386 472
#     4  10  24  47  73 110 156 191 250 334 390 452
#     4  11  25  45  76 113 148 193 253 317 381 459
#     4   9  18  35  68 107 146 188 241 312 381 435
#     4  11  27  46  72 106 155 202 240 311 387 459
#     4  10  20  38  80 111 142 193 266 325 383 458
#
# _framework density 24.921074999999998
#
# number of rings (size 3 to 8) (size 9 to 14) (size 15 to 20)
#    0.000    2.000    1.250    1.875    5.250    0.000 
#    0.000   10.625   19.250    6.000    0.000    0.000 
#    0.000    0.000    0.000    0.000    0.000    0.000 
#
# Total GULP energy -89265.768815 kJ/mol
# GULP energy per Si atom -5579.110551 kJ/mol
# Density = 2.486435 g / cm^3
# Si number density = 24.921075 Si / 1000 Ang^3
#
#
#
# Elastic Constant Matrix: (Units=GPa)
#
#
# Indices 1 2 3 4 5 6 
#
# 1 101.6667 30.9016 35.0092 -0.0001 0.7033 -0.0003
# 2 30.9016 96.5350 69.0145 -0.0007 8.1786 -0.0002
# 3 35.0092 69.0145 251.2290 -0.0037 35.7856 -0.0009
# 4 -0.0001 -0.0007 -0.0037 38.9855 0.0010 11.4138
# 5 0.7033 8.1786 35.7856 0.0010 26.9004 0.0004
# 6 -0.0003 -0.0002 -0.0009 11.4138 0.0004 24.2533
#
#
#
# Elastic Compliance Matrix: (Units=1/GPa)
#
#
# Indices 1 2 3 4 5 6 
#
# 1 0.011077 -0.002998 -0.000998 0.000000 0.001949 0.000000
# 2 -0.002998 0.013723 -0.003416 0.000000 0.000451 0.000000
# 3 -0.000998 -0.003416 0.006053 0.000001 -0.006988 0.000000
# 4 0.000000 0.000000 0.000001 0.029749 -0.000002 -0.014000
# 5 0.001949 0.000451 -0.006988 -0.000002 0.046282 0.000000
# 6 0.000000 0.000000 0.000000 -0.014000 0.000000 0.047820
#
#
# Mechanical properties :
#
#
# Convention : Reuss Voigt Hill
#
# Bulk Modulus (GPa) = 62.38358 79.92014 71.15186
# Shear Modulus (GPa) = 28.59240 38.99488 33.79364
#
# Velocity S-wave (km/s) = 3.39088 3.95996 3.68642
# Velocity P-wave (km/s) = 6.35748 7.28336 6.83611
#
# Compressibility (1/GPa) = 0.01602986
#
# Stress axis : x y z
#
# Youngs Moduli (GPa) = 90.27447 72.87229 165.19896
#
# Poissons Ratio (x) = 0.21845 0.16483
# Poissons Ratio (y) = 0.27062 0.56435
# Poissons Ratio (z) = 0.09007 0.24894
#
# Static dielectric constant tensor:
#      x y z
#    x 2.117390 0.000000 -0.059340 
#    y 0.000000 2.100980 0.000000 
#    z -0.059340 0.000000 2.087550 
# 
# From -- ./inp_files/60796.got.cif
#   From: 2010.05.17/outbox.cif.g08.bks.cpg/sg5_31_cif.got.tgz:60796.got - 2010.06.03 18:56:24.
