data_PCOD9123231
_publ_section_title
;
Structure prediction by ZEFSAII (Michael W. Deem and Ramdas Pophale) SiO2 
 PCOD9123231
Probable space group: C 2
;
_chemical_formula_sum "Si O2"
_cell_formula_units_Z 30
_cell_length_a 16.763355
_cell_length_b 5.950056
_cell_length_c 15.080158
_cell_angle_alpha 90.000000
_cell_angle_beta 105.694167
_cell_angle_gamma 90.000000
_cell_volume 1448.063347
_symmetry_space_group_name_H-M "C 2"
_symmetry_group_IT_number 5
_symmetry_cell_setting 'monoclinic'
loop_
_space_group_symop_operation_xyz
x,y,z
-x,y,-z
1/2+x,1/2+y,z
1/2-x,1/2+y,-z
loop_
_atom_site_type_symbol
_atom_site_label
_atom_site_fract_x
_atom_site_fract_y
_atom_site_fract_z
Si Si1 0.000000 0.964911 0.500000
Si Si2 0.354791 0.982677 0.303250
Si Si3 0.339957 0.156949 0.472442
Si Si4 0.493731 0.676580 0.691639
Si Si5 0.729617 0.173504 0.190628
Si Si6 0.678962 0.914348 0.351830
Si Si7 0.115701 0.872836 0.807243
Si Si8 0.796191 0.676202 0.004334
O O1 0.081768 0.813691 0.520276
O O2 0.002978 0.098937 0.409348
O O3 0.434300 0.863482 0.284811
O O4 0.266640 0.905312 0.238299
O O5 0.353078 0.949270 0.408458
O O6 0.367389 0.236561 0.277616
O O7 0.255766 0.270721 0.412767
O O8 0.337081 0.091069 0.573762
O O9 0.403181 0.766583 0.684178
O O10 0.526246 0.483936 0.768103
O O11 0.698889 0.033910 0.265190
O O12 0.812688 0.060140 0.174726
O O13 0.671627 0.182048 0.087439
O O14 0.136283 0.721008 0.898437
O O15 0.758797 0.417635 0.008394
#
# Coordination Sequence:
#
# PCOD9123231 Si02
#       8
#     2   4   4   4   4   4   4   4
#     4  12  22  42  60  90 122 180 226 268 318 404
#     4  11  19  41  62  89 122 172 219 266 322 400
#     4  12  23  39  62  90 132 173 222 269 337 405
#     4  11  24  38  62  93 132 170 224 271 335 415
#     4  10  21  38  64 100 130 165 222 284 345 408
#     4  12  24  39  58 102 134 176 214 282 349 413
#     4  10  20  40  65  96 125 172 227 278 332 404
#     4  10  20  37  69 108 130 169 235 298 347 405
#
# _framework density 20.717324000000001
#
# number of rings (size 3 to 8) (size 9 to 14) (size 15 to 20)
#    0.000    1.067    4.000    4.000    0.000    0.000 
#    0.000    0.000    0.000    0.800   10.400    0.000 
#    0.000    0.000    0.000    0.000    0.000    0.000 
#
# Total GULP energy -83603.384628 kJ/mol
# GULP energy per Si atom -5573.558975 kJ/mol
# Density = 2.067017 g / cm^3
# Si number density = 20.717324 Si / 1000 Ang^3
#
#
#
# Elastic Constant Matrix: (Units=GPa)
#
#
# Indices 1 2 3 4 5 6 
#
# 1 104.9231 27.4202 35.7446 0.0000 8.8343 0.0000
# 2 27.4202 59.2420 24.6720 0.0000 1.3837 0.0000
# 3 35.7446 24.6720 137.8844 0.0000 -1.4865 0.0000
# 4 0.0000 0.0000 0.0000 38.9544 0.0000 6.6751
# 5 8.8343 1.3837 -1.4865 0.0000 20.0984 0.0000
# 6 0.0000 0.0000 0.0000 6.6751 0.0000 18.2398
#
#
#
# Elastic Compliance Matrix: (Units=1/GPa)
#
#
# Indices 1 2 3 4 5 6 
#
# 1 0.011917 -0.004416 -0.002354 0.000000 -0.005108 0.000000
# 2 -0.004416 0.019921 -0.002415 0.000000 0.000391 0.000000
# 3 -0.002354 -0.002415 0.008315 0.000000 0.001816 0.000000
# 4 0.000000 0.000000 0.000000 0.027389 0.000000 -0.010023
# 5 -0.005108 0.000391 0.001816 0.000000 0.052108 0.000000
# 6 0.000000 0.000000 0.000000 -0.010023 0.000000 0.058493
#
#
# Mechanical properties :
#
#
# Convention : Reuss Voigt Hill
#
# Bulk Modulus (GPa) = 45.91196 53.08033 49.49615
# Shear Modulus (GPa) = 24.53705 29.73938 27.13821
#
# Velocity S-wave (km/s) = 3.44521 3.79289 3.62322
# Velocity P-wave (km/s) = 6.16727 6.69763 6.43791
#
# Compressibility (1/GPa) = 0.02178082
#
# Stress axis : x y z
#
# Youngs Moduli (GPa) = 83.91396 50.19912 120.27134
#
# Poissons Ratio (x) = 0.22168 0.28314
# Poissons Ratio (y) = 0.37057 0.29051
# Poissons Ratio (z) = 0.19755 0.12125
#
# Static dielectric constant tensor:
#      x y z
#    x 1.766970 0.000000 0.029150 
#    y 0.000000 1.847960 0.000000 
#    z 0.029150 0.000000 1.807590 
# 
# From -- ./inp_files/55485.got.cif
#   From: 2010.05.17/outbox.cif.g08.bks.cpg/sg5_28_cif.got.tgz:55485.got - 2010.06.03 18:56:24.
