data_PCOD9123331
_publ_section_title
;
Structure prediction by ZEFSAII (Michael W. Deem and Ramdas Pophale) SiO2 
 PCOD9123331
Probable space group: C 2
;
_chemical_formula_sum "Si O2"
_cell_formula_units_Z 28
_cell_length_a 8.989049
_cell_length_b 34.051422
_cell_length_c 5.121422
_cell_angle_alpha 90.000000
_cell_angle_beta 59.562756
_cell_angle_gamma 90.000000
_cell_volume 1351.573909
_symmetry_space_group_name_H-M "C 2"
_symmetry_group_IT_number 5
_symmetry_cell_setting 'monoclinic'
loop_
_space_group_symop_operation_xyz
x,y,z
-x,y,-z
1/2+x,1/2+y,z
1/2-x,1/2+y,-z
loop_
_atom_site_type_symbol
_atom_site_label
_atom_site_fract_x
_atom_site_fract_y
_atom_site_fract_z
Si Si1 0.810990 0.986180 0.801831
Si Si2 0.622839 0.656602 0.139598
Si Si3 0.708787 0.806496 0.821913
Si Si4 0.614341 0.226698 0.150919
Si Si5 0.876658 0.069538 0.859866
Si Si6 0.300649 0.941051 0.595615
Si Si7 0.210259 0.352566 0.321178
O O1 0.706257 0.963156 0.674032
O O2 0.000000 0.987331 0.500000
O O3 0.761099 0.031295 0.909611
O O4 0.800090 0.963560 0.085032
O O5 0.500000 0.657875 0.500000
O O6 0.703899 0.612794 0.039575
O O7 0.500000 0.662362 0.000000
O O8 0.759822 0.691104 0.032011
O O9 0.782372 0.765059 0.846573
O O10 0.766579 0.820873 0.486087
O O11 0.500000 0.804268 0.000000
O O12 0.763281 0.839008 0.986715
O O13 0.500000 0.214321 0.500000
O O14 0.500000 0.236088 0.000000
O O15 0.000000 0.072820 0.500000
O O16 0.000000 0.061844 0.000000
O O17 0.500000 0.939814 0.500000
O O18 0.235893 0.896164 0.643667
O O19 0.000000 0.352375 0.500000
#
# Coordination Sequence:
#
# PCOD9123331 Si02
#       7
#     4   4   4   4   4   4   4
#     4  11  21  37  59  86 119 154 192 237 289 343
#     4  10  21  40  66  88 109 153 206 237 268 340
#     4  10  20  38  62  82 105 152 205 236 269 340
#     4  12  25  40  58  89 128 152 175 236 309 348
#     4   9  18  35  60  86 113 148 196 243 277 323
#     4  11  22  38  59  86 118 153 193 241 291 340
#     4   9  19  36  59  83 109 146 198 246 278 322
#
# _framework density 20.716587000000001
#
# number of rings (size 3 to 8) (size 9 to 14) (size 15 to 20)
#    0.000    1.714    0.000    5.571    0.000    4.000 
#    0.000    9.286    0.000    0.000    0.000    0.000 
#    0.000    0.000    0.000    0.000    0.000    0.000 
#
# Total GULP energy -78209.316435 kJ/mol
# GULP energy per Si atom -5586.379745 kJ/mol
# Density = 2.066944 g / cm^3
# Si number density = 20.716587 Si / 1000 Ang^3
#
#
#
# Elastic Constant Matrix: (Units=GPa)
#
#
# Indices 1 2 3 4 5 6 
#
# 1 79.0526 60.8987 28.3272 0.0000 29.8106 0.0000
# 2 60.8987 178.3869 23.4011 0.0000 11.9790 0.0000
# 3 28.3272 23.4011 91.8662 0.0000 26.3280 0.0000
# 4 0.0000 0.0000 0.0000 25.3004 0.0000 13.2106
# 5 29.8106 11.9790 26.3280 0.0000 36.9929 0.0000
# 6 0.0000 0.0000 0.0000 13.2106 0.0000 8.3895
#
#
#
# Elastic Compliance Matrix: (Units=1/GPa)
#
#
# Indices 1 2 3 4 5 6 
#
# 1 0.025077 -0.007283 -0.000957 0.000000 -0.017169 0.000000
# 2 -0.007283 0.007946 -0.000908 0.000000 0.003942 0.000000
# 3 -0.000957 -0.000908 0.013952 0.000000 -0.008865 0.000000
# 4 0.000000 0.000000 0.000000 0.222301 0.000000 -0.350047
# 5 -0.017169 0.003942 -0.008865 0.000000 0.045901 0.000000
# 6 0.000000 0.000000 0.000000 -0.350047 0.000000 0.670399
#
#
# Mechanical properties :
#
#
# Convention : Reuss Voigt Hill
#
# Bulk Modulus (GPa) = 34.86708 63.83998 49.35353
# Shear Modulus (GPa) = 4.93373 29.91514 17.42443
#
# Velocity S-wave (km/s) = 1.54490 3.80415 2.90329
# Velocity P-wave (km/s) = 4.47765 7.08365 5.92568
#
# Compressibility (1/GPa) = 0.02868035
#
# Stress axis : x y z
#
# Youngs Moduli (GPa) = 39.87652 125.84305 71.67225
#
# Poissons Ratio (x) = 0.91646 0.06859
# Poissons Ratio (y) = 0.29040 0.06510
# Poissons Ratio (z) = 0.03816 0.11430
#
# Static dielectric constant tensor:
#      x y z
#    x 1.763930 0.000000 -0.022640 
#    y 0.000000 1.761790 0.000000 
#    z -0.022640 0.000000 1.717170 
# 
# From -- ./inp_files/3870.got.cif
#   From: 2010.05.17/outbox.cif.g08.bks.cpg/sg5_2_cif.got.tgz:3870.got - 2010.06.03 18:56:24.
