data_PCOD9123190
_publ_section_title
;
Structure prediction by ZEFSAII (Michael W. Deem and Ramdas Pophale) SiO2 
 PCOD9123190
Probable space group: C 2
;
_chemical_formula_sum "Si O2"
_cell_formula_units_Z 28
_cell_length_a 10.942341
_cell_length_b 22.947155
_cell_length_c 7.387144
_cell_angle_alpha 90.000000
_cell_angle_beta 134.558970
_cell_angle_gamma 90.000000
_cell_volume 1321.654714
_symmetry_space_group_name_H-M "C 2"
_symmetry_group_IT_number 5
_symmetry_cell_setting 'monoclinic'
loop_
_space_group_symop_operation_xyz
x,y,z
-x,y,-z
1/2+x,1/2+y,z
1/2-x,1/2+y,-z
loop_
_atom_site_type_symbol
_atom_site_label
_atom_site_fract_x
_atom_site_fract_y
_atom_site_fract_z
Si Si1 0.000000 0.454330 0.000000
Si Si2 0.197990 0.166204 0.745458
Si Si3 0.191814 0.138437 0.163080
Si Si4 0.873012 0.782519 0.012454
Si Si5 0.500000 0.218603 0.500000
Si Si6 0.801701 0.516034 0.231179
Si Si7 0.353287 0.892920 0.203057
Si Si8 0.208801 0.039088 0.716990
O O1 0.160572 0.493743 0.240483
O O2 0.930462 0.416500 0.094576
O O3 0.243206 0.105785 0.691423
O O4 0.000000 0.177661 0.500000
O O5 0.217026 0.148999 0.975405
O O6 0.298700 0.225954 0.829033
O O7 0.343863 0.176996 0.401955
O O8 0.207577 0.070063 0.229803
O O9 0.000000 0.159102 0.000000
O O10 0.949407 0.757854 0.277317
O O11 0.742502 0.833000 0.927719
O O12 0.000000 0.810508 0.000000
O O13 0.749089 0.448141 0.181293
O O14 0.000000 0.518418 0.500000
O O15 0.773047 0.531498 0.990441
O O16 0.500000 0.880733 0.500000
O O17 0.000000 0.029678 0.500000
#
# Coordination Sequence:
#
# PCOD9123190 Si02
#       8
#     2   4   4   4   2   4   4   4
#     4  10  22  44  74  96 134 190 216 302 344 400
#     4   9  20  39  58  94 131 163 220 276 332 413
#     4  10  20  37  65  96 128 169 216 281 350 400
#     4  11  25  43  66  95 132 184 225 282 335 406
#     4  10  24  46  64 100 132 170 238 284 332 416
#     4   9  18  39  61  89 138 167 212 283 335 406
#     4  10  23  46  64  98 133 182 234 271 342 413
#     4   9  19  39  63 101 130 166 230 281 346 413
#
# _framework density 21.185562999999998
#
# number of rings (size 3 to 8) (size 9 to 14) (size 15 to 20)
#    0.000    2.286    0.714    0.429    3.000    1.714 
#   38.571    0.000    0.000    0.000    0.000    0.000 
#    0.000    0.000    0.000    0.000    0.000    0.000 
#
# Total GULP energy -78039.795795 kJ/mol
# GULP energy per Si atom -5574.271128 kJ/mol
# Density = 2.113734 g / cm^3
# Si number density = 21.185563 Si / 1000 Ang^3
#
#
#
# Elastic Constant Matrix: (Units=GPa)
#
#
# Indices 1 2 3 4 5 6 
#
# 1 73.9298 59.2189 25.1071 0.0000 10.3657 0.0000
# 2 59.2189 138.6601 65.5143 0.0000 16.8655 0.0000
# 3 25.1071 65.5143 116.2750 0.0000 8.0813 0.0000
# 4 0.0000 0.0000 0.0000 20.7559 0.0000 -5.1080
# 5 10.3657 16.8655 8.0813 0.0000 29.4040 0.0000
# 6 0.0000 0.0000 0.0000 -5.1080 0.0000 23.0636
#
#
#
# Elastic Compliance Matrix: (Units=1/GPa)
#
#
# Indices 1 2 3 4 5 6 
#
# 1 0.020758 -0.008905 0.000702 0.000000 -0.002403 0.000000
# 2 -0.008905 0.014184 -0.005833 0.000000 -0.003393 0.000000
# 3 0.000702 -0.005833 0.011744 0.000000 -0.000130 0.000000
# 4 0.000000 0.000000 0.000000 0.050956 0.000000 0.011286
# 5 -0.002403 -0.003393 -0.000130 0.000000 0.036838 0.000000
# 6 0.000000 0.000000 0.000000 0.011286 0.000000 0.045858
#
#
# Mechanical properties :
#
#
# Convention : Reuss Voigt Hill
#
# Bulk Modulus (GPa) = 53.72201 69.83838 61.78020
# Shear Modulus (GPa) = 23.29771 26.57968 24.93869
#
# Velocity S-wave (km/s) = 3.31977 3.54589 3.43469
# Velocity P-wave (km/s) = 6.33304 7.05699 6.70479
#
# Compressibility (1/GPa) = 0.01861435
#
# Stress axis : x y z
#
# Youngs Moduli (GPa) = 48.17532 70.50425 85.14782
#
# Poissons Ratio (x) = 0.62781 -0.05978
# Poissons Ratio (y) = 0.42898 0.49667
# Poissons Ratio (z) = -0.03382 0.41125
#
# Static dielectric constant tensor:
#      x y z
#    x 1.814660 0.000000 0.004110 
#    y 0.000000 1.804950 0.000000 
#    z 0.004110 0.000000 1.727840 
# 
# From -- ./inp_files/22042.got.cif
#   From: 2010.05.17/outbox.cif.g08.bks.cpg/sg5_12_cif.got.tgz:22042.got - 2010.06.03 18:56:24.
