data_PCOD9123360
_publ_section_title
;
Structure prediction by ZEFSAII (Michael W. Deem and Ramdas Pophale) SiO2 
 PCOD9123360
Probable space group: C 2
;
_chemical_formula_sum "Si O2"
_cell_formula_units_Z 24
_cell_length_a 15.285486
_cell_length_b 15.770668
_cell_length_c 8.740591
_cell_angle_alpha 90.000000
_cell_angle_beta 35.206052
_cell_angle_gamma 90.000000
_cell_volume 1214.740419
_symmetry_space_group_name_H-M "C 2"
_symmetry_group_IT_number 5
_symmetry_cell_setting 'monoclinic'
loop_
_space_group_symop_operation_xyz
x,y,z
-x,y,-z
1/2+x,1/2+y,z
1/2-x,1/2+y,-z
loop_
_atom_site_type_symbol
_atom_site_label
_atom_site_fract_x
_atom_site_fract_y
_atom_site_fract_z
Si Si1 0.420415 0.720550 0.257931
Si Si2 0.327788 0.788415 0.683174
Si Si3 0.805887 0.571920 0.443444
Si Si4 0.417558 0.576999 0.782894
Si Si5 0.841242 0.607537 0.042077
Si Si6 0.863025 0.939533 0.099377
O O1 0.343735 0.787935 0.476717
O O2 0.301104 0.651904 0.366880
O O3 0.532318 0.663949 0.205483
O O4 0.500000 0.760714 0.000000
O O5 0.500000 0.788245 0.500000
O O6 0.230591 0.702841 0.852833
O O7 0.233216 0.871328 0.857209
O O8 0.796331 0.565281 0.270569
O O9 0.744760 0.494479 0.632817
O O10 0.979344 0.597795 0.227362
O O11 0.500000 0.571755 0.500000
O O12 0.242343 0.569472 0.985283
O O13 0.445364 0.504241 0.865723
O O14 0.000000 0.898063 0.000000
#
# Coordination Sequence:
#
# PCOD9123360 Si02
#       6
#     4   4   4   4   4   4
#     4  11  19  41  66  88 116 169 213 252 303 375
#     4  11  24  42  61  91 131 164 199 261 321 359
#     4  10  20  38  62  94 119 159 214 249 302 370
#     4  12  19  40  68  86 118 167 215 258 299 366
#     4  10  21  38  68  87 120 166 213 253 300 373
#     4  12  25  40  62  94 132 162 203 262 317 363
#
# _framework density 19.757307999999998
#
# number of rings (size 3 to 8) (size 9 to 14) (size 15 to 20)
#    0.000    1.000    8.333    0.000    7.000    0.000 
#    3.000    1.667    3.667    0.000    0.000    0.000 
#    0.000    0.000    0.000    0.000    0.000    0.000 
#
# Total GULP energy -66884.090308 kJ/mol
# GULP energy per Si atom -5573.674192 kJ/mol
# Density = 1.971234 g / cm^3
# Si number density = 19.757308 Si / 1000 Ang^3
#
#
#
# Elastic Constant Matrix: (Units=GPa)
#
#
# Indices 1 2 3 4 5 6 
#
# 1 82.8972 9.0766 21.6383 -0.0001 -28.7533 0.0000
# 2 9.0766 47.3650 9.2769 0.0000 -0.3265 0.0000
# 3 21.6383 9.2769 67.3519 -0.0001 -6.8448 0.0001
# 4 -0.0001 0.0000 -0.0001 24.0826 0.0001 -4.6122
# 5 -28.7533 -0.3265 -6.8448 0.0001 36.8836 0.0000
# 6 0.0000 0.0000 0.0001 -4.6122 0.0000 19.4690
#
#
#
# Elastic Compliance Matrix: (Units=1/GPa)
#
#
# Indices 1 2 3 4 5 6 
#
# 1 0.018008 -0.002559 -0.004086 0.000000 0.013258 0.000000
# 2 -0.002559 0.022067 -0.002446 0.000000 -0.002254 0.000000
# 3 -0.004086 -0.002446 0.016482 0.000000 -0.000148 0.000000
# 4 0.000000 0.000000 0.000000 0.043497 0.000000 0.010304
# 5 0.013258 -0.002254 -0.000148 0.000000 0.037400 0.000000
# 6 0.000000 0.000000 0.000000 0.010304 0.000000 0.053805
#
#
# Mechanical properties :
#
#
# Convention : Reuss Voigt Hill
#
# Bulk Modulus (GPa) = 26.05903 30.84420 28.45161
# Shear Modulus (GPa) = 22.49886 26.59520 24.54703
#
# Velocity S-wave (km/s) = 3.37821 3.67290 3.52863
# Velocity P-wave (km/s) = 5.33241 5.79934 5.57077
#
# Compressibility (1/GPa) = 0.03837442
#
# Stress axis : x y z
#
# Youngs Moduli (GPa) = 55.52961 45.31723 60.67259
#
# Poissons Ratio (x) = 0.11598 0.24789
# Poissons Ratio (y) = 0.14212 0.14842
# Poissons Ratio (z) = 0.22688 0.11086
#
# Static dielectric constant tensor:
#      x y z
#    x 1.723050 0.000000 -0.014800 
#    y 0.000000 1.674080 0.000000 
#    z -0.014800 0.000000 1.714610 
# 
# From -- ./inp_files/24478.got.cif
#   From: 2010.05.17/outbox.cif.g08.bks.cpg/sg5_13_cif.got.tgz:24478.got - 2010.06.03 18:56:24.
