data_PCOD9123727
_publ_section_title
;
Structure prediction by ZEFSAII (Michael W. Deem and Ramdas Pophale) SiO2 
 PCOD9123727
Probable space group: C 2
;
_chemical_formula_sum "Si O2"
_cell_formula_units_Z 26
_cell_length_a 8.002839
_cell_length_b 11.889953
_cell_length_c 17.441771
_cell_angle_alpha 90.000000
_cell_angle_beta 42.199079
_cell_angle_gamma 90.000000
_cell_volume 1114.796917
_symmetry_space_group_name_H-M "C 2"
_symmetry_group_IT_number 5
_symmetry_cell_setting 'monoclinic'
loop_
_space_group_symop_operation_xyz
x,y,z
-x,y,-z
1/2+x,1/2+y,z
1/2-x,1/2+y,-z
loop_
_atom_site_type_symbol
_atom_site_label
_atom_site_fract_x
_atom_site_fract_y
_atom_site_fract_z
Si Si1 0.238188 0.791340 0.872217
Si Si2 0.500000 0.801771 0.500000
Si Si3 0.485428 0.061748 0.916411
Si Si4 0.967310 0.113978 0.139952
Si Si5 0.730816 0.096287 0.524566
Si Si6 0.516212 0.001848 0.742214
Si Si7 0.792807 0.008317 0.345031
O O1 0.443988 0.734998 0.858432
O O2 0.117256 0.684141 0.870923
O O3 0.371386 0.885167 0.776818
O O4 0.000000 0.519795 0.000000
O O5 0.334157 0.719410 0.505003
O O6 0.677683 0.884459 0.391545
O O7 0.582015 0.997155 0.809500
O O8 0.000000 0.838728 0.000000
O O9 0.188540 0.077158 0.009342
O O10 0.694762 0.098836 0.197533
O O11 0.973645 0.033151 0.213793
O O12 0.722326 0.029244 0.608477
O O13 0.869008 0.042453 0.404808
O O14 0.441904 0.088472 0.597598
#
# Coordination Sequence:
#
# PCOD9123727 Si02
#       7
#     4   2   4   4   4   4   4
#     4   9  20  38  59  85 116 152 184 228 287 329
#     4  10  20  40  60  82 112 152 190 230 290 330
#     4   9  20  36  56  85 116 146 186 231 274 333
#     4   9  19  36  58  83 113 148 188 229 273 337
#     4   9  21  37  58  84 109 146 192 232 276 338
#     4  11  20  37  59  82 114 150 187 230 281 333
#     4   9  21  40  57  81 116 148 183 235 285 327
#
# _framework density 23.322633
#
# number of rings (size 3 to 8) (size 9 to 14) (size 15 to 20)
#    0.000    3.077    0.000    1.385    0.000    9.846 
#    0.000   26.154    0.000    0.000    0.000    0.000 
#    0.000    0.000    0.000    0.000    0.000    0.000 
#
# Total GULP energy -72452.189435 kJ/mol
# GULP energy per Si atom -5573.245341 kJ/mol
# Density = 2.326955 g / cm^3
# Si number density = 23.322633 Si / 1000 Ang^3
#
#
#
# Elastic Constant Matrix: (Units=GPa)
#
#
# Indices 1 2 3 4 5 6 
#
# 1 103.7108 33.3365 36.6721 -0.0003 24.5199 0.0003
# 2 33.3365 112.8380 48.5499 -0.0002 3.7495 0.0002
# 3 36.6721 48.5499 144.9968 -0.0006 25.3318 0.0007
# 4 -0.0003 -0.0002 -0.0006 1.1643 0.0003 -4.0101
# 5 24.5199 3.7495 25.3318 0.0003 55.7881 -0.0003
# 6 0.0003 0.0002 0.0007 -4.0101 -0.0003 26.4010
#
#
#
# Elastic Compliance Matrix: (Units=1/GPa)
#
#
# Indices 1 2 3 4 5 6 
#
# 1 0.012095 -0.002859 -0.001311 0.000005 -0.004529 0.000001
# 2 -0.002859 0.011077 -0.003340 -0.000002 0.002029 0.000000
# 3 -0.001311 -0.003340 0.008914 0.000008 -0.003247 0.000001
# 4 0.000005 -0.000002 0.000008 1.801254 -0.000014 0.273595
# 5 -0.004529 0.002029 -0.003247 -0.000014 0.021254 -0.000002
# 6 0.000001 0.000000 0.000001 0.273595 -0.000002 0.079434
#
#
# Mechanical properties :
#
#
# Convention : Reuss Voigt Hill
#
# Bulk Modulus (GPa) = 58.59519 66.51805 62.55662
# Shear Modulus (GPa) = 2.55789 32.86981 17.71385
#
# Velocity S-wave (km/s) = 1.04839 3.75821 2.75892
# Velocity P-wave (km/s) = 5.16176 6.88585 6.08517
#
# Compressibility (1/GPa) = 0.01706625
#
# Stress axis : x y z
#
# Youngs Moduli (GPa) = 82.67632 90.27988 112.18482
#
# Poissons Ratio (x) = 0.25811 0.14703
# Poissons Ratio (y) = 0.23637 0.37472
# Poissons Ratio (z) = 0.10836 0.30155
#
# Static dielectric constant tensor:
#      x y z
#    x 2.033370 0.000000 0.009320 
#    y 0.000000 1.823630 0.000000 
#    z 0.009320 0.000000 1.898600 
# 
# From -- ./inp_files/64533.got.cif
#   From: 2010.05.17/outbox.cif.g08.bks.cpg/sg5_33_cif.got.tgz:64533.got - 2010.06.03 18:56:24.
