data_PCOD9123676
_publ_section_title
;
Structure prediction by ZEFSAII (Michael W. Deem and Ramdas Pophale) SiO2 
 PCOD9123676
Probable space group: C 2
;
_chemical_formula_sum "Si O2"
_cell_formula_units_Z 32
_cell_length_a 15.493755
_cell_length_b 13.393646
_cell_length_c 17.018866
_cell_angle_alpha 90.000000
_cell_angle_beta 27.167360
_cell_angle_gamma 90.000000
_cell_volume 1612.551642
_symmetry_space_group_name_H-M "C 2"
_symmetry_group_IT_number 5
_symmetry_cell_setting 'monoclinic'
loop_
_space_group_symop_operation_xyz
x,y,z
-x,y,-z
1/2+x,1/2+y,z
1/2-x,1/2+y,-z
loop_
_atom_site_type_symbol
_atom_site_label
_atom_site_fract_x
_atom_site_fract_y
_atom_site_fract_z
Si Si1 0.180541 0.932480 0.159665
Si Si2 0.099417 0.259501 0.714244
Si Si3 0.722624 0.416273 0.307214
Si Si4 0.349705 0.257793 0.922983
Si Si5 0.969814 0.544252 0.202901
Si Si6 0.574258 0.924850 0.608048
Si Si7 0.867864 0.930068 0.032310
Si Si8 0.600371 0.535932 0.713935
O O1 0.249205 0.917253 0.192237
O O2 0.101940 0.827694 0.190381
O O3 0.015744 0.011375 0.272386
O O4 0.357008 0.972580 0.965423
O O5 0.180448 0.328234 0.719345
O O6 0.179096 0.147828 0.650897
O O7 0.118599 0.320758 0.616933
O O8 0.874563 0.241802 0.904505
O O9 0.500000 0.409188 0.500000
O O10 0.806573 0.519372 0.273289
O O11 0.458226 0.155679 0.846838
O O12 0.383298 0.328063 0.970623
O O13 0.902566 0.505353 0.341053
O O14 0.728326 0.956523 0.419535
O O15 0.353515 0.935724 0.765469
O O16 0.950342 0.013900 0.905518
O O17 0.000000 0.930582 0.000000
#
# Coordination Sequence:
#
# PCOD9123676 Si02
#       8
#     4   4   4   4   4   4   4   4
#     4  11  20  39  66  95 123 166 215 265 317 375
#     4  10  20  42  62  94 125 164 209 258 318 379
#     4  11  24  40  58  97 136 162 209 274 323 374
#     4  10  20  39  67  92 117 169 219 252 319 385
#     4  11  20  39  65  91 122 168 211 257 322 382
#     4  10  21  40  64  88 124 162 206 257 310 378
#     4  10  22  42  60  88 126 162 209 263 307 372
#     4  11  22  41  67  90 124 170 210 255 321 385
#
# _framework density 19.844325999999999
#
# number of rings (size 3 to 8) (size 9 to 14) (size 15 to 20)
#    0.000    1.500    6.250    1.875    0.000    4.500 
#    6.750    0.000    0.000    0.000    0.000    0.000 
#    0.000    0.000    0.000    0.000    0.000    0.000 
#
# Total GULP energy -89240.378769 kJ/mol
# GULP energy per Si atom -5577.523673 kJ/mol
# Density = 1.979916 g / cm^3
# Si number density = 19.844326 Si / 1000 Ang^3
#
#
#
# Elastic Constant Matrix: (Units=GPa)
#
#
# Indices 1 2 3 4 5 6 
#
# 1 131.6363 29.0380 15.2991 0.0011 -20.5880 -0.0006
# 2 29.0380 101.7484 -2.5835 0.0044 -13.9080 -0.0021
# 3 15.2991 -2.5835 52.1748 0.0037 -18.9901 -0.0015
# 4 0.0011 0.0044 0.0037 24.6918 0.0000 -13.1605
# 5 -20.5880 -13.9080 -18.9901 0.0000 21.3179 -0.0002
# 6 -0.0006 -0.0021 -0.0015 -13.1605 -0.0002 15.5094
#
#
#
# Elastic Compliance Matrix: (Units=1/GPa)
#
#
# Indices 1 2 3 4 5 6 
#
# 1 0.009164 -0.001520 0.000145 0.000000 0.007988 0.000000
# 2 -0.001520 0.011837 0.004896 -0.000003 0.010616 0.000000
# 3 0.000145 0.004896 0.030454 -0.000006 0.030462 -0.000001
# 4 0.000000 -0.000003 -0.000006 0.073940 -0.000007 0.062741
# 5 0.007988 0.010616 0.030462 -0.000007 0.088686 0.000000
# 6 0.000000 0.000000 -0.000001 0.062741 0.000000 0.117716
#
#
# Mechanical properties :
#
#
# Convention : Reuss Voigt Hill
#
# Bulk Modulus (GPa) = 17.09481 41.00740 29.05110
# Shear Modulus (GPa) = 14.52413 28.55756 21.54085
#
# Velocity S-wave (km/s) = 2.70831 3.79764 3.29825
# Velocity P-wave (km/s) = 4.29104 6.31971 5.40147
#
# Compressibility (1/GPa) = 0.05849729
#
# Stress axis : x y z
#
# Youngs Moduli (GPa) = 109.11690 84.47840 32.83676
#
# Poissons Ratio (x) = 0.12839 -0.00476
# Poissons Ratio (y) = 0.16584 -0.16076
# Poissons Ratio (z) = -0.01582 -0.41359
#
# Static dielectric constant tensor:
#      x y z
#    x 1.700350 0.000000 0.022910 
#    y 0.000000 1.718180 0.000000 
#    z 0.022910 0.000000 1.803510 
# 
# From -- ./inp_files/61696.got.cif
#   From: 2010.05.17/outbox.cif.g08.bks.cpg/sg5_31_cif.got.tgz:61696.got - 2010.06.03 18:56:24.
