data_PCOD9123679
_publ_section_title
;
Structure prediction by ZEFSAII (Michael W. Deem and Ramdas Pophale) SiO2 
 PCOD9123679
Probable space group: C 2
;
_chemical_formula_sum "Si O2"
_cell_formula_units_Z 18
_cell_length_a 19.935803
_cell_length_b 5.470176
_cell_length_c 8.192312
_cell_angle_alpha 90.000000
_cell_angle_beta 53.197819
_cell_angle_gamma 90.000000
_cell_volume 715.345736
_symmetry_space_group_name_H-M "C 2"
_symmetry_group_IT_number 5
_symmetry_cell_setting 'monoclinic'
loop_
_space_group_symop_operation_xyz
x,y,z
-x,y,-z
1/2+x,1/2+y,z
1/2-x,1/2+y,-z
loop_
_atom_site_type_symbol
_atom_site_label
_atom_site_fract_x
_atom_site_fract_y
_atom_site_fract_z
Si Si1 0.403424 0.616480 0.196133
Si Si2 0.679944 0.808030 0.268760
Si Si3 0.000000 0.461232 0.500000
Si Si4 0.442787 0.112844 0.248852
Si Si5 0.243816 0.304949 0.809459
O O1 0.386709 0.349423 0.293215
O O2 0.341608 0.706997 0.146216
O O3 0.400574 0.845577 0.321512
O O4 0.500000 0.596403 0.000000
O O5 0.581939 0.791665 0.368623
O O6 0.722561 0.572370 0.291272
O O7 0.693101 0.082848 0.316826
O O8 0.728327 0.822333 0.024683
O O9 0.994673 0.624807 0.342248
O O10 0.500000 0.094045 0.000000
#
# Coordination Sequence:
#
# PCOD9123679 Si02
#       5
#     4   4   2   4   4
#     4  10  20  39  67  97 133 181 229 276 339 412
#     4  10  23  39  68 102 141 182 229 290 343 411
#     4  12  26  46  72 108 138 180 242 284 344 418
#     4  10  23  40  67 101 136 178 224 285 341 403
#     4  10  21  42  66 100 141 185 228 282 352 410
#
# _framework density 25.162659000000001
#
# number of rings (size 3 to 8) (size 9 to 14) (size 15 to 20)
#    0.000    1.778    0.000    4.000    0.000   14.222 
#    0.000    4.444    0.000    0.000    0.000    0.000 
#    0.000    0.000    0.000    0.000    0.000    0.000 
#
# Total GULP energy -50257.313408 kJ/mol
# GULP energy per Si atom -5584.145934 kJ/mol
# Density = 2.510539 g / cm^3
# Si number density = 25.162659 Si / 1000 Ang^3
#
#
#
# Elastic Constant Matrix: (Units=GPa)
#
#
# Indices 1 2 3 4 5 6 
#
# 1 84.3606 56.1644 -10.2610 0.0000 -0.5246 0.0000
# 2 56.1644 241.8402 26.4795 0.0000 -1.5674 0.0000
# 3 -10.2610 26.4795 70.3295 0.0000 2.5748 0.0000
# 4 0.0000 0.0000 0.0000 118.1845 0.0000 45.4040
# 5 -0.5246 -1.5674 2.5748 0.0000 53.7963 0.0000
# 6 0.0000 0.0000 0.0000 45.4040 0.0000 83.4397
#
#
#
# Elastic Compliance Matrix: (Units=1/GPa)
#
#
# Indices 1 2 3 4 5 6 
#
# 1 0.014855 -0.003847 0.003621 0.000000 -0.000141 0.000000
# 2 -0.003847 0.005311 -0.002570 0.000000 0.000240 0.000000
# 3 0.003621 -0.002570 0.015744 0.000000 -0.000793 0.000000
# 4 0.000000 0.000000 0.000000 0.010698 0.000000 -0.005821
# 5 -0.000141 0.000240 -0.000793 0.000000 0.018632 0.000000
# 6 0.000000 0.000000 0.000000 -0.005821 0.000000 0.015152
#
#
# Mechanical properties :
#
#
# Convention : Reuss Voigt Hill
#
# Bulk Modulus (GPa) = 32.98419 60.14402 46.56411
# Shear Modulus (GPa) = 52.03442 72.69392 62.36417
#
# Velocity S-wave (km/s) = 4.55237 5.38074 4.98380
# Velocity P-wave (km/s) = 6.38506 7.90930 7.18770
#
# Compressibility (1/GPa) = 0.03031755
#
# Stress axis : x y z
#
# Youngs Moduli (GPa) = 67.31843 188.27545 63.51754
#
# Poissons Ratio (x) = 0.72434 -0.22999
# Poissons Ratio (y) = 0.25899 0.16323
# Poissons Ratio (z) = -0.24376 0.48384
#
# Static dielectric constant tensor:
#      x y z
#    x 2.015240 0.000000 -0.043360 
#    y 0.000000 2.013170 0.000000 
#    z -0.043360 0.000000 1.909060 
# 
# From -- ./inp_files/25920.got.cif
#   From: 2010.05.17/outbox.cif.g08.bks.cpg/sg5_13_cif.got.tgz:25920.got - 2010.06.03 18:56:24.
