data_PCOD9123114
_publ_section_title
;
Structure prediction by ZEFSAII (Michael W. Deem and Ramdas Pophale) SiO2 
 PCOD9123114
Probable space group: C 2
;
_chemical_formula_sum "Si O2"
_cell_formula_units_Z 28
_cell_length_a 27.736892
_cell_length_b 8.634068
_cell_length_c 8.674615
_cell_angle_alpha 90.000000
_cell_angle_beta 39.097447
_cell_angle_gamma 90.000000
_cell_volume 1310.104167
_symmetry_space_group_name_H-M "C 2"
_symmetry_group_IT_number 5
_symmetry_cell_setting 'monoclinic'
loop_
_space_group_symop_operation_xyz
x,y,z
-x,y,-z
1/2+x,1/2+y,z
1/2-x,1/2+y,-z
loop_
_atom_site_type_symbol
_atom_site_label
_atom_site_fract_x
_atom_site_fract_y
_atom_site_fract_z
Si Si1 0.583860 0.849210 0.013352
Si Si2 0.664473 0.124332 0.189944
Si Si3 0.625674 0.613385 0.682059
Si Si4 0.500000 0.997819 0.500000
Si Si5 0.000000 0.569528 0.000000
Si Si6 0.711213 0.036052 0.584075
Si Si7 0.210707 0.333724 0.277941
Si Si8 0.621905 0.271972 0.600163
O O1 0.581383 0.682802 0.939056
O O2 0.669297 0.921602 0.812436
O O3 0.529795 0.887001 0.288690
O O4 0.557585 0.960135 0.941286
O O5 0.666015 0.238522 0.334324
O O6 0.577174 0.096447 0.347470
O O7 0.692747 0.957196 0.186500
O O8 0.722306 0.212019 0.930693
O O9 0.711021 0.590850 0.534444
O O10 0.635900 0.735021 0.516423
O O11 0.601521 0.447016 0.684391
O O12 0.956091 0.676444 0.226822
O O13 0.665286 0.187993 0.635612
O O14 0.727381 0.936436 0.388997
#
# Coordination Sequence:
#
# PCOD9123114 Si02
#       8
#     4   4   4   2   2   4   4   4
#     4  10  22  38  65  89 128 168 211 262 323 397
#     4  11  23  42  66  96 134 175 218 273 336 393
#     4  11  21  37  65  97 121 163 221 270 315 388
#     4  12  24  40  66  98 136 180 214 268 344 394
#     4  10  20  42  58  84 118 172 218 242 318 386
#     4   9  20  39  64  94 124 163 219 266 317 391
#     4  10  22  39  65  95 130 172 218 267 322 396
#     4  10  20  37  62  90 124 167 211 265 320 388
#
# _framework density 21.372347000000001
#
# number of rings (size 3 to 8) (size 9 to 14) (size 15 to 20)
#    0.000    1.714    1.429    4.286    0.000    4.000 
#    0.000    0.000    0.000    4.286    0.000    0.000 
#    0.000    0.000    0.000    0.000    0.000    0.000 
#
# Total GULP energy -78048.985926 kJ/mol
# GULP energy per Si atom -5574.927566 kJ/mol
# Density = 2.132370 g / cm^3
# Si number density = 21.372347 Si / 1000 Ang^3
#
#
#
# Elastic Constant Matrix: (Units=GPa)
#
#
# Indices 1 2 3 4 5 6 
#
# 1 35.8352 22.3420 6.3006 0.0000 -8.6029 0.0000
# 2 22.3420 128.2830 39.9418 0.0000 8.5456 0.0000
# 3 6.3006 39.9418 119.8889 0.0000 16.6515 0.0000
# 4 0.0000 0.0000 0.0000 25.4721 0.0000 10.5231
# 5 -8.6029 8.5456 16.6515 0.0000 23.5104 0.0000
# 6 0.0000 0.0000 0.0000 10.5231 0.0000 11.1076
#
#
#
# Elastic Compliance Matrix: (Units=1/GPa)
#
#
# Indices 1 2 3 4 5 6 
#
# 1 0.036765 -0.006927 -0.002044 0.000000 0.017418 0.000000
# 2 -0.006927 0.010035 -0.002352 0.000000 -0.004517 0.000000
# 3 -0.002044 -0.002352 0.010223 0.000000 -0.007133 0.000000
# 4 0.000000 0.000000 0.000000 0.064505 0.000000 -0.061110
# 5 0.017418 -0.004517 -0.007133 0.000000 0.055602 0.000000
# 6 0.000000 0.000000 0.000000 -0.061110 0.000000 0.147923
#
#
# Mechanical properties :
#
#
# Convention : Reuss Voigt Hill
#
# Bulk Modulus (GPa) = 29.08861 46.79734 37.94297
# Shear Modulus (GPa) = 13.92151 26.37953 20.15052
#
# Velocity S-wave (km/s) = 2.55498 3.51705 3.07389
# Velocity P-wave (km/s) = 4.72693 6.19972 5.51273
#
# Compressibility (1/GPa) = 0.03437772
#
# Stress axis : x y z
#
# Youngs Moduli (GPa) = 27.19956 99.65277 97.82125
#
# Poissons Ratio (x) = 0.69031 0.19991
# Poissons Ratio (y) = 0.18842 0.23006
# Poissons Ratio (z) = 0.05558 0.23436
#
# Static dielectric constant tensor:
#      x y z
#    x 1.855070 0.000000 -0.093380 
#    y 0.000000 1.790750 0.000000 
#    z -0.093380 0.000000 1.950560 
# 
# From -- ./inp_files/26809.got.cif
#   From: 2010.05.17/outbox.cif.g08.bks.cpg/sg5_14_cif.got.tgz:26809.got - 2010.06.03 18:56:24.
