data_PCOD9123557
_publ_section_title
;
Structure prediction by ZEFSAII (Michael W. Deem and Ramdas Pophale) SiO2 
 PCOD9123557
Probable space group: C 2
;
_chemical_formula_sum "Si O2"
_cell_formula_units_Z 18
_cell_length_a 7.908390
_cell_length_b 12.959630
_cell_length_c 10.337670
_cell_angle_alpha 90.000000
_cell_angle_beta 49.359263
_cell_angle_gamma 90.000000
_cell_volume 803.961933
_symmetry_space_group_name_H-M "C 2"
_symmetry_group_IT_number 5
_symmetry_cell_setting 'monoclinic'
loop_
_space_group_symop_operation_xyz
x,y,z
-x,y,-z
1/2+x,1/2+y,z
1/2-x,1/2+y,-z
loop_
_atom_site_type_symbol
_atom_site_label
_atom_site_fract_x
_atom_site_fract_y
_atom_site_fract_z
Si Si1 0.972063 0.080890 0.825953
Si Si2 0.887307 0.520679 0.773449
Si Si3 0.062125 0.324603 0.114386
Si Si4 0.500000 0.278349 0.000000
Si Si5 0.217010 0.137929 0.329657
O O1 0.009844 0.205944 0.823921
O O2 0.889095 0.057760 0.722044
O O3 0.202910 0.026531 0.752645
O O4 0.767409 0.056649 0.026375
O O5 0.998691 0.410214 0.749532
O O6 0.099832 0.595766 0.662499
O O7 0.329780 0.335159 0.993063
O O8 0.000000 0.352158 0.000000
O O9 0.650584 0.212629 0.830290
O O10 0.000000 0.187647 0.500000
#
# Coordination Sequence:
#
# PCOD9123557 Si02
#       5
#     4   4   4   2   4
#     4  10  20  39  59  92 123 161 213 257 307 370
#     4  11  20  37  63  92 121 166 209 251 319 372
#     4  11  19  33  66  90 122 166 206 257 312 369
#     4  10  20  40  60  90 120 162 216 252 310 374
#     4  11  21  37  65  86 126 166 202 259 314 370
#
# _framework density 22.389118
#
# number of rings (size 3 to 8) (size 9 to 14) (size 15 to 20)
#    0.000    1.333    6.667    2.667    0.000    0.889 
#    0.000    0.000   48.889    0.000    0.000    0.000 
#    0.000    0.000    0.000    0.000    0.000    0.000 
#
# Total GULP energy -50145.352221 kJ/mol
# GULP energy per Si atom -5571.705802 kJ/mol
# Density = 2.233816 g / cm^3
# Si number density = 22.389118 Si / 1000 Ang^3
#
#
#
# Elastic Constant Matrix: (Units=GPa)
#
#
# Indices 1 2 3 4 5 6 
#
# 1 157.8892 -2.4711 0.2763 0.0000 -10.3012 0.0000
# 2 -2.4711 86.9745 1.5157 0.0000 -10.3307 0.0000
# 3 0.2763 1.5157 66.9292 0.0000 -23.9949 0.0000
# 4 0.0000 0.0000 0.0000 44.9401 0.0000 32.5812
# 5 -10.3012 -10.3307 -23.9949 0.0000 30.4917 0.0000
# 6 0.0000 0.0000 0.0000 32.5812 0.0000 27.9883
#
#
#
# Elastic Compliance Matrix: (Units=1/GPa)
#
#
# Indices 1 2 3 4 5 6 
#
# 1 0.006556 0.000559 0.001145 0.000000 0.003306 0.000000
# 2 0.000559 0.012159 0.001765 0.000000 0.005697 0.000000
# 3 0.001145 0.001765 0.021243 0.000000 0.017701 0.000000
# 4 0.000000 0.000000 0.000000 0.142609 0.000000 -0.166012
# 5 0.003306 0.005697 0.017701 0.000000 0.049772 0.000000
# 6 0.000000 0.000000 0.000000 -0.166012 0.000000 0.228984
#
#
# Mechanical properties :
#
#
# Convention : Reuss Voigt Hill
#
# Bulk Modulus (GPa) = 21.32367 34.49275 27.90821
# Shear Modulus (GPa) = 10.63790 41.51548 26.07669
#
# Velocity S-wave (km/s) = 2.18213 4.31080 3.41648
# Velocity P-wave (km/s) = 3.98669 6.34167 5.29672
#
# Compressibility (1/GPa) = 0.04689624
#
# Stress axis : x y z
#
# Youngs Moduli (GPa) = 152.53295 82.24051 47.07531
#
# Poissons Ratio (x) = -0.04597 -0.05392
# Poissons Ratio (y) = -0.08525 -0.08308
# Poissons Ratio (z) = -0.17470 -0.14514
#
# Static dielectric constant tensor:
#      x y z
#    x 1.914970 0.000000 -0.031980 
#    y 0.000000 1.958920 0.000000 
#    z -0.031980 0.000000 1.803820 
# 
# From -- ./inp_files/35107.got.cif
#   From: 2010.05.17/outbox.cif.g08.bks.cpg/sg5_18_cif.got.tgz:35107.got - 2010.06.03 18:56:24.
