data_PCOD9123395
_publ_section_title
;
Structure prediction by ZEFSAII (Michael W. Deem and Ramdas Pophale) SiO2 
 PCOD9123395
Probable space group: C 2
;
_chemical_formula_sum "Si O2"
_cell_formula_units_Z 28
_cell_length_a 14.444500
_cell_length_b 8.323099
_cell_length_c 20.115419
_cell_angle_alpha 90.000000
_cell_angle_beta 149.738395
_cell_angle_gamma 90.000000
_cell_volume 1218.717891
_symmetry_space_group_name_H-M "C 2"
_symmetry_group_IT_number 5
_symmetry_cell_setting 'monoclinic'
loop_
_space_group_symop_operation_xyz
x,y,z
-x,y,-z
1/2+x,1/2+y,z
1/2-x,1/2+y,-z
loop_
_atom_site_type_symbol
_atom_site_label
_atom_site_fract_x
_atom_site_fract_y
_atom_site_fract_z
Si Si1 0.834409 0.254120 0.140400
Si Si2 0.500000 0.562699 0.500000
Si Si3 0.493524 0.307091 0.378889
Si Si4 0.276952 0.130185 0.067565
Si Si5 0.290778 0.640973 0.646057
Si Si6 0.837129 0.781710 0.658979
Si Si7 0.382685 0.662598 0.851386
Si Si8 0.500000 0.351093 0.000000
O O1 0.815103 0.444284 0.110456
O O2 0.035923 0.205132 0.289173
O O3 0.785734 0.143202 0.047586
O O4 0.668592 0.237029 0.087725
O O5 0.460753 0.456880 0.408601
O O6 0.676276 0.664427 0.584339
O O7 0.602925 0.186615 0.495071
O O8 0.627815 0.318490 0.398024
O O9 0.304284 0.232480 0.233981
O O10 0.467409 0.220098 0.193907
O O11 0.097649 0.209450 0.992758
O O12 0.294489 0.454219 0.661418
O O13 0.334159 0.710742 0.745336
O O14 0.412934 0.475059 0.891077
#
# Coordination Sequence:
#
# PCOD9123395 Si02
#       8
#     4   2   4   4   4   4   4   2
#     4  10  21  41  67  96 137 184 227 290 355 423
#     4  12  28  48  72 108 144 188 244 304 356 430
#     4  12  24  48  71 103 141 191 241 293 362 435
#     4  10  21  41  68  99 138 184 234 288 359 422
#     4  11  24  46  67  94 140 187 224 293 362 418
#     4  12  27  45  70 106 141 185 245 298 360 433
#     4  10  21  40  72  94 138 185 223 288 357 420
#     4  10  20  38  64 110 128 178 234 288 350 422
#
# _framework density 22.974965000000001
#
# number of rings (size 3 to 8) (size 9 to 14) (size 15 to 20)
#    0.000    1.143    1.429    6.000    4.000    1.143 
#    7.714    0.000    0.000    0.000    0.000    0.000 
#    0.000    0.000    0.000    0.000    0.000    0.000 
#
# Total GULP energy -78010.089653 kJ/mol
# GULP energy per Si atom -5572.149261 kJ/mol
# Density = 2.292267 g / cm^3
# Si number density = 22.974965 Si / 1000 Ang^3
#
#
#
# Elastic Constant Matrix: (Units=GPa)
#
#
# Indices 1 2 3 4 5 6 
#
# 1 95.7088 2.2154 42.7871 0.0000 33.5844 0.0000
# 2 2.2154 69.6567 46.7811 0.0000 29.3346 0.0001
# 3 42.7871 46.7811 165.7391 -0.0001 27.1768 0.0003
# 4 0.0000 0.0000 -0.0001 35.8533 0.0000 10.3776
# 5 33.5844 29.3346 27.1768 0.0000 42.5888 0.0000
# 6 0.0000 0.0001 0.0003 10.3776 0.0000 35.3515
#
#
#
# Elastic Compliance Matrix: (Units=1/GPa)
#
#
# Indices 1 2 3 4 5 6 
#
# 1 0.019215 0.010862 -0.004819 0.000000 -0.019559 0.000000
# 2 0.010862 0.028793 -0.007008 0.000000 -0.023926 0.000000
# 3 -0.004819 -0.007008 0.008757 0.000000 0.003039 0.000000
# 4 0.000000 0.000000 0.000000 0.030481 0.000000 -0.008948
# 5 -0.019559 -0.023926 0.003039 0.000000 0.053444 0.000000
# 6 0.000000 0.000000 0.000000 -0.008948 0.000000 0.030914
#
#
# Mechanical properties :
#
#
# Convention : Reuss Voigt Hill
#
# Bulk Modulus (GPa) = 18.23649 57.18576 37.71112
# Shear Modulus (GPa) = 26.06693 38.71344 32.39019
#
# Velocity S-wave (km/s) = 3.37201 4.10936 3.75881
# Velocity P-wave (km/s) = 4.80784 6.88914 5.94036
#
# Compressibility (1/GPa) = 0.05483512
#
# Stress axis : x y z
#
# Youngs Moduli (GPa) = 52.04378 34.73032 114.18815
#
# Poissons Ratio (x) = -0.37725 0.55031
# Poissons Ratio (y) = -0.56531 0.80024
# Poissons Ratio (z) = 0.25081 0.24339
#
# Static dielectric constant tensor:
#      x y z
#    x 2.113800 0.000000 -0.017890 
#    y 0.000000 1.857180 0.000000 
#    z -0.017890 0.000000 1.852830 
# 
# From -- ./inp_files/66019.got.cif
#   From: 2010.05.17/outbox.cif.g08.bks.cpg/sg5_34_cif.got.tgz:66019.got - 2010.06.03 18:56:24.
