data_PCOD9123030
_publ_section_title
;
Structure prediction by ZEFSAII (Michael W. Deem and Ramdas Pophale) SiO2 
 PCOD9123030
Probable space group: C 2
;
_chemical_formula_sum "Si O2"
_cell_formula_units_Z 32
_cell_length_a 8.021814
_cell_length_b 13.976477
_cell_length_c 24.964112
_cell_angle_alpha 90.000000
_cell_angle_beta 147.198409
_cell_angle_gamma 90.000000
_cell_volume 1516.249095
_symmetry_space_group_name_H-M "C 2"
_symmetry_group_IT_number 5
_symmetry_cell_setting 'monoclinic'
loop_
_space_group_symop_operation_xyz
x,y,z
-x,y,-z
1/2+x,1/2+y,z
1/2-x,1/2+y,-z
loop_
_atom_site_type_symbol
_atom_site_label
_atom_site_fract_x
_atom_site_fract_y
_atom_site_fract_z
Si Si1 0.011348 0.029810 0.176472
Si Si2 0.482362 0.094632 0.611553
Si Si3 0.358004 0.889157 0.109898
Si Si4 0.338744 0.700635 0.061886
Si Si5 0.953585 0.395170 0.252735
Si Si6 0.896990 0.076157 0.390088
Si Si7 0.515670 0.700837 0.316642
Si Si8 0.506494 0.089741 0.113097
O O1 0.043657 0.127612 0.151521
O O2 0.671506 0.035545 0.107751
O O3 0.245825 0.029820 0.290109
O O4 0.117727 0.942751 0.169219
O O5 0.297232 0.127314 0.614697
O O6 0.662863 0.170482 0.624117
O O7 0.223615 0.047126 0.504526
O O8 0.472217 0.807620 0.099362
O O9 0.448944 0.849098 0.192683
O O10 0.453216 0.999816 0.136553
O O11 0.000000 0.897273 0.000000
O O12 0.000000 0.706550 0.000000
O O13 0.269354 0.650231 0.986810
O O14 0.200093 0.481477 0.322644
O O15 0.003408 0.315126 0.311064
O O16 0.962019 0.146382 0.358071
O O17 0.244719 0.661580 0.204760
#
# Coordination Sequence:
#
# PCOD9123030 Si02
#       8
#     4   4   4   4   4   4   4   4
#     4   9  19  38  57  83 122 160 204 265 315 374
#     4   9  20  40  65  85 128 170 205 272 321 374
#     4  11  20  35  59  89 124 165 212 258 322 387
#     4   9  18  34  59  82 116 166 201 255 320 379
#     4  11  22  39  62  95 123 167 214 268 323 388
#     4  10  21  42  63  91 129 167 217 269 321 383
#     4  11  21  41  65  94 131 168 215 260 333 386
#     4  10  20  37  59  88 122 165 208 257 323 389
#
# _framework density 21.104711999999999
#
# number of rings (size 3 to 8) (size 9 to 14) (size 15 to 20)
#    0.000    2.000    1.250    4.125    0.000    0.000 
#   15.750    0.000    2.750    0.000    0.000    0.000 
#    0.000    0.000    0.000    0.000    0.000    0.000 
#
# Total GULP energy -89123.789287 kJ/mol
# GULP energy per Si atom -5570.236830 kJ/mol
# Density = 2.105668 g / cm^3
# Si number density = 21.104712 Si / 1000 Ang^3
#
#
#
# Elastic Constant Matrix: (Units=GPa)
#
#
# Indices 1 2 3 4 5 6 
#
# 1 71.9998 37.7128 20.8666 0.0002 -12.6195 -0.0001
# 2 37.7128 108.4314 23.0347 -0.0004 -5.3788 -0.0001
# 3 20.8666 23.0347 82.7749 -0.0002 -17.6865 0.0000
# 4 0.0002 -0.0004 -0.0002 14.3611 0.0002 -4.3688
# 5 -12.6195 -5.3788 -17.6865 0.0002 22.0182 0.0000
# 6 -0.0001 -0.0001 0.0000 -4.3688 0.0000 22.2212
#
#
#
# Elastic Compliance Matrix: (Units=1/GPa)
#
#
# Indices 1 2 3 4 5 6 
#
# 1 0.018784 -0.005838 -0.001346 -0.000001 0.008259 0.000000
# 2 -0.005838 0.011617 -0.002257 0.000000 -0.002321 0.000000
# 3 -0.001346 -0.002257 0.015411 0.000000 0.011056 0.000000
# 4 -0.000001 0.000000 0.000000 0.074062 -0.000001 0.014561
# 5 0.008259 -0.002321 0.011056 -0.000001 0.058464 0.000000
# 6 0.000000 0.000000 0.000000 0.014561 0.000000 0.047865
#
#
# Mechanical properties :
#
#
# Convention : Reuss Voigt Hill
#
# Bulk Modulus (GPa) = 37.13284 47.38158 42.25721
# Shear Modulus (GPa) = 19.68020 23.82622 21.75321
#
# Velocity S-wave (km/s) = 3.05700 3.36363 3.21398
# Velocity P-wave (km/s) = 5.48572 6.13065 5.81713
#
# Compressibility (1/GPa) = 0.02693034
#
# Stress axis : x y z
#
# Youngs Moduli (GPa) = 53.23615 86.07992 64.88957
#
# Poissons Ratio (x) = 0.50250 0.08735
# Poissons Ratio (y) = 0.31077 0.14647
# Poissons Ratio (z) = 0.07167 0.19430
#
# Static dielectric constant tensor:
#      x y z
#    x 1.843230 0.000000 0.012490 
#    y 0.000000 1.794970 0.000000 
#    z 0.012490 0.000000 1.781750 
# 
# From -- ./inp_files/70239.got.cif
#   From: 2010.05.17/outbox.cif.g08.bks.cpg/sg5_36_cif.got.tgz:70239.got - 2010.06.03 18:56:24.
