data_PCOD9123042
_publ_section_title
;
Structure prediction by ZEFSAII (Michael W. Deem and Ramdas Pophale) SiO2 
 PCOD9123042
Probable space group: C 2
;
_chemical_formula_sum "Si O2"
_cell_formula_units_Z 24
_cell_length_a 8.402118
_cell_length_b 18.113802
_cell_length_c 14.438713
_cell_angle_alpha 90.000000
_cell_angle_beta 31.722467
_cell_angle_gamma 90.000000
_cell_volume 1155.451660
_symmetry_space_group_name_H-M "C 2"
_symmetry_group_IT_number 5
_symmetry_cell_setting 'monoclinic'
loop_
_space_group_symop_operation_xyz
x,y,z
-x,y,-z
1/2+x,1/2+y,z
1/2-x,1/2+y,-z
loop_
_atom_site_type_symbol
_atom_site_label
_atom_site_fract_x
_atom_site_fract_y
_atom_site_fract_z
Si Si1 0.738132 0.094940 0.464849
Si Si2 0.704105 0.817261 0.808380
Si Si3 0.831832 0.658130 0.813528
Si Si4 0.162901 0.363396 0.190917
Si Si5 0.830434 0.220149 0.683655
Si Si6 0.740842 0.930062 0.463480
O O1 0.500000 0.106123 0.500000
O O2 0.545491 0.101785 0.654744
O O3 0.983917 0.159260 0.350932
O O4 0.869798 0.012768 0.391301
O O5 0.796179 0.731190 0.766867
O O6 0.509891 0.835838 0.814538
O O7 0.000430 0.868352 0.665938
O O8 0.500000 0.830175 0.000000
O O9 0.002620 0.688331 0.819543
O O10 0.500000 0.629433 0.000000
O O11 0.191469 0.294957 0.248335
O O12 0.950823 0.421621 0.347782
O O13 0.500000 0.389763 0.000000
O O14 0.000000 0.230811 0.500000
O O15 0.500000 0.919800 0.500000
#
# Coordination Sequence:
#
# PCOD9123042 Si02
#       6
#     4   4   4   4   4   4
#     4  10  22  39  59  83 115 156 194 233 288 346
#     4  11  23  40  62  88 117 151 197 245 290 342
#     4  10  20  37  60  85 116 148 189 243 287 336
#     4  12  23  37  62  90 118 154 195 238 291 348
#     4  10  21  38  60  86 118 152 193 239 287 344
#     4  11  23  41  60  84 121 157 194 240 289 346
#
# _framework density 20.771099
#
# number of rings (size 3 to 8) (size 9 to 14) (size 15 to 20)
#    0.000    1.333    0.000    8.000    0.000    4.667 
#    0.000    4.167    0.000    0.000    0.000    0.000 
#    0.000    0.000    0.000    0.000    0.000    0.000 
#
# Total GULP energy -67123.371128 kJ/mol
# GULP energy per Si atom -5593.614261 kJ/mol
# Density = 2.072382 g / cm^3
# Si number density = 20.771099 Si / 1000 Ang^3
#
#
#
# Elastic Constant Matrix: (Units=GPa)
#
#
# Indices 1 2 3 4 5 6 
#
# 1 88.4270 -5.1070 -6.9517 -0.0172 7.5441 -0.0064
# 2 -5.1070 43.8152 6.1795 -0.0233 6.3609 -0.0046
# 3 -6.9517 6.1795 70.5700 -0.0821 -7.3286 -0.0133
# 4 -0.0172 -0.0233 -0.0821 10.9212 0.0099 1.3130
# 5 7.5441 6.3609 -7.3286 0.0099 31.3596 0.0095
# 6 -0.0064 -0.0046 -0.0133 1.3130 0.0095 14.5162
#
#
#
# Elastic Compliance Matrix: (Units=1/GPa)
#
#
# Indices 1 2 3 4 5 6 
#
# 1 0.011718 0.001704 0.000693 0.000029 -0.003003 0.000006
# 2 0.001704 0.024245 -0.002571 0.000040 -0.005929 0.000006
# 3 0.000693 -0.002571 0.014861 0.000104 0.003828 0.000001
# 4 0.000029 0.000040 0.000104 0.092573 -0.000018 -0.008373
# 5 -0.003003 -0.005929 0.003828 -0.000018 0.034707 -0.000021
# 6 0.000006 0.000006 0.000001 -0.008373 -0.000021 0.069646
#
#
# Mechanical properties :
#
#
# Convention : Reuss Voigt Hill
#
# Bulk Modulus (GPa) = 19.81096 21.22820 20.51958
# Shear Modulus (GPa) = 18.87341 25.27217 22.07279
#
# Velocity S-wave (km/s) = 3.01763 3.49191 3.26340
# Velocity P-wave (km/s) = 4.65832 5.14783 4.90918
#
# Compressibility (1/GPa) = 0.05047712
#
# Stress axis : x y z
#
# Youngs Moduli (GPa) = 85.33998 41.24559 67.28860
#
# Poissons Ratio (x) = -0.07028 -0.04665
# Poissons Ratio (y) = -0.14541 0.17299
# Poissons Ratio (z) = -0.05917 0.10603
#
# Static dielectric constant tensor:
#      x y z
#    x 1.738280 0.000000 0.004420 
#    y 0.000000 1.736060 0.000010 
#    z 0.004420 0.000010 1.748810 
# 
# From -- ./inp_files/16440.got.cif
#   From: 2010.05.17/outbox.cif.g08.bks.cpg/sg5_9_cif.got.tgz:16440.got - 2010.06.03 18:56:24.
