data_PCOD9123203
_publ_section_title
;
Structure prediction by ZEFSAII (Michael W. Deem and Ramdas Pophale) SiO2 
 PCOD9123203
Probable space group: C 2
;
_chemical_formula_sum "Si O2"
_cell_formula_units_Z 28
_cell_length_a 13.807006
_cell_length_b 13.071270
_cell_length_c 8.320030
_cell_angle_alpha 90.000000
_cell_angle_beta 65.990996
_cell_angle_gamma 90.000000
_cell_volume 1371.645746
_symmetry_space_group_name_H-M "C 2"
_symmetry_group_IT_number 5
_symmetry_cell_setting 'monoclinic'
loop_
_space_group_symop_operation_xyz
x,y,z
-x,y,-z
1/2+x,1/2+y,z
1/2-x,1/2+y,-z
loop_
_atom_site_type_symbol
_atom_site_label
_atom_site_fract_x
_atom_site_fract_y
_atom_site_fract_z
Si Si1 0.206779 0.443130 0.564027
Si Si2 0.248756 0.644664 0.150510
Si Si3 0.093200 0.778541 0.036524
Si Si4 0.056241 0.874638 0.630719
Si Si5 0.223326 0.410359 0.196478
Si Si6 0.121857 0.333615 0.938306
Si Si7 0.102347 0.639186 0.541789
O O1 0.334732 0.439697 0.445339
O O2 0.168492 0.409229 0.409402
O O3 0.183805 0.377189 0.739431
O O4 0.143170 0.549954 0.631194
O O5 0.158430 0.699059 0.101404
O O6 0.261135 0.524332 0.124862
O O7 0.351914 0.713379 0.066290
O O8 0.202129 0.654276 0.359058
O O9 0.036084 0.872134 0.172017
O O10 0.178824 0.832221 0.864938
O O11 0.000000 0.725741 0.000000
O O12 0.080724 0.752621 0.617802
O O13 0.000000 0.896939 0.500000
O O14 0.156627 0.378475 0.086174
O O15 0.000000 0.355128 0.000000
O O16 0.000000 0.609288 0.500000
#
# Coordination Sequence:
#
# PCOD9123203 Si02
#       7
#     4   4   4   4   4   4   4
#     4  11  23  40  65  91 129 159 206 260 307 367
#     4  10  21  41  60  88 129 157 204 260 306 367
#     4  11  20  35  62  94 118 155 207 258 305 360
#     4  11  19  39  64  88 123 160 204 255 309 364
#     4  10  24  42  62  95 122 160 211 254 306 374
#     4  11  25  42  62  90 126 167 201 253 313 368
#     4  10  20  37  66  91 116 165 205 251 314 365
#
# _framework density 20.413433999999999
#
# number of rings (size 3 to 8) (size 9 to 14) (size 15 to 20)
#    0.000    1.429    5.714    0.857    4.000    2.286 
#    0.000    0.000    0.000    0.857    0.000    0.000 
#    0.000    0.000    0.000    0.000    0.000    0.000 
#
# Total GULP energy -77954.195483 kJ/mol
# GULP energy per Si atom -5568.156820 kJ/mol
# Density = 2.036697 g / cm^3
# Si number density = 20.413434 Si / 1000 Ang^3
#
#
#
# Elastic Constant Matrix: (Units=GPa)
#
#
# Indices 1 2 3 4 5 6 
#
# 1 84.2360 28.7152 16.6764 0.0000 14.8849 0.0000
# 2 28.7152 33.7300 -17.0541 0.0000 9.8168 0.0000
# 3 16.6764 -17.0541 57.5812 0.0000 12.8484 0.0000
# 4 0.0000 0.0000 0.0000 24.1654 0.0000 -1.1063
# 5 14.8849 9.8168 12.8484 0.0000 25.9098 0.0000
# 6 0.0000 0.0000 0.0000 -1.1063 0.0000 21.1946
#
#
#
# Elastic Compliance Matrix: (Units=1/GPa)
#
#
# Indices 1 2 3 4 5 6 
#
# 1 0.025967 -0.034060 -0.019294 0.000000 0.007555 0.000000
# 2 -0.034060 0.093158 0.046062 0.000000 -0.038570 0.000000
# 3 -0.019294 0.046062 0.042748 0.000000 -0.027566 0.000000
# 4 0.000000 0.000000 0.000000 0.041481 0.000000 0.002165
# 5 0.007555 -0.038570 -0.027566 0.000000 0.062539 0.000000
# 6 0.000000 0.000000 0.000000 0.002165 0.000000 0.047295
#
#
# Mechanical properties :
#
#
# Convention : Reuss Voigt Hill
#
# Bulk Modulus (GPa) = 6.78940 25.80249 16.29595
# Shear Modulus (GPa) = 13.26727 24.06794 18.66761
#
# Velocity S-wave (km/s) = 2.55214 3.43742 3.02731
# Velocity P-wave (km/s) = 3.46665 5.33121 4.49664
#
# Compressibility (1/GPa) = 0.14728836
#
# Stress axis : x y z
#
# Youngs Moduli (GPa) = 38.51062 10.73445 23.39297
#
# Poissons Ratio (x) = 0.36562 0.45134
# Poissons Ratio (y) = 1.31167 -1.07752
# Poissons Ratio (z) = 0.74302 -0.49445
#
# Static dielectric constant tensor:
#      x y z
#    x 1.809060 0.000000 0.042860 
#    y 0.000000 1.772540 0.000000 
#    z 0.042860 0.000000 1.844120 
# 
# From -- ./inp_files/23580.got.cif
#   From: 2010.05.17/outbox.cif.g08.bks.cpg/sg5_12_cif.got.tgz:23580.got - 2010.06.03 18:56:24.
