data_PCOD9123294
_publ_section_title
;
Structure prediction by ZEFSAII (Michael W. Deem and Ramdas Pophale) SiO2 
 PCOD9123294
Probable space group: C 2
;
_chemical_formula_sum "Si O2"
_cell_formula_units_Z 28
_cell_length_a 7.821132
_cell_length_b 30.092976
_cell_length_c 5.530015
_cell_angle_alpha 90.000000
_cell_angle_beta 62.357378
_cell_angle_gamma 90.000000
_cell_volume 1152.989929
_symmetry_space_group_name_H-M "C 2"
_symmetry_group_IT_number 5
_symmetry_cell_setting 'monoclinic'
loop_
_space_group_symop_operation_xyz
x,y,z
-x,y,-z
1/2+x,1/2+y,z
1/2-x,1/2+y,-z
loop_
_atom_site_type_symbol
_atom_site_label
_atom_site_fract_x
_atom_site_fract_y
_atom_site_fract_z
Si Si1 0.500000 0.485641 0.000000
Si Si2 0.234322 0.839226 0.327859
Si Si3 0.713238 0.055613 0.253315
Si Si4 0.233127 0.793695 0.828386
Si Si5 0.720560 0.658468 0.814241
Si Si6 0.718961 0.690924 0.314143
Si Si7 0.284658 0.440706 0.745468
Si Si8 0.000000 0.510554 0.000000
O O1 0.375339 0.521365 0.236778
O O2 0.662192 0.454294 0.013424
O O3 0.297593 0.820204 0.545701
O O4 0.281829 0.890833 0.256301
O O5 0.000000 0.837000 0.500000
O O6 0.297623 0.812634 0.045931
O O7 0.500000 0.050941 0.500000
O O8 0.776710 0.106076 0.238605
O O9 0.663451 0.041291 0.011123
O O10 0.285872 0.742619 0.750005
O O11 0.000000 0.795956 0.000000
O O12 0.805487 0.682738 0.523222
O O13 0.500000 0.674458 0.000000
O O14 0.807818 0.667284 0.021334
O O15 0.500000 0.673653 0.500000
O O16 0.500000 0.445458 0.500000
O O17 0.124172 0.475246 0.761811
#
# Coordination Sequence:
#
# PCOD9123294 Si02
#       8
#     2   4   4   4   4   4   4   2
#     4  10  22  40  64  90 122 178 214 262 330 386
#     4   9  20  35  63  88 124 162 212 254 315 380
#     4  11  23  40  63  93 130 166 220 268 326 386
#     4  10  20  38  60  91 121 162 206 261 314 385
#     4  10  22  41  64  91 125 170 215 263 319 393
#     4  10  22  40  63  91 125 165 212 261 321 390
#     4  10  21  39  64  89 128 172 212 265 327 377
#     4  10  24  42  58  98 126 162 224 274 310 398
#
# _framework density 24.284686000000001
#
# number of rings (size 3 to 8) (size 9 to 14) (size 15 to 20)
#    0.000    2.000    0.714    1.714    7.000    1.143 
#    2.571    0.000    0.000    0.000    0.000    0.000 
#    0.000    0.000    0.000    0.000    0.000    0.000 
#
# Total GULP energy -78136.869108 kJ/mol
# GULP energy per Si atom -5581.204936 kJ/mol
# Density = 2.422941 g / cm^3
# Si number density = 24.284686 Si / 1000 Ang^3
#
#
#
# Elastic Constant Matrix: (Units=GPa)
#
#
# Indices 1 2 3 4 5 6 
#
# 1 92.1048 -6.4206 21.4554 0.0000 -5.4430 0.0000
# 2 -6.4206 124.6663 52.0018 0.0000 14.6649 0.0000
# 3 21.4554 52.0018 158.4833 0.0000 11.6413 0.0000
# 4 0.0000 0.0000 0.0000 37.1420 0.0000 3.2337
# 5 -5.4430 14.6649 11.6413 0.0000 30.9777 0.0000
# 6 0.0000 0.0000 0.0000 3.2337 0.0000 23.4872
#
#
#
# Elastic Compliance Matrix: (Units=1/GPa)
#
#
# Indices 1 2 3 4 5 6 
#
# 1 0.011572 0.001220 -0.002133 0.000000 0.002257 0.000000
# 2 0.001220 0.009772 -0.003134 0.000000 -0.003234 0.000000
# 3 -0.002133 -0.003134 0.007760 0.000000 -0.001807 0.000000
# 4 0.000000 0.000000 0.000000 0.027250 0.000000 -0.003752
# 5 0.002257 -0.003234 -0.001807 0.000000 0.034888 0.000000
# 6 0.000000 0.000000 0.000000 -0.003752 0.000000 0.043093
#
#
# Mechanical properties :
#
#
# Convention : Reuss Voigt Hill
#
# Bulk Modulus (GPa) = 47.59495 56.59198 52.09346
# Shear Modulus (GPa) = 33.45995 38.86922 36.16458
#
# Velocity S-wave (km/s) = 3.71593 4.00505 3.86319
# Velocity P-wave (km/s) = 6.16864 6.68890 6.43403
#
# Compressibility (1/GPa) = 0.02101063
#
# Stress axis : x y z
#
# Youngs Moduli (GPa) = 86.41189 102.33356 128.87188
#
# Poissons Ratio (x) = -0.12486 0.27486
# Poissons Ratio (y) = -0.10544 0.40389
# Poissons Ratio (z) = 0.18430 0.32072
#
# Static dielectric constant tensor:
#      x y z
#    x 2.040420 0.000000 0.058920 
#    y 0.000000 1.841380 0.000000 
#    z 0.058920 0.000000 2.069570 
# 
# From -- ./inp_files/3907.got.cif
#   From: 2010.05.17/outbox.cif.g08.bks.cpg/sg5_2_cif.got.tgz:3907.got - 2010.06.03 18:56:24.
