data_PCOD9123882
_publ_section_title
;
Structure prediction by ZEFSAII (Michael W. Deem and Ramdas Pophale) SiO2 
 PCOD9123882
Probable space group: C 2
;
_chemical_formula_sum "Si O2"
_cell_formula_units_Z 24
_cell_length_a 11.925541
_cell_length_b 8.908726
_cell_length_c 16.735573
_cell_angle_alpha 90.000000
_cell_angle_beta 31.066984
_cell_angle_gamma 90.000000
_cell_volume 917.524144
_symmetry_space_group_name_H-M "C 2"
_symmetry_group_IT_number 5
_symmetry_cell_setting 'monoclinic'
loop_
_space_group_symop_operation_xyz
x,y,z
-x,y,-z
1/2+x,1/2+y,z
1/2-x,1/2+y,-z
loop_
_atom_site_type_symbol
_atom_site_label
_atom_site_fract_x
_atom_site_fract_y
_atom_site_fract_z
Si Si1 0.831722 0.146620 0.435741
Si Si2 0.270362 0.596395 0.648207
Si Si3 0.301317 0.140524 0.896328
Si Si4 0.633037 0.559103 0.753925
Si Si5 0.233283 0.840980 0.832177
Si Si6 0.888059 0.811137 0.686068
O O1 0.845703 0.034307 0.352540
O O2 0.639725 0.265715 0.539701
O O3 0.064541 0.229670 0.293528
O O4 0.758516 0.061975 0.560373
O O5 0.500000 0.686965 0.500000
O O6 0.680943 0.464759 0.317079
O O7 0.025366 0.651952 0.807962
O O8 0.289678 0.269810 0.834547
O O9 0.283297 0.981543 0.860225
O O10 0.099862 0.129082 0.079325
O O11 0.693699 0.418384 0.770809
O O12 0.795613 0.687157 0.682542
O O13 0.000000 0.774582 0.000000
#
# Coordination Sequence:
#
# PCOD9123882 Si02
#       6
#     4   4   4   4   4   4
#     4  11  23  40  66  95 129 173 219 275 333 392
#     4  11  23  41  61  92 134 174 221 272 324 395
#     4   9  20  39  67  98 129 171 222 273 333 401
#     4  10  20  40  68  99 128 168 225 276 332 397
#     4   9  19  38  63  94 132 168 213 274 333 394
#     4  10  20  40  67  92 130 176 215 270 332 393
#
# _framework density 26.157350000000001
#
# number of rings (size 3 to 8) (size 9 to 14) (size 15 to 20)
#    0.000    2.000    0.000    5.000    0.000    1.333 
#    0.000   18.333    0.000    4.000    0.000    0.000 
#    0.000    0.000    0.000    0.000    0.000    0.000 
#
# Total GULP energy -67059.656423 kJ/mol
# GULP energy per Si atom -5588.304702 kJ/mol
# Density = 2.609781 g / cm^3
# Si number density = 26.157350 Si / 1000 Ang^3
#
#
#
# Elastic Constant Matrix: (Units=GPa)
#
#
# Indices 1 2 3 4 5 6 
#
# 1 96.4770 42.6751 57.0952 -0.0005 1.3302 -0.0002
# 2 42.6751 67.9850 10.3081 -0.0012 -0.7466 0.0003
# 3 57.0952 10.3081 136.1846 -0.0026 -22.5387 0.0008
# 4 -0.0005 -0.0012 -0.0026 21.5163 0.0010 1.9425
# 5 1.3302 -0.7466 -22.5387 0.0010 66.2220 -0.0001
# 6 -0.0002 0.0003 0.0008 1.9425 -0.0001 52.1698
#
#
#
# Elastic Compliance Matrix: (Units=1/GPa)
#
#
# Indices 1 2 3 4 5 6 
#
# 1 0.020418 -0.011605 -0.008235 -0.000001 -0.003344 0.000000
# 2 -0.011605 0.021479 0.003516 0.000001 0.001672 0.000000
# 3 -0.008235 0.003516 0.011194 0.000001 0.004015 0.000000
# 4 -0.000001 0.000001 0.000001 0.046633 0.000000 -0.001736
# 5 -0.003344 0.001672 0.004015 0.000000 0.016553 0.000000
# 6 0.000000 0.000000 0.000000 -0.001736 0.000000 0.019233
#
#
# Mechanical properties :
#
#
# Convention : Reuss Voigt Hill
#
# Bulk Modulus (GPa) = 48.91604 57.86705 53.39154
# Shear Modulus (GPa) = 28.57598 40.68618 34.63108
#
# Velocity S-wave (km/s) = 3.30883 3.94818 3.64256
# Velocity P-wave (km/s) = 5.77400 6.55400 6.17633
#
# Compressibility (1/GPa) = 0.02044319
#
# Stress axis : x y z
#
# Youngs Moduli (GPa) = 48.97611 46.55751 89.33411
#
# Poissons Ratio (x) = 0.54029 0.73569
# Poissons Ratio (y) = 0.56836 -0.31412
# Poissons Ratio (z) = 0.40333 -0.16371
#
# Static dielectric constant tensor:
#      x y z
#    x 2.144800 0.000000 -0.001510 
#    y 0.000000 2.113650 0.000000 
#    z -0.001510 0.000000 2.067090 
# 
# From -- ./inp_files/19432.got.cif
#   From: 2010.05.17/outbox.cif.g08.bks.cpg/sg5_10_cif.got.tgz:19432.got - 2010.06.03 18:56:24.
