data_PCOD9123358
_publ_section_title
;
Structure prediction by ZEFSAII (Michael W. Deem and Ramdas Pophale) SiO2 
 PCOD9123358
Probable space group: C 2
;
_chemical_formula_sum "Si O2"
_cell_formula_units_Z 26
_cell_length_a 21.296758
_cell_length_b 7.505084
_cell_length_c 13.259297
_cell_angle_alpha 90.000000
_cell_angle_beta 36.385294
_cell_angle_gamma 90.000000
_cell_volume 1257.186423
_symmetry_space_group_name_H-M "C 2"
_symmetry_group_IT_number 5
_symmetry_cell_setting 'monoclinic'
loop_
_space_group_symop_operation_xyz
x,y,z
-x,y,-z
1/2+x,1/2+y,z
1/2-x,1/2+y,-z
loop_
_atom_site_type_symbol
_atom_site_label
_atom_site_fract_x
_atom_site_fract_y
_atom_site_fract_z
Si Si1 0.081584 0.148040 0.687126
Si Si2 0.666516 0.433489 0.180972
Si Si3 0.727389 0.345521 0.465447
Si Si4 0.846142 0.173052 0.996564
Si Si5 0.194634 0.532166 0.364041
Si Si6 0.314983 0.632189 0.637189
Si Si7 0.500000 0.168615 0.500000
O O1 0.167486 0.293662 0.610712
O O2 0.078282 0.140476 0.568806
O O3 0.966950 0.196443 0.873281
O O4 0.135497 0.955843 0.642801
O O5 0.651791 0.520261 0.091425
O O6 0.669055 0.575418 0.269401
O O7 0.574740 0.293508 0.332829
O O8 0.781228 0.337486 0.033626
O O9 0.747642 0.480245 0.344891
O O10 0.689165 0.157979 0.468940
O O11 0.777397 0.122549 0.181796
O O12 0.229949 0.328025 0.319944
O O13 0.079433 0.549509 0.462226
#
# Coordination Sequence:
#
# PCOD9123358 Si02
#       7
#     4   4   4   4   4   4   2
#     4  10  22  40  68  89 123 173 218 266 315 370
#     4  11  21  40  61  97 140 161 214 262 327 385
#     4  10  21  44  63  91 126 166 221 266 309 389
#     4  11  22  38  64  97 132 169 204 275 319 386
#     4  11  22  40  63  94 132 169 214 260 332 374
#     4  10  22  41  64  88 124 174 208 264 314 387
#     4  10  20  38  62  92 130 178 212 258 314 404
#
# _framework density 20.681101000000002
#
# number of rings (size 3 to 8) (size 9 to 14) (size 15 to 20)
#    0.923    0.615    3.077    3.692    0.000    4.923 
#    0.000    4.615    6.769    0.000    0.000    0.000 
#    0.000    0.000    0.000    0.000    0.000    0.000 
#
# Total GULP energy -72421.982394 kJ/mol
# GULP energy per Si atom -5570.921723 kJ/mol
# Density = 2.063403 g / cm^3
# Si number density = 20.681101 Si / 1000 Ang^3
#
#
#
# Elastic Constant Matrix: (Units=GPa)
#
#
# Indices 1 2 3 4 5 6 
#
# 1 45.6951 15.9015 30.7975 0.0004 -19.2390 -0.0002
# 2 15.9015 102.4947 9.9153 0.0014 -4.4874 -0.0002
# 3 30.7975 9.9153 81.0815 0.0006 -27.8729 0.0000
# 4 0.0004 0.0014 0.0006 16.9140 0.0000 2.4900
# 5 -19.2390 -4.4874 -27.8729 0.0000 29.2697 0.0000
# 6 -0.0002 -0.0002 0.0000 2.4900 0.0000 31.6200
#
#
#
# Elastic Compliance Matrix: (Units=1/GPa)
#
#
# Indices 1 2 3 4 5 6 
#
# 1 0.034660 -0.003993 -0.007516 0.000000 0.015013 0.000000
# 2 -0.003993 0.010339 -0.000156 -0.000001 -0.001188 0.000000
# 3 -0.007516 -0.000156 0.020071 0.000000 0.014149 0.000000
# 4 0.000000 -0.000001 0.000000 0.059816 -0.000001 -0.004710
# 5 0.015013 -0.001188 0.014149 -0.000001 0.057325 0.000000
# 6 0.000000 0.000000 0.000000 -0.004710 0.000000 0.031996
#
#
# Mechanical properties :
#
#
# Convention : Reuss Voigt Hill
#
# Bulk Modulus (GPa) = 23.95767 38.05556 31.00661
# Shear Modulus (GPa) = 19.88456 27.07119 23.47787
#
# Velocity S-wave (km/s) = 3.10415 3.62191 3.37298
# Velocity P-wave (km/s) = 4.94541 5.99434 5.49496
#
# Compressibility (1/GPa) = 0.04174029
#
# Stress axis : x y z
#
# Youngs Moduli (GPa) = 28.85159 96.71950 49.82276
#
# Poissons Ratio (x) = 0.38620 0.37447
# Poissons Ratio (y) = 0.11520 0.00778
# Poissons Ratio (z) = 0.21685 0.01510
#
# Static dielectric constant tensor:
#      x y z
#    x 1.786710 0.000000 0.024060 
#    y 0.000000 1.776680 0.000000 
#    z 0.024060 0.000000 1.726320 
# 
# From -- ./inp_files/57535.got.cif
#   From: 2010.05.17/outbox.cif.g08.bks.cpg/sg5_29_cif.got.tgz:57535.got - 2010.06.03 18:56:24.
