data_PCOD9123038
_publ_section_title
;
Structure prediction by ZEFSAII (Michael W. Deem and Ramdas Pophale) SiO2 
 PCOD9123038
Probable space group: C 2
;
_chemical_formula_sum "Si O2"
_cell_formula_units_Z 24
_cell_length_a 11.108470
_cell_length_b 8.569897
_cell_length_c 10.297656
_cell_angle_alpha 90.000000
_cell_angle_beta 98.712256
_cell_angle_gamma 90.000000
_cell_volume 969.009402
_symmetry_space_group_name_H-M "C 2"
_symmetry_group_IT_number 5
_symmetry_cell_setting 'monoclinic'
loop_
_space_group_symop_operation_xyz
x,y,z
-x,y,-z
1/2+x,1/2+y,z
1/2-x,1/2+y,-z
loop_
_atom_site_type_symbol
_atom_site_label
_atom_site_fract_x
_atom_site_fract_y
_atom_site_fract_z
Si Si1 0.311851 0.178490 0.983159
Si Si2 0.878100 0.574643 0.635959
Si Si3 0.887799 0.884918 0.762763
Si Si4 0.828508 0.372630 0.864836
Si Si5 0.552983 0.671679 0.796048
Si Si6 0.134084 0.452676 0.655191
O O1 0.389161 0.281754 0.893822
O O2 0.172427 0.167383 0.904921
O O3 0.355866 0.000788 0.982222
O O4 0.288091 0.274218 0.109157
O O5 0.862383 0.759188 0.645094
O O6 0.806327 0.479507 0.734028
O O7 0.854227 0.500746 0.492565
O O8 0.020889 0.550287 0.690224
O O9 0.761525 0.980070 0.745879
O O10 0.997640 0.002083 0.760451
O O11 0.942701 0.264480 0.847896
O O12 0.591935 0.774530 0.677441
#
# Coordination Sequence:
#
# PCOD9123038 Si02
#       6
#     4   4   4   4   4   4
#     4  10  21  38  59  88 117 149 196 240 287 346
#     4   9  20  38  58  88 120 150 193 239 287 346
#     4  10  21  38  62  86 113 156 197 235 289 344
#     4  10  20  37  60  82 115 151 186 239 291 337
#     4  10  21  38  61  85 114 154 197 239 286 344
#     4   9  20  39  58  84 121 151 188 239 288 342
#
# _framework density 24.767562999999999
#
# number of rings (size 3 to 8) (size 9 to 14) (size 15 to 20)
#    0.000    2.333    0.000    1.500    0.000    5.333 
#    0.000   21.667    0.000    0.000    0.000    0.000 
#    0.000    0.000    0.000    0.000    0.000    0.000 
#
# Total GULP energy -67137.226804 kJ/mol
# GULP energy per Si atom -5594.768900 kJ/mol
# Density = 2.471119 g / cm^3
# Si number density = 24.767563 Si / 1000 Ang^3
#
#
#
# Elastic Constant Matrix: (Units=GPa)
#
#
# Indices 1 2 3 4 5 6 
#
# 1 84.9308 51.2200 23.1598 0.0000 -3.5125 0.0000
# 2 51.2200 157.2603 59.4589 0.0000 -14.1920 0.0000
# 3 23.1598 59.4589 89.0091 0.0000 -27.8661 0.0000
# 4 0.0000 0.0000 0.0000 36.9142 0.0000 -12.7525
# 5 -3.5125 -14.1920 -27.8661 0.0000 36.1918 0.0000
# 6 0.0000 0.0000 0.0000 -12.7525 0.0000 47.7866
#
#
#
# Elastic Compliance Matrix: (Units=1/GPa)
#
#
# Indices 1 2 3 4 5 6 
#
# 1 0.014744 -0.004436 -0.001278 0.000000 -0.001292 0.000000
# 2 -0.004436 0.009894 -0.005765 0.000000 -0.000989 0.000000
# 3 -0.001278 -0.005765 0.019332 0.000000 0.012500 0.000000
# 4 0.000000 0.000000 0.000000 0.029841 0.000000 0.007963
# 5 -0.001292 -0.000989 0.012500 0.000000 0.036742 0.000000
# 6 0.000000 0.000000 0.000000 0.007963 0.000000 0.023052
#
#
# Mechanical properties :
#
#
# Convention : Reuss Voigt Hill
#
# Bulk Modulus (GPa) = 47.58964 66.54197 57.06581
# Shear Modulus (GPa) = 30.56881 37.33595 33.95238
#
# Velocity S-wave (km/s) = 3.51697 3.88681 3.70650
# Velocity P-wave (km/s) = 5.97899 6.86061 6.43491
#
# Compressibility (1/GPa) = 0.02101298
#
# Stress axis : x y z
#
# Youngs Moduli (GPa) = 67.82227 101.07157 51.72864
#
# Poissons Ratio (x) = 0.44833 0.06610
# Poissons Ratio (y) = 0.30084 0.29821
# Poissons Ratio (z) = 0.08667 0.58266
#
# Static dielectric constant tensor:
#      x y z
#    x 1.953450 0.000000 0.003580 
#    y 0.000000 1.989490 0.000000 
#    z 0.003580 0.000000 1.986770 
# 
# From -- ./inp_files/38349.got.cif
#   From: 2010.05.17/outbox.cif.g08.bks.cpg/sg5_20_cif.got.tgz:38349.got - 2010.06.03 18:56:24.
