data_PCOD9123933
_publ_section_title
;
Structure prediction by ZEFSAII (Michael W. Deem and Ramdas Pophale) SiO2 
 PCOD9123933
Probable space group: C 2
;
_chemical_formula_sum "Si O2"
_cell_formula_units_Z 26
_cell_length_a 12.779101
_cell_length_b 18.627692
_cell_length_c 7.375396
_cell_angle_alpha 90.000000
_cell_angle_beta 140.202545
_cell_angle_gamma 90.000000
_cell_volume 1123.766155
_symmetry_space_group_name_H-M "C 2"
_symmetry_group_IT_number 5
_symmetry_cell_setting 'monoclinic'
loop_
_space_group_symop_operation_xyz
x,y,z
-x,y,-z
1/2+x,1/2+y,z
1/2-x,1/2+y,-z
loop_
_atom_site_type_symbol
_atom_site_label
_atom_site_fract_x
_atom_site_fract_y
_atom_site_fract_z
Si Si1 0.107504 0.359530 0.793183
Si Si2 0.361535 0.531698 0.660057
Si Si3 0.362420 0.156015 0.551795
Si Si4 0.855215 0.267765 0.677240
Si Si5 0.211699 0.710563 0.958794
Si Si6 0.330190 0.396185 0.384897
Si Si7 0.000000 0.116530 0.500000
O O1 0.000000 0.400323 0.500000
O O2 0.958107 0.313460 0.674883
O O3 0.245716 0.295565 0.949389
O O4 0.190976 0.411916 0.048876
O O5 0.200756 0.575022 0.512515
O O6 0.331521 0.450919 0.553304
O O7 0.427408 0.567823 0.563284
O O8 0.500000 0.535421 0.000000
O O9 0.246750 0.202016 0.530851
O O10 0.547583 0.178795 0.829714
O O11 0.315940 0.187776 0.290013
O O12 0.730424 0.321108 0.611760
O O13 0.000000 0.240015 0.000000
O O14 0.365664 0.666540 0.230231
O O15 0.500000 0.393267 0.500000
#
# Coordination Sequence:
#
# PCOD9123933 Si02
#       7
#     4   4   4   4   4   4   2
#     4  11  23  42  71 108 147 190 238 306 378 430
#     4  12  26  47  75 102 150 202 243 301 375 433
#     4  11  22  42  74 109 143 190 241 305 364 438
#     4  10  20  40  70 102 138 188 235 304 363 420
#     4  11  22  41  75 113 143 181 244 308 367 443
#     4  11  24  46  72 103 144 194 249 300 358 447
#     4  12  24  46  70 108 146 188 240 300 378 446
#
# _framework density 23.136485
#
# number of rings (size 3 to 8) (size 9 to 14) (size 15 to 20)
#    0.000    0.923    6.154    2.308    0.000    1.846 
#    8.308    1.538    0.000    0.000    0.000    0.000 
#    0.000    0.000    0.000    0.000    0.000    0.000 
#
# Total GULP energy -72577.730328 kJ/mol
# GULP energy per Si atom -5582.902333 kJ/mol
# Density = 2.308383 g / cm^3
# Si number density = 23.136485 Si / 1000 Ang^3
#
#
#
# Elastic Constant Matrix: (Units=GPa)
#
#
# Indices 1 2 3 4 5 6 
#
# 1 56.4436 36.2103 9.5195 0.0000 16.4760 0.0000
# 2 36.2103 63.5491 41.5520 0.0000 18.4297 0.0000
# 3 9.5195 41.5520 110.9665 0.0000 -5.9643 0.0000
# 4 0.0000 0.0000 0.0000 28.2827 0.0000 -8.4307
# 5 16.4760 18.4297 -5.9643 0.0000 43.2886 0.0000
# 6 0.0000 0.0000 0.0000 -8.4307 0.0000 27.1973
#
#
#
# Elastic Compliance Matrix: (Units=1/GPa)
#
#
# Indices 1 2 3 4 5 6 
#
# 1 0.030150 -0.019393 0.004536 0.000000 -0.002594 0.000000
# 2 -0.019393 0.038753 -0.013437 0.000000 -0.010969 0.000000
# 3 0.004536 -0.013437 0.013972 0.000000 0.005919 0.000000
# 4 0.000000 0.000000 0.000000 0.038957 0.000000 0.012076
# 5 -0.002594 -0.010969 0.005919 0.000000 0.029574 0.000000
# 6 0.000000 0.000000 0.000000 0.012076 0.000000 0.040512
#
#
# Mechanical properties :
#
#
# Convention : Reuss Voigt Hill
#
# Bulk Modulus (GPa) = 38.04167 45.05808 41.54987
# Shear Modulus (GPa) = 19.43489 29.33223 24.38356
#
# Velocity S-wave (km/s) = 2.90144 3.56447 3.24991
# Velocity P-wave (km/s) = 5.26331 6.03803 5.66393
#
# Compressibility (1/GPa) = 0.02628696
#
# Stress axis : x y z
#
# Youngs Moduli (GPa) = 33.16715 25.80433 71.56967
#
# Poissons Ratio (x) = 0.50043 -0.32464
# Poissons Ratio (y) = 0.64322 0.96170
# Poissons Ratio (z) = -0.15045 0.34674
#
# Static dielectric constant tensor:
#      x y z
#    x 2.056070 0.000000 -0.095230 
#    y 0.000000 1.872160 0.000000 
#    z -0.095230 0.000000 1.918020 
# 
# From -- ./inp_files/25461.got.cif
#   From: 2010.05.17/outbox.cif.g08.bks.cpg/sg5_13_cif.got.tgz:25461.got - 2010.06.03 18:56:24.
