data_PCOD9123472
_publ_section_title
;
Structure prediction by ZEFSAII (Michael W. Deem and Ramdas Pophale) SiO2 
 PCOD9123472
Probable space group: C 2
;
_chemical_formula_sum "Si O2"
_cell_formula_units_Z 18
_cell_length_a 12.150015
_cell_length_b 12.354611
_cell_length_c 10.419917
_cell_angle_alpha 90.000000
_cell_angle_beta 153.684060
_cell_angle_gamma 90.000000
_cell_volume 693.406715
_symmetry_space_group_name_H-M "C 2"
_symmetry_group_IT_number 5
_symmetry_cell_setting 'monoclinic'
loop_
_space_group_symop_operation_xyz
x,y,z
-x,y,-z
1/2+x,1/2+y,z
1/2-x,1/2+y,-z
loop_
_atom_site_type_symbol
_atom_site_label
_atom_site_fract_x
_atom_site_fract_y
_atom_site_fract_z
Si Si1 0.000000 0.791010 0.000000
Si Si2 0.267564 0.396896 0.337768
Si Si3 0.119093 0.436468 0.454624
Si Si4 0.818144 0.148343 0.696403
Si Si5 0.624334 0.723407 0.771024
O O1 0.216864 0.870921 0.271473
O O2 0.088204 0.717901 0.971927
O O3 0.500000 0.435067 0.500000
O O4 0.276218 0.439129 0.489756
O O5 0.271307 0.266885 0.355944
O O6 0.000000 0.427155 0.000000
O O7 0.094345 0.561914 0.458057
O O8 0.898995 0.350440 0.207214
O O9 0.983180 0.162823 0.738169
O O10 0.000000 0.109478 0.000000
O O11 0.500000 0.699579 0.500000
#
# Coordination Sequence:
#
# PCOD9123472 Si02
#       5
#     2   4   4   4   4
#     4  10  20  38  66  92 126 184 210 282 318 430
#     4  10  24  43  67  96 138 179 216 278 342 401
#     4  10  21  39  67  94 133 170 227 272 339 400
#     4  10  21  41  67 103 129 170 225 284 333 398
#     4   9  21  40  64  90 133 176 222 265 348 394
#
# _framework density 25.958791999999999
#
# number of rings (size 3 to 8) (size 9 to 14) (size 15 to 20)
#    0.000    2.222    1.111    0.000    9.333    3.556 
#    0.000    0.000   24.444    0.000    0.000    0.000 
#    0.000    0.000    0.000    0.000    0.000    0.000 
#
# Total GULP energy -50245.947596 kJ/mol
# GULP energy per Si atom -5582.883066 kJ/mol
# Density = 2.589971 g / cm^3
# Si number density = 25.958792 Si / 1000 Ang^3
#
#
#
# Elastic Constant Matrix: (Units=GPa)
#
#
# Indices 1 2 3 4 5 6 
#
# 1 220.4527 14.4312 16.7128 0.0004 26.3481 -0.0003
# 2 14.4312 90.9652 18.0211 0.0003 5.5997 -0.0002
# 3 16.7128 18.0211 34.6927 0.0013 18.8082 -0.0005
# 4 0.0004 0.0003 0.0013 -1.3441 0.0007 -0.5632
# 5 26.3481 5.5997 18.8082 0.0007 37.9985 -0.0004
# 6 -0.0003 -0.0002 -0.0005 -0.5632 -0.0004 -37.0572
#
#
#
# Elastic Compliance Matrix: (Units=1/GPa)
#
#
# Indices 1 2 3 4 5 6 
#
# 1 0.004980 -0.000513 -0.000412 -0.000001 -0.003174 0.000000
# 2 -0.000513 0.012402 -0.007376 -0.000003 0.002179 0.000000
# 3 -0.000412 -0.007376 0.043887 0.000028 -0.020350 -0.000001
# 4 -0.000001 -0.000003 0.000028 -0.748748 0.000002 0.011379
# 5 -0.003174 0.002179 -0.020350 0.000002 0.038269 0.000000
# 6 0.000000 0.000000 -0.000001 0.011379 0.000000 -0.027158
#
#
# Mechanical properties :
#
#
# Convention : Reuss Voigt Hill
#
# Bulk Modulus (GPa) = 22.38829 49.38232 35.88531
# Shear Modulus (GPa) = -7.75343 19.71580 5.98119
#
# Velocity S-wave (km/s) = -1.73012 2.75890 1.51958
# Velocity P-wave (km/s) = 2.15690 5.40494 4.11495
#
# Compressibility (1/GPa) = 0.04466620
#
# Stress axis : x y z
#
# Youngs Moduli (GPa) = 200.79249 80.63354 22.78569
#
# Poissons Ratio (x) = 0.04137 0.00939
# Poissons Ratio (y) = 0.10302 0.16808
# Poissons Ratio (z) = 0.08274 0.59478
#
# Static dielectric constant tensor:
#      x y z
#    x 2.065720 0.000000 0.028370 
#    y 0.000000 2.073690 0.000000 
#    z 0.028370 0.000000 2.283210 
# 
# From -- ./inp_files/39022.got.cif
#   From: 2010.05.17/outbox.cif.g08.bks.cpg/sg5_20_cif.got.tgz:39022.got - 2010.06.03 18:56:24.
