data_PCOD9123588
_publ_section_title
;
Structure prediction by ZEFSAII (Michael W. Deem and Ramdas Pophale) SiO2 
 PCOD9123588
Probable space group: C 2
;
_chemical_formula_sum "Si O2"
_cell_formula_units_Z 18
_cell_length_a 11.558926
_cell_length_b 8.020255
_cell_length_c 17.623291
_cell_angle_alpha 90.000000
_cell_angle_beta 29.162143
_cell_angle_gamma 90.000000
_cell_volume 796.111218
_symmetry_space_group_name_H-M "C 2"
_symmetry_group_IT_number 5
_symmetry_cell_setting 'monoclinic'
loop_
_space_group_symop_operation_xyz
x,y,z
-x,y,-z
1/2+x,1/2+y,z
1/2-x,1/2+y,-z
loop_
_atom_site_type_symbol
_atom_site_label
_atom_site_fract_x
_atom_site_fract_y
_atom_site_fract_z
Si Si1 0.758477 0.212960 0.333284
Si Si2 0.910559 0.444725 0.128880
Si Si3 0.500000 0.264464 0.000000
Si Si4 0.098223 0.096594 0.582309
Si Si5 0.577565 0.939714 0.318426
O O1 0.500000 0.292747 0.500000
O O2 0.937595 0.336148 0.187881
O O3 0.856641 0.142436 0.355319
O O4 0.692927 0.064322 0.312661
O O5 0.975575 0.629561 0.944816
O O6 0.626941 0.475666 0.288290
O O7 0.000000 0.358256 0.000000
O O8 0.276573 0.376805 0.146812
O O9 0.024827 0.269939 0.585462
O O10 0.347334 0.024042 0.412089
#
# Coordination Sequence:
#
# PCOD9123588 Si02
#       5
#     4   4   2   4   4
#     4  10  21  38  64  92 118 161 211 250 303 371
#     4   9  20  42  60  89 129 155 205 259 299 361
#     4   8  20  38  60  88 128 158 194 258 308 350
#     4  10  20  40  63  88 122 166 203 244 315 365
#     4  10  20  39  62  92 126 158 205 257 301 370
#
# _framework density 22.609907
#
# number of rings (size 3 to 8) (size 9 to 14) (size 15 to 20)
#    0.667    1.778    0.000    2.667    1.556    0.000 
#    8.000   31.111    0.000    0.000    0.000    0.000 
#    0.000    0.000    0.000    0.000    0.000    0.000 
#
# Total GULP energy -50198.983836 kJ/mol
# GULP energy per Si atom -5577.664871 kJ/mol
# Density = 2.255845 g / cm^3
# Si number density = 22.609907 Si / 1000 Ang^3
#
#
#
# Elastic Constant Matrix: (Units=GPa)
#
#
# Indices 1 2 3 4 5 6 
#
# 1 60.8318 23.0474 22.7842 -0.0011 7.3275 0.0001
# 2 23.0474 81.5046 72.1888 -0.0022 12.4108 0.0004
# 3 22.7842 72.1888 143.8874 -0.0053 11.3166 0.0023
# 4 -0.0011 -0.0022 -0.0053 58.5830 0.0020 5.6747
# 5 7.3275 12.4108 11.3166 0.0020 22.5902 -0.0006
# 6 0.0001 0.0004 0.0023 5.6747 -0.0006 21.1990
#
#
#
# Elastic Compliance Matrix: (Units=1/GPa)
#
#
# Indices 1 2 3 4 5 6 
#
# 1 0.018676 -0.004280 -0.000540 0.000000 -0.003436 0.000000
# 2 -0.004280 0.024130 -0.010925 0.000000 -0.006395 0.000001
# 3 -0.000540 -0.010925 0.012524 0.000001 -0.000097 -0.000001
# 4 0.000000 0.000000 0.000001 0.017524 -0.000002 -0.004691
# 5 -0.003436 -0.006395 -0.000097 -0.000002 0.048944 0.000002
# 6 0.000000 0.000001 -0.000001 -0.004691 0.000002 0.048428
#
#
# Mechanical properties :
#
#
# Convention : Reuss Voigt Hill
#
# Bulk Modulus (GPa) = 41.94544 58.02940 49.98742
# Shear Modulus (GPa) = 23.84778 31.68800 27.76789
#
# Velocity S-wave (km/s) = 3.25121 3.74774 3.50827
# Velocity P-wave (km/s) = 5.71716 6.66697 6.21025
#
# Compressibility (1/GPa) = 0.02384049
#
# Stress axis : x y z
#
# Youngs Moduli (GPa) = 53.54353 41.44230 79.84480
#
# Poissons Ratio (x) = 0.17736 0.04311
# Poissons Ratio (y) = 0.22915 0.87234
# Poissons Ratio (z) = 0.02891 0.45277
#
# Static dielectric constant tensor:
#      x y z
#    x 1.823410 0.000000 -0.007840 
#    y 0.000000 1.905180 0.000000 
#    z -0.007840 0.000000 1.841690 
# 
# From -- ./inp_files/26163.got.cif
#   From: 2010.05.17/outbox.cif.g08.bks.cpg/sg5_14_cif.got.tgz:26163.got - 2010.06.03 18:56:24.
