data_PCOD9123606
_publ_section_title
;
Structure prediction by ZEFSAII (Michael W. Deem and Ramdas Pophale) SiO2 
 PCOD9123606
Probable space group: C 2
;
_chemical_formula_sum "Si O2"
_cell_formula_units_Z 32
_cell_length_a 18.487653
_cell_length_b 15.443145
_cell_length_c 13.257954
_cell_angle_alpha 90.000000
_cell_angle_beta 21.846157
_cell_angle_gamma 90.000000
_cell_volume 1408.549217
_symmetry_space_group_name_H-M "C 2"
_symmetry_group_IT_number 5
_symmetry_cell_setting 'monoclinic'
loop_
_space_group_symop_operation_xyz
x,y,z
-x,y,-z
1/2+x,1/2+y,z
1/2-x,1/2+y,-z
loop_
_atom_site_type_symbol
_atom_site_label
_atom_site_fract_x
_atom_site_fract_y
_atom_site_fract_z
Si Si1 0.628079 0.269980 0.437065
Si Si2 0.111895 0.418541 0.974376
Si Si3 0.752356 0.414598 0.581204
Si Si4 0.235424 0.982938 0.021406
Si Si5 0.375170 0.561927 0.557181
Si Si6 0.386431 0.343075 0.940695
Si Si7 0.584619 0.072191 0.504539
Si Si8 0.226148 0.745882 0.735665
O O1 0.500000 0.272492 0.500000
O O2 0.812487 0.332685 0.179174
O O3 0.506242 0.306693 0.690061
O O4 0.671969 0.168360 0.398871
O O5 0.239970 0.427951 0.909764
O O6 0.186122 0.502983 0.818468
O O7 0.895563 0.421918 0.299120
O O8 0.537529 0.391785 0.819885
O O9 0.782865 0.497056 0.615778
O O10 0.810084 0.327861 0.567606
O O11 0.017605 0.015344 0.295145
O O12 0.269114 0.914398 0.890553
O O13 0.386316 0.060964 0.826389
O O14 0.500000 0.565901 0.500000
O O15 0.331046 0.657233 0.578387
O O16 0.280166 0.267364 0.137978
O O17 0.500000 0.061121 0.500000
O O18 0.000000 0.734944 0.000000
#
# Coordination Sequence:
#
# PCOD9123606 Si02
#       8
#     4   4   4   4   4   4   4   4
#     4  11  21  40  66  97 126 170 211 265 318 374
#     4  10  20  40  65  90 128 161 212 260 312 378
#     4  10  24  43  62  95 128 171 212 260 318 387
#     4  10  20  39  63  93 123 166 210 258 320 368
#     4  10  21  37  60  96 118 157 210 263 304 367
#     4  11  22  40  67  88 132 170 206 263 326 370
#     4  10  23  40  68  94 129 167 219 260 319 379
#     4  10  24  41  59  88 129 164 207 252 319 377
#
# _framework density 22.718412000000001
#
# number of rings (size 3 to 8) (size 9 to 14) (size 15 to 20)
#    0.000    1.750    2.500    1.125    5.250    6.000 
#    2.250    0.000   11.000    0.000    0.000    0.000 
#    0.000    0.000    0.000    0.000    0.000    0.000 
#
# Total GULP energy -89329.113618 kJ/mol
# GULP energy per Si atom -5583.069601 kJ/mol
# Density = 2.266670 g / cm^3
# Si number density = 22.718412 Si / 1000 Ang^3
#
#
#
# Elastic Constant Matrix: (Units=GPa)
#
#
# Indices 1 2 3 4 5 6 
#
# 1 75.2380 41.6347 1.9059 0.0045 5.1431 -0.0026
# 2 41.6347 140.8732 15.0766 -0.0025 -1.4294 0.0017
# 3 1.9059 15.0766 49.9601 0.0065 5.8473 -0.0045
# 4 0.0045 -0.0025 0.0065 -18.1741 -0.0046 28.4298
# 5 5.1431 -1.4294 5.8473 -0.0046 28.7179 0.0023
# 6 -0.0026 0.0017 -0.0045 28.4298 0.0023 8.0046
#
#
#
# Elastic Compliance Matrix: (Units=1/GPa)
#
#
# Indices 1 2 3 4 5 6 
#
# 1 0.016244 -0.004973 0.001281 0.000003 -0.003417 -0.000002
# 2 -0.004973 0.008877 -0.002710 -0.000002 0.001884 0.000001
# 3 0.001281 -0.002710 0.021336 0.000005 -0.004708 -0.000003
# 4 0.000003 -0.000002 0.000005 -0.008393 -0.000005 0.029809
# 5 -0.003417 0.001884 -0.004708 -0.000005 0.036486 0.000004
# 6 -0.000002 0.000001 -0.000003 0.029809 0.000004 0.019056
#
#
# Mechanical properties :
#
#
# Convention : Reuss Voigt Hill
#
# Bulk Modulus (GPa) = 29.71389 42.58952 36.15170
# Shear Modulus (GPa) = 42.50711 17.53994 30.02353
#
# Velocity S-wave (km/s) = 4.33025 2.78161 3.63926
# Velocity P-wave (km/s) = 6.17325 5.39480 5.79710
#
# Compressibility (1/GPa) = 0.03365429
#
# Stress axis : x y z
#
# Youngs Moduli (GPa) = 61.56101 112.64612 46.86931
#
# Poissons Ratio (x) = 0.56015 -0.06003
# Poissons Ratio (y) = 0.30612 0.12700
# Poissons Ratio (z) = -0.07885 0.30524
#
# Static dielectric constant tensor:
#      x y z
#    x 1.899580 0.000000 0.013770 
#    y 0.000000 1.800150 0.000000 
#    z 0.013770 0.000000 1.879220 
# 
# From -- ./inp_files/57179.got.cif
#   From: 2010.05.17/outbox.cif.g08.bks.cpg/sg5_29_cif.got.tgz:57179.got - 2010.06.03 18:56:24.
