data_PCOD9123662
_publ_section_title
;
Structure prediction by ZEFSAII (Michael W. Deem and Ramdas Pophale) SiO2 
 PCOD9123662
Probable space group: C 2
;
_chemical_formula_sum "Si O2"
_cell_formula_units_Z 28
_cell_length_a 8.305472
_cell_length_b 31.769229
_cell_length_c 7.368127
_cell_angle_alpha 90.000000
_cell_angle_beta 38.551476
_cell_angle_gamma 90.000000
_cell_volume 1211.623636
_symmetry_space_group_name_H-M "C 2"
_symmetry_group_IT_number 5
_symmetry_cell_setting 'monoclinic'
loop_
_space_group_symop_operation_xyz
x,y,z
-x,y,-z
1/2+x,1/2+y,z
1/2-x,1/2+y,-z
loop_
_atom_site_type_symbol
_atom_site_label
_atom_site_fract_x
_atom_site_fract_y
_atom_site_fract_z
Si Si1 0.426681 0.292730 0.769171
Si Si2 0.946014 0.144991 0.327992
Si Si3 0.397703 0.550007 0.387987
Si Si4 0.000000 0.850884 0.000000
Si Si5 0.926536 0.406152 0.777683
Si Si6 0.052145 0.694626 0.170366
Si Si7 0.500000 0.844886 0.000000
Si Si8 0.386569 0.001963 0.804786
O O1 0.500000 0.303379 0.500000
O O2 0.419988 0.243150 0.801347
O O3 0.602860 0.316492 0.762307
O O4 0.142713 0.313215 0.013988
O O5 0.898486 0.097152 0.309168
O O6 0.694795 0.173342 0.520625
O O7 0.000000 0.144120 0.500000
O O8 0.193852 0.166924 0.022005
O O9 0.500000 0.552443 0.500000
O O10 0.109290 0.532872 0.676989
O O11 0.603288 0.521047 0.095653
O O12 0.845901 0.882095 0.002286
O O13 0.897243 0.454153 0.865354
O O14 0.000000 0.404976 0.500000
O O15 0.102999 0.379506 0.760777
O O16 0.000000 0.694090 0.000000
O O17 0.500000 0.998418 0.500000
#
# Coordination Sequence:
#
# PCOD9123662 Si02
#       8
#     4   4   4   2   4   4   2   4
#     4  11  23  40  63  95 131 169 223 274 333 396
#     4   9  20  39  66  96 129 172 223 269 328 399
#     4  11  23  43  71 101 133 176 228 278 334 404
#     4  10  22  44  64  90 124 182 222 270 334 398
#     4  10  23  41  65  92 132 176 223 272 338 395
#     4  10  20  39  66  95 128 175 221 272 329 400
#     4  10  24  42  62  94 130 168 226 280 324 404
#     4  11  25  42  67  99 139 177 221 277 342 406
#
# _framework density 23.109484999999999
#
# number of rings (size 3 to 8) (size 9 to 14) (size 15 to 20)
#    0.000    1.714    0.714    2.571    8.000    2.286 
#    0.000    4.286    0.000    0.000    0.000    0.000 
#    0.000    0.000    0.000    0.000    0.000    0.000 
#
# Total GULP energy -77991.859931 kJ/mol
# GULP energy per Si atom -5570.847138 kJ/mol
# Density = 2.305689 g / cm^3
# Si number density = 23.109485 Si / 1000 Ang^3
#
#
#
# Elastic Constant Matrix: (Units=GPa)
#
#
# Indices 1 2 3 4 5 6 
#
# 1 65.3689 32.6268 14.4437 0.0000 4.0567 0.0000
# 2 32.6268 193.0327 44.8064 0.0000 -11.9060 0.0000
# 3 14.4437 44.8064 93.2961 0.0000 -2.8169 0.0000
# 4 0.0000 0.0000 0.0000 30.6884 0.0000 -3.6559
# 5 4.0567 -11.9060 -2.8169 0.0000 35.5154 0.0000
# 6 0.0000 0.0000 0.0000 -3.6559 0.0000 20.6836
#
#
#
# Elastic Compliance Matrix: (Units=1/GPa)
#
#
# Indices 1 2 3 4 5 6 
#
# 1 0.017175 -0.002757 -0.001425 0.000000 -0.002999 0.000000
# 2 -0.002757 0.006382 -0.002570 0.000000 0.002250 0.000000
# 3 -0.001425 -0.002570 0.012182 0.000000 0.000267 0.000000
# 4 0.000000 0.000000 0.000000 0.033287 0.000000 0.005884
# 5 -0.002999 0.002250 0.000267 0.000000 0.029275 0.000000
# 6 0.000000 0.000000 0.000000 0.005884 0.000000 0.049387
#
#
# Mechanical properties :
#
#
# Convention : Reuss Voigt Hill
#
# Bulk Modulus (GPa) = 44.97773 59.49461 52.23617
# Shear Modulus (GPa) = 29.65534 34.69888 32.17711
#
# Velocity S-wave (km/s) = 3.58614 3.87912 3.73550
# Velocity P-wave (km/s) = 6.05412 6.77230 6.42325
#
# Compressibility (1/GPa) = 0.02223323
#
# Stress axis : x y z
#
# Youngs Moduli (GPa) = 58.22424 156.69393 82.09066
#
# Poissons Ratio (x) = 0.43202 0.11701
# Poissons Ratio (y) = 0.16053 0.21099
# Poissons Ratio (z) = 0.08299 0.40273
#
# Static dielectric constant tensor:
#      x y z
#    x 1.960450 0.000000 -0.023450 
#    y 0.000000 1.837880 0.000000 
#    z -0.023450 0.000000 1.945780 
# 
# From -- ./inp_files/17546.got.cif
#   From: 2010.05.17/outbox.cif.g08.bks.cpg/sg5_9_cif.got.tgz:17546.got - 2010.06.03 18:56:24.
