data_PCOD9123232
_publ_section_title
;
Structure prediction by ZEFSAII (Michael W. Deem and Ramdas Pophale) SiO2 
 PCOD9123232
Probable space group: C 2
;
_chemical_formula_sum "Si O2"
_cell_formula_units_Z 24
_cell_length_a 18.474443
_cell_length_b 14.447712
_cell_length_c 10.138625
_cell_angle_alpha 90.000000
_cell_angle_beta 22.870384
_cell_angle_gamma 90.000000
_cell_volume 1051.733328
_symmetry_space_group_name_H-M "C 2"
_symmetry_group_IT_number 5
_symmetry_cell_setting 'monoclinic'
loop_
_space_group_symop_operation_xyz
x,y,z
-x,y,-z
1/2+x,1/2+y,z
1/2-x,1/2+y,-z
loop_
_atom_site_type_symbol
_atom_site_label
_atom_site_fract_x
_atom_site_fract_y
_atom_site_fract_z
Si Si1 0.545898 0.296300 0.778721
Si Si2 0.531459 0.610259 0.085320
Si Si3 0.330072 0.220525 0.703951
Si Si4 0.740439 0.939992 0.223575
Si Si5 0.802100 0.420872 0.995488
Si Si6 0.713867 0.975233 0.681861
O O1 0.606923 0.232065 0.554759
O O2 0.696434 0.381189 0.531404
O O3 0.500000 0.255953 0.000000
O O4 0.358285 0.348565 0.050747
O O5 0.334961 0.564272 0.444236
O O6 0.500000 0.662195 0.000000
O O7 0.631704 0.670560 0.026886
O O8 0.673302 0.522565 0.834749
O O9 0.500000 0.175344 0.500000
O O10 0.287937 0.319373 0.840378
O O11 0.525741 0.920490 0.609971
O O12 0.767185 0.965148 0.024260
O O13 0.760449 0.467020 0.204168
O O14 0.500000 0.981471 0.000000
#
# Coordination Sequence:
#
# PCOD9123232 Si02
#       6
#     4   4   4   4   4   4
#     4  10  20  37  69  96 128 168 221 273 323 386
#     4  11  25  42  64  94 135 175 211 274 334 389
#     4  11  24  44  65  97 139 174 218 266 337 391
#     4  10  20  40  66  98 129 164 228 267 326 385
#     4  10  21  38  68  96 125 176 218 274 319 392
#     4  10  20  39  67  98 129 167 234 268 329 383
#
# _framework density 22.819472999999999
#
# number of rings (size 3 to 8) (size 9 to 14) (size 15 to 20)
#    0.000    1.667    1.667    4.000    2.333    4.000 
#    0.000    9.167    3.667    0.000    0.000    0.000 
#    0.000    0.000    0.000    0.000    0.000    0.000 
#
# Total GULP energy -67062.690777 kJ/mol
# GULP energy per Si atom -5588.557565 kJ/mol
# Density = 2.276754 g / cm^3
# Si number density = 22.819473 Si / 1000 Ang^3
#
#
#
# Elastic Constant Matrix: (Units=GPa)
#
#
# Indices 1 2 3 4 5 6 
#
# 1 127.2814 20.6948 40.3419 0.0001 -3.4891 -0.0004
# 2 20.6948 24.6938 11.5853 -0.0045 -2.4886 0.0020
# 3 40.3419 11.5853 92.8296 -0.0059 -13.9443 0.0033
# 4 0.0001 -0.0045 -0.0059 14.4904 0.0034 -10.0612
# 5 -3.4891 -2.4886 -13.9443 0.0034 46.7704 -0.0014
# 6 -0.0004 0.0020 0.0033 -10.0612 -0.0014 19.2769
#
#
#
# Elastic Compliance Matrix: (Units=1/GPa)
#
#
# Indices 1 2 3 4 5 6 
#
# 1 0.010102 -0.006827 -0.003643 -0.000004 -0.000696 -0.000001
# 2 -0.006827 0.047652 -0.002801 0.000016 0.001191 0.000004
# 3 -0.003643 -0.002801 0.013235 0.000004 0.003525 0.000000
# 4 -0.000004 0.000016 0.000004 0.108236 -0.000004 0.056492
# 5 -0.000696 0.001191 0.003525 -0.000004 0.022443 -0.000001
# 6 -0.000001 0.000004 0.000000 0.056492 -0.000001 0.081360
#
#
# Mechanical properties :
#
#
# Convention : Reuss Voigt Hill
#
# Bulk Modulus (GPa) = 22.49899 43.33875 32.91887
# Shear Modulus (GPa) = 15.41374 27.58639 21.50007
#
# Velocity S-wave (km/s) = 2.60179 3.48069 3.07283
# Velocity P-wave (km/s) = 4.34818 5.93185 5.20065
#
# Compressibility (1/GPa) = 0.04444644
#
# Stress axis : x y z
#
# Youngs Moduli (GPa) = 98.98910 20.98555 75.55992
#
# Poissons Ratio (x) = 0.14327 0.27524
# Poissons Ratio (y) = 0.67583 0.21165
# Poissons Ratio (z) = 0.36058 0.05878
#
# Static dielectric constant tensor:
#      x y z
#    x 1.866270 0.000000 0.036520 
#    y 0.000000 1.846670 0.000000 
#    z 0.036520 0.000000 1.843520 
# 
# From -- ./inp_files/46571.got.cif
#   From: 2010.05.17/outbox.cif.g08.bks.cpg/sg5_24_cif.got.tgz:46571.got - 2010.06.03 18:56:24.
