data_PCOD9123786
_publ_section_title
;
Structure prediction by ZEFSAII (Michael W. Deem and Ramdas Pophale) SiO2 
 PCOD9123786
Probable space group: C 2
;
_chemical_formula_sum "Si O2"
_cell_formula_units_Z 32
_cell_length_a 16.345453
_cell_length_b 9.895502
_cell_length_c 15.153628
_cell_angle_alpha 90.000000
_cell_angle_beta 142.367536
_cell_angle_gamma 90.000000
_cell_volume 1496.593767
_symmetry_space_group_name_H-M "C 2"
_symmetry_group_IT_number 5
_symmetry_cell_setting 'monoclinic'
loop_
_space_group_symop_operation_xyz
x,y,z
-x,y,-z
1/2+x,1/2+y,z
1/2-x,1/2+y,-z
loop_
_atom_site_type_symbol
_atom_site_label
_atom_site_fract_x
_atom_site_fract_y
_atom_site_fract_z
Si Si1 0.478885 0.285180 0.381855
Si Si2 0.489689 0.654356 0.752510
Si Si3 0.324209 0.526336 0.300361
Si Si4 0.232260 0.752960 0.940250
Si Si5 0.858086 0.404162 0.724067
Si Si6 0.140140 0.540379 0.981398
Si Si7 0.179099 0.895522 0.419385
Si Si8 0.905817 0.271504 0.493725
O O1 0.500000 0.232275 0.500000
O O2 0.449467 0.446380 0.367742
O O3 0.344420 0.234080 0.217979
O O4 0.601365 0.285939 0.415768
O O5 0.395631 0.754356 0.727507
O O6 0.284459 0.967154 0.576247
O O7 0.487249 0.719135 0.650635
O O8 0.633142 0.670160 0.921540
O O9 0.245960 0.410906 0.286699
O O10 0.356170 0.645408 0.393654
O O11 0.222846 0.573257 0.139176
O O12 0.131522 0.679684 0.920980
O O13 0.277120 0.909865 0.987806
O O14 0.570571 0.505306 0.297141
O O15 0.991877 0.481906 0.865715
O O16 0.274075 0.841786 0.422324
O O17 0.000000 0.345707 0.500000
#
# Coordination Sequence:
#
# PCOD9123786 Si02
#       8
#     4   4   4   4   4   4   4   4
#     4  11  21  38  68 100 130 170 229 275 329 407
#     4  10  20  40  63  91 138 177 216 278 342 394
#     4  11  20  39  66  98 126 175 227 272 321 403
#     4  10  22  39  65  99 129 179 218 281 339 396
#     4  10  21  35  61  97 126 171 226 274 322 397
#     4  10  22  38  65  95 135 172 230 276 334 393
#     4  11  22  39  68  99 134 174 222 285 336 389
#     4  11  22  37  70  99 135 176 228 273 336 399
#
# _framework density 21.381889000000001
#
# number of rings (size 3 to 8) (size 9 to 14) (size 15 to 20)
#    0.000    1.500    2.500    3.750    1.750    0.000 
#    0.000    0.000   27.500    0.000   13.000    0.000 
#    0.000    0.000    0.000    0.000    0.000    0.000 
#
# Total GULP energy -89173.306915 kJ/mol
# GULP energy per Si atom -5573.331682 kJ/mol
# Density = 2.133322 g / cm^3
# Si number density = 21.381889 Si / 1000 Ang^3
#
#
#
# Elastic Constant Matrix: (Units=GPa)
#
#
# Indices 1 2 3 4 5 6 
#
# 1 145.5712 37.3905 31.0712 0.0000 2.6638 0.0000
# 2 37.3905 32.2280 29.5694 0.0000 -1.4570 0.0000
# 3 31.0712 29.5694 149.9667 0.0000 -10.4146 0.0000
# 4 0.0000 0.0000 0.0000 34.1748 0.0000 -1.0128
# 5 2.6638 -1.4570 -10.4146 0.0000 37.4793 0.0000
# 6 0.0000 0.0000 0.0000 -1.0128 0.0000 35.3153
#
#
#
# Elastic Compliance Matrix: (Units=1/GPa)
#
#
# Indices 1 2 3 4 5 6 
#
# 1 0.009838 -0.011627 0.000178 0.000000 -0.001102 0.000000
# 2 -0.011627 0.051637 -0.007725 0.000000 0.000687 0.000000
# 3 0.000178 -0.007725 0.008293 0.000000 0.001991 0.000000
# 4 0.000000 0.000000 0.000000 0.029286 0.000000 0.000840
# 5 -0.001102 0.000687 0.001991 0.000000 0.027340 0.000000
# 6 0.000000 0.000000 0.000000 0.000840 0.000000 0.028340
#
#
# Mechanical properties :
#
#
# Convention : Reuss Voigt Hill
#
# Bulk Modulus (GPa) = 31.82709 58.20312 45.01510
# Shear Modulus (GPa) = 24.56335 36.70953 30.63644
#
# Velocity S-wave (km/s) = 3.39306 4.14799 3.78937
# Velocity P-wave (km/s) = 5.50162 7.08667 6.34385
#
# Compressibility (1/GPa) = 0.03141978
#
# Stress axis : x y z
#
# Youngs Moduli (GPa) = 101.64516 19.36603 120.58738
#
# Poissons Ratio (x) = 0.22517 -0.02142
# Poissons Ratio (y) = 1.18182 0.93150
# Poissons Ratio (z) = -0.01806 0.14960
#
# Static dielectric constant tensor:
#      x y z
#    x 1.859180 0.000000 0.027470 
#    y 0.000000 1.789220 0.000000 
#    z 0.027470 0.000000 1.847850 
# 
# From -- ./inp_files/54612.got.cif
#   From: 2010.05.17/outbox.cif.g08.bks.cpg/sg5_28_cif.got.tgz:54612.got - 2010.06.03 18:56:24.
