data_PCOD9123435
_publ_section_title
;
Structure prediction by ZEFSAII (Michael W. Deem and Ramdas Pophale) SiO2 
 PCOD9123435
Probable space group: C 2
;
_chemical_formula_sum "Si O2"
_cell_formula_units_Z 28
_cell_length_a 17.285128
_cell_length_b 8.964779
_cell_length_c 13.977076
_cell_angle_alpha 90.000000
_cell_angle_beta 41.081906
_cell_angle_gamma 90.000000
_cell_volume 1423.261142
_symmetry_space_group_name_H-M "C 2"
_symmetry_group_IT_number 5
_symmetry_cell_setting 'monoclinic'
loop_
_space_group_symop_operation_xyz
x,y,z
-x,y,-z
1/2+x,1/2+y,z
1/2-x,1/2+y,-z
loop_
_atom_site_type_symbol
_atom_site_label
_atom_site_fract_x
_atom_site_fract_y
_atom_site_fract_z
Si Si1 0.438884 0.413630 0.461995
Si Si2 0.709755 0.994098 0.769882
Si Si3 0.975783 0.271869 0.126042
Si Si4 0.679010 0.565474 0.599855
Si Si5 0.584229 0.235605 0.177643
Si Si6 0.692126 0.932855 0.007864
Si Si7 0.340076 0.244009 0.314755
O O1 0.500000 0.475749 0.500000
O O2 0.308082 0.390400 0.626846
O O3 0.412794 0.526042 0.399856
O O4 0.516835 0.283436 0.339854
O O5 0.709653 0.162352 0.731754
O O6 0.588612 0.925639 0.843090
O O7 0.720306 0.988606 0.873466
O O8 0.886945 0.172904 0.267596
O O9 0.090313 0.310914 0.081201
O O10 0.000000 0.199029 0.000000
O O11 0.707701 0.408991 0.622792
O O12 0.791032 0.641726 0.447088
O O13 0.481014 0.248587 0.194555
O O14 0.640195 0.070256 0.117582
O O15 0.690363 0.352941 0.063896
#
# Coordination Sequence:
#
# PCOD9123435 Si02
#       7
#     4   4   4   4   4   4   4
#     4  10  20  38  65  88 123 169 218 261 326 386
#     4  10  20  43  65  91 121 176 216 265 330 396
#     4  10  21  39  60  91 126 168 214 263 327 402
#     4  10  21  38  64  95 122 163 223 274 323 379
#     4  11  23  39  62  93 128 171 215 270 328 394
#     4  11  24  38  65  90 134 170 214 263 340 394
#     4  10  21  38  66  92 123 167 221 274 315 392
#
# _framework density 19.673127999999998
#
# number of rings (size 3 to 8) (size 9 to 14) (size 15 to 20)
#    0.000    1.714    2.857    2.571    4.000    0.000 
#    5.143    0.000    0.000    0.857    0.000    0.000 
#    0.000    0.000    0.000    0.000    0.000    0.000 
#
# Total GULP energy -78004.677237 kJ/mol
# GULP energy per Si atom -5571.762660 kJ/mol
# Density = 1.962835 g / cm^3
# Si number density = 19.673128 Si / 1000 Ang^3
#
#
#
# Elastic Constant Matrix: (Units=GPa)
#
#
# Indices 1 2 3 4 5 6 
#
# 1 58.0506 27.3108 28.5883 0.0000 -4.7401 0.0000
# 2 27.3108 91.1710 35.7865 0.0000 -3.8424 0.0000
# 3 28.5883 35.7865 74.0272 0.0000 -18.9284 0.0000
# 4 0.0000 0.0000 0.0000 27.1477 0.0000 -10.3231
# 5 -4.7401 -3.8424 -18.9284 0.0000 33.6733 0.0000
# 6 0.0000 0.0000 0.0000 -10.3231 0.0000 11.2543
#
#
#
# Elastic Compliance Matrix: (Units=1/GPa)
#
#
# Indices 1 2 3 4 5 6 
#
# 1 0.022494 -0.004017 -0.007068 0.000000 -0.001265 0.000000
# 2 -0.004017 0.014436 -0.006015 0.000000 -0.002300 0.000000
# 3 -0.007068 -0.006015 0.021858 0.000000 0.010605 0.000000
# 4 0.000000 0.000000 0.000000 0.056565 0.000000 0.051885
# 5 -0.001265 -0.002300 0.010605 0.000000 0.035218 0.000000
# 6 0.000000 0.000000 0.000000 0.051885 0.000000 0.136447
#
#
# Mechanical properties :
#
#
# Convention : Reuss Voigt Hill
#
# Bulk Modulus (GPa) = 40.67316 45.18001 42.92658
# Shear Modulus (GPa) = 15.17843 23.18594 19.18218
#
# Velocity S-wave (km/s) = 2.78066 3.43674 3.12596
# Velocity P-wave (km/s) = 5.57035 6.22603 5.90729
#
# Compressibility (1/GPa) = 0.02458624
#
# Stress axis : x y z
#
# Youngs Moduli (GPa) = 44.45650 69.27148 45.74983
#
# Poissons Ratio (x) = 0.27826 0.32338
# Poissons Ratio (y) = 0.17858 0.27520
# Poissons Ratio (z) = 0.31424 0.41669
#
# Static dielectric constant tensor:
#      x y z
#    x 1.720350 0.000000 -0.022590 
#    y 0.000000 1.687650 0.000000 
#    z -0.022590 0.000000 1.760600 
# 
# From -- ./inp_files/55736.got.cif
#   From: 2010.05.17/outbox.cif.g08.bks.cpg/sg5_28_cif.got.tgz:55736.got - 2010.06.03 18:56:24.
