data_PCOD9123778
_publ_section_title
;
Structure prediction by ZEFSAII (Michael W. Deem and Ramdas Pophale) SiO2 
 PCOD9123778
Probable space group: C 2
;
_chemical_formula_sum "Si O2"
_cell_formula_units_Z 24
_cell_length_a 13.322565
_cell_length_b 4.888636
_cell_length_c 22.100355
_cell_angle_alpha 90.000000
_cell_angle_beta 50.205778
_cell_angle_gamma 90.000000
_cell_volume 1105.943155
_symmetry_space_group_name_H-M "C 2"
_symmetry_group_IT_number 5
_symmetry_cell_setting 'monoclinic'
loop_
_space_group_symop_operation_xyz
x,y,z
-x,y,-z
1/2+x,1/2+y,z
1/2-x,1/2+y,-z
loop_
_atom_site_type_symbol
_atom_site_label
_atom_site_fract_x
_atom_site_fract_y
_atom_site_fract_z
Si Si1 0.877597 0.992720 0.502084
Si Si2 0.035759 0.086495 0.279252
Si Si3 0.257934 0.003037 0.605837
Si Si4 0.370013 0.617263 0.012931
Si Si5 0.557862 0.124559 0.350858
Si Si6 0.190830 0.117172 0.098898
O O1 0.767819 0.800080 0.572304
O O2 0.000000 0.001518 0.500000
O O3 0.941275 0.817715 0.423016
O O4 0.819826 0.296380 0.532147
O O5 0.023355 0.351048 0.327542
O O6 0.104736 0.170189 0.190758
O O7 0.892635 0.959029 0.320022
O O8 0.117976 0.848539 0.281774
O O9 0.350770 0.022965 0.629066
O O10 0.315466 0.315954 0.046892
O O11 0.251458 0.815573 0.077007
O O12 0.500000 0.673863 0.000000
O O13 0.386920 0.651682 0.934135
#
# Coordination Sequence:
#
# PCOD9123778 Si02
#       6
#     4   4   4   4   4   4
#     4  10  20  40  63  83 116 162 215 267 302 359
#     4  12  25  40  62  96 130 163 204 260 325 379
#     4  11  23  41  62  86 120 164 211 260 315 365
#     4  10  21  43  69  93 124 170 209 245 306 370
#     4  11  24  42  62  90 127 166 213 265 319 371
#     4  10  23  40  63  98 131 157 209 261 296 378
#
# _framework density 21.700934
#
# number of rings (size 3 to 8) (size 9 to 14) (size 15 to 20)
#    0.000    1.333    0.000    7.000    0.000    5.333 
#    0.000    3.333    0.000    0.000    0.000    0.000 
#    0.000    0.000    0.000    0.000    0.000    0.000 
#
# Total GULP energy -66981.504220 kJ/mol
# GULP energy per Si atom -5581.792018 kJ/mol
# Density = 2.165154 g / cm^3
# Si number density = 21.700934 Si / 1000 Ang^3
#
#
#
# Elastic Constant Matrix: (Units=GPa)
#
#
# Indices 1 2 3 4 5 6 
#
# 1 142.2886 16.1264 68.0593 -0.0276 19.1337 -0.0152
# 2 16.1264 108.7975 11.8175 -0.1571 11.6775 -0.0959
# 3 68.0593 11.8175 100.5678 0.0992 21.2834 0.0275
# 4 -0.0276 -0.1571 0.0992 24.6169 0.0136 9.9632
# 5 19.1337 11.6775 21.2834 0.0136 17.1753 0.0105
# 6 -0.0152 -0.0959 0.0275 9.9632 0.0105 22.5050
#
#
#
# Elastic Compliance Matrix: (Units=1/GPa)
#
#
# Indices 1 2 3 4 5 6 
#
# 1 0.010611 -0.000495 -0.006360 0.000037 -0.003602 -0.000002
# 2 -0.000495 0.009948 0.000652 0.000056 -0.007019 0.000020
# 3 -0.006360 0.000652 0.017303 -0.000071 -0.014800 0.000016
# 4 0.000037 0.000056 -0.000071 0.049491 -0.000017 -0.021910
# 5 -0.003602 -0.007019 -0.014800 -0.000017 0.085348 -0.000047
# 6 -0.000002 0.000020 0.000016 -0.021910 -0.000047 0.054134
#
#
# Mechanical properties :
#
#
# Convention : Reuss Voigt Hill
#
# Bulk Modulus (GPa) = 39.28655 60.40671 49.84663
# Shear Modulus (GPa) = 20.18348 29.90283 25.04315
#
# Velocity S-wave (km/s) = 3.05302 3.71610 3.40076
# Velocity P-wave (km/s) = 5.52909 6.80507 6.19999
#
# Compressibility (1/GPa) = 0.02545400
#
# Stress axis : x y z
#
# Youngs Moduli (GPa) = 94.24389 100.52776 57.79194
#
# Poissons Ratio (x) = 0.04978 0.36757
# Poissons Ratio (y) = 0.04667 -0.03766
# Poissons Ratio (z) = 0.59942 -0.06551
#
# Static dielectric constant tensor:
#      x y z
#    x 1.803670 0.000000 0.031220 
#    y 0.000000 1.781520 0.000000 
#    z 0.031220 0.000000 1.809310 
# 
# From -- ./inp_files/65623.got.cif
#   From: 2010.05.17/outbox.cif.g08.bks.cpg/sg5_33_cif.got.tgz:65623.got - 2010.06.03 18:56:24.
