data_PCOD9123751
_publ_section_title
;
Structure prediction by ZEFSAII (Michael W. Deem and Ramdas Pophale) SiO2 
 PCOD9123751
Probable space group: C 2
;
_chemical_formula_sum "Si O2"
_cell_formula_units_Z 30
_cell_length_a 12.533472
_cell_length_b 20.233196
_cell_length_c 12.842561
_cell_angle_alpha 90.000000
_cell_angle_beta 156.478595
_cell_angle_gamma 90.000000
_cell_volume 1299.750985
_symmetry_space_group_name_H-M "C 2"
_symmetry_group_IT_number 5
_symmetry_cell_setting 'monoclinic'
loop_
_space_group_symop_operation_xyz
x,y,z
-x,y,-z
1/2+x,1/2+y,z
1/2-x,1/2+y,-z
loop_
_atom_site_type_symbol
_atom_site_label
_atom_site_fract_x
_atom_site_fract_y
_atom_site_fract_z
Si Si1 0.334736 0.539440 0.193055
Si Si2 0.288417 0.677557 0.229307
Si Si3 0.431039 0.037530 0.635463
Si Si4 0.000000 0.634724 0.500000
Si Si5 0.804798 0.752044 0.204740
Si Si6 0.595485 0.751115 0.340056
Si Si7 0.228318 0.895469 0.852793
Si Si8 0.637485 0.893317 0.405600
O O1 0.274097 0.598752 0.215840
O O2 0.285465 0.468968 0.204497
O O3 0.642219 0.543280 0.431431
O O4 0.152717 0.546971 0.925004
O O5 0.500000 0.702775 0.500000
O O6 0.428436 0.694951 0.247000
O O7 0.000000 0.704940 0.000000
O O8 0.443493 0.087627 0.548914
O O9 0.451434 0.960474 0.617740
O O10 0.207828 0.689420 0.730617
O O11 0.797264 0.828585 0.237379
O O12 0.090095 0.741866 0.400251
O O13 0.562707 0.755406 0.908748
O O14 0.561072 0.819771 0.372799
O O15 0.958206 0.893249 0.681346
O O16 0.489120 0.896605 0.160171
#
# Coordination Sequence:
#
# PCOD9123751 Si02
#       8
#     4   4   4   2   4   4   4   4
#     4  10  20  40  61  78 115 156 196 232 294 345
#     4  12  24  37  56  89 114 143 194 251 298 340
#     4  10  21  36  59  86 114 159 187 235 283 355
#     4  12  24  36  56  94 132 144 200 236 304 354
#     4  10  21  36  59  86 114 159 187 235 283 355
#     4  10  20  40  61  78 115 156 196 232 294 345
#     4   8  16  33  58  79 102 145 196 225 270 343
#     4   8  16  33  58  79 102 145 196 225 270 343
#
# _framework density 23.081344000000001
#
# number of rings (size 3 to 8) (size 9 to 14) (size 15 to 20)
#    0.000    2.133    0.000    3.200    0.000    2.133 
#    2.400    0.000    0.000    0.000    0.000    0.000 
#    0.000    0.000    0.000    0.000    0.000    0.000 
#
# Total GULP energy -83640.739117 kJ/mol
# GULP energy per Si atom -5576.049274 kJ/mol
# Density = 2.302881 g / cm^3
# Si number density = 23.081344 Si / 1000 Ang^3
#
#
#
# Elastic Constant Matrix: (Units=GPa)
#
#
# Indices 1 2 3 4 5 6 
#
# 1 53.1239 38.4151 43.5330 -0.0002 10.7866 0.0000
# 2 38.4151 150.1059 24.5946 0.0004 1.4684 0.0002
# 3 43.5330 24.5946 117.5614 0.0025 27.4452 0.0012
# 4 -0.0002 0.0004 0.0025 30.2064 0.0005 -9.0546
# 5 10.7866 1.4684 27.4452 0.0005 33.3624 0.0002
# 6 0.0000 0.0002 0.0012 -9.0546 0.0002 7.2224
#
#
#
# Elastic Compliance Matrix: (Units=1/GPa)
#
#
# Indices 1 2 3 4 5 6 
#
# 1 0.032262 -0.006575 -0.010154 0.000003 -0.001789 0.000006
# 2 -0.006575 0.008271 0.000363 -0.000001 0.001463 -0.000001
# 3 -0.010154 0.000363 0.014144 -0.000003 -0.008368 -0.000006
# 4 0.000003 -0.000001 -0.000003 0.053037 0.000000 0.066491
# 5 -0.001789 0.001463 -0.008368 0.000000 0.037372 0.000001
# 6 0.000006 -0.000001 -0.000006 0.066491 0.000001 0.221817
#
#
# Mechanical properties :
#
#
# Convention : Reuss Voigt Hill
#
# Bulk Modulus (GPa) = 45.56843 59.31963 52.44403
# Shear Modulus (GPa) = 12.28653 28.44148 20.36400
#
# Velocity S-wave (km/s) = 2.30970 3.51412 2.97353
# Velocity P-wave (km/s) = 5.18636 6.49780 5.87876
#
# Compressibility (1/GPa) = 0.02194502
#
# Stress axis : x y z
#
# Youngs Moduli (GPa) = 30.99581 120.90470 70.70265
#
# Poissons Ratio (x) = 0.79500 0.71788
# Poissons Ratio (y) = 0.20381 -0.02566
# Poissons Ratio (z) = 0.31472 -0.04388
#
# Static dielectric constant tensor:
#      x y z
#    x 1.840220 0.000000 -0.004920 
#    y 0.000000 1.932410 0.000000 
#    z -0.004920 0.000000 1.868250 
# 
# From -- ./inp_files/55001.got.cif
#   From: 2010.05.17/outbox.cif.g08.bks.cpg/sg5_28_cif.got.tgz:55001.got - 2010.06.03 18:56:24.
