data_PCOD9123058
_publ_section_title
;
Structure prediction by ZEFSAII (Michael W. Deem and Ramdas Pophale) SiO2 
 PCOD9123058
Probable space group: C 2
;
_chemical_formula_sum "Si O2"
_cell_formula_units_Z 32
_cell_length_a 12.923186
_cell_length_b 19.015880
_cell_length_c 9.634539
_cell_angle_alpha 90.000000
_cell_angle_beta 133.921536
_cell_angle_gamma 90.000000
_cell_volume 1705.393511
_symmetry_space_group_name_H-M "C 2"
_symmetry_group_IT_number 5
_symmetry_cell_setting 'monoclinic'
loop_
_space_group_symop_operation_xyz
x,y,z
-x,y,-z
1/2+x,1/2+y,z
1/2-x,1/2+y,-z
loop_
_atom_site_type_symbol
_atom_site_label
_atom_site_fract_x
_atom_site_fract_y
_atom_site_fract_z
Si Si1 0.002702 0.566960 0.343804
Si Si2 0.185266 0.096864 0.053973
Si Si3 0.906615 0.979035 0.550687
Si Si4 0.392630 0.431674 0.027132
Si Si5 0.088103 0.349856 0.722711
Si Si6 0.027272 0.190387 0.679947
Si Si7 0.079424 0.436984 0.220476
Si Si8 0.692982 0.622318 0.379813
O O1 0.026469 0.503935 0.260337
O O2 0.136749 0.618063 0.454721
O O3 0.000000 0.539201 0.500000
O O4 0.853529 0.604658 0.182781
O O5 0.152873 0.121177 0.180431
O O6 0.153301 0.013698 0.024430
O O7 0.108543 0.138684 0.860327
O O8 0.864195 0.050374 0.597414
O O9 0.000000 0.994532 0.500000
O O10 0.752492 0.943185 0.372793
O O11 0.008299 0.930719 0.742819
O O12 0.244073 0.387395 0.881780
O O13 0.500000 0.414974 0.000000
O O14 0.101520 0.265582 0.738058
O O15 0.000000 0.368288 0.500000
O O16 0.984096 0.372308 0.751655
O O17 0.000000 0.162821 0.500000
O O18 0.870391 0.190053 0.603909
O O19 0.000000 0.438789 0.000000
#
# Coordination Sequence:
#
# PCOD9123058 Si02
#       8
#     4   4   4   4   4   4   4   4
#     4   9  20  35  60  90 122 152 203 259 306 367
#     4  11  20  37  64  94 119 158 207 261 314 367
#     4  11  22  35  57  93 128 155 201 266 316 365
#     4  12  21  37  66  96 121 160 215 269 313 365
#     4  11  25  43  63  86 125 176 212 255 310 389
#     4  11  24  41  60  88 126 168 207 247 313 377
#     4  11  22  37  58  89 124 165 203 254 319 366
#     4  10  20  37  60  92 119 159 205 254 312 366
#
# _framework density 18.763998000000001
#
# number of rings (size 3 to 8) (size 9 to 14) (size 15 to 20)
#    0.000    1.250    3.750    2.625    1.750    2.000 
#    0.000    3.750    0.000    3.000    0.000    0.000 
#    0.000    0.000    0.000    0.000    0.000    0.000 
#
# Total GULP energy -89244.982777 kJ/mol
# GULP energy per Si atom -5577.811424 kJ/mol
# Density = 1.872129 g / cm^3
# Si number density = 18.763998 Si / 1000 Ang^3
#
#
#
# Elastic Constant Matrix: (Units=GPa)
#
#
# Indices 1 2 3 4 5 6 
#
# 1 140.2285 32.5994 76.7374 0.0000 7.7244 0.0000
# 2 32.5994 54.7039 33.5088 0.0000 -1.8488 0.0000
# 3 76.7374 33.5088 145.8545 0.0000 -2.4691 0.0000
# 4 0.0000 0.0000 0.0000 15.3467 0.0000 3.6241
# 5 7.7244 -1.8488 -2.4691 0.0000 40.6101 0.0000
# 6 0.0000 0.0000 0.0000 3.6241 0.0000 17.4723
#
#
#
# Elastic Compliance Matrix: (Units=1/GPa)
#
#
# Indices 1 2 3 4 5 6 
#
# 1 0.010765 -0.003497 -0.004903 0.000000 -0.002505 0.000000
# 2 -0.003497 0.022428 -0.003288 0.000000 0.001486 0.000000
# 3 -0.004903 -0.003288 0.010215 0.000000 0.001404 0.000000
# 4 0.000000 0.000000 0.000000 0.068516 0.000000 -0.014212
# 5 -0.002505 0.001486 0.001404 0.000000 0.025254 0.000000
# 6 0.000000 0.000000 0.000000 -0.014212 0.000000 0.060181
#
#
# Mechanical properties :
#
#
# Convention : Reuss Voigt Hill
#
# Bulk Modulus (GPa) = 49.91673 69.60869 59.76271
# Shear Modulus (GPa) = 21.98653 27.88191 24.93422
#
# Velocity S-wave (km/s) = 3.42678 3.85895 3.64927
# Velocity P-wave (km/s) = 6.50517 7.55201 7.04805
#
# Compressibility (1/GPa) = 0.02003336
#
# Stress axis : x y z
#
# Youngs Moduli (GPa) = 92.89331 44.58682 97.89751
#
# Poissons Ratio (x) = 0.15590 0.47997
# Poissons Ratio (y) = 0.32481 0.32188
# Poissons Ratio (z) = 0.45544 0.14660
#
# Static dielectric constant tensor:
#      x y z
#    x 1.670460 0.000000 0.011630 
#    y 0.000000 1.646710 0.000000 
#    z 0.011630 0.000000 1.690800 
# 
# From -- ./inp_files/21979.got.cif
#   From: 2010.05.17/outbox.cif.g08.bks.cpg/sg5_11_cif.got.tgz:21979.got - 2010.06.03 18:56:24.
