data_PCOD9123131
_publ_section_title
;
Structure prediction by ZEFSAII (Michael W. Deem and Ramdas Pophale) SiO2 
 PCOD9123131
Probable space group: C 2
;
_chemical_formula_sum "Si O2"
_cell_formula_units_Z 30
_cell_length_a 10.846991
_cell_length_b 23.553614
_cell_length_c 5.542832
_cell_angle_alpha 90.000000
_cell_angle_beta 72.472750
_cell_angle_gamma 90.000000
_cell_volume 1350.370280
_symmetry_space_group_name_H-M "C 2"
_symmetry_group_IT_number 5
_symmetry_cell_setting 'monoclinic'
loop_
_space_group_symop_operation_xyz
x,y,z
-x,y,-z
1/2+x,1/2+y,z
1/2-x,1/2+y,-z
loop_
_atom_site_type_symbol
_atom_site_label
_atom_site_fract_x
_atom_site_fract_y
_atom_site_fract_z
Si Si1 0.629326 0.140150 0.685675
Si Si2 0.633632 0.376708 0.783004
Si Si3 0.500000 0.815537 0.500000
Si Si4 0.311078 0.891439 0.294220
Si Si5 0.294469 0.020828 0.297632
Si Si6 0.344830 0.502502 0.116304
Si Si7 0.210838 0.292491 0.057661
Si Si8 0.337935 0.183192 0.831557
O O1 0.607024 0.072819 0.726116
O O2 0.493556 0.174069 0.752691
O O3 0.700261 0.151826 0.391638
O O4 0.703944 0.160015 0.881245
O O5 0.663137 0.388263 0.483694
O O6 0.692438 0.435276 0.858649
O O7 0.689136 0.314172 0.800721
O O8 0.500000 0.375410 0.000000
O O9 0.399783 0.858210 0.432900
O O10 0.577568 0.777083 0.265061
O O11 0.349957 0.956888 0.254527
O O12 0.319887 0.850876 0.061650
O O13 0.204421 0.023258 0.591975
O O14 0.220465 0.028064 0.085478
O O15 0.500000 0.507208 0.000000
O O16 0.280621 0.246204 0.855630
#
# Coordination Sequence:
#
# PCOD9123131 Si02
#       8
#     4   4   2   4   4   4   4   4
#     4  10  23  44  63 101 129 179 224 280 343 402
#     4   9  20  33  58  99 136 171 220 269 350 402
#     4  10  24  42  62  94 134 178 230 282 354 422
#     4  10  22  39  63 101 132 184 220 285 356 406
#     4  11  21  40  68  93 144 175 230 283 342 414
#     4  10  20  37  62  98 136 179 222 282 337 411
#     4  11  22  41  65  92 136 175 234 283 347 413
#     4  10  24  41  67  93 133 172 226 282 337 400
#
# _framework density 22.216128999999999
#
# number of rings (size 3 to 8) (size 9 to 14) (size 15 to 20)
#    0.000    1.867    1.333    1.600    5.600    2.667 
#    4.800    0.000    5.867    0.000    0.000    0.000 
#    0.000    0.000    0.000    0.000    0.000    0.000 
#
# Total GULP energy -83520.375139 kJ/mol
# GULP energy per Si atom -5568.025009 kJ/mol
# Density = 2.216556 g / cm^3
# Si number density = 22.216129 Si / 1000 Ang^3
#
#
#
# Elastic Constant Matrix: (Units=GPa)
#
#
# Indices 1 2 3 4 5 6 
#
# 1 35.6009 16.4217 26.5325 0.0000 -7.9253 0.0000
# 2 16.4217 95.9881 25.8838 0.0000 -7.8992 0.0000
# 3 26.5325 25.8838 146.0822 0.0000 8.0060 0.0000
# 4 0.0000 0.0000 0.0000 -27.5168 0.0000 68.0531
# 5 -7.9253 -7.8992 8.0060 0.0000 34.3797 0.0000
# 6 0.0000 0.0000 0.0000 68.0531 0.0000 -73.7321
#
#
#
# Elastic Compliance Matrix: (Units=1/GPa)
#
#
# Indices 1 2 3 4 5 6 
#
# 1 0.036699 -0.003778 -0.006495 0.000000 0.009105 0.000000
# 2 -0.003778 0.011645 -0.001495 0.000000 0.002153 0.000000
# 3 -0.006495 -0.001495 0.008499 0.000000 -0.003820 0.000000
# 4 0.000000 0.000000 0.000000 0.028333 0.000000 0.026151
# 5 0.009105 0.002153 -0.003820 0.000000 0.032570 0.000000
# 6 0.000000 0.000000 0.000000 0.026151 0.000000 0.010574
#
#
# Mechanical properties :
#
#
# Convention : Reuss Voigt Hill
#
# Bulk Modulus (GPa) = 30.02364 46.14970 38.08667
# Shear Modulus (GPa) = 30.68267 0.54836 15.61551
#
# Velocity S-wave (km/s) = 3.72035 0.49736 2.65409
# Velocity P-wave (km/s) = 5.65670 4.59869 5.15491
#
# Compressibility (1/GPa) = 0.03330709
#
# Stress axis : x y z
#
# Youngs Moduli (GPa) = 27.24852 85.87680 117.65490
#
# Poissons Ratio (x) = 0.32443 0.76419
# Poissons Ratio (y) = 0.10294 0.17591
# Poissons Ratio (z) = 0.17698 0.12839
#
# Static dielectric constant tensor:
#      x y z
#    x 1.923310 0.000000 0.060660 
#    y 0.000000 1.830230 0.000000 
#    z 0.060660 0.000000 2.038660 
# 
# From -- ./inp_files/5947.got.cif
#   From: 2010.05.17/outbox.cif.g08.bks.cpg/sg5_3_cif.got.tgz:5947.got - 2010.06.03 18:56:24.
