data_PCOD9123456
_publ_section_title
;
Structure prediction by ZEFSAII (Michael W. Deem and Ramdas Pophale) SiO2 
 PCOD9123456
Probable space group: C 2
;
_chemical_formula_sum "Si O2"
_cell_formula_units_Z 24
_cell_length_a 11.550568
_cell_length_b 14.257387
_cell_length_c 7.623479
_cell_angle_alpha 90.000000
_cell_angle_beta 85.072149
_cell_angle_gamma 90.000000
_cell_volume 1250.800979
_symmetry_space_group_name_H-M "C 2"
_symmetry_group_IT_number 5
_symmetry_cell_setting 'monoclinic'
loop_
_space_group_symop_operation_xyz
x,y,z
-x,y,-z
1/2+x,1/2+y,z
1/2-x,1/2+y,-z
loop_
_atom_site_type_symbol
_atom_site_label
_atom_site_fract_x
_atom_site_fract_y
_atom_site_fract_z
Si Si1 0.371054 0.218600 0.951587
Si Si2 0.243339 0.839628 0.339547
Si Si3 0.073531 0.523784 0.228900
Si Si4 0.314906 0.037179 0.406014
Si Si5 0.491546 0.814129 0.809524
Si Si6 0.726829 0.734609 0.324670
O O1 0.330528 0.282453 0.793243
O O2 0.374999 0.108749 0.892004
O O3 0.245092 0.132363 0.401570
O O4 0.500000 0.242610 0.000000
O O5 0.379962 0.820755 0.284364
O O6 0.217833 0.804112 0.539198
O O7 0.240693 0.952018 0.336863
O O8 0.145587 0.517064 0.399996
O O9 0.939054 0.548944 0.290789
O O10 0.065153 0.418224 0.156823
O O11 0.287273 0.235976 0.126938
O O12 0.405794 0.760978 0.692044
O O13 0.500000 0.769018 0.000000
#
# Coordination Sequence:
#
# PCOD9123456 Si02
#       6
#     4   4   4   4   4   4
#     4  12  24  39  66  98 128 165 212 265 318 376
#     4  11  24  43  64  93 133 166 216 260 313 380
#     4  10  20  38  65  98 123 156 222 271 303 362
#     4  10  21  39  66  93 124 170 210 267 312 366
#     4  11  22  40  67  98 123 165 214 267 315 369
#     4  12  23  39  66  94 131 165 207 263 324 371
#
# _framework density 19.187704
#
# number of rings (size 3 to 8) (size 9 to 14) (size 15 to 20)
#    0.000    1.000    6.667    1.000    2.333    0.667 
#    0.000    0.833   11.000    0.000    0.000    0.000 
#    0.000    0.000    0.000    0.000    0.000    0.000 
#
# Total GULP energy -67019.372058 kJ/mol
# GULP energy per Si atom -5584.947672 kJ/mol
# Density = 1.914403 g / cm^3
# Si number density = 19.187704 Si / 1000 Ang^3
#
#
#
# Elastic Constant Matrix: (Units=GPa)
#
#
# Indices 1 2 3 4 5 6 
#
# 1 45.9443 25.3374 9.5296 0.0000 14.9924 0.0000
# 2 25.3374 85.1091 10.9559 0.0000 19.4201 0.0000
# 3 9.5296 10.9559 97.9247 0.0000 10.7513 0.0000
# 4 0.0000 0.0000 0.0000 30.0387 0.0000 3.2525
# 5 14.9924 19.4201 10.7513 0.0000 40.0605 0.0000
# 6 0.0000 0.0000 0.0000 3.2525 0.0000 26.8645
#
#
#
# Elastic Compliance Matrix: (Units=1/GPa)
#
#
# Indices 1 2 3 4 5 6 
#
# 1 0.027902 -0.006568 -0.001220 0.000000 -0.006931 0.000000
# 2 -0.006568 0.014818 -0.000515 0.000000 -0.004587 0.000000
# 3 -0.001220 -0.000515 0.010624 0.000000 -0.002145 0.000000
# 4 0.000000 0.000000 0.000000 0.033733 0.000000 -0.004084
# 5 -0.006931 -0.004587 -0.002145 0.000000 0.030355 0.000000
# 6 0.000000 0.000000 0.000000 -0.004084 0.000000 0.037718
#
#
# Mechanical properties :
#
#
# Convention : Reuss Voigt Hill
#
# Bulk Modulus (GPa) = 27.21941 35.62489 31.42215
# Shear Modulus (GPa) = 27.17361 31.60308 29.38834
#
# Velocity S-wave (km/s) = 3.76732 4.06279 3.91784
# Velocity P-wave (km/s) = 5.75676 6.37300 6.07270
#
# Compressibility (1/GPa) = 0.03673848
#
# Stress axis : x y z
#
# Youngs Moduli (GPa) = 35.83932 67.48566 94.12879
#
# Poissons Ratio (x) = 0.44326 0.11479
# Poissons Ratio (y) = 0.23540 0.04848
# Poissons Ratio (z) = 0.04371 0.03476
#
# Static dielectric constant tensor:
#      x y z
#    x 1.650590 0.000000 -0.027480 
#    y 0.000000 1.668720 0.000000 
#    z -0.027480 0.000000 1.698880 
# 
# From -- ./inp_files/20168.got.cif
#   From: 2010.05.17/outbox.cif.g08.bks.cpg/sg5_11_cif.got.tgz:20168.got - 2010.06.03 18:56:24.
