data_PCOD9123353
_publ_section_title
;
Structure prediction by ZEFSAII (Michael W. Deem and Ramdas Pophale) SiO2 
 PCOD9123353
Probable space group: C 2
;
_chemical_formula_sum "Si O2"
_cell_formula_units_Z 24
_cell_length_a 20.713310
_cell_length_b 14.002503
_cell_length_c 11.979981
_cell_angle_alpha 90.000000
_cell_angle_beta 17.848210
_cell_angle_gamma 90.000000
_cell_volume 1064.968107
_symmetry_space_group_name_H-M "C 2"
_symmetry_group_IT_number 5
_symmetry_cell_setting 'monoclinic'
loop_
_space_group_symop_operation_xyz
x,y,z
-x,y,-z
1/2+x,1/2+y,z
1/2-x,1/2+y,-z
loop_
_atom_site_type_symbol
_atom_site_label
_atom_site_fract_x
_atom_site_fract_y
_atom_site_fract_z
Si Si1 0.893502 0.174600 0.294659
Si Si2 0.012768 0.873148 0.345893
Si Si3 0.115097 0.649991 0.152537
Si Si4 0.475886 0.873819 0.908296
Si Si5 0.186102 0.062403 0.967359
Si Si6 0.015457 0.572416 0.846407
O O1 0.657487 0.163747 0.639996
O O2 0.942940 0.274038 0.273393
O O3 0.000000 0.159300 0.000000
O O4 0.984669 0.093947 0.226281
O O5 0.000000 0.888325 0.500000
O O6 0.081515 0.763698 0.210852
O O7 0.772075 0.886417 0.702828
O O8 0.160026 0.951535 0.043344
O O9 0.286817 0.618111 0.959960
O O10 0.893608 0.599141 0.557408
O O11 0.151261 0.609892 0.968689
O O12 0.590353 0.969149 0.675970
O O13 0.500000 0.855098 0.000000
O O14 0.000000 0.539579 0.000000
#
# Coordination Sequence:
#
# PCOD9123353 Si02
#       6
#     4   4   4   4   4   4
#     4  11  20  40  64  91 130 180 221 277 339 396
#     4  12  22  42  71  95 129 186 223 270 351 403
#     4  11  22  44  64  98 139 172 224 288 334 396
#     4  10  20  38  62  90 124 177 222 264 338 396
#     4  11  22  38  70  95 128 179 227 275 337 405
#     4  11  23  40  63  96 137 174 228 283 328 407
#
# _framework density 22.535886999999999
#
# number of rings (size 3 to 8) (size 9 to 14) (size 15 to 20)
#    0.000    1.000    5.000    4.000    0.000    0.000 
#    3.000    1.667   11.000    0.000    0.000    0.000 
#    0.000    0.000    0.000    0.000    0.000    0.000 
#
# Total GULP energy -66801.225007 kJ/mol
# GULP energy per Si atom -5566.768751 kJ/mol
# Density = 2.248459 g / cm^3
# Si number density = 22.535887 Si / 1000 Ang^3
#
#
#
# Elastic Constant Matrix: (Units=GPa)
#
#
# Indices 1 2 3 4 5 6 
#
# 1 157.7379 37.8199 11.6677 0.0000 -15.1659 -0.0007
# 2 37.8199 179.9943 25.2321 -0.0011 13.4461 0.0005
# 3 11.6677 25.2321 21.4751 0.0001 -2.1111 -0.0019
# 4 0.0000 -0.0011 0.0001 28.1704 0.0001 -1.5701
# 5 -15.1659 13.4461 -2.1111 0.0001 30.6408 0.0007
# 6 -0.0007 0.0005 -0.0019 -1.5701 0.0007 33.6013
#
#
#
# Elastic Compliance Matrix: (Units=1/GPa)
#
#
# Indices 1 2 3 4 5 6 
#
# 1 0.007248 -0.001605 -0.001641 0.000000 0.004178 0.000000
# 2 -0.001605 0.007397 -0.008272 0.000000 -0.004610 0.000000
# 3 -0.001641 -0.008272 0.057846 0.000000 0.006803 0.000003
# 4 0.000000 0.000000 0.000000 0.035591 0.000000 0.001663
# 5 0.004178 -0.004610 0.006803 0.000000 0.037196 0.000000
# 6 0.000000 0.000000 0.000003 0.001663 0.000000 0.029838
#
#
# Mechanical properties :
#
#
# Convention : Reuss Voigt Hill
#
# Bulk Modulus (GPa) = 20.22113 56.51631 38.36872
# Shear Modulus (GPa) = 23.29511 37.44833 30.37172
#
# Velocity S-wave (km/s) = 3.21859 4.08084 3.67509
# Velocity P-wave (km/s) = 4.77544 6.88020 5.92208
#
# Compressibility (1/GPa) = 0.04945321
#
# Stress axis : x y z
#
# Youngs Moduli (GPa) = 137.97723 135.18999 17.28739
#
# Poissons Ratio (x) = 0.21697 0.02837
# Poissons Ratio (y) = 0.22144 0.14301
# Poissons Ratio (z) = 0.22645 1.11834
#
# Static dielectric constant tensor:
#      x y z
#    x 1.791910 0.000000 0.045560 
#    y 0.000000 1.950600 0.000000 
#    z 0.045560 0.000000 1.917430 
# 
# From -- ./inp_files/46573.got.cif
#   From: 2010.05.17/outbox.cif.g08.bks.cpg/sg5_24_cif.got.tgz:46573.got - 2010.06.03 18:56:24.
