data_PCOD9123096
_publ_section_title
;
Structure prediction by ZEFSAII (Michael W. Deem and Ramdas Pophale) SiO2 
 PCOD9123096
Probable space group: C 2
;
_chemical_formula_sum "Si O2"
_cell_formula_units_Z 26
_cell_length_a 7.920220
_cell_length_b 21.198492
_cell_length_c 7.966251
_cell_angle_alpha 90.000000
_cell_angle_beta 123.057269
_cell_angle_gamma 90.000000
_cell_volume 1120.999426
_symmetry_space_group_name_H-M "C 2"
_symmetry_group_IT_number 5
_symmetry_cell_setting 'monoclinic'
loop_
_space_group_symop_operation_xyz
x,y,z
-x,y,-z
1/2+x,1/2+y,z
1/2-x,1/2+y,-z
loop_
_atom_site_type_symbol
_atom_site_label
_atom_site_fract_x
_atom_site_fract_y
_atom_site_fract_z
Si Si1 0.354925 0.636060 0.581693
Si Si2 0.062158 0.621088 0.839407
Si Si3 0.790597 0.891496 0.370586
Si Si4 0.573339 0.777998 0.351897
Si Si5 0.931625 0.473926 0.159201
Si Si6 0.000000 0.125967 0.000000
Si Si7 0.798984 0.856198 0.984698
O O1 0.500000 0.625632 0.500000
O O2 0.382558 0.706658 0.671130
O O3 0.127142 0.634288 0.386015
O O4 0.433011 0.594772 0.782660
O O5 0.102457 0.546702 0.831331
O O6 0.277990 0.654237 0.928230
O O7 0.000000 0.631194 0.000000
O O8 0.759948 0.826058 0.451412
O O9 0.623178 0.939698 0.344624
O O10 0.795011 0.866775 0.181545
O O11 0.000000 0.925751 0.500000
O O12 0.500000 0.773551 0.500000
O O13 0.392457 0.811625 0.154539
O O14 0.751267 0.427133 0.105995
O O15 0.000000 0.468827 0.000000
O O16 0.000000 0.833478 0.000000
#
# Coordination Sequence:
#
# PCOD9123096 Si02
#       7
#     4   4   4   4   4   2   4
#     4  11  25  47  68 102 138 187 238 292 348 415
#     4  11  23  47  71 102 143 184 235 297 345 419
#     4  10  20  37  61  97 128 170 216 271 342 407
#     4  10  22  41  62  91 128 169 223 273 336 400
#     4   8  19  38  63  92 132 170 217 274 341 404
#     4  12  26  44  74 100 136 186 242 282 356 412
#     4  10  20  38  62  98 131 169 221 273 337 410
#
# _framework density 23.193588999999999
#
# number of rings (size 3 to 8) (size 9 to 14) (size 15 to 20)
#    0.000    1.846    1.538    2.769    3.231    1.846 
#    8.308    7.692    0.000    0.000    0.000    0.000 
#    0.000    0.000    0.000    0.000    0.000    0.000 
#
# Total GULP energy -72399.299642 kJ/mol
# GULP energy per Si atom -5569.176896 kJ/mol
# Density = 2.314080 g / cm^3
# Si number density = 23.193589 Si / 1000 Ang^3
#
#
#
# Elastic Constant Matrix: (Units=GPa)
#
#
# Indices 1 2 3 4 5 6 
#
# 1 131.9627 12.0903 39.0055 0.0000 9.5281 0.0000
# 2 12.0903 64.3090 13.8773 0.0000 -1.3214 0.0000
# 3 39.0055 13.8773 128.1665 0.0000 13.1853 0.0000
# 4 0.0000 0.0000 0.0000 22.4365 0.0000 -17.9459
# 5 9.5281 -1.3214 13.1853 0.0000 43.7264 0.0000
# 6 0.0000 0.0000 0.0000 -17.9459 0.0000 23.7638
#
#
#
# Elastic Compliance Matrix: (Units=1/GPa)
#
#
# Indices 1 2 3 4 5 6 
#
# 1 0.008454 -0.001110 -0.002332 0.000000 -0.001172 0.000000
# 2 -0.001110 0.016113 -0.001529 0.000000 0.001190 0.000000
# 3 -0.002332 -0.001529 0.008906 0.000000 -0.002224 0.000000
# 4 0.000000 0.000000 0.000000 0.112561 0.000000 0.085003
# 5 -0.001172 0.001190 -0.002224 0.000000 0.023831 0.000000
# 6 0.000000 0.000000 0.000000 0.085003 0.000000 0.106274
#
#
# Mechanical properties :
#
#
# Convention : Reuss Voigt Hill
#
# Bulk Modulus (GPa) = 42.49815 50.48717 46.49266
# Shear Modulus (GPa) = 17.01115 35.28301 26.14708
#
# Velocity S-wave (km/s) = 2.71115 3.90454 3.36123
# Velocity P-wave (km/s) = 5.30693 6.49170 5.92898
#
# Compressibility (1/GPa) = 0.02353044
#
# Stress axis : x y z
#
# Youngs Moduli (GPa) = 118.29390 62.06136 112.27926
#
# Poissons Ratio (x) = 0.06890 0.26182
# Poissons Ratio (y) = 0.13133 0.17170
# Poissons Ratio (z) = 0.27585 0.09490
#
# Static dielectric constant tensor:
#      x y z
#    x 1.783830 0.000000 0.007300 
#    y 0.000000 1.932610 0.000000 
#    z 0.007300 0.000000 2.014620 
# 
# From -- ./inp_files/17058.got.cif
#   From: 2010.05.17/outbox.cif.g08.bks.cpg/sg5_9_cif.got.tgz:17058.got - 2010.06.03 18:56:24.
