data_PCOD9123607
_publ_section_title
;
Structure prediction by ZEFSAII (Michael W. Deem and Ramdas Pophale) SiO2 
 PCOD9123607
Probable space group: C 2
;
_chemical_formula_sum "Si O2"
_cell_formula_units_Z 26
_cell_length_a 12.235419
_cell_length_b 16.780897
_cell_length_c 10.038099
_cell_angle_alpha 90.000000
_cell_angle_beta 36.726382
_cell_angle_gamma 90.000000
_cell_volume 1232.487463
_symmetry_space_group_name_H-M "C 2"
_symmetry_group_IT_number 5
_symmetry_cell_setting 'monoclinic'
loop_
_space_group_symop_operation_xyz
x,y,z
-x,y,-z
1/2+x,1/2+y,z
1/2-x,1/2+y,-z
loop_
_atom_site_type_symbol
_atom_site_label
_atom_site_fract_x
_atom_site_fract_y
_atom_site_fract_z
Si Si1 0.732308 0.595270 0.681104
Si Si2 0.009776 0.337750 0.303020
Si Si3 0.963211 0.154586 0.744301
Si Si4 0.705137 0.406000 0.756276
Si Si5 0.143273 0.452081 0.972303
Si Si6 0.000000 0.019671 0.500000
Si Si7 0.603739 0.102340 0.190678
O O1 0.551252 0.635682 0.801873
O O2 0.704732 0.500566 0.728732
O O3 0.814826 0.618488 0.742743
O O4 0.889229 0.614760 0.418182
O O5 0.155679 0.375382 0.265065
O O6 0.993645 0.243793 0.338090
O O7 0.805910 0.371293 0.527368
O O8 0.087384 0.366340 0.084836
O O9 0.041617 0.082830 0.577363
O O10 0.742034 0.148984 0.959765
O O11 0.500000 0.382854 0.000000
O O12 0.339150 0.464855 0.714024
O O13 0.128162 0.512304 0.112648
O O14 0.000000 0.477407 0.000000
#
# Coordination Sequence:
#
# PCOD9123607 Si02
#       7
#     4   4   4   4   4   2   4
#     4  11  20  38  69  97 119 169 231 274 317 399
#     4  11  24  43  62 101 137 167 219 295 329 392
#     4  11  24  40  64  94 135 173 220 277 342 383
#     4  11  22  39  72  95 125 173 230 270 332 398
#     4  11  22  39  62  90 131 174 213 265 332 400
#     4  10  24  40  62  92 128 176 222 262 324 422
#     4  10  20  39  63  93 125 169 223 270 319 407
#
# _framework density 21.095549999999999
#
# number of rings (size 3 to 8) (size 9 to 14) (size 15 to 20)
#    0.000    1.231    3.077    4.154    2.154    2.462 
#    0.000    5.385    0.000    0.000    0.000    0.000 
#    0.000    0.000    0.000    0.000    0.000    0.000 
#
# Total GULP energy -72451.348048 kJ/mol
# GULP energy per Si atom -5573.180619 kJ/mol
# Density = 2.104754 g / cm^3
# Si number density = 21.095550 Si / 1000 Ang^3
#
#
#
# Elastic Constant Matrix: (Units=GPa)
#
#
# Indices 1 2 3 4 5 6 
#
# 1 71.8765 3.3590 20.4436 -0.0006 -2.8155 -0.0006
# 2 3.3590 67.0547 21.1292 -0.0007 -7.4952 0.0001
# 3 20.4436 21.1292 157.6943 -0.0017 -23.3639 0.0014
# 4 -0.0006 -0.0007 -0.0017 -18.4818 0.0011 -7.2354
# 5 -2.8155 -7.4952 -23.3639 0.0011 34.3332 0.0000
# 6 -0.0006 0.0001 0.0014 -7.2354 0.0000 16.8346
#
#
#
# Elastic Compliance Matrix: (Units=1/GPa)
#
#
# Indices 1 2 3 4 5 6 
#
# 1 0.014447 -0.000148 -0.001871 0.000000 -0.000121 0.000000
# 2 -0.000148 0.015723 -0.001758 0.000000 0.002224 0.000000
# 3 -0.001871 -0.001758 0.007496 0.000000 0.004564 -0.000001
# 4 0.000000 0.000000 0.000000 -0.046315 0.000001 -0.019906
# 5 -0.000121 0.002224 0.004564 0.000001 0.032708 0.000000
# 6 0.000000 0.000000 -0.000001 -0.019906 0.000000 0.050846
#
#
# Mechanical properties :
#
#
# Convention : Reuss Voigt Hill
#
# Bulk Modulus (GPa) = 33.20890 42.94323 38.07606
# Shear Modulus (GPa) = 54.05646 23.31679 38.68663
#
# Velocity S-wave (km/s) = 5.06756 3.32820 4.28702
# Velocity P-wave (km/s) = 7.07224 5.93043 6.52635
#
# Compressibility (1/GPa) = 0.03011241
#
# Stress axis : x y z
#
# Youngs Moduli (GPa) = 69.21810 63.60045 133.41081
#
# Poissons Ratio (x) = 0.00939 0.24962
# Poissons Ratio (y) = 0.01022 0.23455
# Poissons Ratio (z) = 0.12951 0.11181
#
# Static dielectric constant tensor:
#      x y z
#    x 1.796440 0.000000 0.050930 
#    y 0.000000 1.738820 0.000000 
#    z 0.050930 0.000000 1.861310 
# 
# From -- ./inp_files/43035.got.cif
#   From: 2010.05.17/outbox.cif.g08.bks.cpg/sg5_22_cif.got.tgz:43035.got - 2010.06.03 18:56:24.
