data_PCOD9123345
_publ_section_title
;
Structure prediction by ZEFSAII (Michael W. Deem and Ramdas Pophale) SiO2 
 PCOD9123345
Probable space group: C 2
;
_chemical_formula_sum "Si O2"
_cell_formula_units_Z 20
_cell_length_a 12.447992
_cell_length_b 13.275080
_cell_length_c 7.075675
_cell_angle_alpha 90.000000
_cell_angle_beta 49.094851
_cell_angle_gamma 90.000000
_cell_volume 883.706652
_symmetry_space_group_name_H-M "C 2"
_symmetry_group_IT_number 5
_symmetry_cell_setting 'monoclinic'
loop_
_space_group_symop_operation_xyz
x,y,z
-x,y,-z
1/2+x,1/2+y,z
1/2-x,1/2+y,-z
loop_
_atom_site_type_symbol
_atom_site_label
_atom_site_fract_x
_atom_site_fract_y
_atom_site_fract_z
Si Si1 0.240094 0.810980 0.469593
Si Si2 0.051415 0.362951 0.222252
Si Si3 0.271315 0.215459 0.116887
Si Si4 0.939591 0.627227 0.376800
Si Si5 0.772256 0.505396 0.252467
O O1 0.409912 0.828057 0.274821
O O2 0.206944 0.787587 0.726706
O O3 0.181920 0.914200 0.445848
O O4 0.177813 0.712240 0.442773
O O5 0.167577 0.274332 0.098836
O O6 0.000000 0.376448 0.500000
O O7 0.134564 0.454214 0.022389
O O8 0.202462 0.108059 0.257129
O O9 0.426878 0.184626 0.868296
O O10 0.000000 0.583268 0.500000
O O11 0.868309 0.549388 0.314361
#
# Coordination Sequence:
#
# PCOD9123345 Si02
#       5
#     4   4   4   4   4
#     4  10  20  38  62  88 124 164 206 256 306 367
#     4  10  21  39  65  95 125 162 208 260 315 375
#     4  10  22  39  61  94 127 161 210 260 311 374
#     4  11  23  40  63  92 126 168 213 260 307 366
#     4  11  22  40  66  93 126 167 212 254 308 382
#
# _framework density 22.631947
#
# number of rings (size 3 to 8) (size 9 to 14) (size 15 to 20)
#    0.000    1.600    0.000    6.600    0.000    6.400 
#    0.000   17.000    0.000   24.000    0.000    0.000 
#    0.000    0.000    0.000    0.000    0.000    0.000 
#
# Total GULP energy -55826.305338 kJ/mol
# GULP energy per Si atom -5582.630534 kJ/mol
# Density = 2.258044 g / cm^3
# Si number density = 22.631947 Si / 1000 Ang^3
#
#
#
# Elastic Constant Matrix: (Units=GPa)
#
#
# Indices 1 2 3 4 5 6 
#
# 1 76.1577 42.7441 -0.7008 0.0000 8.1639 0.0000
# 2 42.7441 176.9704 37.8907 0.0000 -1.1637 0.0000
# 3 -0.7008 37.8907 110.8000 0.0000 17.6293 0.0000
# 4 0.0000 0.0000 0.0000 53.0706 0.0000 9.5092
# 5 8.1639 -1.1637 17.6293 0.0000 26.4928 0.0000
# 6 0.0000 0.0000 0.0000 9.5092 0.0000 38.0027
#
#
#
# Elastic Compliance Matrix: (Units=1/GPa)
#
#
# Indices 1 2 3 4 5 6 
#
# 1 0.016537 -0.004649 0.002838 0.000000 -0.007189 0.000000
# 2 -0.004649 0.007486 -0.003210 0.000000 0.003897 0.000000
# 3 0.002838 -0.003210 0.011522 0.000000 -0.008683 0.000000
# 4 0.000000 0.000000 0.000000 0.019727 0.000000 -0.004936
# 5 -0.007189 0.003897 -0.008683 0.000000 0.045911 0.000000
# 6 0.000000 0.000000 0.000000 -0.004936 0.000000 0.027549
#
#
# Mechanical properties :
#
#
# Convention : Reuss Voigt Hill
#
# Bulk Modulus (GPa) = 39.20873 58.19959 48.70416
# Shear Modulus (GPa) = 33.95004 42.44614 38.19809
#
# Velocity S-wave (km/s) = 3.87731 4.33540 4.11274
# Velocity P-wave (km/s) = 6.11611 7.12969 6.64226
#
# Compressibility (1/GPa) = 0.02550452
#
# Stress axis : x y z
#
# Youngs Moduli (GPa) = 60.47132 133.57510 86.78752
#
# Poissons Ratio (x) = 0.62101 -0.24633
# Poissons Ratio (y) = 0.28114 0.27856
# Poissons Ratio (z) = -0.17163 0.42873
#
# Static dielectric constant tensor:
#      x y z
#    x 1.861550 0.000000 0.049190 
#    y 0.000000 1.890080 0.000000 
#    z 0.049190 0.000000 1.897990 
# 
# From -- ./inp_files/23259.got.cif
#   From: 2010.05.17/outbox.cif.g08.bks.cpg/sg5_12_cif.got.tgz:23259.got - 2010.06.03 18:56:24.
