data_PCOD9123370
_publ_section_title
;
Structure prediction by ZEFSAII (Michael W. Deem and Ramdas Pophale) SiO2 
 PCOD9123370
Probable space group: C 2
;
_chemical_formula_sum "Si O2"
_cell_formula_units_Z 22
_cell_length_a 12.663987
_cell_length_b 6.715971
_cell_length_c 20.011747
_cell_angle_alpha 90.000000
_cell_angle_beta 152.216671
_cell_angle_gamma 90.000000
_cell_volume 793.360581
_symmetry_space_group_name_H-M "C 2"
_symmetry_group_IT_number 5
_symmetry_cell_setting 'monoclinic'
loop_
_space_group_symop_operation_xyz
x,y,z
-x,y,-z
1/2+x,1/2+y,z
1/2-x,1/2+y,-z
loop_
_atom_site_type_symbol
_atom_site_label
_atom_site_fract_x
_atom_site_fract_y
_atom_site_fract_z
Si Si1 0.000000 0.172421 0.000000
Si Si2 0.928648 0.213668 0.709866
Si Si3 0.965341 0.419501 0.858625
Si Si4 0.807366 0.333047 0.436244
Si Si5 0.170633 0.779073 0.152627
Si Si6 0.521545 0.214922 0.399624
O O1 0.092498 0.314548 0.992528
O O2 0.844281 0.014525 0.871239
O O3 0.049218 0.340740 0.834459
O O4 0.849401 0.996334 0.690132
O O5 0.700217 0.309051 0.552936
O O6 0.090421 0.192579 0.737011
O O7 0.928789 0.656704 0.840895
O O8 0.711804 0.328752 0.722875
O O9 0.636930 0.228989 0.391631
O O10 0.000000 0.228564 0.500000
O O11 0.963337 0.485958 0.567900
O O12 0.000000 0.702194 0.000000
#
# Coordination Sequence:
#
# PCOD9123370 Si02
#       6
#     2   4   4   4   4   4
#     4  10  26  42  66  92 134 190 230 278 332 394
#     4  10  22  39  70 101 134 178 224 280 350 409
#     4  12  20  45  73  91 141 182 222 287 343 394
#     4  10  20  38  63 101 135 169 216 262 345 417
#     4  10  24  44  60 100 136 173 244 275 320 417
#     4  10  21  39  68  99 135 166 217 286 338 406
#
# _framework density 27.730142000000001
#
# number of rings (size 3 to 8) (size 9 to 14) (size 15 to 20)
#    1.636    0.000    4.545    0.545    2.545    1.455 
#    0.000    6.364    0.000    0.000    0.000    0.000 
#    0.000    0.000    0.000    0.000    0.000    0.000 
#
# Total GULP energy -61383.429117 kJ/mol
# GULP energy per Si atom -5580.311738 kJ/mol
# Density = 2.766703 g / cm^3
# Si number density = 27.730142 Si / 1000 Ang^3
#
#
#
# Elastic Constant Matrix: (Units=GPa)
#
#
# Indices 1 2 3 4 5 6 
#
# 1 103.1871 51.2915 -17.6307 0.0001 0.2813 0.0001
# 2 51.2915 117.6013 8.1926 0.0003 -5.4343 0.0001
# 3 -17.6307 8.1926 68.4443 0.0041 3.1647 0.0005
# 4 0.0001 0.0003 0.0041 17.4182 0.0000 -9.7376
# 5 0.2813 -5.4343 3.1647 0.0000 44.3283 -0.0002
# 6 0.0001 0.0001 0.0005 -9.7376 -0.0002 44.4407
#
#
#
# Elastic Compliance Matrix: (Units=1/GPa)
#
#
# Indices 1 2 3 4 5 6 
#
# 1 0.013537 -0.006257 0.004290 -0.000001 -0.001159 0.000000
# 2 -0.006257 0.011523 -0.003068 0.000001 0.001671 0.000000
# 3 0.004290 -0.003068 0.016155 -0.000004 -0.001557 -0.000001
# 4 -0.000001 0.000001 -0.000004 0.065426 0.000000 0.014336
# 5 -0.001159 0.001671 -0.001557 0.000000 0.022882 0.000000
# 6 0.000000 0.000000 -0.000001 0.014336 0.000000 0.025643
#
#
# Mechanical properties :
#
#
# Convention : Reuss Voigt Hill
#
# Bulk Modulus (GPa) = 32.10850 41.43773 36.77311
# Shear Modulus (GPa) = 28.47090 37.72939 33.10015
#
# Velocity S-wave (km/s) = 3.20771 3.69262 3.45868
# Velocity P-wave (km/s) = 5.03222 5.75815 5.40738
#
# Compressibility (1/GPa) = 0.03114440
#
# Stress axis : x y z
#
# Youngs Moduli (GPa) = 73.87048 86.78223 61.90179
#
# Poissons Ratio (x) = 0.54296 -0.26553
# Poissons Ratio (y) = 0.46218 0.18993
# Poissons Ratio (z) = -0.31687 0.26627
#
# Static dielectric constant tensor:
#      x y z
#    x 2.119160 0.000000 -0.111350 
#    y 0.000000 2.205320 0.000000 
#    z -0.111350 0.000000 2.266100 
# 
# From -- ./inp_files/70527.got.cif
#   From: 2010.05.17/outbox.cif.g08.bks.cpg/sg5_36_cif.got.tgz:70527.got - 2010.06.03 18:56:24.
