data_PCOD9123906
_publ_section_title
;
Structure prediction by ZEFSAII (Michael W. Deem and Ramdas Pophale) SiO2 
 PCOD9123906
Probable space group: C 2
;
_chemical_formula_sum "Si O2"
_cell_formula_units_Z 30
_cell_length_a 19.984503
_cell_length_b 8.427529
_cell_length_c 18.070308
_cell_angle_alpha 90.000000
_cell_angle_beta 27.989538
_cell_angle_gamma 90.000000
_cell_volume 1428.299480
_symmetry_space_group_name_H-M "C 2"
_symmetry_group_IT_number 5
_symmetry_cell_setting 'monoclinic'
loop_
_space_group_symop_operation_xyz
x,y,z
-x,y,-z
1/2+x,1/2+y,z
1/2-x,1/2+y,-z
loop_
_atom_site_type_symbol
_atom_site_label
_atom_site_fract_x
_atom_site_fract_y
_atom_site_fract_z
Si Si1 0.828799 0.931600 0.425314
Si Si2 0.017314 0.731480 0.839988
Si Si3 0.500000 0.012894 0.000000
Si Si4 0.394977 0.028689 0.825849
Si Si5 0.029709 0.756780 0.588450
Si Si6 0.057339 0.267492 0.736475
Si Si7 0.240772 0.770202 0.251244
Si Si8 0.877802 0.062350 0.009065
O O1 0.947102 0.882420 0.369599
O O2 0.678067 0.902815 0.612466
O O3 0.850637 0.809403 0.335278
O O4 0.863833 0.109465 0.368513
O O5 0.923651 0.636140 0.870346
O O6 0.944066 0.890177 0.942326
O O7 0.032634 0.617319 0.895123
O O8 0.358753 0.905368 0.129603
O O9 0.502798 0.091275 0.656776
O O10 0.431206 0.848214 0.812012
O O11 0.241735 0.057194 0.938922
O O12 0.168113 0.752251 0.401676
O O13 0.891888 0.799129 0.674813
O O14 0.986960 0.203720 0.880491
O O15 0.310117 0.608587 0.153154
#
# Coordination Sequence:
#
# PCOD9123906 Si02
#       8
#     4   4   2   4   4   4   4   4
#     4  10  22  39  64  92 126 166 214 261 315 374
#     4  10  23  41  58  93 127 163 207 265 311 374
#     4  12  26  40  64  88 134 168 212 258 312 388
#     4  10  20  40  68  93 123 164 211 265 313 374
#     4   9  21  42  63  91 127 163 215 256 314 379
#     4  11  22  37  64  98 124 163 210 266 322 372
#     4  10  23  40  64  91 124 175 206 256 318 379
#     4  10  22  41  65  94 124 164 215 263 317 370
#
# _framework density 21.003997999999999
#
# number of rings (size 3 to 8) (size 9 to 14) (size 15 to 20)
#    0.000    1.867    0.000    3.200    5.600    5.867 
#    4.800    0.000    0.000    1.600    0.000    0.000 
#    0.000    0.000    0.000    0.000    0.000    0.000 
#
# Total GULP energy -83733.448771 kJ/mol
# GULP energy per Si atom -5582.229918 kJ/mol
# Density = 2.095619 g / cm^3
# Si number density = 21.003998 Si / 1000 Ang^3
#
#
#
# Elastic Constant Matrix: (Units=GPa)
#
#
# Indices 1 2 3 4 5 6 
#
# 1 68.3723 31.7270 35.0844 0.0000 19.3340 0.0000
# 2 31.7270 102.0824 54.8284 -0.0001 8.9202 0.0001
# 3 35.0844 54.8284 114.3723 0.0000 11.3958 0.0000
# 4 0.0000 -0.0001 0.0000 32.0922 0.0000 0.3644
# 5 19.3340 8.9202 11.3958 0.0000 25.9518 0.0000
# 6 0.0000 0.0001 0.0000 0.3644 0.0000 35.5066
#
#
#
# Elastic Compliance Matrix: (Units=1/GPa)
#
#
# Indices 1 2 3 4 5 6 
#
# 1 0.022046 -0.003718 -0.003630 0.000000 -0.013552 0.000000
# 2 -0.003718 0.013904 -0.005568 0.000000 0.000436 0.000000
# 3 -0.003630 -0.005568 0.012618 0.000000 -0.000922 0.000000
# 4 0.000000 0.000000 0.000000 0.031164 0.000000 -0.000320
# 5 -0.013552 0.000436 -0.000922 0.000000 0.048885 0.000000
# 6 0.000000 0.000000 0.000000 -0.000320 0.000000 0.028167
#
#
# Mechanical properties :
#
#
# Convention : Reuss Voigt Hill
#
# Bulk Modulus (GPa) = 43.98381 58.67855 51.33118
# Shear Modulus (GPa) = 26.28875 29.58928 27.93901
#
# Velocity S-wave (km/s) = 3.54164 3.75740 3.65111
# Velocity P-wave (km/s) = 6.14088 6.84263 6.50123
#
# Compressibility (1/GPa) = 0.02273564
#
# Stress axis : x y z
#
# Youngs Moduli (GPa) = 45.35964 71.92051 79.25015
#
# Poissons Ratio (x) = 0.26739 0.28769
# Poissons Ratio (y) = 0.16864 0.44130
# Poissons Ratio (z) = 0.16466 0.40048
#
# Static dielectric constant tensor:
#      x y z
#    x 1.769890 0.000000 -0.020800 
#    y 0.000000 1.736630 0.000000 
#    z -0.020800 0.000000 1.788670 
# 
# From -- ./inp_files/62727.got.cif
#   From: 2010.05.17/outbox.cif.g08.bks.cpg/sg5_32_cif.got.tgz:62727.got - 2010.06.03 18:56:24.
