data_PCOD9123464
_publ_section_title
;
Structure prediction by ZEFSAII (Michael W. Deem and Ramdas Pophale) SiO2 
 PCOD9123464
Probable space group: C 2
;
_chemical_formula_sum "Si O2"
_cell_formula_units_Z 24
_cell_length_a 17.526884
_cell_length_b 7.107909
_cell_length_c 10.983844
_cell_angle_alpha 90.000000
_cell_angle_beta 127.379947
_cell_angle_gamma 90.000000
_cell_volume 1087.337399
_symmetry_space_group_name_H-M "C 2"
_symmetry_group_IT_number 5
_symmetry_cell_setting 'monoclinic'
loop_
_space_group_symop_operation_xyz
x,y,z
-x,y,-z
1/2+x,1/2+y,z
1/2-x,1/2+y,-z
loop_
_atom_site_type_symbol
_atom_site_label
_atom_site_fract_x
_atom_site_fract_y
_atom_site_fract_z
Si Si1 0.139790 0.857730 0.406184
Si Si2 0.882494 0.361149 0.183223
Si Si3 0.463731 0.080254 0.826738
Si Si4 0.301743 0.489525 0.142858
Si Si5 0.751560 0.634088 0.652811
Si Si6 0.889099 0.657036 0.381403
O O1 0.218885 0.831400 0.376856
O O2 0.154763 0.705539 0.529845
O O3 0.043978 0.786214 0.245780
O O4 0.159476 0.050174 0.494668
O O5 0.968633 0.450575 0.188713
O O6 0.880024 0.136161 0.169759
O O7 0.887662 0.448711 0.323976
O O8 0.782472 0.435948 0.030025
O O9 0.351305 0.019909 0.720556
O O10 0.500000 0.091863 0.000000
O O11 0.259500 0.610178 0.215126
O O12 0.341838 0.298789 0.239118
O O13 0.000000 0.713015 0.500000
#
# Coordination Sequence:
#
# PCOD9123464 Si02
#       6
#     4   4   4   4   4   4
#     4   9  20  37  61  87 123 159 204 257 313 376
#     4  12  22  41  64  94 126 171 210 266 314 381
#     4  10  20  38  66  87 123 166 205 259 321 370
#     4  11  24  38  66  91 127 166 216 254 324 373
#     4   9  20  39  61  88 121 164 204 258 313 385
#     4  11  22  41  61  91 128 163 207 268 314 370
#
# _framework density 22.072265999999999
#
# number of rings (size 3 to 8) (size 9 to 14) (size 15 to 20)
#    1.000    0.667    5.000    0.000    2.333    0.667 
#    6.000    0.000    0.000    2.000    0.000    0.000 
#    0.000    0.000    0.000    0.000    0.000    0.000 
#
# Total GULP energy -66835.479117 kJ/mol
# GULP energy per Si atom -5569.623260 kJ/mol
# Density = 2.202203 g / cm^3
# Si number density = 22.072266 Si / 1000 Ang^3
#
#
#
# Elastic Constant Matrix: (Units=GPa)
#
#
# Indices 1 2 3 4 5 6 
#
# 1 35.4316 1.3316 4.2867 0.0000 8.1644 0.0000
# 2 1.3316 42.8890 -5.7297 0.0000 3.7021 0.0000
# 3 4.2867 -5.7297 55.5378 0.0000 -4.0529 0.0000
# 4 0.0000 0.0000 0.0000 26.8206 0.0000 2.2250
# 5 8.1644 3.7021 -4.0529 0.0000 30.9096 0.0000
# 6 0.0000 0.0000 0.0000 2.2250 0.0000 13.0609
#
#
#
# Elastic Compliance Matrix: (Units=1/GPa)
#
#
# Indices 1 2 3 4 5 6 
#
# 1 0.030548 -0.000630 -0.003035 0.000000 -0.008391 0.000000
# 2 -0.000630 0.023853 0.002335 0.000000 -0.002384 0.000000
# 3 -0.003035 0.002335 0.018698 0.000000 0.002974 0.000000
# 4 0.000000 0.000000 0.000000 0.037819 0.000000 -0.006443
# 5 -0.008391 -0.002384 0.002974 0.000000 0.035244 0.000000
# 6 0.000000 0.000000 0.000000 -0.006443 0.000000 0.077662
#
#
# Mechanical properties :
#
#
# Convention : Reuss Voigt Hill
#
# Bulk Modulus (GPa) = 14.19633 14.84840 14.52236
# Shear Modulus (GPa) = 20.00289 23.08952 21.54621
#
# Velocity S-wave (km/s) = 3.01366 3.23784 3.12776
# Velocity P-wave (km/s) = 4.30758 4.55191 4.43143
#
# Compressibility (1/GPa) = 0.07044074
#
# Stress axis : x y z
#
# Youngs Moduli (GPa) = 32.73555 41.92274 53.48172
#
# Poissons Ratio (x) = 0.02639 0.16233
# Poissons Ratio (y) = 0.02061 -0.12490
# Poissons Ratio (z) = 0.09936 -0.09791
#
# Static dielectric constant tensor:
#      x y z
#    x 1.872470 0.000000 -0.004590 
#    y 0.000000 1.840930 0.000000 
#    z -0.004590 0.000000 1.782440 
# 
# From -- ./inp_files/44213.got.cif
#   From: 2010.05.17/outbox.cif.g08.bks.cpg/sg5_23_cif.got.tgz:44213.got - 2010.06.03 18:56:24.
