data_PCOD9123301
_publ_section_title
;
Structure prediction by ZEFSAII (Michael W. Deem and Ramdas Pophale) SiO2 
 PCOD9123301
Probable space group: C 2
;
_chemical_formula_sum "Si O2"
_cell_formula_units_Z 30
_cell_length_a 13.724337
_cell_length_b 13.447787
_cell_length_c 16.575298
_cell_angle_alpha 90.000000
_cell_angle_beta 29.991419
_cell_angle_gamma 90.000000
_cell_volume 1529.187952
_symmetry_space_group_name_H-M "C 2"
_symmetry_group_IT_number 5
_symmetry_cell_setting 'monoclinic'
loop_
_space_group_symop_operation_xyz
x,y,z
-x,y,-z
1/2+x,1/2+y,z
1/2-x,1/2+y,-z
loop_
_atom_site_type_symbol
_atom_site_label
_atom_site_fract_x
_atom_site_fract_y
_atom_site_fract_z
Si Si1 0.601730 0.872320 0.344046
Si Si2 0.214235 0.754759 0.308978
Si Si3 0.492745 0.955816 0.263156
Si Si4 0.262295 0.135983 0.870955
Si Si5 0.271538 0.174848 0.168478
Si Si6 0.787449 0.978999 0.687857
Si Si7 0.000000 0.981000 0.000000
Si Si8 0.887497 0.256647 0.881809
O O1 0.500000 0.902688 0.500000
O O2 0.454980 0.901257 0.375907
O O3 0.654879 0.755773 0.305230
O O4 0.810780 0.923866 0.171022
O O5 0.239837 0.680212 0.216655
O O6 0.225513 0.867738 0.267106
O O7 0.387030 0.744662 0.251204
O O8 0.000000 0.742010 0.500000
O O9 0.344139 0.972270 0.297668
O O10 0.641737 0.872598 0.119845
O O11 0.556498 0.065950 0.241534
O O12 0.237743 0.222448 0.952527
O O13 0.088213 0.055500 0.003532
O O14 0.176361 0.189499 0.148277
O O15 0.262196 0.065872 0.214179
O O16 0.500000 0.202719 0.000000
O O17 0.000000 0.996778 0.500000
#
# Coordination Sequence:
#
# PCOD9123301 Si02
#       8
#     4   4   4   4   4   4   2   4
#     4  10  21  41  67  93 131 166 203 270 330 369
#     4  10  22  40  64  89 128 164 214 269 325 386
#     4   9  22  39  62  88 127 160 213 264 312 389
#     4  11  20  38  63  90 121 163 207 270 323 375
#     4  11  22  39  65  92 126 172 217 261 316 387
#     4  10  22  42  60  87 126 168 213 265 311 383
#     4  10  20  38  60  96 124 158 214 258 308 394
#     4  10  21  40  60  88 124 165 206 267 319 383
#
# _framework density 19.618257
#
# number of rings (size 3 to 8) (size 9 to 14) (size 15 to 20)
#    0.000    1.867    2.000    1.200    0.000    6.400 
#    2.400    8.000    0.000    0.000    0.000    0.000 
#    0.000    0.000    0.000    0.000    0.000    0.000 
#
# Total GULP energy -83525.488162 kJ/mol
# GULP energy per Si atom -5568.365877 kJ/mol
# Density = 1.957360 g / cm^3
# Si number density = 19.618257 Si / 1000 Ang^3
#
#
#
# Elastic Constant Matrix: (Units=GPa)
#
#
# Indices 1 2 3 4 5 6 
#
# 1 119.0468 67.2751 45.1536 0.0082 6.5656 -0.1671
# 2 67.2751 101.1430 48.2014 0.0123 4.9569 -0.1992
# 3 45.1536 48.2014 64.9512 0.0068 6.6841 -0.0991
# 4 0.0082 0.0123 0.0068 16.0624 0.0009 84.5344
# 5 6.5656 4.9569 6.6841 0.0009 18.6569 -0.0254
# 6 -0.1671 -0.1992 -0.0991 84.5344 -0.0254-1768.3556
#
#
#
# Elastic Compliance Matrix: (Units=1/GPa)
#
#
# Indices 1 2 3 4 5 6 
#
# 1 0.014284 -0.007378 -0.004298 0.000001 -0.001527 0.000000
# 2 -0.007378 0.019108 -0.009133 -0.000002 0.000792 -0.000001
# 3 -0.004298 -0.009133 0.025704 -0.000001 -0.005270 0.000000
# 4 0.000001 -0.000002 -0.000001 0.049743 0.000001 0.002378
# 5 -0.001527 0.000792 -0.005270 0.000001 0.055814 0.000000
# 6 0.000000 -0.000001 0.000000 0.002378 0.000000 -0.000452
#
#
# Mechanical properties :
#
#
# Convention : Reuss Voigt Hill
#
# Bulk Modulus (GPa) = 57.21162 67.37794 62.29478
# Shear Modulus (GPa) = 23.62468 -338.42654 -157.40093
#
# Velocity S-wave (km/s) = 3.47395 -13.14840 -8.96694
# Velocity P-wave (km/s) = 6.73178 14.00315 8.68249
#
# Compressibility (1/GPa) = 0.01747897
#
# Stress axis : x y z
#
# Youngs Moduli (GPa) = 70.01035 52.33425 38.90485
#
# Poissons Ratio (x) = 0.38611 0.16719
# Poissons Ratio (y) = 0.51653 0.35531
# Poissons Ratio (z) = 0.30087 0.47796
#
# Static dielectric constant tensor:
#      x y z
#    x 2.645520 -0.000110 -0.211750 
#    y -0.000110 1.723220 0.000020 
#    z -0.211750 0.000020 1.726090 
# 
# From -- ./inp_files/61634.got.cif
#   From: 2010.05.17/outbox.cif.g08.bks.cpg/sg5_31_cif.got.tgz:61634.got - 2010.06.03 18:56:24.
