data_PCOD9123381
_publ_section_title
;
Structure prediction by ZEFSAII (Michael W. Deem and Ramdas Pophale) SiO2 
 PCOD9123381
Probable space group: C 2
;
_chemical_formula_sum "Si O2"
_cell_formula_units_Z 30
_cell_length_a 7.822904
_cell_length_b 11.004022
_cell_length_c 19.469250
_cell_angle_alpha 90.000000
_cell_angle_beta 54.370253
_cell_angle_gamma 90.000000
_cell_volume 1362.233402
_symmetry_space_group_name_H-M "C 2"
_symmetry_group_IT_number 5
_symmetry_cell_setting 'monoclinic'
loop_
_space_group_symop_operation_xyz
x,y,z
-x,y,-z
1/2+x,1/2+y,z
1/2-x,1/2+y,-z
loop_
_atom_site_type_symbol
_atom_site_label
_atom_site_fract_x
_atom_site_fract_y
_atom_site_fract_z
Si Si1 0.679886 0.826260 0.869226
Si Si2 0.918556 0.577028 0.825408
Si Si3 0.680848 0.586466 0.168885
Si Si4 0.244393 0.834447 0.928717
Si Si5 0.607311 0.110971 0.632449
Si Si6 0.747067 0.870971 0.554208
Si Si7 0.299241 0.744959 0.294097
Si Si8 0.000000 0.226521 0.500000
O O1 0.776814 0.697927 0.869939
O O2 0.430676 0.842663 0.942024
O O3 0.687261 0.814437 0.782652
O O4 0.810696 0.946842 0.859060
O O5 0.798027 0.451919 0.869161
O O6 0.124837 0.589477 0.824002
O O7 0.000024 0.575124 0.728823
O O8 0.726507 0.697007 0.106137
O O9 0.457515 0.629797 0.252129
O O10 0.000000 0.846558 0.000000
O O11 0.440366 0.204564 0.642295
O O12 0.844248 0.156409 0.587916
O O13 0.643520 0.002674 0.571509
O O14 0.661029 0.796160 0.510816
O O15 0.000000 0.878309 0.500000
O O16 0.342545 0.820549 0.352317
#
# Coordination Sequence:
#
# PCOD9123381 Si02
#       8
#     4   4   4   4   4   4   4   2
#     4   9  21  39  62  92 120 163 213 261 313 385
#     4  10  22  41  66  91 126 167 215 262 317 389
#     4  10  20  38  63  92 120 163 213 259 319 380
#     4  10  22  40  61  93 133 167 202 258 325 384
#     4  11  23  42  63  90 123 166 217 270 327 383
#     4  12  24  41  61  86 128 165 212 271 330 383
#     4  10  22  40  62  87 124 163 209 270 327 384
#     4  12  26  40  60  94 122 170 222 270 332 386
#
# _framework density 22.022656999999999
#
# number of rings (size 3 to 8) (size 9 to 14) (size 15 to 20)
#    0.000    1.600    2.000    3.200    0.000    9.600 
#    2.400    0.667    0.000    0.000    0.000    0.000 
#    0.000    0.000    0.000    0.000    0.000    0.000 
#
# Total GULP energy -83658.523665 kJ/mol
# GULP energy per Si atom -5577.234911 kJ/mol
# Density = 2.197253 g / cm^3
# Si number density = 22.022657 Si / 1000 Ang^3
#
#
#
# Elastic Constant Matrix: (Units=GPa)
#
#
# Indices 1 2 3 4 5 6 
#
# 1 54.8357 18.4533 25.1986 0.0000 -15.7595 0.0000
# 2 18.4533 136.6185 42.8234 0.0000 -20.1500 0.0000
# 3 25.1986 42.8234 86.8064 0.0000 -46.6283 0.0000
# 4 0.0000 0.0000 0.0000 23.4342 0.0000 -13.5983
# 5 -15.7595 -20.1500 -46.6283 0.0000 42.1257 0.0000
# 6 0.0000 0.0000 0.0000 -13.5983 0.0000 28.6078
#
#
#
# Elastic Compliance Matrix: (Units=1/GPa)
#
#
# Indices 1 2 3 4 5 6 
#
# 1 0.021333 -0.001186 -0.004009 0.000000 0.002976 0.000000
# 2 -0.001186 0.008760 -0.004846 0.000000 -0.001618 0.000000
# 3 -0.004009 -0.004846 0.032123 0.000000 0.031738 0.000000
# 4 0.000000 0.000000 0.000000 0.058926 0.000000 0.028010
# 5 0.002976 -0.001618 0.031738 0.000000 0.059209 0.000000
# 6 0.000000 0.000000 0.000000 0.028010 0.000000 0.048270
#
#
# Mechanical properties :
#
#
# Convention : Reuss Voigt Hill
#
# Bulk Modulus (GPa) = 23.73406 50.13458 36.93432
# Shear Modulus (GPa) = 19.02967 31.61922 25.32445
#
# Velocity S-wave (km/s) = 2.94274 3.79325 3.39474
# Velocity P-wave (km/s) = 4.72724 6.48070 5.67213
#
# Compressibility (1/GPa) = 0.04213354
#
# Stress axis : x y z
#
# Youngs Moduli (GPa) = 46.87591 114.15074 31.13057
#
# Poissons Ratio (x) = 0.13537 0.12480
# Poissons Ratio (y) = 0.05559 0.15087
# Poissons Ratio (z) = 0.18793 0.55321
#
# Static dielectric constant tensor:
#      x y z
#    x 2.042480 0.000000 0.205170 
#    y 0.000000 1.855890 0.000000 
#    z 0.205170 0.000000 1.963270 
# 
# From -- ./inp_files/67958.got.cif
#   From: 2010.05.17/outbox.cif.g08.bks.cpg/sg5_34_cif.got.tgz:67958.got - 2010.06.03 18:56:24.
