data_PCOD9123275
_publ_section_title
;
Structure prediction by ZEFSAII (Michael W. Deem and Ramdas Pophale) SiO2 
 PCOD9123275
Probable space group: C 2
;
_chemical_formula_sum "Si O2"
_cell_formula_units_Z 32
_cell_length_a 18.182205
_cell_length_b 5.247358
_cell_length_c 16.196005
_cell_angle_alpha 90.000000
_cell_angle_beta 100.199724
_cell_angle_gamma 90.000000
_cell_volume 1520.816957
_symmetry_space_group_name_H-M "C 2"
_symmetry_group_IT_number 5
_symmetry_cell_setting 'monoclinic'
loop_
_space_group_symop_operation_xyz
x,y,z
-x,y,-z
1/2+x,1/2+y,z
1/2-x,1/2+y,-z
loop_
_atom_site_type_symbol
_atom_site_label
_atom_site_fract_x
_atom_site_fract_y
_atom_site_fract_z
Si Si1 0.523868 0.301600 0.599633
Si Si2 0.829694 0.194682 0.768481
Si Si3 0.062661 0.570686 0.821683
Si Si4 0.464291 0.795575 0.682470
Si Si5 0.847143 0.688969 0.881845
Si Si6 0.320233 0.706000 0.123377
Si Si7 0.940042 0.911367 0.040862
Si Si8 0.839012 0.867178 0.284069
O O1 0.500000 0.304460 0.500000
O O2 0.489265 0.542156 0.641304
O O3 0.614617 0.362798 0.621696
O O4 0.486786 0.040914 0.631058
O O5 0.880287 0.254544 0.698561
O O6 0.849843 0.417851 0.837438
O O7 0.741151 0.229591 0.731270
O O8 0.846133 0.921616 0.814574
O O9 0.139484 0.474412 0.876691
O O10 0.022623 0.755593 0.876745
O O11 0.095895 0.721626 0.752247
O O12 0.012130 0.345478 0.776480
O O13 0.766358 0.703992 0.910174
O O14 0.906954 0.727361 0.964950
O O15 0.370736 0.544531 0.071361
O O16 0.328031 0.612510 0.221544
O O17 0.000000 0.074082 0.000000
#
# Coordination Sequence:
#
# PCOD9123275 Si02
#       8
#     4   4   4   4   4   4   4   4
#     4  11  23  42  67  98 129 162 201 250 309 378
#     4  11  23  41  65  90 124 160 214 254 312 358
#     4  10  20  38  60  81 117 168 207 250 303 376
#     4  11  23  41  68  93 127 163 207 254 307 375
#     4  11  25  40  60  91 122 166 211 267 308 369
#     4  10  21  37  60  80 115 163 207 249 305 373
#     4  11  26  37  56  87 125 162 213 273 323 348
#     4   9  20  40  61  90 115 164 205 247 297 389
#
# _framework density 21.041321
#
# number of rings (size 3 to 8) (size 9 to 14) (size 15 to 20)
#    0.000    1.500    2.500    1.875    5.250    0.500 
#    0.000    1.250    0.000    0.000    0.000    0.000 
#    0.000    0.000    0.000    0.000    0.000    0.000 
#
# Total GULP energy -89151.697199 kJ/mol
# GULP energy per Si atom -5571.981075 kJ/mol
# Density = 2.099343 g / cm^3
# Si number density = 21.041321 Si / 1000 Ang^3
#
#
#
# Elastic Constant Matrix: (Units=GPa)
#
#
# Indices 1 2 3 4 5 6 
#
# 1 91.7861 15.2056 40.1530 0.0000 -12.2324 0.0000
# 2 15.2056 88.4058 10.6893 0.0000 -14.8844 0.0000
# 3 40.1530 10.6893 54.3022 0.0000 -2.3098 0.0000
# 4 0.0000 0.0000 0.0000 8.8080 0.0000 2.2154
# 5 -12.2324 -14.8844 -2.3098 0.0000 28.7286 0.0000
# 6 0.0000 0.0000 0.0000 2.2154 0.0000 19.9930
#
#
#
# Elastic Compliance Matrix: (Units=1/GPa)
#
#
# Indices 1 2 3 4 5 6 
#
# 1 0.017189 -0.000434 -0.012365 0.000000 0.006100 0.000000
# 2 -0.000434 0.012665 -0.001907 0.000000 0.006223 0.000000
# 3 -0.012365 -0.001907 0.027763 0.000000 -0.004021 0.000000
# 4 0.000000 0.000000 0.000000 0.116788 0.000000 -0.012941
# 5 0.006100 0.006223 -0.004021 0.000000 0.040307 0.000000
# 6 0.000000 0.000000 0.000000 -0.012941 0.000000 0.051452
#
#
# Mechanical properties :
#
#
# Convention : Reuss Voigt Hill
#
# Bulk Modulus (GPa) = 35.45682 40.73222 38.09452
# Shear Modulus (GPa) = 16.39464 22.73565 19.56515
#
# Velocity S-wave (km/s) = 2.79438 3.29070 3.05264
# Velocity P-wave (km/s) = 5.22485 5.81709 5.52890
#
# Compressibility (1/GPa) = 0.02820332
#
# Stress axis : x y z
#
# Youngs Moduli (GPa) = 58.17623 78.96051 36.01891
#
# Poissons Ratio (x) = 0.03430 0.44539
# Poissons Ratio (y) = 0.02527 0.06869
# Poissons Ratio (z) = 0.71937 0.15058
#
# Static dielectric constant tensor:
#      x y z
#    x 1.811210 0.000000 0.022300 
#    y 0.000000 1.820510 0.000000 
#    z 0.022300 0.000000 2.078950 
# 
# From -- ./inp_files/55457.got.cif
#   From: 2010.05.17/outbox.cif.g08.bks.cpg/sg5_28_cif.got.tgz:55457.got - 2010.06.03 18:56:24.
