data_PCOD9123336
_publ_section_title
;
Structure prediction by ZEFSAII (Michael W. Deem and Ramdas Pophale) SiO2 
 PCOD9123336
Probable space group: C 2
;
_chemical_formula_sum "Si O2"
_cell_formula_units_Z 30
_cell_length_a 11.994525
_cell_length_b 7.637940
_cell_length_c 15.264765
_cell_angle_alpha 90.000000
_cell_angle_beta 112.241709
_cell_angle_gamma 90.000000
_cell_volume 1294.406108
_symmetry_space_group_name_H-M "C 2"
_symmetry_group_IT_number 5
_symmetry_cell_setting 'monoclinic'
loop_
_space_group_symop_operation_xyz
x,y,z
-x,y,-z
1/2+x,1/2+y,z
1/2-x,1/2+y,-z
loop_
_atom_site_type_symbol
_atom_site_label
_atom_site_fract_x
_atom_site_fract_y
_atom_site_fract_z
Si Si1 0.365813 0.305390 0.801343
Si Si2 0.354296 0.993501 0.352728
Si Si3 0.287139 0.877547 0.098283
Si Si4 0.186275 0.216881 0.068824
Si Si5 0.000000 0.201606 0.500000
Si Si6 0.892367 0.588595 0.643014
Si Si7 0.788226 0.214855 0.546590
Si Si8 0.487957 0.636382 0.131705
O O1 0.244222 0.406886 0.738006
O O2 0.095538 0.266114 0.837569
O O3 0.380983 0.143600 0.741080
O O4 0.469883 0.450574 0.819989
O O5 0.468494 0.090857 0.344525
O O6 0.280395 0.115337 0.396803
O O7 0.414061 0.831427 0.421137
O O8 0.284806 0.867558 0.990648
O O9 0.169382 0.785381 0.106712
O O10 0.292964 0.083843 0.119439
O O11 0.097422 0.106876 0.977759
O O12 0.105622 0.240848 0.130727
O O13 0.093823 0.116331 0.459838
O O14 0.837414 0.398946 0.599417
O O15 0.811346 0.721017 0.560520
#
# Coordination Sequence:
#
# PCOD9123336 Si02
#       8
#     4   4   4   4   2   4   4   4
#     4  11  22  40  58  89 128 156 191 252 315 349
#     4  11  22  42  60  83 125 159 200 258 297 356
#     4   9  18  37  65  87 115 159 192 245 297 356
#     4   8  16  37  62  83 115 155 202 233 289 359
#     4  10  20  38  62  86 114 150 212 248 300 348
#     4  11  23  40  60  90 117 160 206 249 307 357
#     4  11  20  42  62  83 117 156 212 250 293 359
#     4   8  18  36  61  85 120 151 196 242 296 354
#
# _framework density 23.176651
#
# number of rings (size 3 to 8) (size 9 to 14) (size 15 to 20)
#    0.800    1.333    4.000    0.000    0.000    3.200 
#    9.600    2.667    5.867    0.000    0.000    0.000 
#    0.000    0.000    0.000    0.000    0.000    0.000 
#
# Total GULP energy -83505.651651 kJ/mol
# GULP energy per Si atom -5567.043443 kJ/mol
# Density = 2.312390 g / cm^3
# Si number density = 23.176651 Si / 1000 Ang^3
#
#
#
# Elastic Constant Matrix: (Units=GPa)
#
#
# Indices 1 2 3 4 5 6 
#
# 1 158.5712 54.5590 3.2241 0.0000 -15.0460 0.0000
# 2 54.5590 39.3252 1.1944 0.0000 -0.8773 0.0000
# 3 3.2241 1.1944 28.7287 0.0000 1.4340 0.0000
# 4 0.0000 0.0000 0.0000 28.3930 0.0000 2.8106
# 5 -15.0460 -0.8773 1.4340 0.0000 38.0242 0.0000
# 6 0.0000 0.0000 0.0000 2.8106 0.0000 45.8244
#
#
#
# Elastic Compliance Matrix: (Units=1/GPa)
#
#
# Indices 1 2 3 4 5 6 
#
# 1 0.012871 -0.017724 -0.000943 0.000000 0.004720 0.000000
# 2 -0.017724 0.049881 0.000208 0.000000 -0.005870 0.000000
# 3 -0.000943 0.000208 0.034990 0.000000 -0.001688 0.000000
# 4 0.000000 0.000000 0.000000 0.035435 0.000000 -0.002173
# 5 0.004720 -0.005870 -0.001688 0.000000 0.028095 0.000000
# 6 0.000000 0.000000 0.000000 -0.002173 0.000000 0.021956
#
#
# Mechanical properties :
#
#
# Convention : Reuss Voigt Hill
#
# Bulk Modulus (GPa) = 16.44055 38.28668 27.36361
# Shear Modulus (GPa) = 20.79690 33.62483 27.21086
#
# Velocity S-wave (km/s) = 2.99878 3.81308 3.43018
# Velocity P-wave (km/s) = 4.37027 5.99512 5.24598
#
# Compressibility (1/GPa) = 0.06082521
#
# Stress axis : x y z
#
# Youngs Moduli (GPa) = 77.69135 20.04765 28.57974
#
# Poissons Ratio (x) = 0.35532 0.02696
# Poissons Ratio (y) = 1.37697 -0.00595
# Poissons Ratio (z) = 0.07328 -0.00418
#
# Static dielectric constant tensor:
#      x y z
#    x 1.974450 0.000000 -0.091820 
#    y 0.000000 1.901230 0.000000 
#    z -0.091820 0.000000 1.983490 
# 
# From -- ./inp_files/60219.got.cif
#   From: 2010.05.17/outbox.cif.g08.bks.cpg/sg5_31_cif.got.tgz:60219.got - 2010.06.03 18:56:24.
