data_PCOD9123726
_publ_section_title
;
Structure prediction by ZEFSAII (Michael W. Deem and Ramdas Pophale) SiO2 
 PCOD9123726
Probable space group: C 2
;
_chemical_formula_sum "Si O2"
_cell_formula_units_Z 26
_cell_length_a 7.829921
_cell_length_b 29.722410
_cell_length_c 5.791747
_cell_angle_alpha 90.000000
_cell_angle_beta 64.016659
_cell_angle_gamma 90.000000
_cell_volume 1211.637580
_symmetry_space_group_name_H-M "C 2"
_symmetry_group_IT_number 5
_symmetry_cell_setting 'monoclinic'
loop_
_space_group_symop_operation_xyz
x,y,z
-x,y,-z
1/2+x,1/2+y,z
1/2-x,1/2+y,-z
loop_
_atom_site_type_symbol
_atom_site_label
_atom_site_fract_x
_atom_site_fract_y
_atom_site_fract_z
Si Si1 0.800225 0.830200 0.983901
Si Si2 0.500000 0.790276 0.500000
Si Si3 0.500000 0.584557 0.000000
Si Si4 0.113423 0.927754 0.185847
Si Si5 0.795105 0.245604 0.244193
Si Si6 0.500000 0.089869 0.000000
Si Si7 0.802936 0.024915 0.761536
Si Si8 0.687414 0.144167 0.257136
O O1 0.781845 0.880002 0.892347
O O2 0.808065 0.788780 0.801449
O O3 0.616953 0.820143 0.250777
O O4 0.000000 0.829948 0.000000
O O5 0.343432 0.758219 0.476796
O O6 0.356171 0.550905 0.963291
O O7 0.623492 0.618735 0.770486
O O8 0.000000 0.924710 0.500000
O O9 0.234153 0.973133 0.153136
O O10 0.000000 0.932611 0.000000
O O11 0.702824 0.197535 0.262220
O O12 0.000000 0.242638 0.000000
O O13 0.373470 0.054449 0.226087
O O14 0.647844 0.124748 0.026956
O O15 0.000000 0.026582 0.500000
O O16 0.500000 0.129829 0.500000
#
# Coordination Sequence:
#
# PCOD9123726 Si02
#       8
#     4   2   2   4   4   2   4   4
#     4  10  24  41  68  93 131 171 223 276 336 405
#     4  10  24  44  62  92 136 174 222 278 338 404
#     4  10  20  40  60  80 126 160 208 272 324 388
#     4  10  22  41  71 103 132 180 230 271 342 413
#     4  10  23  42  60  93 127 170 219 272 335 404
#     4  10  24  40  60  96 128 162 224 274 330 400
#     4  10  20  41  64  88 125 168 211 270 331 395
#     4  11  23  37  61  91 120 166 216 266 328 396
#
# _framework density 21.458561
#
# number of rings (size 3 to 8) (size 9 to 14) (size 15 to 20)
#    0.000    1.846    1.538    0.923    7.538    1.231 
#    5.538    0.000    1.692    0.000    0.000    0.000 
#    0.000    0.000    0.000    0.000    0.000    0.000 
#
# Total GULP energy -72377.259711 kJ/mol
# GULP energy per Si atom -5567.481516 kJ/mol
# Density = 2.140972 g / cm^3
# Si number density = 21.458561 Si / 1000 Ang^3
#
#
#
# Elastic Constant Matrix: (Units=GPa)
#
#
# Indices 1 2 3 4 5 6 
#
# 1 60.5624 56.2169 10.1256 0.0000 -5.7184 0.0000
# 2 56.2169 231.4855 41.4676 0.0000 2.1974 0.0000
# 3 10.1256 41.4676 60.6046 0.0000 -6.8622 0.0000
# 4 0.0000 0.0000 0.0000 15.2165 0.0000 -16.1015
# 5 -5.7184 2.1974 -6.8622 0.0000 32.2534 0.0000
# 6 0.0000 0.0000 0.0000 -16.1015 0.0000 67.5242
#
#
#
# Elastic Compliance Matrix: (Units=1/GPa)
#
#
# Indices 1 2 3 4 5 6 
#
# 1 0.021900 -0.005463 0.000575 0.000000 0.004377 0.000000
# 2 -0.005463 0.006323 -0.003660 0.000000 -0.002178 0.000000
# 3 0.000575 -0.003660 0.019416 0.000000 0.004482 0.000000
# 4 0.000000 0.000000 0.000000 0.087896 0.000000 0.020959
# 5 0.004377 -0.002178 0.004482 0.000000 0.032883 0.000000
# 6 0.000000 0.000000 0.000000 0.020959 0.000000 0.019807
#
#
# Mechanical properties :
#
#
# Convention : Reuss Voigt Hill
#
# Bulk Modulus (GPa) = 32.74161 63.14141 47.94151
# Shear Modulus (GPa) = 23.20143 39.32164 31.26154
#
# Velocity S-wave (km/s) = 3.29176 4.28535 3.82099
# Velocity P-wave (km/s) = 5.45333 7.34672 6.46966
#
# Compressibility (1/GPa) = 0.03054218
#
# Stress axis : x y z
#
# Youngs Moduli (GPa) = 45.66180 158.15281 51.50283
#
# Poissons Ratio (x) = 0.86399 -0.02959
# Poissons Ratio (y) = 0.24945 0.18852
# Poissons Ratio (z) = -0.02624 0.57889
#
# Static dielectric constant tensor:
#      x y z
#    x 1.862150 0.000000 -0.033030 
#    y 0.000000 1.740940 0.000000 
#    z -0.033030 0.000000 1.840860 
# 
# From -- ./inp_files/3759.got.cif
#   From: 2010.05.17/outbox.cif.g08.bks.cpg/sg5_2_cif.got.tgz:3759.got - 2010.06.03 18:56:24.
