data_PCOD9123580
_publ_section_title
;
Structure prediction by ZEFSAII (Michael W. Deem and Ramdas Pophale) SiO2 
 PCOD9123580
Probable space group: C 2
;
_chemical_formula_sum "Si O2"
_cell_formula_units_Z 30
_cell_length_a 16.671040
_cell_length_b 18.510931
_cell_length_c 13.601571
_cell_angle_alpha 90.000000
_cell_angle_beta 157.189351
_cell_angle_gamma 90.000000
_cell_volume 1627.275831
_symmetry_space_group_name_H-M "C 2"
_symmetry_group_IT_number 5
_symmetry_cell_setting 'monoclinic'
loop_
_space_group_symop_operation_xyz
x,y,z
-x,y,-z
1/2+x,1/2+y,z
1/2-x,1/2+y,-z
loop_
_atom_site_type_symbol
_atom_site_label
_atom_site_fract_x
_atom_site_fract_y
_atom_site_fract_z
Si Si1 0.405738 0.217850 0.696214
Si Si2 0.004879 0.128615 0.766579
Si Si3 0.243238 0.370801 0.592105
Si Si4 0.000000 0.427267 0.500000
Si Si5 0.139596 0.727361 0.751242
Si Si6 0.653007 0.721872 0.762244
Si Si7 0.112924 0.966899 0.939610
Si Si8 0.677259 0.853602 0.950219
O O1 0.312000 0.290831 0.637299
O O2 0.497396 0.225996 0.689148
O O3 0.227010 0.158639 0.485507
O O4 0.608903 0.203950 0.991838
O O5 0.070884 0.155018 0.733159
O O6 0.032925 0.044786 0.818416
O O7 0.170461 0.171667 0.021816
O O8 0.144160 0.381929 0.587962
O O9 0.435243 0.424509 0.798087
O O10 0.050886 0.386927 0.301676
O O11 0.169579 0.470989 0.754983
O O12 0.000000 0.713034 0.500000
O O13 0.243315 0.806876 0.869435
O O14 0.500000 0.733518 0.500000
O O15 0.659515 0.792812 0.841492
O O16 0.166688 0.914529 0.909143
#
# Coordination Sequence:
#
# PCOD9123580 Si02
#       8
#     4   4   4   2   4   4   4   4
#     4  10  20  39  62  86 120 160 197 246 302 351
#     4  10  23  40  56  90 124 156 195 254 300 351
#     4  11  19  38  58  86 122 153 199 236 299 357
#     4  10  26  34  58  96 122 154 194 244 304 370
#     4  10  21  40  63  85 115 160 212 245 290 353
#     4  10  21  37  64  90 117 154 202 245 299 365
#     4  11  22  38  59  84 128 154 194 239 310 356
#     4   9  20  36  61  90 116 152 195 254 296 346
#
# _framework density 18.435718999999999
#
# number of rings (size 3 to 8) (size 9 to 14) (size 15 to 20)
#    0.000    2.133    5.333    0.400    4.667    6.400 
#    2.400    0.667    0.000    1.600    0.000    0.000 
#    0.000    0.000    0.000    0.000    0.000    0.000 
#
# Total GULP energy -83562.913380 kJ/mol
# GULP energy per Si atom -5570.860892 kJ/mol
# Density = 1.839376 g / cm^3
# Si number density = 18.435719 Si / 1000 Ang^3
#
#
#
# Elastic Constant Matrix: (Units=GPa)
#
#
# Indices 1 2 3 4 5 6 
#
# 1 37.0727 26.5355 41.4953 0.0000 9.8167 0.0000
# 2 26.5355 117.9569 52.7144 0.0000 2.3764 0.0000
# 3 41.4953 52.7144 144.6689 -0.0001 7.9041 -0.0001
# 4 0.0000 0.0000 -0.0001 25.1529 -0.0001 4.4477
# 5 9.8167 2.3764 7.9041 -0.0001 34.7046 0.0000
# 6 0.0000 0.0000 -0.0001 4.4477 0.0000 11.9957
#
#
#
# Elastic Compliance Matrix: (Units=1/GPa)
#
#
# Indices 1 2 3 4 5 6 
#
# 1 0.045122 -0.005267 -0.010476 0.000000 -0.010017 0.000000
# 2 -0.005267 0.010742 -0.002476 0.000000 0.001318 0.000000
# 3 -0.010476 -0.002476 0.010782 0.000000 0.000677 0.000000
# 4 0.000000 0.000000 0.000000 0.042546 0.000000 -0.015775
# 5 -0.010017 0.001318 0.000677 0.000000 0.031404 0.000000
# 6 0.000000 0.000000 0.000000 -0.015775 0.000000 0.089212
#
#
# Mechanical properties :
#
#
# Convention : Reuss Voigt Hill
#
# Bulk Modulus (GPa) = 33.10222 60.13212 46.61717
# Shear Modulus (GPa) = 18.09528 26.30086 22.19807
#
# Velocity S-wave (km/s) = 3.13634 3.78117 3.47375
# Velocity P-wave (km/s) = 5.57763 7.19381 6.43665
#
# Compressibility (1/GPa) = 0.03020945
#
# Stress axis : x y z
#
# Youngs Moduli (GPa) = 22.16211 93.08981 92.74595
#
# Poissons Ratio (x) = 0.49032 0.97159
# Poissons Ratio (y) = 0.11673 0.22959
# Poissons Ratio (z) = 0.23217 0.23044
#
# Static dielectric constant tensor:
#      x y z
#    x 1.668770 0.000000 0.012300 
#    y 0.000000 1.633600 0.000000 
#    z 0.012300 0.000000 1.708950 
# 
# From -- ./inp_files/56207.got.cif
#   From: 2010.05.17/outbox.cif.g08.bks.cpg/sg5_29_cif.got.tgz:56207.got - 2010.06.03 18:56:24.
