data_PCOD9123085
_publ_section_title
;
Structure prediction by ZEFSAII (Michael W. Deem and Ramdas Pophale) SiO2 
 PCOD9123085
Probable space group: C 2
;
_chemical_formula_sum "Si O2"
_cell_formula_units_Z 32
_cell_length_a 29.441494
_cell_length_b 8.010108
_cell_length_c 12.502324
_cell_angle_alpha 90.000000
_cell_angle_beta 153.881531
_cell_angle_gamma 90.000000
_cell_volume 1297.977728
_symmetry_space_group_name_H-M "C 2"
_symmetry_group_IT_number 5
_symmetry_cell_setting 'monoclinic'
loop_
_space_group_symop_operation_xyz
x,y,z
-x,y,-z
1/2+x,1/2+y,z
1/2-x,1/2+y,-z
loop_
_atom_site_type_symbol
_atom_site_label
_atom_site_fract_x
_atom_site_fract_y
_atom_site_fract_z
Si Si1 0.398317 0.772160 0.434199
Si Si2 0.604593 0.755462 0.161878
Si Si3 0.695686 0.004809 0.628255
Si Si4 0.893887 0.408064 0.065117
Si Si5 0.332413 0.130426 0.643564
Si Si6 0.614714 0.278711 0.039365
Si Si7 0.789365 0.190958 0.998496
Si Si8 0.016396 0.946311 0.647319
O O1 0.366344 0.835828 0.482669
O O2 0.503491 0.882755 0.644118
O O3 0.432244 0.582058 0.499333
O O4 0.305767 0.765561 0.150707
O O5 0.710354 0.655642 0.409532
O O6 0.628619 0.943913 0.251548
O O7 0.500000 0.697770 0.000000
O O8 0.594172 0.782287 0.011283
O O9 0.655214 0.137578 0.457819
O O10 0.697775 0.086008 0.751219
O O11 0.800828 0.922915 0.805656
O O12 0.866604 0.589696 0.962741
O O13 0.802565 0.344932 0.946313
O O14 0.392485 0.255230 0.848855
O O15 0.526822 0.334442 0.772660
O O16 0.884849 0.064323 0.174206
O O17 0.000000 0.852656 0.500000
#
# Coordination Sequence:
#
# PCOD9123085 Si02
#       8
#     4   4   4   4   4   4   4   4
#     4  10  21  37  64  91 126 173 222 279 338 423
#     4  11  23  41  71  98 136 190 236 286 362 428
#     4  11  21  40  65  91 131 176 220 284 351 414
#     4  10  20  37  61  91 125 169 226 275 348 415
#     4  11  22  42  67  98 141 180 232 298 351 423
#     4  10  22  37  63  90 127 176 215 283 362 404
#     4   9  19  37  60  90 127 172 216 270 349 419
#     4   8  17  37  62  92 128 170 225 277 344 429
#
# _framework density 24.653734
#
# number of rings (size 3 to 8) (size 9 to 14) (size 15 to 20)
#    0.000    2.000    2.500    1.875    0.000    2.000 
#    0.000    4.375   11.000    0.000    0.000    0.000 
#    0.000    0.000    0.000    0.000    0.000    0.000 
#
# Total GULP energy -89116.808780 kJ/mol
# GULP energy per Si atom -5569.800549 kJ/mol
# Density = 2.459762 g / cm^3
# Si number density = 24.653734 Si / 1000 Ang^3
#
#
#
# Elastic Constant Matrix: (Units=GPa)
#
#
# Indices 1 2 3 4 5 6 
#
# 1 65.7346 28.1161 46.3248 0.0000 -20.3962 0.0000
# 2 28.1161 57.0876 27.7017 0.0000 -19.8389 0.0000
# 3 46.3248 27.7017 99.4937 0.0000 -35.5068 0.0000
# 4 0.0000 0.0000 0.0000 33.7337 0.0000 -13.7113
# 5 -20.3962 -19.8389 -35.5068 0.0000 35.2429 0.0000
# 6 0.0000 0.0000 0.0000 -13.7113 0.0000 32.6892
#
#
#
# Elastic Compliance Matrix: (Units=1/GPa)
#
#
# Indices 1 2 3 4 5 6 
#
# 1 0.025352 -0.007616 -0.009333 0.000000 0.000982 0.000000
# 2 -0.007616 0.024517 0.000113 0.000000 0.009507 0.000000
# 3 -0.009333 0.000113 0.019455 0.000000 0.014263 0.000000
# 4 0.000000 0.000000 0.000000 0.035737 0.000000 0.014990
# 5 0.000982 0.009507 0.014263 0.000000 0.048664 0.000000
# 6 0.000000 0.000000 0.000000 0.014990 0.000000 0.036878
#
#
# Mechanical properties :
#
#
# Convention : Reuss Voigt Hill
#
# Bulk Modulus (GPa) = 28.04951 47.40013 37.72482
# Shear Modulus (GPa) = 21.17202 28.34469 24.75835
#
# Velocity S-wave (km/s) = 2.93367 3.39442 3.17242
# Velocity P-wave (km/s) = 4.78302 5.88480 5.36228
#
# Compressibility (1/GPa) = 0.03565124
#
# Stress axis : x y z
#
# Youngs Moduli (GPa) = 39.44414 40.78790 51.40017
#
# Poissons Ratio (x) = 0.31064 0.47973
# Poissons Ratio (y) = 0.30041 -0.00579
# Poissons Ratio (z) = 0.36814 -0.00460
#
# Static dielectric constant tensor:
#      x y z
#    x 2.038770 0.000000 -0.019830 
#    y 0.000000 1.937980 0.000000 
#    z -0.019830 0.000000 2.206380 
# 
# From -- ./inp_files/48419.got.cif
#   From: 2010.05.17/outbox.cif.g08.bks.cpg/sg5_25_cif.got.tgz:48419.got - 2010.06.03 18:56:24.
