data_PCOD9123430
_publ_section_title
;
Structure prediction by ZEFSAII (Michael W. Deem and Ramdas Pophale) SiO2 
 PCOD9123430
Probable space group: C 2
;
_chemical_formula_sum "Si O2"
_cell_formula_units_Z 26
_cell_length_a 9.290387
_cell_length_b 15.275368
_cell_length_c 8.365782
_cell_angle_alpha 90.000000
_cell_angle_beta 110.118249
_cell_angle_gamma 90.000000
_cell_volume 1114.783592
_symmetry_space_group_name_H-M "C 2"
_symmetry_group_IT_number 5
_symmetry_cell_setting 'monoclinic'
loop_
_space_group_symop_operation_xyz
x,y,z
-x,y,-z
1/2+x,1/2+y,z
1/2-x,1/2+y,-z
loop_
_atom_site_type_symbol
_atom_site_label
_atom_site_fract_x
_atom_site_fract_y
_atom_site_fract_z
Si Si1 0.898015 0.112690 0.621871
Si Si2 0.279701 0.757109 0.008215
Si Si3 0.500000 0.354019 0.000000
Si Si4 0.632363 0.495751 0.851425
Si Si5 0.163456 0.489812 0.391844
Si Si6 0.107348 0.298290 0.282607
Si Si7 0.607901 0.077087 0.883685
O O1 0.830278 0.209550 0.614499
O O2 0.000000 0.114296 0.500000
O O3 0.765381 0.039990 0.560344
O O4 0.018459 0.078935 0.800625
O O5 0.309692 0.810978 0.856601
O O6 0.210180 0.664911 0.918682
O O7 0.148027 0.794734 0.069645
O O8 0.435665 0.768649 0.167043
O O9 0.472238 0.414445 0.142880
O O10 0.723937 0.492748 0.720597
O O11 0.764439 0.503408 0.034603
O O12 0.119982 0.387360 0.387707
O O13 0.011224 0.546160 0.295622
O O14 0.500000 0.084353 0.000000
#
# Coordination Sequence:
#
# PCOD9123430 Si02
#       7
#     4   4   2   4   4   4   4
#     4  10  23  44  65  92 134 185 218 269 334 406
#     4  11  23  39  68 104 132 169 224 289 327 391
#     4  12  22  36  66 108 128 164 224 282 328 388
#     4  10  21  39  64  95 131 169 221 269 331 393
#     4  10  22  43  65  93 136 179 217 272 336 394
#     4  11  23  45  67  98 137 177 226 275 343 394
#     4  10  20  38  64  95 134 169 219 281 327 383
#
# _framework density 23.32291
#
# number of rings (size 3 to 8) (size 9 to 14) (size 15 to 20)
#    0.000    1.538    3.846    0.923    6.462    0.000 
#    5.538    0.769    0.000    0.000    0.000    0.000 
#    0.000    0.000    0.000    0.000    0.000    0.000 
#
# Total GULP energy -72563.013856 kJ/mol
# GULP energy per Si atom -5581.770297 kJ/mol
# Density = 2.326983 g / cm^3
# Si number density = 23.322910 Si / 1000 Ang^3
#
#
#
# Elastic Constant Matrix: (Units=GPa)
#
#
# Indices 1 2 3 4 5 6 
#
# 1 119.0481 31.5649 22.6496 0.0000 11.9886 0.0000
# 2 31.5649 154.0299 34.2532 0.0000 30.8532 0.0000
# 3 22.6496 34.2532 66.5655 0.0000 28.3037 0.0000
# 4 0.0000 0.0000 0.0000 25.4065 0.0000 1.1265
# 5 11.9886 30.8532 28.3037 0.0000 25.2834 0.0000
# 6 0.0000 0.0000 0.0000 1.1265 0.0000 36.0719
#
#
#
# Elastic Compliance Matrix: (Units=1/GPa)
#
#
# Indices 1 2 3 4 5 6 
#
# 1 0.009222 -0.001348 -0.002451 0.000000 0.000016 0.000000
# 2 -0.001348 0.008790 0.000429 0.000000 -0.010567 0.000000
# 3 -0.002451 0.000429 0.029321 0.000000 -0.032185 0.000000
# 4 0.000000 0.000000 0.000000 0.039415 0.000000 -0.001231
# 5 0.000016 -0.010567 -0.032185 0.000000 0.088468 0.000000
# 6 0.000000 0.000000 0.000000 -0.001231 0.000000 0.027761
#
#
# Mechanical properties :
#
#
# Convention : Reuss Voigt Hill
#
# Bulk Modulus (GPa) = 24.63524 57.39764 41.01644
# Shear Modulus (GPa) = 22.39658 34.09740 28.24699
#
# Velocity S-wave (km/s) = 3.10220 3.82772 3.48390
# Velocity P-wave (km/s) = 4.83913 6.64821 5.81446
#
# Compressibility (1/GPa) = 0.04059226
#
# Stress axis : x y z
#
# Youngs Moduli (GPa) = 108.43519 113.76873 34.10502
#
# Poissons Ratio (x) = 0.15336 0.08359
# Poissons Ratio (y) = 0.14617 -0.01462
# Poissons Ratio (z) = 0.26578 -0.04877
#
# Static dielectric constant tensor:
#      x y z
#    x 1.886020 0.000000 -0.036330 
#    y 0.000000 1.949780 0.000000 
#    z -0.036330 0.000000 1.858260 
# 
# From -- ./inp_files/36271.got.cif
#   From: 2010.05.17/outbox.cif.g08.bks.cpg/sg5_19_cif.got.tgz:36271.got - 2010.06.03 18:56:24.
