data_PCOD9123686
_publ_section_title
;
Structure prediction by ZEFSAII (Michael W. Deem and Ramdas Pophale) SiO2 
 PCOD9123686
Probable space group: C 2
;
_chemical_formula_sum "Si O2"
_cell_formula_units_Z 30
_cell_length_a 5.096615
_cell_length_b 18.204216
_cell_length_c 16.003554
_cell_angle_alpha 90.000000
_cell_angle_beta 63.663846
_cell_angle_gamma 90.000000
_cell_volume 1330.694678
_symmetry_space_group_name_H-M "C 2"
_symmetry_group_IT_number 5
_symmetry_cell_setting 'monoclinic'
loop_
_space_group_symop_operation_xyz
x,y,z
-x,y,-z
1/2+x,1/2+y,z
1/2-x,1/2+y,-z
loop_
_atom_site_type_symbol
_atom_site_label
_atom_site_fract_x
_atom_site_fract_y
_atom_site_fract_z
Si Si1 0.986147 0.169050 0.782588
Si Si2 0.500000 0.375978 0.500000
Si Si3 0.010793 0.492375 0.402603
Si Si4 0.514295 0.073772 0.230453
Si Si5 0.347038 0.368337 0.268634
Si Si6 0.747075 0.318112 0.899032
Si Si7 0.649602 0.967842 0.061604
Si Si8 0.765183 0.789554 0.666102
O O1 0.168683 0.112547 0.811734
O O2 0.223779 0.203978 0.685019
O O3 0.726810 0.130225 0.769700
O O4 0.876087 0.241192 0.847518
O O5 0.764026 0.430210 0.445619
O O6 0.524417 0.319665 0.572176
O O7 0.944949 0.545670 0.334177
O O8 0.000000 0.523225 0.500000
O O9 0.290473 0.445080 0.326543
O O10 0.536163 0.008294 0.160644
O O11 0.367290 0.364789 0.165606
O O12 0.632154 0.328635 0.263658
O O13 0.047785 0.319830 0.321893
O O14 0.928831 0.381796 0.919044
O O15 0.500000 0.297365 0.000000
O O16 0.500000 0.999761 0.000000
O O17 0.000000 0.973988 0.000000
#
# Coordination Sequence:
#
# PCOD9123686 Si02
#       8
#     4   2   4   4   4   4   4   4
#     4  11  26  46  69 103 149 197 230 291 378 437
#     4  10  22  40  72 104 130 172 248 298 356 414
#     4  11  23  43  73 107 140 190 244 301 371 437
#     4  12  27  48  71 103 155 193 234 301 368 455
#     4  10  20  39  68 103 138 162 231 306 343 403
#     4  10  23  45  74 107 137 187 247 298 352 430
#     4  11  25  46  73 110 141 186 246 305 357 423
#     4  10  21  40  66  97 134 176 229 289 348 413
#
# _framework density 22.544616000000001
#
# number of rings (size 3 to 8) (size 9 to 14) (size 15 to 20)
#    0.000    1.333    2.667    2.400    1.867    8.000 
#    1.200    1.333    2.933    0.000    0.000    0.000 
#    0.000    0.000    0.000    0.000    0.000    0.000 
#
# Total GULP energy -83627.096395 kJ/mol
# GULP energy per Si atom -5575.139760 kJ/mol
# Density = 2.249330 g / cm^3
# Si number density = 22.544616 Si / 1000 Ang^3
#
#
#
# Elastic Constant Matrix: (Units=GPa)
#
#
# Indices 1 2 3 4 5 6 
#
# 1 92.7469 34.2750 35.1243 0.0000 10.5138 0.0000
# 2 34.2750 99.9797 63.1638 0.0000 3.4444 0.0000
# 3 35.1243 63.1638 154.9890 0.0000 15.1004 0.0000
# 4 0.0000 0.0000 0.0000 27.7205 0.0000 2.8161
# 5 10.5138 3.4444 15.1004 0.0000 32.9830 0.0000
# 6 0.0000 0.0000 0.0000 2.8161 0.0000 29.9282
#
#
#
# Elastic Compliance Matrix: (Units=1/GPa)
#
#
# Indices 1 2 3 4 5 6 
#
# 1 0.012908 -0.003588 -0.001150 0.000000 -0.003213 0.000000
# 2 -0.003588 0.014510 -0.005300 0.000000 0.002055 0.000000
# 3 -0.001150 -0.005300 0.009193 0.000000 -0.003289 0.000000
# 4 0.000000 0.000000 0.000000 0.036423 0.000000 -0.003427
# 5 -0.003213 0.002055 -0.003289 0.000000 0.032634 0.000000
# 6 0.000000 0.000000 0.000000 -0.003427 0.000000 0.033736
#
#
# Mechanical properties :
#
#
# Convention : Reuss Voigt Hill
#
# Bulk Modulus (GPa) = 60.48015 68.09353 64.28684
# Shear Modulus (GPa) = 30.30469 32.46984 31.38727
#
# Velocity S-wave (km/s) = 3.67032 3.79918 3.73531
# Velocity P-wave (km/s) = 6.69678 7.03665 6.86882
#
# Compressibility (1/GPa) = 0.01653435
#
# Stress axis : x y z
#
# Youngs Moduli (GPa) = 77.47319 68.91874 108.77572
#
# Poissons Ratio (x) = 0.24727 0.12509
# Poissons Ratio (y) = 0.27796 0.57656
# Poissons Ratio (z) = 0.08909 0.36530
#
# Static dielectric constant tensor:
#      x y z
#    x 1.875700 0.000000 0.012610 
#    y 0.000000 1.826780 0.000000 
#    z 0.012610 0.000000 2.024160 
# 
# From -- ./inp_files/49308.got.cif
#   From: 2010.05.17/outbox.cif.g08.bks.cpg/sg5_25_cif.got.tgz:49308.got - 2010.06.03 18:56:24.
