data_PCOD9123633
_publ_section_title
;
Structure prediction by ZEFSAII (Michael W. Deem and Ramdas Pophale) SiO2 
 PCOD9123633
Probable space group: C 2
;
_chemical_formula_sum "Si O2"
_cell_formula_units_Z 26
_cell_length_a 12.120637
_cell_length_b 20.987046
_cell_length_c 8.415663
_cell_angle_alpha 90.000000
_cell_angle_beta 34.474772
_cell_angle_gamma 90.000000
_cell_volume 1211.754823
_symmetry_space_group_name_H-M "C 2"
_symmetry_group_IT_number 5
_symmetry_cell_setting 'monoclinic'
loop_
_space_group_symop_operation_xyz
x,y,z
-x,y,-z
1/2+x,1/2+y,z
1/2-x,1/2+y,-z
loop_
_atom_site_type_symbol
_atom_site_label
_atom_site_fract_x
_atom_site_fract_y
_atom_site_fract_z
Si Si1 0.500000 0.477480 0.500000
Si Si2 0.832325 0.429308 0.896648
Si Si3 0.000000 0.318203 0.500000
Si Si4 0.271985 0.266305 0.735775
Si Si5 0.391720 0.577404 0.382284
Si Si6 0.500000 0.885554 0.000000
Si Si7 0.205500 0.556629 0.265054
Si Si8 0.907767 0.218870 0.364525
O O1 0.374161 0.524971 0.539538
O O2 0.369937 0.436366 0.771146
O O3 0.831459 0.488479 0.776957
O O4 0.863334 0.364889 0.763380
O O5 0.993862 0.426753 0.846177
O O6 0.123262 0.272812 0.468037
O O7 0.500000 0.268463 0.500000
O O8 0.180081 0.336279 0.806625
O O9 0.226329 0.227412 0.630282
O O10 0.128965 0.234236 0.038038
O O11 0.268579 0.557111 0.373845
O O12 0.361500 0.648564 0.481149
O O13 0.612749 0.581815 0.051361
O O14 0.000000 0.592767 0.500000
#
# Coordination Sequence:
#
# PCOD9123633 Si02
#       8
#     2   4   2   4   4   2   4   4
#     4  10  25  42  66 100 127 196 218 276 332 404
#     4  11  23  40  68  96 134 172 224 274 337 401
#     4  12  21  42  66 102 129 178 220 276 350 380
#     4  10  20  39  64  98 127 177 219 262 350 400
#     4  10  22  43  62  99 136 172 237 269 332 395
#     4  10  22  40  60  94 132 180 214 266 340 410
#     4  10  21  38  67  99 130 177 217 284 326 389
#     4  10  22  40  68  94 137 177 218 284 328 405
#
# _framework density 21.456485000000001
#
# number of rings (size 3 to 8) (size 9 to 14) (size 15 to 20)
#    0.000    1.846    3.846    2.308    3.231    2.462 
#    0.000    3.846    3.385    3.692    0.000    0.000 
#    0.000    0.000    0.000    0.000    0.000    0.000 
#
# Total GULP energy -72532.254656 kJ/mol
# GULP energy per Si atom -5579.404204 kJ/mol
# Density = 2.140765 g / cm^3
# Si number density = 21.456485 Si / 1000 Ang^3
#
#
#
# Elastic Constant Matrix: (Units=GPa)
#
#
# Indices 1 2 3 4 5 6 
#
# 1 98.2083 41.4708 45.7858 0.0000 -5.5317 0.0000
# 2 41.4708 117.2672 26.0764 0.0000 13.2596 0.0000
# 3 45.7858 26.0764 90.8001 0.0000 -7.4480 0.0000
# 4 0.0000 0.0000 0.0000 -1.9561 0.0000 -1.1718
# 5 -5.5317 13.2596 -7.4480 0.0000 44.7724 0.0000
# 6 0.0000 0.0000 0.0000 -1.1718 0.0000 14.4860
#
#
#
# Elastic Compliance Matrix: (Units=1/GPa)
#
#
# Indices 1 2 3 4 5 6 
#
# 1 0.014919 -0.004135 -0.006168 0.000000 0.002042 0.000000
# 2 -0.004135 0.010724 -0.001315 0.000000 -0.003906 0.000000
# 3 -0.006168 -0.001315 0.014671 0.000000 0.002068 0.000000
# 4 0.000000 0.000000 0.000000 -0.487595 0.000000 -0.039443
# 5 0.002042 -0.003906 0.002068 0.000000 0.024088 0.000000
# 6 0.000000 0.000000 0.000000 -0.039443 0.000000 0.065842
#
#
# Mechanical properties :
#
#
# Convention : Reuss Voigt Hill
#
# Bulk Modulus (GPa) = 58.55662 59.21574 58.88618
# Shear Modulus (GPa) = -15.22431 24.32330 4.54949
#
# Velocity S-wave (km/s) = -2.66662 3.37057 1.45772
# Velocity P-wave (km/s) = 4.22717 6.54260 5.50793
#
# Compressibility (1/GPa) = 0.01707749
#
# Stress axis : x y z
#
# Youngs Moduli (GPa) = 67.02733 93.24864 68.16375
#
# Poissons Ratio (x) = 0.38563 0.42043
# Poissons Ratio (y) = 0.27719 0.08962
# Poissons Ratio (z) = 0.41342 0.12261
#
# Static dielectric constant tensor:
#      x y z
#    x 1.795120 0.000000 0.002510 
#    y 0.000000 1.824240 0.000000 
#    z 0.002510 0.000000 1.819890 
# 
# From -- ./inp_files/21915.got.cif
#   From: 2010.05.17/outbox.cif.g08.bks.cpg/sg5_11_cif.got.tgz:21915.got - 2010.06.03 18:56:24.
