data_PCOD9123680
_publ_section_title
;
Structure prediction by ZEFSAII (Michael W. Deem and Ramdas Pophale) SiO2 
 PCOD9123680
Probable space group: C 2
;
_chemical_formula_sum "Si O2"
_cell_formula_units_Z 26
_cell_length_a 12.016250
_cell_length_b 14.006556
_cell_length_c 14.067735
_cell_angle_alpha 90.000000
_cell_angle_beta 147.760684
_cell_angle_gamma 90.000000
_cell_volume 1263.059338
_symmetry_space_group_name_H-M "C 2"
_symmetry_group_IT_number 5
_symmetry_cell_setting 'monoclinic'
loop_
_space_group_symop_operation_xyz
x,y,z
-x,y,-z
1/2+x,1/2+y,z
1/2-x,1/2+y,-z
loop_
_atom_site_type_symbol
_atom_site_label
_atom_site_fract_x
_atom_site_fract_y
_atom_site_fract_z
Si Si1 0.186064 0.114020 0.712037
Si Si2 0.318066 0.711006 0.802185
Si Si3 0.893962 0.905764 0.320724
Si Si4 0.000000 0.562462 0.500000
Si Si5 0.944784 0.258407 0.218451
Si Si6 0.222103 0.399872 0.543316
Si Si7 0.519617 0.279313 0.122444
O O1 0.102462 0.170914 0.743878
O O2 0.384701 0.172923 0.817492
O O3 0.000000 0.115847 0.500000
O O4 0.233378 0.004143 0.768296
O O5 0.235275 0.809648 0.787416
O O6 0.403611 0.732667 0.758237
O O7 0.141236 0.632408 0.664353
O O8 0.500000 0.672915 0.000000
O O9 0.000000 0.892548 0.500000
O O10 0.081358 0.919012 0.382246
O O11 0.870354 0.494201 0.476242
O O12 0.050406 0.341182 0.358680
O O13 0.716768 0.284192 0.011881
O O14 0.314331 0.335822 0.695295
O O15 0.500000 0.316584 0.000000
#
# Coordination Sequence:
#
# PCOD9123680 Si02
#       7
#     4   4   4   2   4   4   4
#     4  10  20  39  67  99 127 165 220 275 332 387
#     4  12  26  47  65  95 139 178 225 268 335 398
#     4  11  23  43  67  94 128 176 222 270 326 393
#     4  12  26  44  68  98 134 180 222 274 336 390
#     4  11  22  42  69  99 130 175 219 275 334 396
#     4  12  23  44  70  96 134 175 223 275 325 398
#     4  10  22  39  67 103 131 166 220 276 337 390
#
# _framework density 20.58494
#
# number of rings (size 3 to 8) (size 9 to 14) (size 15 to 20)
#    0.000    0.923    3.846    3.692    0.000    3.692 
#    5.538    3.077    0.000    0.000    0.000    0.000 
#    0.000    0.000    0.000    0.000    0.000    0.000 
#
# Total GULP energy -72685.966286 kJ/mol
# GULP energy per Si atom -5591.228176 kJ/mol
# Density = 2.053809 g / cm^3
# Si number density = 20.584940 Si / 1000 Ang^3
#
#
#
# Elastic Constant Matrix: (Units=GPa)
#
#
# Indices 1 2 3 4 5 6 
#
# 1 85.6722 32.6611 17.3977 0.0016 10.5210 0.0006
# 2 32.6611 135.8158 71.6072 0.0015 9.2447 0.0008
# 3 17.3977 71.6072 129.1549 0.0027 4.3272 0.0017
# 4 0.0016 0.0015 0.0027 -10.7640 0.0012 9.8224
# 5 10.5210 9.2447 4.3272 0.0012 33.4401 0.0004
# 6 0.0006 0.0008 0.0017 9.8224 0.0004 12.2771
#
#
#
# Elastic Compliance Matrix: (Units=1/GPa)
#
#
# Indices 1 2 3 4 5 6 
#
# 1 0.013207 -0.002925 -0.000046 0.000001 -0.003341 -0.000001
# 2 -0.002925 0.011206 -0.005771 0.000000 -0.001431 0.000000
# 3 -0.000046 -0.005771 0.010942 0.000001 0.000194 -0.000002
# 4 0.000001 0.000000 0.000001 -0.053698 0.000001 0.042962
# 5 -0.003341 -0.001431 0.000194 0.000001 0.031326 -0.000002
# 6 -0.000001 0.000000 -0.000002 0.042962 -0.000002 0.047080
#
#
# Mechanical properties :
#
#
# Convention : Reuss Voigt Hill
#
# Bulk Modulus (GPa) = 55.95204 65.99722 60.97463
# Shear Modulus (GPa) = 59.87763 22.25576 41.06670
#
# Velocity S-wave (km/s) = 5.39919 3.29168 4.47137
# Velocity P-wave (km/s) = 8.13071 6.82476 7.50619
#
# Compressibility (1/GPa) = 0.01787245
#
# Stress axis : x y z
#
# Youngs Moduli (GPa) = 75.71823 89.23423 91.39045
#
# Poissons Ratio (x) = 0.26097 0.00417
# Poissons Ratio (y) = 0.22144 0.52744
# Poissons Ratio (z) = 0.00346 0.51500
#
# Static dielectric constant tensor:
#      x y z
#    x 1.765080 0.000000 0.024950 
#    y 0.000000 1.720560 0.000000 
#    z 0.024950 0.000000 1.742320 
# 
# From -- ./inp_files/53245.got.cif
#   From: 2010.05.17/outbox.cif.g08.bks.cpg/sg5_27_cif.got.tgz:53245.got - 2010.06.03 18:56:24.
