data_PCOD9123530
_publ_section_title
;
Structure prediction by ZEFSAII (Michael W. Deem and Ramdas Pophale) SiO2 
 PCOD9123530
Probable space group: C 2
;
_chemical_formula_sum "Si O2"
_cell_formula_units_Z 28
_cell_length_a 22.015864
_cell_length_b 12.548064
_cell_length_c 8.354862
_cell_angle_alpha 90.000000
_cell_angle_beta 145.498916
_cell_angle_gamma 90.000000
_cell_volume 1307.349550
_symmetry_space_group_name_H-M "C 2"
_symmetry_group_IT_number 5
_symmetry_cell_setting 'monoclinic'
loop_
_space_group_symop_operation_xyz
x,y,z
-x,y,-z
1/2+x,1/2+y,z
1/2-x,1/2+y,-z
loop_
_atom_site_type_symbol
_atom_site_label
_atom_site_fract_x
_atom_site_fract_y
_atom_site_fract_z
Si Si1 0.000000 0.186020 0.500000
Si Si2 0.297571 0.419382 0.392931
Si Si3 0.100180 0.162728 0.036907
Si Si4 0.245257 0.996627 0.203084
Si Si5 0.378092 0.862319 0.740092
Si Si6 0.500000 0.479666 0.000000
Si Si7 0.268065 0.614487 0.124660
Si Si8 0.126284 0.818968 0.775285
O O1 0.888342 0.132163 0.315740
O O2 0.955013 0.228497 0.229683
O O3 0.190726 0.386724 0.251362
O O4 0.280635 0.541755 0.306000
O O5 0.330219 0.353417 0.306032
O O6 0.396251 0.412769 0.730048
O O7 0.116433 0.234046 0.229674
O O8 0.026853 0.060578 0.915178
O O9 0.208593 0.102501 0.218357
O O10 0.319423 0.919480 0.466784
O O11 0.147021 0.921142 0.933339
O O12 0.292433 0.042011 0.140143
O O13 0.500000 0.900124 0.000000
O O14 0.201838 0.722564 0.997649
O O15 0.000000 0.793707 0.500000
#
# Coordination Sequence:
#
# PCOD9123530 Si02
#       8
#     2   4   4   4   4   2   4   4
#     4  10  20  38  70 100 122 172 226 280 326 384
#     4  11  24  43  67 103 128 178 228 274 336 394
#     4  11  22  41  66  96 133 170 225 280 331 380
#     4  10  24  43  67  98 137 174 225 279 327 403
#     4  12  27  43  65 102 139 179 220 275 341 403
#     4  12  20  38  70  92 128 172 226 288 316 380
#     4  10  23  42  70  96 135 174 226 281 332 396
#     4  11  25  44  70 101 132 176 225 275 344 399
#
# _framework density 21.417377999999999
#
# number of rings (size 3 to 8) (size 9 to 14) (size 15 to 20)
#    0.000    1.143    3.571    2.571   11.000    1.143 
#    0.000    0.000    3.143    0.000    0.000    0.000 
#    0.000    0.000    0.000    0.000    0.000    0.000 
#
# Total GULP energy -78030.750967 kJ/mol
# GULP energy per Si atom -5573.625069 kJ/mol
# Density = 2.136863 g / cm^3
# Si number density = 21.417378 Si / 1000 Ang^3
#
#
#
# Elastic Constant Matrix: (Units=GPa)
#
#
# Indices 1 2 3 4 5 6 
#
# 1 83.0047 12.0926 34.2628 0.0000 24.2596 0.0000
# 2 12.0926 75.7314 36.0646 0.0000 8.6218 0.0000
# 3 34.2628 36.0646 117.6483 0.0000 9.8785 0.0000
# 4 0.0000 0.0000 0.0000 30.7207 0.0000 -10.0416
# 5 24.2596 8.6218 9.8785 0.0000 35.8666 0.0000
# 6 0.0000 0.0000 0.0000 -10.0416 0.0000 26.8347
#
#
#
# Elastic Compliance Matrix: (Units=1/GPa)
#
#
# Indices 1 2 3 4 5 6 
#
# 1 0.016688 0.000477 -0.004145 0.000000 -0.010260 0.000000
# 2 0.000477 0.015692 -0.004714 0.000000 -0.002796 0.000000
# 3 -0.004145 -0.004714 0.011078 0.000000 0.000886 0.000000
# 4 0.000000 0.000000 0.000000 0.037088 0.000000 0.013878
# 5 -0.010260 -0.002796 0.000886 0.000000 0.035249 0.000000
# 6 0.000000 0.000000 0.000000 0.013878 0.000000 0.042459
#
#
# Mechanical properties :
#
#
# Convention : Reuss Voigt Hill
#
# Bulk Modulus (GPa) = 37.46239 49.02494 43.24366
# Shear Modulus (GPa) = 27.18654 31.61536 29.40095
#
# Velocity S-wave (km/s) = 3.56668 3.84624 3.70910
# Velocity P-wave (km/s) = 5.87292 6.53183 6.21112
#
# Compressibility (1/GPa) = 0.02669344
#
# Stress axis : x y z
#
# Youngs Moduli (GPa) = 59.92465 63.72750 90.27054
#
# Poissons Ratio (x) = -0.03041 0.37415
# Poissons Ratio (y) = -0.02860 0.42558
# Poissons Ratio (z) = 0.24837 0.30044
#
# Static dielectric constant tensor:
#      x y z
#    x 1.832620 0.000000 -0.009650 
#    y 0.000000 1.791700 0.000000 
#    z -0.009650 0.000000 1.822610 
# 
# From -- ./inp_files/31015.got.cif
#   From: 2010.05.17/outbox.cif.g08.bks.cpg/sg5_16_cif.got.tgz:31015.got - 2010.06.03 18:56:24.
