data_PCOD9123837
_publ_section_title
;
Structure prediction by ZEFSAII (Michael W. Deem and Ramdas Pophale) SiO2 
 PCOD9123837
Probable space group: C 2
;
_chemical_formula_sum "Si O2"
_cell_formula_units_Z 24
_cell_length_a 7.164017
_cell_length_b 12.406345
_cell_length_c 13.595120
_cell_angle_alpha 90.000000
_cell_angle_beta 62.183653
_cell_angle_gamma 90.000000
_cell_volume 1068.699854
_symmetry_space_group_name_H-M "C 2"
_symmetry_group_IT_number 5
_symmetry_cell_setting 'monoclinic'
loop_
_space_group_symop_operation_xyz
x,y,z
-x,y,-z
1/2+x,1/2+y,z
1/2-x,1/2+y,-z
loop_
_atom_site_type_symbol
_atom_site_label
_atom_site_fract_x
_atom_site_fract_y
_atom_site_fract_z
Si Si1 0.864737 0.352870 0.767919
Si Si2 0.234525 0.936851 0.989652
Si Si3 0.000000 0.250302 0.000000
Si Si4 0.338868 0.489213 0.343822
Si Si5 0.500000 0.141712 0.500000
Si Si6 0.865100 0.128163 0.852320
Si Si7 0.301744 0.827422 0.475379
O O1 0.882935 0.430764 0.857176
O O2 0.701047 0.402394 0.731264
O O3 0.777746 0.238114 0.827716
O O4 0.088704 0.339983 0.657704
O O5 0.301580 0.829941 0.032868
O O6 0.000000 0.932857 0.000000
O O7 0.258511 0.040971 0.052133
O O8 0.023600 0.177250 0.897057
O O9 0.529173 0.563080 0.262730
O O10 0.335024 0.426720 0.448324
O O11 0.132471 0.565068 0.396510
O O12 0.664019 0.220436 0.512231
O O13 0.500000 0.818974 0.500000
#
# Coordination Sequence:
#
# PCOD9123837 Si02
#       7
#     4   4   2   4   2   4   4
#     4  10  20  40  65  91 129 163 215 265 306 387
#     4  11  22  42  66  93 129 171 212 270 322 371
#     4  10  24  42  64  98 126 164 228 260 310 402
#     4  11  21  41  66  94 133 165 211 271 316 381
#     4  12  22  42  70  92 130 180 204 258 348 358
#     4  11  21  42  66  90 133 169 208 273 322 369
#     4  10  23  43  63 101 131 163 220 267 308 399
#
# _framework density 22.457193
#
# number of rings (size 3 to 8) (size 9 to 14) (size 15 to 20)
#    0.000    1.333    6.667    0.000    0.000    1.333 
#    7.500    6.667    0.000    0.000    0.000    0.000 
#    0.000    0.000    0.000    0.000    0.000    0.000 
#
# Total GULP energy -66965.354244 kJ/mol
# GULP energy per Si atom -5580.446187 kJ/mol
# Density = 2.240608 g / cm^3
# Si number density = 22.457193 Si / 1000 Ang^3
#
#
#
# Elastic Constant Matrix: (Units=GPa)
#
#
# Indices 1 2 3 4 5 6 
#
# 1 57.1682 27.9648 14.6245 0.0000 1.5823 0.0000
# 2 27.9648 138.9557 62.1928 0.0000 -8.4443 0.0000
# 3 14.6245 62.1928 128.2120 0.0000 -9.4816 0.0000
# 4 0.0000 0.0000 0.0000 44.4596 0.0000 -14.7148
# 5 1.5823 -8.4443 -9.4816 0.0000 12.1463 0.0000
# 6 0.0000 0.0000 0.0000 -14.7148 0.0000 15.2208
#
#
#
# Elastic Compliance Matrix: (Units=1/GPa)
#
#
# Indices 1 2 3 4 5 6 
#
# 1 0.019813 -0.004012 -0.000755 0.000000 -0.005959 0.000000
# 2 -0.004012 0.010115 -0.004129 0.000000 0.004332 0.000000
# 3 -0.000755 -0.004129 0.010277 0.000000 0.005250 0.000000
# 4 0.000000 0.000000 0.000000 0.033075 0.000000 0.031976
# 5 -0.005959 0.004332 0.005250 0.000000 0.090216 0.000000
# 6 0.000000 0.000000 0.000000 0.031976 0.000000 0.096612
#
#
# Mechanical properties :
#
#
# Convention : Reuss Voigt Hill
#
# Bulk Modulus (GPa) = 44.61423 59.32223 51.96823
# Shear Modulus (GPa) = 17.52118 29.00226 23.26172
#
# Velocity S-wave (km/s) = 2.79624 3.59757 3.22191
# Velocity P-wave (km/s) = 5.50770 6.61284 6.08541
#
# Compressibility (1/GPa) = 0.02241437
#
# Stress axis : x y z
#
# Youngs Moduli (GPa) = 50.47297 98.86326 97.30822
#
# Poissons Ratio (x) = 0.39660 0.07343
# Poissons Ratio (y) = 0.20248 0.40175
# Poissons Ratio (z) = 0.03809 0.40817
#
# Static dielectric constant tensor:
#      x y z
#    x 1.868320 0.000000 -0.027770 
#    y 0.000000 1.836310 0.000000 
#    z -0.027770 0.000000 1.894750 
# 
# From -- ./inp_files/50073.got.cif
#   From: 2010.05.17/outbox.cif.g08.bks.cpg/sg5_26_cif.got.tgz:50073.got - 2010.06.03 18:56:24.
