data_PCOD9123315
_publ_section_title
;
Structure prediction by ZEFSAII (Michael W. Deem and Ramdas Pophale) SiO2 
 PCOD9123315
Probable space group: C 2
;
_chemical_formula_sum "Si O2"
_cell_formula_units_Z 26
_cell_length_a 18.892435
_cell_length_b 8.851342
_cell_length_c 8.681508
_cell_angle_alpha 90.000000
_cell_angle_beta 50.136314
_cell_angle_gamma 90.000000
_cell_volume 1114.323003
_symmetry_space_group_name_H-M "C 2"
_symmetry_group_IT_number 5
_symmetry_cell_setting 'monoclinic'
loop_
_space_group_symop_operation_xyz
x,y,z
-x,y,-z
1/2+x,1/2+y,z
1/2-x,1/2+y,-z
loop_
_atom_site_type_symbol
_atom_site_label
_atom_site_fract_x
_atom_site_fract_y
_atom_site_fract_z
Si Si1 0.223322 0.727870 0.873506
Si Si2 0.858400 0.650975 0.476565
Si Si3 0.394213 0.003503 0.107188
Si Si4 0.000000 0.734962 0.500000
Si Si5 0.344238 0.470913 0.826853
Si Si6 0.842563 0.164724 0.124505
Si Si7 0.603533 0.399445 0.794966
O O1 0.135317 0.615749 0.988433
O O2 0.303501 0.599975 0.769096
O O3 0.189591 0.832536 0.777192
O O4 0.230827 0.849972 0.999734
O O5 0.847383 0.553574 0.335708
O O6 0.947456 0.623950 0.455297
O O7 0.767021 0.648390 0.704287
O O8 0.878973 0.821511 0.390262
O O9 0.369134 0.836587 0.095206
O O10 0.500000 0.016831 0.000000
O O11 0.923501 0.854017 0.669097
O O12 0.375552 0.572123 0.929481
O O13 0.886796 0.077621 0.208168
O O14 0.500000 0.359206 0.000000
#
# Coordination Sequence:
#
# PCOD9123315 Si02
#       7
#     4   4   4   2   4   4   4
#     4  10  20  38  61  89 121 162 205 253 310 366
#     4  11  22  40  64  90 122 166 212 253 308 374
#     4  11  22  38  63  93 126 161 205 260 310 368
#     4  12  24  40  64  92 126 170 212 254 312 374
#     4  11  23  41  65  89 124 166 210 258 310 373
#     4  11  23  39  62  94 128 163 206 258 313 370
#     4  10  21  40  64  90 125 166 207 254 311 376
#
# _framework density 23.332552
#
# number of rings (size 3 to 8) (size 9 to 14) (size 15 to 20)
#    0.000    1.231    0.000    8.769    0.000    1.231 
#    0.000    3.077    0.000    2.769    0.000    0.000 
#    0.000    0.000    0.000    0.000    0.000    0.000 
#
# Total GULP energy -72456.502424 kJ/mol
# GULP energy per Si atom -5573.577110 kJ/mol
# Density = 2.327945 g / cm^3
# Si number density = 23.332552 Si / 1000 Ang^3
#
#
#
# Elastic Constant Matrix: (Units=GPa)
#
#
# Indices 1 2 3 4 5 6 
#
# 1 79.2222 12.5436 -2.8264 0.0000 4.1005 0.0000
# 2 12.5436 136.4734 -1.7610 0.0000 8.3191 0.0000
# 3 -2.8264 -1.7610 36.5309 0.0000 -3.8375 0.0000
# 4 0.0000 0.0000 0.0000 16.3431 0.0000 3.0202
# 5 4.1005 8.3191 -3.8375 0.0000 28.4032 0.0000
# 6 0.0000 0.0000 0.0000 3.0202 0.0000 31.0766
#
#
#
# Elastic Compliance Matrix: (Units=1/GPa)
#
#
# Indices 1 2 3 4 5 6 
#
# 1 0.012898 -0.001088 0.000795 0.000000 -0.001436 0.000000
# 2 -0.001088 0.007553 0.000065 0.000000 -0.002046 0.000000
# 3 0.000795 0.000065 0.027820 0.000000 0.003625 0.000000
# 4 0.000000 0.000000 0.000000 0.062307 0.000000 -0.006055
# 5 -0.001436 -0.002046 0.003625 0.000000 0.036504 0.000000
# 6 0.000000 0.000000 0.000000 -0.006055 0.000000 0.032767
#
#
# Mechanical properties :
#
#
# Convention : Reuss Voigt Hill
#
# Bulk Modulus (GPa) = 20.91440 29.79322 25.35381
# Shear Modulus (GPa) = 25.47871 31.44925 28.46398
#
# Velocity S-wave (km/s) = 3.30810 3.67532 3.49653
# Velocity P-wave (km/s) = 4.85535 5.55043 5.21449
#
# Compressibility (1/GPa) = 0.04781394
#
# Stress axis : x y z
#
# Youngs Moduli (GPa) = 77.53371 132.39790 35.94599
#
# Poissons Ratio (x) = 0.14400 -0.02856
# Poissons Ratio (y) = 0.08433 -0.00234
# Poissons Ratio (z) = -0.06161 -0.00860
#
# Static dielectric constant tensor:
#      x y z
#    x 2.005980 0.000000 0.055600 
#    y 0.000000 1.877930 0.000000 
#    z 0.055600 0.000000 1.950130 
# 
# From -- ./inp_files/29087.got.cif
#   From: 2010.05.17/outbox.cif.g08.bks.cpg/sg5_15_cif.got.tgz:29087.got - 2010.06.03 18:56:24.
