data_PCOD9123675
_publ_section_title
;
Structure prediction by ZEFSAII (Michael W. Deem and Ramdas Pophale) SiO2 
 PCOD9123675
Probable space group: C 2
;
_chemical_formula_sum "Si O2"
_cell_formula_units_Z 32
_cell_length_a 9.158938
_cell_length_b 22.895994
_cell_length_c 15.662958
_cell_angle_alpha 90.000000
_cell_angle_beta 28.605587
_cell_angle_gamma 90.000000
_cell_volume 1572.577689
_symmetry_space_group_name_H-M "C 2"
_symmetry_group_IT_number 5
_symmetry_cell_setting 'monoclinic'
loop_
_space_group_symop_operation_xyz
x,y,z
-x,y,-z
1/2+x,1/2+y,z
1/2-x,1/2+y,-z
loop_
_atom_site_type_symbol
_atom_site_label
_atom_site_fract_x
_atom_site_fract_y
_atom_site_fract_z
Si Si1 0.868543 0.920430 0.807411
Si Si2 0.646161 0.511502 0.332194
Si Si3 0.326334 0.835790 0.809334
Si Si4 0.645612 0.722109 0.677972
Si Si5 0.281607 0.457158 0.038193
Si Si6 0.316066 0.309188 0.305309
Si Si7 0.284810 0.133730 0.193741
Si Si8 0.268234 0.701946 0.043314
O O1 0.950648 0.963662 0.688476
O O2 0.041336 0.859405 0.708916
O O3 0.500000 0.911183 0.000000
O O4 0.934919 0.946541 0.867498
O O5 0.500000 0.505032 0.500000
O O6 0.611915 0.575455 0.310040
O O7 0.003196 0.499359 0.163285
O O8 0.595255 0.790842 0.687246
O O9 0.334217 0.894624 0.861866
O O10 0.283467 0.842137 0.730640
O O11 0.000000 0.805646 0.000000
O O12 0.453373 0.684891 0.707747
O O13 0.000000 0.707084 0.500000
O O14 0.478677 0.709802 0.852554
O O15 0.500000 0.480353 0.000000
O O16 0.576792 0.261233 0.158044
O O17 0.000000 0.282228 0.500000
O O18 0.512143 0.154476 0.151580
O O19 0.500000 0.123117 0.000000
O O20 0.500000 0.688179 0.000000
#
# Coordination Sequence:
#
# PCOD9123675 Si02
#       8
#     4   4   4   4   4   4   4   4
#     4  10  21  41  62  91 129 175 219 264 326 395
#     4  11  26  42  65  94 129 171 218 278 324 391
#     4  11  19  41  65  96 136 175 212 269 330 392
#     4  11  23  41  70  98 128 173 218 272 332 396
#     4  10  20  39  67  91 126 172 216 262 326 393
#     4  12  24  37  63  99 140 177 211 271 332 394
#     4  10  22  48  69  88 129 173 221 271 332 391
#     4  11  24  41  66 100 131 170 218 269 333 399
#
# _framework density 20.348756999999999
#
# number of rings (size 3 to 8) (size 9 to 14) (size 15 to 20)
#    0.000    1.250    5.000    1.875    3.500    3.500 
#    0.000    3.125    0.000    0.000    0.000    0.000 
#    0.000    0.000    0.000    0.000    0.000    0.000 
#
# Total GULP energy -89318.422019 kJ/mol
# GULP energy per Si atom -5582.401376 kJ/mol
# Density = 2.030244 g / cm^3
# Si number density = 20.348757 Si / 1000 Ang^3
#
#
#
# Elastic Constant Matrix: (Units=GPa)
#
#
# Indices 1 2 3 4 5 6 
#
# 1 105.0242 17.8326 11.0605 -0.0009 3.5394 0.0008
# 2 17.8326 67.1670 14.4933 -0.0025 8.6080 -0.0006
# 3 11.0605 14.4933 83.6896 -0.0108 -3.1600 0.0036
# 4 -0.0009 -0.0025 -0.0108 8.1308 0.0067 0.8449
# 5 3.5394 8.6080 -3.1600 0.0067 26.6219 -0.0001
# 6 0.0008 -0.0006 0.0036 0.8449 -0.0001 29.0704
#
#
#
# Elastic Compliance Matrix: (Units=1/GPa)
#
#
# Indices 1 2 3 4 5 6 
#
# 1 0.010047 -0.002377 -0.000942 0.000000 -0.000679 0.000000
# 2 -0.002377 0.016824 -0.002805 0.000006 -0.005457 0.000001
# 3 -0.000942 -0.002805 0.012655 0.000014 0.002534 -0.000002
# 4 0.000000 0.000006 0.000014 0.123362 -0.000031 -0.003585
# 5 -0.000679 -0.005457 0.002534 -0.000031 0.039719 0.000001
# 6 0.000000 0.000001 -0.000002 -0.003585 0.000001 0.034503
#
#
# Mechanical properties :
#
#
# Convention : Reuss Voigt Hill
#
# Bulk Modulus (GPa) = 36.66051 38.07260 37.36655
# Shear Modulus (GPa) = 19.34594 26.93093 23.13843
#
# Velocity S-wave (km/s) = 3.08672 3.64190 3.37574
# Velocity P-wave (km/s) = 5.54608 6.03616 5.79630
#
# Compressibility (1/GPa) = 0.02727730
#
# Stress axis : x y z
#
# Youngs Moduli (GPa) = 99.52888 59.43851 79.02061
#
# Poissons Ratio (x) = 0.14130 0.07442
# Poissons Ratio (y) = 0.23661 0.22169
# Poissons Ratio (z) = 0.09374 0.16675
#
# Static dielectric constant tensor:
#      x y z
#    x 1.748530 0.000000 0.025500 
#    y 0.000000 1.714560 0.000010 
#    z 0.025500 0.000010 1.760220 
# 
# From -- ./inp_files/51681.got.cif
#   From: 2010.05.17/outbox.cif.g08.bks.cpg/sg5_26_cif.got.tgz:51681.got - 2010.06.03 18:56:24.
