data_PCOD9123691
_publ_section_title
;
Structure prediction by ZEFSAII (Michael W. Deem and Ramdas Pophale) SiO2 
 PCOD9123691
Probable space group: C 2
;
_chemical_formula_sum "Si O2"
_cell_formula_units_Z 28
_cell_length_a 16.179276
_cell_length_b 13.041455
_cell_length_c 8.424246
_cell_angle_alpha 90.000000
_cell_angle_beta 43.656896
_cell_angle_gamma 90.000000
_cell_volume 1227.094908
_symmetry_space_group_name_H-M "C 2"
_symmetry_group_IT_number 5
_symmetry_cell_setting 'monoclinic'
loop_
_space_group_symop_operation_xyz
x,y,z
-x,y,-z
1/2+x,1/2+y,z
1/2-x,1/2+y,-z
loop_
_atom_site_type_symbol
_atom_site_label
_atom_site_fract_x
_atom_site_fract_y
_atom_site_fract_z
Si Si1 0.565974 0.902710 0.736581
Si Si2 0.265875 0.735467 0.401735
Si Si3 0.472175 0.128376 0.226090
Si Si4 0.079746 0.065625 0.636085
Si Si5 0.000000 0.899744 0.000000
Si Si6 0.500000 0.423509 0.500000
Si Si7 0.854289 0.781180 0.943529
Si Si8 0.383882 0.737563 0.886987
O O1 0.689659 0.843742 0.592571
O O2 0.574005 0.016992 0.661131
O O3 0.500000 0.907761 0.000000
O O4 0.480754 0.828467 0.755538
O O5 0.126256 0.713848 0.596760
O O6 0.323742 0.646226 0.432153
O O7 0.318964 0.730311 0.149795
O O8 0.591765 0.166843 0.142972
O O9 0.500000 0.125103 0.000000
O O10 0.093891 0.997522 0.460341
O O11 0.960284 0.133409 0.770395
O O12 0.060024 0.978791 0.794869
O O13 0.096984 0.830939 0.960430
O O14 0.418178 0.352736 0.724810
O O15 0.714457 0.766403 0.107043
#
# Coordination Sequence:
#
# PCOD9123691 Si02
#       8
#     4   4   4   4   2   2   4   4
#     4   8  19  39  63  92 124 167 216 270 339 395
#     4  10  20  39  68  95 130 171 222 277 337 408
#     4  11  23  39  61  93 133 174 217 272 330 399
#     4  10  20  41  69  97 125 171 230 273 337 395
#     4  10  20  40  62  94 132 176 220 272 334 394
#     4  10  24  38  62  92 132 174 222 280 324 396
#     4  11  23  39  61  93 135 174 223 275 334 393
#     4  10  20  40  69  95 128 173 222 279 327 408
#
# _framework density 22.818121000000001
#
# number of rings (size 3 to 8) (size 9 to 14) (size 15 to 20)
#    0.000    2.000    2.143    1.714    0.000    9.143 
#    0.000    0.000    0.000    0.857    0.000    0.000 
#    0.000    0.000    0.000    0.000    0.000    0.000 
#
# Total GULP energy -78252.790754 kJ/mol
# GULP energy per Si atom -5589.485054 kJ/mol
# Density = 2.276619 g / cm^3
# Si number density = 22.818121 Si / 1000 Ang^3
#
#
#
# Elastic Constant Matrix: (Units=GPa)
#
#
# Indices 1 2 3 4 5 6 
#
# 1 114.2711 44.2580 11.5014 0.0000 -11.3999 0.0000
# 2 44.2580 138.9611 14.8088 0.0000 -4.1342 0.0000
# 3 11.5014 14.8088 47.9976 0.0000 -5.6359 0.0000
# 4 0.0000 0.0000 0.0000 15.0501 0.0000 -9.4888
# 5 -11.3999 -4.1342 -5.6359 0.0000 34.2152 0.0000
# 6 0.0000 0.0000 0.0000 -9.4888 0.0000 -19.9243
#
#
#
# Elastic Compliance Matrix: (Units=1/GPa)
#
#
# Indices 1 2 3 4 5 6 
#
# 1 0.010353 -0.003085 -0.001191 0.000000 0.002881 0.000000
# 2 -0.003085 0.008370 -0.001881 0.000000 -0.000326 0.000000
# 3 -0.001191 -0.001881 0.022053 0.000000 0.003009 0.000000
# 4 0.000000 0.000000 0.000000 0.051101 0.000000 -0.024336
# 5 0.002881 -0.000326 0.003009 0.000000 0.030643 0.000000
# 6 0.000000 0.000000 0.000000 -0.024336 0.000000 -0.038600
#
#
# Mechanical properties :
#
#
# Convention : Reuss Voigt Hill
#
# Bulk Modulus (GPa) = 35.13457 49.15181 42.14319
# Shear Modulus (GPa) = 47.29419 21.24565 34.26992
#
# Velocity S-wave (km/s) = 4.55759 3.05468 3.87961
# Velocity P-wave (km/s) = 6.56708 5.83343 6.21110
#
# Compressibility (1/GPa) = 0.02846200
#
# Stress axis : x y z
#
# Youngs Moduli (GPa) = 96.58940 119.48115 45.34434
#
# Poissons Ratio (x) = 0.36857 0.05400
# Poissons Ratio (y) = 0.29796 0.08531
# Poissons Ratio (z) = 0.11503 0.22479
#
# Static dielectric constant tensor:
#      x y z
#    x 1.863040 0.000000 0.035430 
#    y 0.000000 1.839270 0.000000 
#    z 0.035430 0.000000 1.844550 
# 
# From -- ./inp_files/24597.got.cif
#   From: 2010.05.17/outbox.cif.g08.bks.cpg/sg5_13_cif.got.tgz:24597.got - 2010.06.03 18:56:24.
