data_PCOD9123835
_publ_section_title
;
Structure prediction by ZEFSAII (Michael W. Deem and Ramdas Pophale) SiO2 
 PCOD9123835
Probable space group: C 2
;
_chemical_formula_sum "Si O2"
_cell_formula_units_Z 32
_cell_length_a 11.995199
_cell_length_b 9.142881
_cell_length_c 22.212300
_cell_angle_alpha 90.000000
_cell_angle_beta 146.615535
_cell_angle_gamma 90.000000
_cell_volume 1340.440524
_symmetry_space_group_name_H-M "C 2"
_symmetry_group_IT_number 5
_symmetry_cell_setting 'monoclinic'
loop_
_space_group_symop_operation_xyz
x,y,z
-x,y,-z
1/2+x,1/2+y,z
1/2-x,1/2+y,-z
loop_
_atom_site_type_symbol
_atom_site_label
_atom_site_fract_x
_atom_site_fract_y
_atom_site_fract_z
Si Si1 0.596787 0.576630 0.895785
Si Si2 0.362839 0.318879 0.318246
Si Si3 0.671500 0.488137 0.125819
Si Si4 0.071323 0.996073 0.307074
Si Si5 0.897765 0.404804 0.119886
Si Si6 0.986379 0.089040 0.559065
Si Si7 0.613603 0.767350 0.709793
Si Si8 0.910034 0.537984 0.550376
O O1 0.497143 0.492268 0.793452
O O2 0.678955 0.735351 0.912542
O O3 0.417710 0.600344 0.865670
O O4 0.772852 0.487685 0.010828
O O5 0.458544 0.372489 0.297272
O O6 0.480463 0.417744 0.420371
O O7 0.411034 0.156167 0.363401
O O8 0.133934 0.375480 0.216165
O O9 0.866697 0.490448 0.169948
O O10 0.697164 0.341187 0.174753
O O11 0.500000 0.475384 0.000000
O O12 0.300869 0.995486 0.437881
O O13 0.996116 0.158321 0.293759
O O14 0.772559 0.114723 0.494536
O O15 0.000000 0.148652 0.500000
O O16 0.162335 0.164522 0.676274
O O17 0.481969 0.897963 0.621211
#
# Coordination Sequence:
#
# PCOD9123835 Si02
#       8
#     4   4   4   4   4   4   4   4
#     4  11  25  48  73 104 141 198 247 305 374 438
#     4  10  23  42  68 108 143 188 242 305 369 436
#     4  10  23  43  71  95 135 186 240 298 360 429
#     4  10  21  43  68 102 143 183 239 298 370 441
#     4  11  25  48  71 105 147 190 254 305 371 440
#     4  10  22  37  62  99 141 184 236 288 369 437
#     4  10  20  40  65  90 134 180 227 294 354 427
#     4  10  21  41  68 100 141 184 237 302 361 440
#
# _framework density 23.872748000000001
#
# number of rings (size 3 to 8) (size 9 to 14) (size 15 to 20)
#    0.000    2.000    1.250    3.750    1.750    7.500 
#   11.250    1.875    0.000    0.000    0.000    0.000 
#    0.000    0.000    0.000    0.000    0.000    0.000 
#
# Total GULP energy -89166.305543 kJ/mol
# GULP energy per Si atom -5572.894096 kJ/mol
# Density = 2.381841 g / cm^3
# Si number density = 23.872748 Si / 1000 Ang^3
#
#
#
# Elastic Constant Matrix: (Units=GPa)
#
#
# Indices 1 2 3 4 5 6 
#
# 1 82.3666 24.5099 52.8605 0.0000 -2.7098 0.0000
# 2 24.5099 65.5594 -1.3077 0.0000 -8.9088 0.0000
# 3 52.8605 -1.3077 94.1859 0.0000 -19.7219 0.0000
# 4 0.0000 0.0000 0.0000 40.4554 0.0000 8.1021
# 5 -2.7098 -8.9088 -19.7219 0.0000 44.6025 0.0000
# 6 0.0000 0.0000 0.0000 8.1021 0.0000 16.3837
#
#
#
# Elastic Compliance Matrix: (Units=1/GPa)
#
#
# Indices 1 2 3 4 5 6 
#
# 1 0.025403 -0.010865 -0.016023 0.000000 -0.007711 0.000000
# 2 -0.010865 0.020405 0.007820 0.000000 0.006873 0.000000
# 3 -0.016023 0.007820 0.021866 0.000000 0.010257 0.000000
# 4 0.000000 0.000000 0.000000 0.027436 0.000000 -0.013568
# 5 -0.007711 0.006873 0.010257 0.000000 0.027860 0.000000
# 6 0.000000 0.000000 0.000000 -0.013568 0.000000 0.067746
#
#
# Mechanical properties :
#
#
# Convention : Reuss Voigt Hill
#
# Bulk Modulus (GPa) = 33.85225 43.80415 38.82820
# Shear Modulus (GPa) = 20.94710 31.35829 26.15269
#
# Velocity S-wave (km/s) = 2.96539 3.62824 3.31343
# Velocity P-wave (km/s) = 5.09272 5.99508 5.56223
#
# Compressibility (1/GPa) = 0.02954013
#
# Stress axis : x y z
#
# Youngs Moduli (GPa) = 39.36544 49.00717 45.73284
#
# Poissons Ratio (x) = 0.53244 0.73276
# Poissons Ratio (y) = 0.42769 -0.35764
# Poissons Ratio (z) = 0.63074 -0.38324
#
# Static dielectric constant tensor:
#      x y z
#    x 2.022420 0.000000 0.000250 
#    y 0.000000 1.965880 0.000000 
#    z 0.000250 0.000000 1.934710 
# 
# From -- ./inp_files/68725.got.cif
#   From: 2010.05.17/outbox.cif.g08.bks.cpg/sg5_35_cif.got.tgz:68725.got - 2010.06.03 18:56:24.
