data_PCOD9123479
_publ_section_title
;
Structure prediction by ZEFSAII (Michael W. Deem and Ramdas Pophale) SiO2 
 PCOD9123479
Probable space group: C 2
;
_chemical_formula_sum "Si O2"
_cell_formula_units_Z 28
_cell_length_a 7.207340
_cell_length_b 10.217621
_cell_length_c 16.310694
_cell_angle_alpha 90.000000
_cell_angle_beta 98.639349
_cell_angle_gamma 90.000000
_cell_volume 1187.521077
_symmetry_space_group_name_H-M "C 2"
_symmetry_group_IT_number 5
_symmetry_cell_setting 'monoclinic'
loop_
_space_group_symop_operation_xyz
x,y,z
-x,y,-z
1/2+x,1/2+y,z
1/2-x,1/2+y,-z
loop_
_atom_site_type_symbol
_atom_site_label
_atom_site_fract_x
_atom_site_fract_y
_atom_site_fract_z
Si Si1 0.795196 0.267930 0.302943
Si Si2 0.343069 0.994653 0.421419
Si Si3 0.500000 0.583671 0.000000
Si Si4 0.861091 0.625544 0.924763
Si Si5 0.368763 0.255599 0.340781
Si Si6 0.500000 0.407987 0.500000
Si Si7 0.633850 0.396300 0.144327
Si Si8 0.697464 0.490403 0.764234
O O1 0.887244 0.357378 0.378896
O O2 0.577276 0.261112 0.316782
O O3 0.798137 0.341408 0.214662
O O4 0.845562 0.115744 0.295847
O O5 0.500000 0.024899 0.500000
O O6 0.145865 0.987006 0.455210
O O7 0.323116 0.104855 0.350353
O O8 0.655405 0.651964 0.952027
O O9 0.367069 0.496881 0.931021
O O10 0.945264 0.762894 0.900488
O O11 0.841277 0.537266 0.843004
O O12 0.000000 0.565502 0.000000
O O13 0.380289 0.317466 0.431604
O O14 0.249841 0.357530 0.279340
O O15 0.489007 0.460195 0.197429
#
# Coordination Sequence:
#
# PCOD9123479 Si02
#       8
#     4   4   2   4   4   2   4   4
#     4   9  21  43  65  93 137 174 221 274 330 393
#     4  11  24  46  70  99 130 177 225 272 330 399
#     4  10  20  38  66  94 132 172 220 274 334 384
#     4  10  20  40  70  94 131 179 222 272 329 390
#     4  10  21  43  66  96 138 172 218 279 329 393
#     4  10  24  44  66  96 142 166 218 286 328 382
#     4   9  18  41  64  92 135 174 213 281 328 381
#     4   9  20  40  71  93 138 179 210 279 336 383
#
# _framework density 23.578527000000001
#
# number of rings (size 3 to 8) (size 9 to 14) (size 15 to 20)
#    0.000    2.286    1.429    0.000    2.000    0.000 
#   19.286    0.000   12.571    0.000    0.000    0.000 
#    0.000    0.000    0.000    0.000    0.000    0.000 
#
# Total GULP energy -78148.406251 kJ/mol
# GULP energy per Si atom -5582.029018 kJ/mol
# Density = 2.352486 g / cm^3
# Si number density = 23.578527 Si / 1000 Ang^3
#
#
#
# Elastic Constant Matrix: (Units=GPa)
#
#
# Indices 1 2 3 4 5 6 
#
# 1 61.5259 28.6400 19.7790 0.0000 -2.9671 0.0000
# 2 28.6400 126.8115 50.8095 0.0000 -7.7807 0.0000
# 3 19.7790 50.8095 106.9489 0.0000 -1.9249 0.0000
# 4 0.0000 0.0000 0.0000 39.1992 0.0000 -8.5483
# 5 -2.9671 -7.7807 -1.9249 0.0000 31.7613 0.0000
# 6 0.0000 0.0000 0.0000 -8.5483 0.0000 24.3124
#
#
#
# Elastic Compliance Matrix: (Units=1/GPa)
#
#
# Indices 1 2 3 4 5 6 
#
# 1 0.018448 -0.003405 -0.001780 0.000000 0.000781 0.000000
# 2 -0.003405 0.010511 -0.004328 0.000000 0.001995 0.000000
# 3 -0.001780 -0.004328 0.011726 0.000000 -0.000516 0.000000
# 4 0.000000 0.000000 0.000000 0.027629 0.000000 0.009715
# 5 0.000781 0.001995 -0.000516 0.000000 0.032015 0.000000
# 6 0.000000 0.000000 0.000000 0.009715 0.000000 0.044547
#
#
# Mechanical properties :
#
#
# Convention : Reuss Voigt Hill
#
# Bulk Modulus (GPa) = 46.16954 54.86036 50.51495
# Shear Modulus (GPa) = 29.21861 32.12511 30.67186
#
# Velocity S-wave (km/s) = 3.52405 3.69517 3.61063
# Velocity P-wave (km/s) = 6.01517 6.44386 6.23320
#
# Compressibility (1/GPa) = 0.02165930
#
# Stress axis : x y z
#
# Youngs Moduli (GPa) = 54.20527 95.13550 85.27820
#
# Poissons Ratio (x) = 0.32398 0.15179
# Poissons Ratio (y) = 0.18459 0.36909
# Poissons Ratio (z) = 0.09648 0.41175
#
# Static dielectric constant tensor:
#      x y z
#    x 1.910750 0.000000 0.021570 
#    y 0.000000 1.901870 0.000000 
#    z 0.021570 0.000000 1.938940 
# 
# From -- ./inp_files/59373.got.cif
#   From: 2010.05.17/outbox.cif.g08.bks.cpg/sg5_30_cif.got.tgz:59373.got - 2010.06.03 18:56:24.
