data_PCOD9123460
_publ_section_title
;
Structure prediction by ZEFSAII (Michael W. Deem and Ramdas Pophale) SiO2 
 PCOD9123460
Probable space group: C 2
;
_chemical_formula_sum "Si O2"
_cell_formula_units_Z 20
_cell_length_a 7.578951
_cell_length_b 17.954232
_cell_length_c 7.091227
_cell_angle_alpha 90.000000
_cell_angle_beta 107.559546
_cell_angle_gamma 90.000000
_cell_volume 919.971245
_symmetry_space_group_name_H-M "C 2"
_symmetry_group_IT_number 5
_symmetry_cell_setting 'monoclinic'
loop_
_space_group_symop_operation_xyz
x,y,z
-x,y,-z
1/2+x,1/2+y,z
1/2-x,1/2+y,-z
loop_
_atom_site_type_symbol
_atom_site_label
_atom_site_fract_x
_atom_site_fract_y
_atom_site_fract_z
Si Si1 0.211789 0.857860 0.037492
Si Si2 0.500000 0.596214 0.500000
Si Si3 0.710697 0.321849 0.597810
Si Si4 0.048246 0.224218 0.790819
Si Si5 0.679943 0.988404 0.434946
Si Si6 0.000000 0.468870 0.000000
O O1 0.284287 0.784289 0.167647
O O2 0.777226 0.839056 0.177962
O O3 0.368665 0.920606 0.098288
O O4 0.000000 0.879338 0.000000
O O5 0.582222 0.648336 0.691578
O O6 0.346019 0.542820 0.540068
O O7 0.500000 0.297402 0.500000
O O8 0.870358 0.261086 0.629233
O O9 0.755326 0.401965 0.517836
O O10 0.000000 0.214667 0.000000
O O11 0.500000 0.003129 0.500000
O O12 0.633018 0.004851 0.198349
#
# Coordination Sequence:
#
# PCOD9123460 Si02
#       6
#     4   2   4   4   4   2
#     4  10  20  38  66 100 127 171 217 282 335 374
#     4  12  28  44  66 100 140 184 216 268 352 400
#     4  10  21  39  71 101 127 170 235 275 328 394
#     4  10  23  46  65  97 143 170 226 285 324 403
#     4  11  25  44  66  97 138 179 219 273 337 399
#     4  10  22  44  66 102 132 164 236 282 318 406
#
# _framework density 21.739811
#
# number of rings (size 3 to 8) (size 9 to 14) (size 15 to 20)
#    0.000    1.600    6.000    0.000    7.000    2.400 
#    5.400    1.000    0.000    0.000    0.000    0.000 
#    0.000    0.000    0.000    0.000    0.000    0.000 
#
# Total GULP energy -55816.772283 kJ/mol
# GULP energy per Si atom -5581.677228 kJ/mol
# Density = 2.169033 g / cm^3
# Si number density = 21.739811 Si / 1000 Ang^3
#
#
#
# Elastic Constant Matrix: (Units=GPa)
#
#
# Indices 1 2 3 4 5 6 
#
# 1 150.6481 51.1575 -0.8660 0.0000 5.8533 0.0000
# 2 51.1575 92.3090 17.9719 0.0000 2.1994 0.0000
# 3 -0.8660 17.9719 58.8896 0.0000 2.9130 0.0000
# 4 0.0000 0.0000 0.0000 6.0220 0.0000 2.4318
# 5 5.8533 2.1994 2.9130 0.0000 37.5371 0.0000
# 6 0.0000 0.0000 0.0000 2.4318 0.0000 22.2611
#
#
#
# Elastic Compliance Matrix: (Units=1/GPa)
#
#
# Indices 1 2 3 4 5 6 
#
# 1 0.008370 -0.004940 0.001687 0.000000 -0.001147 0.000000
# 2 -0.004940 0.014439 -0.004493 0.000000 0.000273 0.000000
# 3 0.001687 -0.004493 0.018448 0.000000 -0.001431 0.000000
# 4 0.000000 0.000000 0.000000 0.173721 0.000000 -0.018978
# 5 -0.001147 0.000273 -0.001431 0.000000 0.026914 0.000000
# 6 0.000000 0.000000 0.000000 -0.018978 0.000000 0.046995
#
#
# Mechanical properties :
#
#
# Convention : Reuss Voigt Hill
#
# Bulk Modulus (GPa) = 38.81049 48.70818 43.75933
# Shear Modulus (GPa) = 15.97625 28.73626 22.35625
#
# Velocity S-wave (km/s) = 2.71382 3.63964 3.21028
# Velocity P-wave (km/s) = 5.26410 6.33374 5.82353
#
# Compressibility (1/GPa) = 0.02576623
#
# Stress axis : x y z
#
# Youngs Moduli (GPa) = 119.47940 69.25747 54.20760
#
# Poissons Ratio (x) = 0.34211 -0.09146
# Poissons Ratio (y) = 0.59018 0.24353
# Poissons Ratio (z) = -0.20159 0.31115
#
# Static dielectric constant tensor:
#      x y z
#    x 3.985300 0.000000 0.699940 
#    y 0.000000 1.795170 0.000000 
#    z 0.699940 0.000000 2.070050 
# 
# From -- ./inp_files/12107.got.cif
#   From: 2010.05.17/outbox.cif.g08.bks.cpg/sg5_7_cif.got.tgz:12107.got - 2010.06.03 18:56:24.
