data_PCOD9123211
_publ_section_title
;
Structure prediction by ZEFSAII (Michael W. Deem and Ramdas Pophale) SiO2 
 PCOD9123211
Probable space group: C 2
;
_chemical_formula_sum "Si O2"
_cell_formula_units_Z 32
_cell_length_a 13.968259
_cell_length_b 7.738714
_cell_length_c 21.512493
_cell_angle_alpha 90.000000
_cell_angle_beta 149.791540
_cell_angle_gamma 90.000000
_cell_volume 1170.030505
_symmetry_space_group_name_H-M "C 2"
_symmetry_group_IT_number 5
_symmetry_cell_setting 'monoclinic'
loop_
_space_group_symop_operation_xyz
x,y,z
-x,y,-z
1/2+x,1/2+y,z
1/2-x,1/2+y,-z
loop_
_atom_site_type_symbol
_atom_site_label
_atom_site_fract_x
_atom_site_fract_y
_atom_site_fract_z
Si Si1 0.798172 0.661620 0.151209
Si Si2 0.892661 0.696994 0.006811
Si Si3 0.350129 0.008760 0.361523
Si Si4 0.017677 0.076457 0.103221
Si Si5 0.078213 0.044568 0.754586
Si Si6 0.278506 0.030831 0.611188
Si Si7 0.237721 0.622859 0.271028
Si Si8 0.705951 0.895966 0.505381
O O1 0.663288 0.571229 0.126152
O O2 0.994723 0.561897 0.251209
O O3 0.843816 0.849963 0.202252
O O4 0.662179 0.692318 0.015140
O O5 0.024545 0.586063 0.127001
O O6 0.681443 0.639636 0.869591
O O7 0.919210 0.888315 0.048918
O O8 0.000000 0.688703 0.000000
O O9 0.500000 0.043891 0.500000
O O10 0.260449 0.814800 0.313119
O O11 0.502885 0.989993 0.391421
O O12 0.165790 0.119444 0.240867
O O13 0.140632 0.122457 0.723604
O O14 0.854139 0.013320 0.627127
O O15 0.205690 0.210472 0.538578
O O16 0.798959 0.004549 0.362852
O O17 0.236120 0.891030 0.534422
#
# Coordination Sequence:
#
# PCOD9123211 Si02
#       8
#     4   4   4   4   4   4   4   4
#     4  10  21  38  63  93 132 172 209 279 339 383
#     4   9  18  37  63  92 119 172 228 260 315 403
#     4  11  21  41  68  94 126 168 229 266 316 392
#     4  10  20  37  67  90 122 177 220 263 328 396
#     4  10  23  38  66  95 138 172 215 269 348 390
#     4  11  23  43  65  96 135 174 225 275 334 390
#     4  10  22  39  69  95 127 178 224 271 313 404
#     4  11  23  40  67  96 132 178 212 276 331 400
#
# _framework density 27.349713999999999
#
# number of rings (size 3 to 8) (size 9 to 14) (size 15 to 20)
#    0.000    1.750    3.750    0.750    5.250    1.000 
#    2.250    1.250    0.000    0.000    0.000    0.000 
#    0.000    0.000    0.000    0.000    0.000    0.000 
#
# Total GULP energy -89483.603876 kJ/mol
# GULP energy per Si atom -5592.725242 kJ/mol
# Density = 2.728746 g / cm^3
# Si number density = 27.349714 Si / 1000 Ang^3
#
#
#
# Elastic Constant Matrix: (Units=GPa)
#
#
# Indices 1 2 3 4 5 6 
#
# 1 77.3756 0.7867 45.1283 0.0000 -18.1807 0.0000
# 2 0.7867 53.0374 31.2767 0.0000 -4.4035 0.0000
# 3 45.1283 31.2767 258.1681 0.0002 -12.1756 0.0001
# 4 0.0000 0.0000 0.0002 47.5841 0.0000 -0.0831
# 5 -18.1807 -4.4035 -12.1756 0.0000 55.4814 0.0000
# 6 0.0000 0.0000 0.0001 -0.0831 0.0000 18.4367
#
#
#
# Elastic Compliance Matrix: (Units=1/GPa)
#
#
# Indices 1 2 3 4 5 6 
#
# 1 0.015584 0.001758 -0.002718 0.000000 0.004650 0.000000
# 2 0.001758 0.020568 -0.002723 0.000000 0.001611 0.000000
# 3 -0.002718 -0.002723 0.004675 0.000000 -0.000081 0.000000
# 4 0.000000 0.000000 0.000000 0.021016 0.000000 0.000095
# 5 0.004650 0.001611 -0.000081 0.000000 0.019658 0.000000
# 6 0.000000 0.000000 0.000000 0.000095 0.000000 0.054240
#
#
# Mechanical properties :
#
#
# Convention : Reuss Voigt Hill
#
# Bulk Modulus (GPa) = 29.88646 60.32940 45.10793
# Shear Modulus (GPa) = 32.41288 45.05973 38.73630
#
# Velocity S-wave (km/s) = 3.44630 4.06339 3.76750
# Velocity P-wave (km/s) = 5.17564 6.64239 5.95435
#
# Compressibility (1/GPa) = 0.03345997
#
# Stress axis : x y z
#
# Youngs Moduli (GPa) = 64.16968 48.61899 213.92272
#
# Poissons Ratio (x) = -0.08545 0.58138
# Poissons Ratio (y) = -0.11278 0.58252
# Poissons Ratio (z) = 0.17439 0.13239
#
# Static dielectric constant tensor:
#      x y z
#    x 2.253730 0.000000 -0.024690 
#    y 0.000000 2.096530 0.000000 
#    z -0.024690 0.000000 2.137480 
# 
# From -- ./inp_files/47189.got.cif
#   From: 2010.05.17/outbox.cif.g08.bks.cpg/sg5_24_cif.got.tgz:47189.got - 2010.06.03 18:56:24.
