data_PCOD9123132
_publ_section_title
;
Structure prediction by ZEFSAII (Michael W. Deem and Ramdas Pophale) SiO2 
 PCOD9123132
Probable space group: C 2
;
_chemical_formula_sum "Si O2"
_cell_formula_units_Z 20
_cell_length_a 17.625532
_cell_length_b 5.356836
_cell_length_c 10.565698
_cell_angle_alpha 90.000000
_cell_angle_beta 126.830536
_cell_angle_gamma 90.000000
_cell_volume 798.476929
_symmetry_space_group_name_H-M "C 2"
_symmetry_group_IT_number 5
_symmetry_cell_setting 'monoclinic'
loop_
_space_group_symop_operation_xyz
x,y,z
-x,y,-z
1/2+x,1/2+y,z
1/2-x,1/2+y,-z
loop_
_atom_site_type_symbol
_atom_site_label
_atom_site_fract_x
_atom_site_fract_y
_atom_site_fract_z
Si Si1 0.204343 0.892280 0.233344
Si Si2 0.500000 0.636115 0.500000
Si Si3 0.448737 0.897389 0.198738
Si Si4 0.500000 0.158665 0.000000
Si Si5 0.173860 0.897389 0.923859
Si Si6 0.295657 0.402500 0.324658
O O1 0.091913 0.836066 0.112412
O O2 0.250000 0.647391 0.340656
O O3 0.250000 0.147390 0.329795
O O4 0.232046 0.887464 0.111697
O O5 0.500857 0.821744 0.380210
O O6 0.408086 0.458713 0.428582
O O7 0.390621 0.641255 0.123818
O O8 0.500854 0.973036 0.121502
O O9 0.390620 0.153521 0.157428
O O10 0.232049 0.907319 0.852397
#
# Coordination Sequence:
#
# PCOD9123132 Si02
#       6
#     4   2   4   2   4   4
#     4  11  22  37  64  98 135 177 225 283 347 408
#     4  10  24  44  68 106 144 180 232 288 348 418
#     4  10  22  39  68  97 136 182 222 281 350 409
#     4  10  24  44  68 106 144 180 232 288 348 418
#     4  10  20  37  62  99 134 166 224 293 350 399
#     4  11  22  37  64  98 135 177 225 283 347 408
#
# _framework density 25.047688000000001
#
# number of rings (size 3 to 8) (size 9 to 14) (size 15 to 20)
#    0.000    1.600    0.000    6.000    0.000   16.000 
#    0.000    0.000    0.000   16.800    0.000   11.200 
#    0.000    0.000    0.000    0.000    0.000    0.000 
#
# Total GULP energy -55802.202580 kJ/mol
# GULP energy per Si atom -5580.220258 kJ/mol
# Density = 2.499068 g / cm^3
# Si number density = 25.047688 Si / 1000 Ang^3
#
#
#
# Elastic Constant Matrix: (Units=GPa)
#
#
# Indices 1 2 3 4 5 6 
#
# 1 97.5734 69.0641 39.4840 0.0000 16.0262 0.0000
# 2 69.0641 275.3806 60.4999 0.0000 29.1758 0.0000
# 3 39.4840 60.4999 91.2731 0.0000 5.4289 0.0000
# 4 0.0000 0.0000 0.0000 38.5694 0.0000 17.9778
# 5 16.0262 29.1758 5.4289 0.0000 62.8037 0.0000
# 6 0.0000 0.0000 0.0000 17.9778 0.0000 43.8435
#
#
#
# Elastic Compliance Matrix: (Units=1/GPa)
#
#
# Indices 1 2 3 4 5 6 
#
# 1 0.014023 -0.002326 -0.004398 0.000000 -0.002117 0.000000
# 2 -0.002326 0.004834 -0.002111 0.000000 -0.001470 0.000000
# 3 -0.004398 -0.002111 0.014206 0.000000 0.000875 0.000000
# 4 0.000000 0.000000 0.000000 0.032054 0.000000 -0.013143
# 5 -0.002117 -0.001470 0.000875 0.000000 0.017070 0.000000
# 6 0.000000 0.000000 0.000000 -0.013143 0.000000 0.028198
#
#
# Mechanical properties :
#
#
# Convention : Reuss Voigt Hill
#
# Bulk Modulus (GPa) = 64.96649 89.14702 77.05675
# Shear Modulus (GPa) = 37.54171 48.72192 43.13181
#
# Velocity S-wave (km/s) = 3.87565 4.41519 4.15419
# Velocity P-wave (km/s) = 6.78387 7.85239 7.33761
#
# Compressibility (1/GPa) = 0.01539255
#
# Stress axis : x y z
#
# Youngs Moduli (GPa) = 71.31227 206.86222 70.39412
#
# Poissons Ratio (x) = 0.48121 0.30961
# Poissons Ratio (y) = 0.16589 0.14857
# Poissons Ratio (z) = 0.31365 0.43659
#
# Static dielectric constant tensor:
#      x y z
#    x 2.032290 0.000000 0.019500 
#    y 0.000000 2.004940 0.000000 
#    z 0.019500 0.000000 2.026580 
# 
# From -- ./inp_files/43838.got.cif
#   From: 2010.05.17/outbox.cif.g08.bks.cpg/sg5_22_cif.got.tgz:43838.got - 2010.06.03 18:56:24.
