data_PCOD9123798
_publ_section_title
;
Structure prediction by ZEFSAII (Michael W. Deem and Ramdas Pophale) SiO2 
 PCOD9123798
Probable space group: C 2
;
_chemical_formula_sum "Si O2"
_cell_formula_units_Z 18
_cell_length_a 11.818082
_cell_length_b 4.752998
_cell_length_c 19.312455
_cell_angle_alpha 90.000000
_cell_angle_beta 138.636377
_cell_angle_gamma 90.000000
_cell_volume 716.878363
_symmetry_space_group_name_H-M "C 2"
_symmetry_group_IT_number 5
_symmetry_cell_setting 'monoclinic'
loop_
_space_group_symop_operation_xyz
x,y,z
-x,y,-z
1/2+x,1/2+y,z
1/2-x,1/2+y,-z
loop_
_atom_site_type_symbol
_atom_site_label
_atom_site_fract_x
_atom_site_fract_y
_atom_site_fract_z
Si Si1 0.500000 0.641901 0.000000
Si Si2 0.649918 0.606334 0.432064
Si Si3 0.731500 0.099164 0.092245
Si Si4 0.221306 0.931401 0.726341
Si Si5 0.894926 0.935979 0.747550
O O1 0.654713 0.410516 0.066708
O O2 0.593219 0.885889 0.995330
O O3 0.698837 0.929962 0.462585
O O4 0.468505 0.526129 0.382063
O O5 0.639664 0.515742 0.347539
O O6 0.758635 0.989208 0.183418
O O7 0.916754 0.040814 0.145038
O O8 0.358999 0.111708 0.746456
O O9 0.258111 0.606676 0.730136
#
# Coordination Sequence:
#
# PCOD9123798 Si02
#       5
#     2   4   4   4   4
#     4  10  20  40  64  84 120 154 188 248 292 338
#     4  11  24  40  60  89 120 153 198 244 286 343
#     4  10  22  41  60  87 120 153 194 241 292 346
#     4  11  23  40  62  86 119 158 194 238 294 348
#     4  11  23  40  62  86 119 158 194 238 294 348
#
# _framework density 25.10886
#
# number of rings (size 3 to 8) (size 9 to 14) (size 15 to 20)
#    0.000    1.333    0.000    5.333    0.000   12.444 
#    0.000   22.222    0.000    0.000    0.000    0.000 
#    0.000    0.000    0.000    0.000    0.000    0.000 
#
# Total GULP energy -50263.611336 kJ/mol
# GULP energy per Si atom -5584.845704 kJ/mol
# Density = 2.505171 g / cm^3
# Si number density = 25.108860 Si / 1000 Ang^3
#
#
#
# Elastic Constant Matrix: (Units=GPa)
#
#
# Indices 1 2 3 4 5 6 
#
# 1 56.6848 1.8458 31.9244 0.0001 16.2255 0.0002
# 2 1.8458 121.3790 8.7641 0.0002 9.1487 0.0019
# 3 31.9244 8.7641 73.7405 0.0000 25.6346 0.0002
# 4 0.0001 0.0002 0.0000 44.8551 -0.0001 2.2343
# 5 16.2255 9.1487 25.6346 -0.0001 57.9978 0.0002
# 6 0.0002 0.0019 0.0002 2.2343 0.0002 30.4290
#
#
#
# Elastic Compliance Matrix: (Units=1/GPa)
#
#
# Indices 1 2 3 4 5 6 
#
# 1 0.023656 0.000512 -0.009421 0.000000 -0.002535 0.000000
# 2 0.000512 0.008374 -0.000836 0.000000 -0.001094 -0.000001
# 3 -0.009421 -0.000836 0.019823 0.000000 -0.005994 0.000000
# 4 0.000000 0.000000 0.000000 0.022376 0.000000 -0.001643
# 5 -0.002535 -0.001094 -0.005994 0.000000 0.020773 0.000000
# 6 0.000000 -0.000001 0.000000 -0.001643 0.000000 0.032984
#
#
# Mechanical properties :
#
#
# Convention : Reuss Voigt Hill
#
# Bulk Modulus (GPa) = 30.90119 37.43030 34.16574
# Shear Modulus (GPa) = 31.59273 40.60773 36.10023
#
# Velocity S-wave (km/s) = 3.55100 4.02589 3.79588
# Velocity P-wave (km/s) = 5.39874 6.04565 5.73133
#
# Compressibility (1/GPa) = 0.03236121
#
# Stress axis : x y z
#
# Youngs Moduli (GPa) = 42.27230 119.42086 50.44695
#
# Poissons Ratio (x) = -0.06109 0.47526
# Poissons Ratio (y) = -0.02162 0.04219
# Poissons Ratio (z) = 0.39825 0.09986
#
# Static dielectric constant tensor:
#      x y z
#    x 2.036150 0.000000 0.034520 
#    y 0.000000 1.869860 0.000000 
#    z 0.034520 0.000000 2.107690 
# 
# From -- ./inp_files/64828.got.cif
#   From: 2010.05.17/outbox.cif.g08.bks.cpg/sg5_33_cif.got.tgz:64828.got - 2010.06.03 18:56:24.
