data_PCOD9123401
_publ_section_title
;
Structure prediction by ZEFSAII (Michael W. Deem and Ramdas Pophale) SiO2 
 PCOD9123401
Probable space group: C 2
;
_chemical_formula_sum "Si O2"
_cell_formula_units_Z 22
_cell_length_a 14.643331
_cell_length_b 12.626892
_cell_length_c 5.605490
_cell_angle_alpha 90.000000
_cell_angle_beta 53.598207
_cell_angle_gamma 90.000000
_cell_volume 834.215947
_symmetry_space_group_name_H-M "C 2"
_symmetry_group_IT_number 5
_symmetry_cell_setting 'monoclinic'
loop_
_space_group_symop_operation_xyz
x,y,z
-x,y,-z
1/2+x,1/2+y,z
1/2-x,1/2+y,-z
loop_
_atom_site_type_symbol
_atom_site_label
_atom_site_fract_x
_atom_site_fract_y
_atom_site_fract_z
Si Si1 0.700140 0.511410 0.426538
Si Si2 0.551916 0.190781 0.686010
Si Si3 0.500000 0.378670 0.500000
Si Si4 0.701202 0.789812 0.678624
Si Si5 0.372494 0.818271 0.699791
Si Si6 0.275817 0.044995 0.813958
O O1 0.586558 0.454274 0.504483
O O2 0.794005 0.418226 0.314846
O O3 0.697836 0.560227 0.696661
O O4 0.739536 0.578347 0.136164
O O5 0.464289 0.285556 0.744392
O O6 0.668655 0.254756 0.550947
O O7 0.606011 0.102295 0.430196
O O8 0.500000 0.139352 0.000000
O O9 0.637445 0.758987 0.537257
O O10 0.652857 0.759688 0.012411
O O11 0.500000 0.859924 0.500000
O O12 0.287929 0.918102 0.820199
#
# Coordination Sequence:
#
# PCOD9123401 Si02
#       6
#     4   4   2   4   4   4
#     4   9  21  40  62  89 128 175 213 261 323 402
#     4  11  26  38  68  99 136 163 222 287 339 373
#     4  10  24  40  72  96 128 180 238 260 328 412
#     4   9  21  38  59  91 122 167 214 264 315 389
#     4  10  20  38  64  86 123 170 215 251 321 404
#     4  10  23  39  61  94 134 160 207 279 338 372
#
# _framework density 26.372067000000001
#
# number of rings (size 3 to 8) (size 9 to 14) (size 15 to 20)
#    0.000    2.182    0.000    0.545   16.545    2.909 
#    0.000    0.000   12.000    0.000    0.000    0.000 
#    0.000    0.000    0.000    0.000    0.000    0.000 
#
# Total GULP energy -61332.139628 kJ/mol
# GULP energy per Si atom -5575.649057 kJ/mol
# Density = 2.631204 g / cm^3
# Si number density = 26.372067 Si / 1000 Ang^3
#
#
#
# Elastic Constant Matrix: (Units=GPa)
#
#
# Indices 1 2 3 4 5 6 
#
# 1 137.7780 27.8415 51.7009 0.0000 41.4001 0.0000
# 2 27.8415 73.7840 53.1074 0.0000 12.7112 0.0000
# 3 51.7009 53.1074 185.5128 0.0000 60.5052 0.0000
# 4 0.0000 0.0000 0.0000 44.0702 0.0000 12.2768
# 5 41.4001 12.7112 60.5052 0.0000 44.5469 0.0000
# 6 0.0000 0.0000 0.0000 12.2768 0.0000 32.5868
#
#
#
# Elastic Compliance Matrix: (Units=1/GPa)
#
#
# Indices 1 2 3 4 5 6 
#
# 1 0.010668 -0.003253 0.001596 0.000000 -0.011154 0.000000
# 2 -0.003253 0.018315 -0.006496 0.000000 0.006619 0.000000
# 3 0.001596 -0.006496 0.012001 0.000000 -0.015929 0.000000
# 4 0.000000 0.000000 0.000000 0.025352 0.000000 -0.009551
# 5 -0.011154 0.006619 -0.015929 0.000000 0.052561 0.000000
# 6 0.000000 0.000000 0.000000 -0.009551 0.000000 0.034285
#
#
# Mechanical properties :
#
#
# Convention : Reuss Voigt Hill
#
# Bulk Modulus (GPa) = 40.51949 73.59716 57.05832
# Shear Modulus (GPa) = 28.13515 41.86911 35.00213
#
# Velocity S-wave (km/s) = 3.26982 3.98883 3.64709
# Velocity P-wave (km/s) = 5.44550 7.01300 6.27836
#
# Compressibility (1/GPa) = 0.02467948
#
# Stress axis : x y z
#
# Youngs Moduli (GPa) = 93.73796 54.59884 83.32923
#
# Poissons Ratio (x) = 0.17759 -0.13299
# Poissons Ratio (y) = 0.30489 0.54127
# Poissons Ratio (z) = -0.14960 0.35465
#
# Static dielectric constant tensor:
#      x y z
#    x 2.217310 0.000000 0.163520 
#    y 0.000000 2.147810 0.000000 
#    z 0.163520 0.000000 2.137500 
# 
# From -- ./inp_files/6796.got.cif
#   From: 2010.05.17/outbox.cif.g08.bks.cpg/sg5_4_cif.got.tgz:6796.got - 2010.06.03 18:56:24.
