data_PCOD9123881
_publ_section_title
;
Structure prediction by ZEFSAII (Michael W. Deem and Ramdas Pophale) SiO2 
 PCOD9123881
Probable space group: C 2
;
_chemical_formula_sum "Si O2"
_cell_formula_units_Z 18
_cell_length_a 12.314893
_cell_length_b 14.015811
_cell_length_c 6.596089
_cell_angle_alpha 90.000000
_cell_angle_beta 48.814984
_cell_angle_gamma 90.000000
_cell_volume 856.825094
_symmetry_space_group_name_H-M "C 2"
_symmetry_group_IT_number 5
_symmetry_cell_setting 'monoclinic'
loop_
_space_group_symop_operation_xyz
x,y,z
-x,y,-z
1/2+x,1/2+y,z
1/2-x,1/2+y,-z
loop_
_atom_site_type_symbol
_atom_site_label
_atom_site_fract_x
_atom_site_fract_y
_atom_site_fract_z
Si Si1 0.049864 0.424640 0.214984
Si Si2 0.000000 0.840060 0.500000
Si Si3 0.769939 0.928732 0.478004
Si Si4 0.220297 0.791532 0.908645
Si Si5 0.331704 0.094992 0.186591
O O1 0.144695 0.331948 0.134710
O O2 0.000000 0.457918 0.500000
O O3 0.899624 0.399856 0.287323
O O4 0.147228 0.509179 0.002055
O O5 0.884303 0.899466 0.509217
O O6 0.910341 0.781037 0.774038
O O7 0.813181 0.873456 0.219089
O O8 0.744855 0.042934 0.528534
O O9 0.249860 0.689996 0.773182
O O10 0.500000 0.124390 0.000000
#
# Coordination Sequence:
#
# PCOD9123881 Si02
#       5
#     4   2   4   4   4
#     4   9  20  41  66  90 128 167 215 259 312 378
#     4  12  22  38  66  94 138 160 206 274 312 374
#     4  10  22  42  62  92 132 170 209 261 311 380
#     4  11  23  41  65  99 125 166 215 262 318 377
#     4  10  20  40  67  91 127 170 213 254 318 383
#
# _framework density 21.007788999999999
#
# number of rings (size 3 to 8) (size 9 to 14) (size 15 to 20)
#    0.000    1.778    2.222    2.000    1.556    0.000 
#   10.000    0.000    0.000   10.667    0.000    0.000 
#    0.000    0.000    0.000    0.000    0.000    0.000 
#
# Total GULP energy -50101.980704 kJ/mol
# GULP energy per Si atom -5566.886745 kJ/mol
# Density = 2.095997 g / cm^3
# Si number density = 21.007789 Si / 1000 Ang^3
#
#
#
# Elastic Constant Matrix: (Units=GPa)
#
#
# Indices 1 2 3 4 5 6 
#
# 1 130.4696 50.3644 4.9781 0.0000 -17.8512 0.0000
# 2 50.3644 121.8142 31.8453 0.0000 -3.9846 0.0000
# 3 4.9781 31.8453 85.0152 0.0000 18.4354 0.0000
# 4 0.0000 0.0000 0.0000 18.3370 0.0000 3.1403
# 5 -17.8512 -3.9846 18.4354 0.0000 22.3264 0.0000
# 6 0.0000 0.0000 0.0000 3.1403 0.0000 40.5891
#
#
#
# Elastic Compliance Matrix: (Units=1/GPa)
#
#
# Indices 1 2 3 4 5 6 
#
# 1 0.010287 -0.003706 -0.001041 0.000000 0.008423 0.000000
# 2 -0.003706 0.011005 -0.004493 0.000000 0.002711 0.000000
# 3 -0.001041 -0.004493 0.016884 0.000000 -0.015576 0.000000
# 4 0.000000 0.000000 0.000000 0.055267 0.000000 -0.004276
# 5 0.008423 0.002711 -0.015576 0.000000 0.064870 0.000000
# 6 0.000000 0.000000 0.000000 -0.004276 0.000000 0.024968
#
#
# Mechanical properties :
#
#
# Convention : Reuss Voigt Hill
#
# Bulk Modulus (GPa) = 50.76960 56.85272 53.81116
# Shear Modulus (GPa) = 24.00084 32.92458 28.46271
#
# Velocity S-wave (km/s) = 3.38372 3.96315 3.68484
# Velocity P-wave (km/s) = 6.28375 6.93279 6.61623
#
# Compressibility (1/GPa) = 0.01969683
#
# Stress axis : x y z
#
# Youngs Moduli (GPa) = 97.20697 90.87089 59.22715
#
# Poissons Ratio (x) = 0.33674 0.06165
# Poissons Ratio (y) = 0.36022 0.26611
# Poissons Ratio (z) = 0.10118 0.40829
#
# Static dielectric constant tensor:
#      x y z
#    x 1.852460 0.000000 0.051670 
#    y 0.000000 1.724660 0.000000 
#    z 0.051670 0.000000 1.850870 
# 
# From -- ./inp_files/24065.got.cif
#   From: 2010.05.17/outbox.cif.g08.bks.cpg/sg5_13_cif.got.tgz:24065.got - 2010.06.03 18:56:24.
