data_PCOD9123845
_publ_section_title
;
Structure prediction by ZEFSAII (Michael W. Deem and Ramdas Pophale) SiO2 
 PCOD9123845
Probable space group: C 2
;
_chemical_formula_sum "Si O2"
_cell_formula_units_Z 32
_cell_length_a 23.746012
_cell_length_b 8.460413
_cell_length_c 18.175806
_cell_angle_alpha 90.000000
_cell_angle_beta 24.984180
_cell_angle_gamma 90.000000
_cell_volume 1542.293175
_symmetry_space_group_name_H-M "C 2"
_symmetry_group_IT_number 5
_symmetry_cell_setting 'monoclinic'
loop_
_space_group_symop_operation_xyz
x,y,z
-x,y,-z
1/2+x,1/2+y,z
1/2-x,1/2+y,-z
loop_
_atom_site_type_symbol
_atom_site_label
_atom_site_fract_x
_atom_site_fract_y
_atom_site_fract_z
Si Si1 0.562758 0.674280 0.348995
Si Si2 0.592472 0.525998 0.593166
Si Si3 0.632902 0.161370 0.516694
Si Si4 0.625865 0.007615 0.213097
Si Si5 0.373640 0.031789 0.317490
Si Si6 0.111870 0.141859 0.040903
Si Si7 0.418101 0.737358 0.162699
Si Si8 0.837376 0.516142 0.003351
O O1 0.500000 0.725082 0.500000
O O2 0.457429 0.569666 0.428657
O O3 0.593869 0.825142 0.261982
O O4 0.701059 0.581872 0.196864
O O5 0.599974 0.335564 0.587527
O O6 0.738523 0.596250 0.440361
O O7 0.482893 0.590036 0.779649
O O8 0.646765 0.044246 0.570586
O O9 0.775421 0.171009 0.308431
O O10 0.509673 0.104705 0.613935
O O11 0.665340 0.042761 0.081599
O O12 0.749715 0.051248 0.117154
O O13 0.384329 0.858298 0.268674
O O14 0.525522 0.094328 0.128275
O O15 0.021879 0.115347 0.075295
O O16 0.149117 0.327874 0.001074
O O17 0.500000 0.818016 0.000000
#
# Coordination Sequence:
#
# PCOD9123845 Si02
#       8
#     4   4   4   4   4   4   4   4
#     4  12  27  43  62  95 138 170 211 274 334 376
#     4  11  21  39  67  99 124 170 216 269 316 387
#     4  10  22  39  69  98 126 166 222 266 320 382
#     4  11  22  39  66  95 128 167 218 270 313 384
#     4   9  21  37  67  96 123 160 216 263 310 379
#     4  11  21  38  68  94 123 167 222 260 316 385
#     4  10  22  41  64  97 135 166 208 266 323 380
#     4  10  20  40  65  96 123 166 217 266 316 387
#
# _framework density 20.748325000000001
#
# number of rings (size 3 to 8) (size 9 to 14) (size 15 to 20)
#    0.000    1.500    3.750    0.750    3.500    5.000 
#    0.000    1.250    0.000    0.000    0.000    0.000 
#    0.000    0.000    0.000    0.000    0.000    0.000 
#
# Total GULP energy -89231.813997 kJ/mol
# GULP energy per Si atom -5576.988375 kJ/mol
# Density = 2.070110 g / cm^3
# Si number density = 20.748325 Si / 1000 Ang^3
#
#
#
# Elastic Constant Matrix: (Units=GPa)
#
#
# Indices 1 2 3 4 5 6 
#
# 1 40.0367 12.6628 37.2309 0.0003 -25.6475 0.0001
# 2 12.6628 51.9637 32.5818 0.0000 -3.7020 -0.0008
# 3 37.2309 32.5818 129.3701 -0.0003 -33.7954 -0.0002
# 4 0.0003 0.0000 -0.0003 17.6493 0.0001 -12.8665
# 5 -25.6475 -3.7020 -33.7954 0.0001 40.0064 0.0000
# 6 0.0001 -0.0008 -0.0002 -12.8665 0.0000 12.6331
#
#
#
# Elastic Compliance Matrix: (Units=1/GPa)
#
#
# Indices 1 2 3 4 5 6 
#
# 1 0.048960 -0.006536 -0.005649 -0.000006 0.026010 -0.000007
# 2 -0.006536 0.024120 -0.006037 0.000004 -0.007058 0.000006
# 3 -0.005649 -0.006037 0.012554 0.000000 0.006425 0.000000
# 4 -0.000006 0.000004 0.000000 0.220024 -0.000004 0.224090
# 5 0.026010 -0.007058 0.006425 -0.000004 0.046445 -0.000005
# 6 -0.000007 0.000006 0.000000 0.224090 -0.000005 0.307388
#
#
# Mechanical properties :
#
#
# Convention : Reuss Voigt Hill
#
# Bulk Modulus (GPa) = 20.32964 42.92461 31.62712
# Shear Modulus (GPa) = 7.01920 23.31742 15.16831
#
# Velocity S-wave (km/s) = 1.84129 3.35598 2.70675
# Velocity P-wave (km/s) = 3.78681 5.97913 5.00449
#
# Compressibility (1/GPa) = 0.04918926
#
# Stress axis : x y z
#
# Youngs Moduli (GPa) = 20.42495 41.46019 79.65275
#
# Poissons Ratio (x) = 0.27096 0.44998
# Poissons Ratio (y) = 0.13349 0.48090
# Poissons Ratio (z) = 0.11539 0.25031
#
# Static dielectric constant tensor:
#      x y z
#    x 1.779540 0.000000 -0.032910 
#    y 0.000000 1.736520 0.000000 
#    z -0.032910 0.000000 1.767000 
# 
# From -- ./inp_files/67562.got.cif
#   From: 2010.05.17/outbox.cif.g08.bks.cpg/sg5_34_cif.got.tgz:67562.got - 2010.06.03 18:56:24.
