data_PCOD9123689
_publ_section_title
;
Structure prediction by ZEFSAII (Michael W. Deem and Ramdas Pophale) SiO2 
 PCOD9123689
Probable space group: C 2
;
_chemical_formula_sum "Si O2"
_cell_formula_units_Z 32
_cell_length_a 14.613655
_cell_length_b 12.280305
_cell_length_c 17.886564
_cell_angle_alpha 90.000000
_cell_angle_beta 154.433440
_cell_angle_gamma 90.000000
_cell_volume 1385.273212
_symmetry_space_group_name_H-M "C 2"
_symmetry_group_IT_number 5
_symmetry_cell_setting 'monoclinic'
loop_
_space_group_symop_operation_xyz
x,y,z
-x,y,-z
1/2+x,1/2+y,z
1/2-x,1/2+y,-z
loop_
_atom_site_type_symbol
_atom_site_label
_atom_site_fract_x
_atom_site_fract_y
_atom_site_fract_z
Si Si1 0.818812 0.294950 0.704021
Si Si2 0.715110 0.342731 0.313512
Si Si3 0.746838 0.431527 0.795851
Si Si4 0.750532 0.682881 0.795927
Si Si5 0.552072 0.850004 0.356325
Si Si6 0.176272 0.798523 0.890128
Si Si7 0.309337 0.574874 0.760264
Si Si8 0.803807 0.575810 0.158077
O O1 0.721057 0.365887 0.699253
O O2 0.752402 0.168985 0.660674
O O3 0.797770 0.335511 0.604573
O O4 0.074115 0.297627 0.907454
O O5 0.770572 0.244626 0.299003
O O6 0.465148 0.341523 0.146954
O O7 0.772310 0.455075 0.315406
O O8 0.821618 0.344258 0.473023
O O9 0.679254 0.557412 0.740142
O O10 0.651006 0.371195 0.797240
O O11 0.000000 0.432668 0.000000
O O12 0.617891 0.752152 0.758786
O O13 0.000000 0.686267 0.000000
O O14 0.432445 0.964463 0.255753
O O15 0.100515 0.675098 0.818007
O O16 0.229312 0.614854 0.781395
O O17 0.563715 0.562376 0.952107
#
# Coordination Sequence:
#
# PCOD9123689 Si02
#       8
#     4   4   4   4   4   4   4   4
#     4  10  21  41  67  95 121 156 206 261 309 361
#     4  12  26  41  59  91 130 167 203 249 311 375
#     4   9  20  40  67  94 118 151 206 261 306 355
#     4  11  23  42  65  90 120 163 212 257 304 363
#     4  12  26  41  59  91 130 167 203 249 311 375
#     4  10  21  41  67  95 121 156 206 261 309 361
#     4  10  20  39  68  93 117 155 208 261 306 360
#     4  10  20  39  68  93 117 155 208 261 306 360
#
# _framework density 23.100135000000002
#
# number of rings (size 3 to 8) (size 9 to 14) (size 15 to 20)
#    0.000    1.500    2.500    2.625    3.500    1.000 
#    0.000    1.875    0.000    0.000    0.000    0.000 
#    0.000    0.000    0.000    0.000    0.000    0.000 
#
# Total GULP energy -89530.436852 kJ/mol
# GULP energy per Si atom -5595.652303 kJ/mol
# Density = 2.304756 g / cm^3
# Si number density = 23.100135 Si / 1000 Ang^3
#
#
#
# Elastic Constant Matrix: (Units=GPa)
#
#
# Indices 1 2 3 4 5 6 
#
# 1 79.7993 18.1655 -2.8601 0.0008 -15.2990 0.0026
# 2 18.1655 113.2516 18.6527 0.0001 -14.0469 -0.0035
# 3 -2.8601 18.6527 72.7516 0.0019 -13.7776 0.0001
# 4 0.0008 0.0001 0.0019 -13.5736 -0.0023 -12.3704
# 5 -15.2990 -14.0469 -13.7776 -0.0023 38.8385 -0.0007
# 6 0.0026 -0.0035 0.0001 -12.3704 -0.0007 24.9998
#
#
#
# Elastic Compliance Matrix: (Units=1/GPa)
#
#
# Indices 1 2 3 4 5 6 
#
# 1 0.014120 -0.001916 0.002110 0.000001 0.005618 -0.000001
# 2 -0.001916 0.009746 -0.002197 -0.000001 0.001991 0.000001
# 3 0.002110 -0.002197 0.015436 0.000001 0.005512 0.000000
# 4 0.000001 -0.000001 0.000001 -0.050775 -0.000003 -0.025124
# 5 0.005618 0.001991 0.005512 -0.000003 0.030636 -0.000001
# 6 -0.000001 0.000001 0.000000 -0.025124 -0.000001 0.027568
#
#
# Mechanical properties :
#
#
# Convention : Reuss Voigt Hill
#
# Bulk Modulus (GPa) = 28.33127 37.07987 32.70557
# Shear Modulus (GPa) = 79.99790 25.50922 52.75356
#
# Velocity S-wave (km/s) = 5.89119 3.32669 4.78398
# Velocity P-wave (km/s) = 7.65284 5.55360 6.68612
#
# Compressibility (1/GPa) = 0.03529669
#
# Stress axis : x y z
#
# Youngs Moduli (GPa) = 70.82058 102.60665 64.78549
#
# Poissons Ratio (x) = 0.19656 -0.13671
# Poissons Ratio (y) = 0.13567 0.14234
# Poissons Ratio (z) = -0.14944 0.22543
#
# Static dielectric constant tensor:
#      x y z
#    x 1.810010 0.000000 0.024280 
#    y 0.000000 1.811280 0.000000 
#    z 0.024280 0.000000 1.910630 
# 
# From -- ./inp_files/23875.got.cif
#   From: 2010.05.17/outbox.cif.g08.bks.cpg/sg5_12_cif.got.tgz:23875.got - 2010.06.03 18:56:24.
