data_PCOD9123920
_publ_section_title
;
Structure prediction by ZEFSAII (Michael W. Deem and Ramdas Pophale) SiO2 
 PCOD9123920
Probable space group: C 2
;
_chemical_formula_sum "Si O2"
_cell_formula_units_Z 18
_cell_length_a 7.969880
_cell_length_b 13.017885
_cell_length_c 8.584494
_cell_angle_alpha 90.000000
_cell_angle_beta 94.101731
_cell_angle_gamma 90.000000
_cell_volume 888.368386
_symmetry_space_group_name_H-M "C 2"
_symmetry_group_IT_number 5
_symmetry_cell_setting 'monoclinic'
loop_
_space_group_symop_operation_xyz
x,y,z
-x,y,-z
1/2+x,1/2+y,z
1/2-x,1/2+y,-z
loop_
_atom_site_type_symbol
_atom_site_label
_atom_site_fract_x
_atom_site_fract_y
_atom_site_fract_z
Si Si1 0.500000 0.914650 0.000000
Si Si2 0.452337 0.452202 0.674928
Si Si3 0.933315 0.175340 0.817516
Si Si4 0.431013 0.887852 0.320859
Si Si5 0.155434 0.800094 0.899439
O O1 0.501911 0.956989 0.822314
O O2 0.321012 0.852738 0.988022
O O3 0.500000 0.450913 0.500000
O O4 0.459292 0.567801 0.737664
O O5 0.267521 0.405054 0.684181
O O6 0.582717 0.383102 0.777367
O O7 0.736222 0.202943 0.819361
O O8 0.015249 0.271590 0.728826
O O9 0.000000 0.166000 0.000000
O O10 0.500000 0.908347 0.500000
O O11 0.000000 0.773277 0.000000
#
# Coordination Sequence:
#
# PCOD9123920 Si02
#       5
#     2   4   4   4   4
#     4  10  20  40  68  98 134 174 220 278 336 394
#     4  12  25  41  69 103 137 183 231 280 346 413
#     4  11  23  43  68  98 139 181 225 289 337 403
#     4  11  22  45  69  96 141 178 223 287 341 396
#     4  11  20  44  70  97 135 179 231 279 344 408
#
# _framework density 20.261863000000002
#
# number of rings (size 3 to 8) (size 9 to 14) (size 15 to 20)
#    0.000    0.889    6.667    4.000    0.000    0.000 
#    2.000   10.000    0.000    0.000    0.000    0.000 
#    0.000    0.000    0.000    0.000    0.000    0.000 
#
# Total GULP energy -50141.916127 kJ/mol
# GULP energy per Si atom -5571.324014 kJ/mol
# Density = 2.021575 g / cm^3
# Si number density = 20.261863 Si / 1000 Ang^3
#
#
#
# Elastic Constant Matrix: (Units=GPa)
#
#
# Indices 1 2 3 4 5 6 
#
# 1 134.8582 29.5600 53.8217 0.0000 -11.4705 0.0000
# 2 29.5600 71.4855 34.3001 0.0000 -11.7768 0.0000
# 3 53.8217 34.3001 146.4522 0.0000 -22.7674 0.0000
# 4 0.0000 0.0000 0.0000 31.6560 0.0000 -14.5151
# 5 -11.4705 -11.7768 -22.7674 0.0000 47.1225 0.0000
# 6 0.0000 0.0000 0.0000 -14.5151 0.0000 28.6238
#
#
#
# Elastic Compliance Matrix: (Units=1/GPa)
#
#
# Indices 1 2 3 4 5 6 
#
# 1 0.009049 -0.002388 -0.002721 0.000000 0.000291 0.000000
# 2 -0.002388 0.016631 -0.002661 0.000000 0.002289 0.000000
# 3 -0.002721 -0.002661 0.008915 0.000000 0.002980 0.000000
# 4 0.000000 0.000000 0.000000 0.041160 0.000000 0.020872
# 5 0.000291 0.002289 0.002980 0.000000 0.023304 0.000000
# 6 0.000000 0.000000 0.000000 0.020872 0.000000 0.045520
#
#
# Mechanical properties :
#
#
# Convention : Reuss Voigt Hill
#
# Bulk Modulus (GPa) = 52.48520 65.35106 58.91813
# Shear Modulus (GPa) = 30.03514 37.15473 33.59494
#
# Velocity S-wave (km/s) = 3.85430 4.28685 4.07632
# Velocity P-wave (km/s) = 6.76515 7.53830 7.16217
#
# Compressibility (1/GPa) = 0.01905299
#
# Stress axis : x y z
#
# Youngs Moduli (GPa) = 110.50373 60.13010 112.17435
#
# Poissons Ratio (x) = 0.14362 0.30523
# Poissons Ratio (y) = 0.26393 0.29854
# Poissons Ratio (z) = 0.30069 0.16003
#
# Static dielectric constant tensor:
#      x y z
#    x 1.708810 0.000000 -0.015040 
#    y 0.000000 1.728750 0.000000 
#    z -0.015040 0.000000 1.771350 
# 
# From -- ./inp_files/14059.got.cif
#   From: 2010.05.17/outbox.cif.g08.bks.cpg/sg5_8_cif.got.tgz:14059.got - 2010.06.03 18:56:24.
