data_PCOD9123389
_publ_section_title
;
Structure prediction by ZEFSAII (Michael W. Deem and Ramdas Pophale) SiO2 
 PCOD9123389
Probable space group: C 2
;
_chemical_formula_sum "Si O2"
_cell_formula_units_Z 26
_cell_length_a 16.740704
_cell_length_b 8.899654
_cell_length_c 8.259872
_cell_angle_alpha 90.000000
_cell_angle_beta 105.748456
_cell_angle_gamma 90.000000
_cell_volume 1184.415269
_symmetry_space_group_name_H-M "C 2"
_symmetry_group_IT_number 5
_symmetry_cell_setting 'monoclinic'
loop_
_space_group_symop_operation_xyz
x,y,z
-x,y,-z
1/2+x,1/2+y,z
1/2-x,1/2+y,-z
loop_
_atom_site_type_symbol
_atom_site_label
_atom_site_fract_x
_atom_site_fract_y
_atom_site_fract_z
Si Si1 0.500000 0.231270 0.000000
Si Si2 0.457479 0.951898 0.190718
Si Si3 0.725255 0.522795 0.804517
Si Si4 0.821918 0.835456 0.931702
Si Si5 0.198196 0.160993 0.458805
Si Si6 0.117090 0.316350 0.165815
Si Si7 0.817473 0.468070 0.367509
O O1 0.414287 0.315655 0.907953
O O2 0.535461 0.116735 0.883691
O O3 0.551341 0.897570 0.246865
O O4 0.403616 0.961133 0.321063
O O5 0.418022 0.834687 0.036716
O O6 0.772457 0.672691 0.903305
O O7 0.680783 0.566868 0.611792
O O8 0.799295 0.409848 0.804259
O O9 0.668845 0.426639 0.895259
O O10 0.754593 0.937598 0.803065
O O11 0.137689 0.162217 0.269691
O O12 0.194169 0.328986 0.520626
O O13 0.289702 0.115808 0.447623
#
# Coordination Sequence:
#
# PCOD9123389 Si02
#       7
#     2   4   4   4   4   4   4
#     4  10  20  38  64 100 124 156 228 288 318 378
#     4  10  21  40  69  97 122 179 229 274 320 395
#     4  11  22  41  68  97 130 179 217 280 330 401
#     4  11  22  40  67  95 128 170 233 271 335 395
#     4  11  25  40  62  99 137 174 219 273 341 399
#     4  10  20  41  64  98 129 158 232 279 312 398
#     4  11  24  40  67  96 128 186 219 279 336 396
#
# _framework density 21.95176
#
# number of rings (size 3 to 8) (size 9 to 14) (size 15 to 20)
#    0.000    1.538    6.154    0.000    4.308    0.615 
#    0.000    6.154    0.000    1.846    0.000    0.000 
#    0.000    0.000    0.000    0.000    0.000    0.000 
#
# Total GULP energy -72391.916183 kJ/mol
# GULP energy per Si atom -5568.608937 kJ/mol
# Density = 2.190180 g / cm^3
# Si number density = 21.951760 Si / 1000 Ang^3
#
#
#
# Elastic Constant Matrix: (Units=GPa)
#
#
# Indices 1 2 3 4 5 6 
#
# 1 78.3380 10.9875 3.0076 0.0000 -30.7228 0.0000
# 2 10.9875 38.4645 21.3933 0.0000 -17.5146 0.0000
# 3 3.0076 21.3933 67.0870 0.0000 -18.1562 0.0000
# 4 0.0000 0.0000 0.0000 34.2443 0.0000 -1.8513
# 5 -30.7228 -17.5146 -18.1562 0.0000 40.5637 0.0000
# 6 0.0000 0.0000 0.0000 -1.8513 0.0000 24.3120
#
#
#
# Elastic Compliance Matrix: (Units=1/GPa)
#
#
# Indices 1 2 3 4 5 6 
#
# 1 0.018829 -0.000130 0.003461 0.000000 0.015754 0.000000
# 2 -0.000130 0.035990 -0.008297 0.000000 0.011728 0.000000
# 3 0.003461 -0.008297 0.019499 0.000000 0.007766 0.000000
# 4 0.000000 0.000000 0.000000 0.029323 0.000000 0.002233
# 5 0.015754 0.011728 0.007766 0.000000 0.045125 0.000000
# 6 0.000000 0.000000 0.000000 0.002233 0.000000 0.041302
#
#
# Mechanical properties :
#
#
# Convention : Reuss Voigt Hill
#
# Bulk Modulus (GPa) = 15.53151 28.29625 21.91388
# Shear Modulus (GPa) = 22.57740 29.72408 26.15074
#
# Velocity S-wave (km/s) = 3.21050 3.68375 3.45524
# Velocity P-wave (km/s) = 4.56440 5.56880 5.09143
#
# Compressibility (1/GPa) = 0.06438524
#
# Stress axis : x y z
#
# Youngs Moduli (GPa) = 53.10955 27.78561 51.28587
#
# Poissons Ratio (x) = 0.00361 -0.17750
# Poissons Ratio (y) = 0.00690 0.42552
# Poissons Ratio (z) = -0.18381 0.23054
#
# Static dielectric constant tensor:
#      x y z
#    x 1.787350 0.000000 0.065610 
#    y 0.000000 1.844200 0.000000 
#    z 0.065610 0.000000 2.080900 
# 
# From -- ./inp_files/26786.got.cif
#   From: 2010.05.17/outbox.cif.g08.bks.cpg/sg5_14_cif.got.tgz:26786.got - 2010.06.03 18:56:24.
