data_PCOD9123506
_publ_section_title
;
Structure prediction by ZEFSAII (Michael W. Deem and Ramdas Pophale) SiO2 
 PCOD9123506
Probable space group: C 2
;
_chemical_formula_sum "Si O2"
_cell_formula_units_Z 22
_cell_length_a 16.435386
_cell_length_b 9.073773
_cell_length_c 7.535879
_cell_angle_alpha 90.000000
_cell_angle_beta 61.643539
_cell_angle_gamma 90.000000
_cell_volume 988.983889
_symmetry_space_group_name_H-M "C 2"
_symmetry_group_IT_number 5
_symmetry_cell_setting 'monoclinic'
loop_
_space_group_symop_operation_xyz
x,y,z
-x,y,-z
1/2+x,1/2+y,z
1/2-x,1/2+y,-z
loop_
_atom_site_type_symbol
_atom_site_label
_atom_site_fract_x
_atom_site_fract_y
_atom_site_fract_z
Si Si1 0.097143 0.595620 0.105970
Si Si2 0.476945 0.398763 0.729760
Si Si3 0.000000 0.396270 0.500000
Si Si4 0.105356 0.308901 0.927980
Si Si5 0.190978 0.119098 0.130842
Si Si6 0.623236 0.656033 0.578947
O O1 0.041418 0.747677 0.148430
O O2 0.051233 0.503215 0.311174
O O3 0.102130 0.485041 0.932960
O O4 0.204510 0.618672 0.041342
O O5 0.500000 0.363518 0.500000
O O6 0.379485 0.486513 0.841119
O O7 0.559470 0.513631 0.691363
O O8 0.060773 0.284785 0.555543
O O9 0.143160 0.254488 0.077332
O O10 0.163370 0.228015 0.714907
O O11 0.000000 0.259479 0.000000
O O12 0.190592 0.122878 0.345513
#
# Coordination Sequence:
#
# PCOD9123506 Si02
#       6
#     4   4   2   4   4   4
#     4  12  24  40  69 109 140 174 238 294 345 396
#     4  10  20  38  67  99 131 179 229 282 338 404
#     4  12  20  42  70  92 142 198 222 280 352 430
#     4  12  22  44  73  97 133 192 234 267 352 429
#     4  11  23  44  69 100 140 184 227 288 349 414
#     4  11  21  45  70  91 133 198 231 264 356 427
#
# _framework density 22.245055000000001
#
# number of rings (size 3 to 8) (size 9 to 14) (size 15 to 20)
#    0.000    0.727    9.091    1.091    0.000    0.000 
#    6.545    0.000    0.000    0.000    0.000    0.000 
#    0.000    0.000    0.000    0.000    0.000    0.000 
#
# Total GULP energy -61382.992706 kJ/mol
# GULP energy per Si atom -5580.272064 kJ/mol
# Density = 2.219442 g / cm^3
# Si number density = 22.245055 Si / 1000 Ang^3
#
#
#
# Elastic Constant Matrix: (Units=GPa)
#
#
# Indices 1 2 3 4 5 6 
#
# 1 33.9837 12.9393 12.0861 0.0000 -1.3085 0.0000
# 2 12.9393 154.3425 49.1748 0.0000 7.3058 0.0000
# 3 12.0861 49.1748 70.2550 0.0000 0.5486 0.0000
# 4 0.0000 0.0000 0.0000 13.2320 0.0000 -0.8477
# 5 -1.3085 7.3058 0.5486 0.0000 37.0146 0.0000
# 6 0.0000 0.0000 0.0000 -0.8477 0.0000 6.0722
#
#
#
# Elastic Compliance Matrix: (Units=1/GPa)
#
#
# Indices 1 2 3 4 5 6 
#
# 1 0.031584 -0.001263 -0.004561 0.000000 0.001433 0.000000
# 2 -0.001263 0.008480 -0.005706 0.000000 -0.001634 0.000000
# 3 -0.004561 -0.005706 0.019007 0.000000 0.000683 0.000000
# 4 0.000000 0.000000 0.000000 0.076256 0.000000 0.010646
# 5 0.001433 -0.001634 0.000683 0.000000 0.027379 0.000000
# 6 0.000000 0.000000 0.000000 0.010646 0.000000 0.166171
#
#
# Mechanical properties :
#
#
# Convention : Reuss Voigt Hill
#
# Bulk Modulus (GPa) = 27.76810 45.22017 36.49413
# Shear Modulus (GPa) = 13.73852 23.55582 18.64717
#
# Velocity S-wave (km/s) = 2.48785 3.25764 2.89842
# Velocity P-wave (km/s) = 4.55658 5.87554 5.25759
#
# Compressibility (1/GPa) = 0.03601255
#
# Stress axis : x y z
#
# Youngs Moduli (GPa) = 31.66174 117.92214 52.61255
#
# Poissons Ratio (x) = 0.14888 0.23996
# Poissons Ratio (y) = 0.03997 0.30019
# Poissons Ratio (z) = 0.14441 0.67283
#
# Static dielectric constant tensor:
#      x y z
#    x 1.844020 0.000000 0.042780 
#    y 0.000000 1.859120 0.000000 
#    z 0.042780 0.000000 1.945150 
# 
# From -- ./inp_files/22785.got.cif
#   From: 2010.05.17/outbox.cif.g08.bks.cpg/sg5_12_cif.got.tgz:22785.got - 2010.06.03 18:56:24.
