data_PCOD9123887
_publ_section_title
;
Structure prediction by ZEFSAII (Michael W. Deem and Ramdas Pophale) SiO2 
 PCOD9123887
Probable space group: C 2
;
_chemical_formula_sum "Si O2"
_cell_formula_units_Z 28
_cell_length_a 12.731385
_cell_length_b 13.588097
_cell_length_c 6.981716
_cell_angle_alpha 90.000000
_cell_angle_beta 54.016903
_cell_angle_gamma 90.000000
_cell_volume 977.343369
_symmetry_space_group_name_H-M "C 2"
_symmetry_group_IT_number 5
_symmetry_cell_setting 'monoclinic'
loop_
_space_group_symop_operation_xyz
x,y,z
-x,y,-z
1/2+x,1/2+y,z
1/2-x,1/2+y,-z
loop_
_atom_site_type_symbol
_atom_site_label
_atom_site_fract_x
_atom_site_fract_y
_atom_site_fract_z
Si Si1 0.454179 0.852670 0.768986
Si Si2 0.250379 0.696000 0.955296
Si Si3 0.205508 0.243354 0.549845
Si Si4 0.020521 0.571270 0.204940
Si Si5 0.554238 0.354576 0.751794
Si Si6 0.269810 0.529951 0.436034
Si Si7 0.374589 0.506072 0.733408
O O1 0.500000 0.838849 0.500000
O O2 0.334678 0.783072 0.951626
O O3 0.590049 0.819237 0.717544
O O4 0.412911 0.964989 0.837334
O O5 0.265882 0.720144 0.709405
O O6 0.000000 0.805565 0.000000
O O7 0.104431 0.666769 0.170280
O O8 0.344642 0.285310 0.466340
O O9 0.167525 0.136062 0.663651
O O10 0.880281 0.550244 0.448595
O O11 0.318741 0.591212 0.923838
O O12 0.000000 0.580939 0.000000
O O13 0.649352 0.440919 0.737445
O O14 0.440131 0.409955 0.757650
O O15 0.281153 0.498124 0.649396
O O16 0.500000 0.556062 0.500000
#
# Coordination Sequence:
#
# PCOD9123887 Si02
#       7
#     4   4   4   4   4   4   4
#     4  10  22  42  67  97 134 173 224 284 343 388
#     4  10  21  39  65  95 124 180 229 262 324 418
#     4  10  20  40  67  95 128 177 225 270 326 409
#     4  12  22  41  69  99 133 178 230 278 329 405
#     4  11  23  37  69 106 130 167 230 284 327 391
#     4  10  21  43  64  93 138 181 220 272 336 402
#     4   9  18  37  64  90 129 172 219 263 327 398
#
# _framework density 28.649093000000001
#
# number of rings (size 3 to 8) (size 9 to 14) (size 15 to 20)
#    0.000    1.714    4.286    3.000    2.000    2.286 
#    0.000    2.857    0.000    6.000    0.000    0.000 
#    0.000    0.000    0.000    0.000    0.000    0.000 
#
# Total GULP energy -78335.598515 kJ/mol
# GULP energy per Si atom -5595.399894 kJ/mol
# Density = 2.858389 g / cm^3
# Si number density = 28.649093 Si / 1000 Ang^3
#
#
#
# Elastic Constant Matrix: (Units=GPa)
#
#
# Indices 1 2 3 4 5 6 
#
# 1 117.0320 62.5103 54.4873 0.0000 -9.8696 0.0000
# 2 62.5103 171.7388 36.4573 0.0000 -27.7805 0.0000
# 3 54.4873 36.4573 113.6947 0.0000 -26.1059 0.0000
# 4 0.0000 0.0000 0.0000 59.3284 0.0000 -22.1614
# 5 -9.8696 -27.7805 -26.1059 0.0000 52.1233 0.0000
# 6 0.0000 0.0000 0.0000 -22.1614 0.0000 57.0334
#
#
#
# Elastic Compliance Matrix: (Units=1/GPa)
#
#
# Indices 1 2 3 4 5 6 
#
# 1 0.013030 -0.003959 -0.005529 0.000000 -0.002412 0.000000
# 2 -0.003959 0.007787 0.000205 0.000000 0.003503 0.000000
# 3 -0.005529 0.000205 0.012615 0.000000 0.005380 0.000000
# 4 0.000000 0.000000 0.000000 0.019717 0.000000 0.007661
# 5 -0.002412 0.003503 0.005380 0.000000 0.023290 0.000000
# 6 0.000000 0.000000 0.000000 0.007661 0.000000 0.020511
#
#
# Mechanical properties :
#
#
# Convention : Reuss Voigt Hill
#
# Bulk Modulus (GPa) = 67.26961 78.81949 73.04455
# Shear Modulus (GPa) = 41.50341 50.29774 45.90057
#
# Velocity S-wave (km/s) = 3.81028 4.19459 4.00705
# Velocity P-wave (km/s) = 6.54898 7.14361 6.85275
#
# Compressibility (1/GPa) = 0.01486555
#
# Stress axis : x y z
#
# Youngs Moduli (GPa) = 76.74536 128.41740 79.27144
#
# Poissons Ratio (x) = 0.50844 0.43828
# Poissons Ratio (y) = 0.30385 -0.01624
# Poissons Ratio (z) = 0.42431 -0.02630
#
# Static dielectric constant tensor:
#      x y z
#    x 2.366010 0.000000 -0.024820 
#    y 0.000000 2.183470 0.000000 
#    z -0.024820 0.000000 2.212250 
# 
# From -- ./inp_files/42913.got.cif
#   From: 2010.05.17/outbox.cif.g08.bks.cpg/sg5_22_cif.got.tgz:42913.got - 2010.06.03 18:56:24.
