data_PCOD9123658
_publ_section_title
;
Structure prediction by ZEFSAII (Michael W. Deem and Ramdas Pophale) SiO2 
 PCOD9123658
Probable space group: C 2
;
_chemical_formula_sum "Si O2"
_cell_formula_units_Z 28
_cell_length_a 16.230381
_cell_length_b 8.446069
_cell_length_c 17.170860
_cell_angle_alpha 90.000000
_cell_angle_beta 146.101141
_cell_angle_gamma 90.000000
_cell_volume 1312.799150
_symmetry_space_group_name_H-M "C 2"
_symmetry_group_IT_number 5
_symmetry_cell_setting 'monoclinic'
loop_
_space_group_symop_operation_xyz
x,y,z
-x,y,-z
1/2+x,1/2+y,z
1/2-x,1/2+y,-z
loop_
_atom_site_type_symbol
_atom_site_label
_atom_site_fract_x
_atom_site_fract_y
_atom_site_fract_z
Si Si1 0.170130 0.190780 0.606825
Si Si2 0.153551 0.893341 0.808692
Si Si3 0.602632 0.416229 0.938895
Si Si4 0.648060 0.145109 0.094515
Si Si5 0.176267 0.121986 0.125629
Si Si6 0.272931 0.523720 0.666258
Si Si7 0.609434 0.348065 0.509962
O O1 0.272534 0.192491 0.763475
O O2 0.203934 0.354345 0.587638
O O3 0.000000 0.194858 0.500000
O O4 0.192622 0.017085 0.585880
O O5 0.162298 0.849003 0.905444
O O6 0.259453 0.794309 0.835100
O O7 0.993020 0.869769 0.646112
O O8 0.221769 0.066678 0.853303
O O9 0.449434 0.503528 0.796199
O O10 0.582097 0.283411 0.988583
O O11 0.706729 0.535291 0.068006
O O12 0.500000 0.047649 0.000000
O O13 0.250407 0.043097 0.258591
O O14 0.000000 0.120053 0.000000
O O15 0.205980 0.687321 0.580448
O O16 0.500000 0.332811 0.500000
#
# Coordination Sequence:
#
# PCOD9123658 Si02
#       7
#     4   4   4   4   4   4   4
#     4  11  21  39  69 100 125 169 233 275 318 388
#     4  12  24  41  62  99 138 166 218 280 334 399
#     4  11  24  41  61  99 139 166 211 282 347 388
#     4  12  21  42  68  95 129 174 225 273 325 400
#     4  10  20  39  66  91 120 173 217 266 330 391
#     4  11  21  42  69  92 131 174 229 269 319 402
#     4  11  22  41  66  97 127 177 229 271 320 398
#
# _framework density 21.328472000000001
#
# number of rings (size 3 to 8) (size 9 to 14) (size 15 to 20)
#    0.000    0.857    7.143    2.143    0.000    1.143 
#    2.571    0.000    0.000    0.000    0.000    0.000 
#    0.000    0.000    0.000    0.000    0.000    0.000 
#
# Total GULP energy -78040.990110 kJ/mol
# GULP energy per Si atom -5574.356436 kJ/mol
# Density = 2.127993 g / cm^3
# Si number density = 21.328472 Si / 1000 Ang^3
#
#
#
# Elastic Constant Matrix: (Units=GPa)
#
#
# Indices 1 2 3 4 5 6 
#
# 1 20.3365 16.6844 17.0365 0.0000 -11.2215 0.0000
# 2 16.6844 124.6794 42.7593 0.0000 5.2319 0.0000
# 3 17.0365 42.7593 110.6667 0.0000 -6.0398 0.0000
# 4 0.0000 0.0000 0.0000 24.3556 0.0000 5.0461
# 5 -11.2215 5.2319 -6.0398 0.0000 26.6128 0.0000
# 6 0.0000 0.0000 0.0000 5.0461 0.0000 17.6052
#
#
#
# Elastic Compliance Matrix: (Units=1/GPa)
#
#
# Indices 1 2 3 4 5 6 
#
# 1 0.082826 -0.010210 -0.006875 0.000000 0.035371 0.000000
# 2 -0.010210 0.010694 -0.002946 0.000000 -0.007076 0.000000
# 3 -0.006875 -0.002946 0.011246 0.000000 0.000232 0.000000
# 4 0.000000 0.000000 0.000000 0.043651 0.000000 -0.012511
# 5 0.035371 -0.007076 0.000232 0.000000 0.053934 0.000000
# 6 0.000000 0.000000 0.000000 -0.012511 0.000000 0.060387
#
#
# Mechanical properties :
#
#
# Convention : Reuss Voigt Hill
#
# Bulk Modulus (GPa) = 15.45531 45.40477 30.43004
# Shear Modulus (GPa) = 15.41450 25.66154 20.53802
#
# Velocity S-wave (km/s) = 2.69126 3.47242 3.10649
# Velocity P-wave (km/s) = 4.11330 6.11649 5.21204
#
# Compressibility (1/GPa) = 0.06470270
#
# Stress axis : x y z
#
# Youngs Moduli (GPa) = 12.07346 93.50765 88.92292
#
# Poissons Ratio (x) = 0.95472 0.61137
# Poissons Ratio (y) = 0.12327 0.26201
# Poissons Ratio (z) = 0.08301 0.27552
#
# Static dielectric constant tensor:
#      x y z
#    x 1.790630 0.000000 0.029300 
#    y 0.000000 1.891630 0.000000 
#    z 0.029300 0.000000 1.759380 
# 
# From -- ./inp_files/31625.got.cif
#   From: 2010.05.17/outbox.cif.g08.bks.cpg/sg5_16_cif.got.tgz:31625.got - 2010.06.03 18:56:24.
