data_PCOD9123458
_publ_section_title
;
Structure prediction by ZEFSAII (Michael W. Deem and Ramdas Pophale) SiO2 
 PCOD9123458
Probable space group: C 2
;
_chemical_formula_sum "Si O2"
_cell_formula_units_Z 28
_cell_length_a 22.652258
_cell_length_b 9.300417
_cell_length_c 7.417202
_cell_angle_alpha 90.000000
_cell_angle_beta 49.520257
_cell_angle_gamma 90.000000
_cell_volume 1188.586070
_symmetry_space_group_name_H-M "C 2"
_symmetry_group_IT_number 5
_symmetry_cell_setting 'monoclinic'
loop_
_space_group_symop_operation_xyz
x,y,z
-x,y,-z
1/2+x,1/2+y,z
1/2-x,1/2+y,-z
loop_
_atom_site_type_symbol
_atom_site_label
_atom_site_fract_x
_atom_site_fract_y
_atom_site_fract_z
Si Si1 0.759803 0.248550 0.666454
Si Si2 0.403005 0.920060 0.375481
Si Si3 0.000000 0.311043 0.500000
Si Si4 0.171355 0.959859 0.615801
Si Si5 0.000000 0.203848 0.000000
Si Si6 0.416535 0.576673 0.863876
Si Si7 0.564287 0.224043 0.656181
Si Si8 0.901689 0.764530 0.814228
O O1 0.823993 0.359062 0.614517
O O2 0.733711 0.335739 0.538351
O O3 0.795439 0.091091 0.565822
O O4 0.681963 0.236797 0.936995
O O5 0.470635 0.902309 0.389794
O O6 0.404716 0.082248 0.304775
O O7 0.427065 0.808543 0.170718
O O8 0.072422 0.211753 0.289835
O O9 0.102022 0.866710 0.665233
O O10 0.146064 0.036828 0.855632
O O11 0.990847 0.106962 0.843676
O O12 0.414994 0.433896 0.751080
O O13 0.471146 0.230344 0.817153
O O14 0.591315 0.197334 0.395955
#
# Coordination Sequence:
#
# PCOD9123458 Si02
#       8
#     4   4   2   4   2   4   4   4
#     4  11  25  45  65 102 138 175 225 283 347 392
#     4  11  24  43  67 102 135 177 226 281 335 405
#     4  10  22  40  70 100 138 176 230 272 342 404
#     4  11  24  45  70  98 139 180 226 280 338 408
#     4  10  20  38  68  96 128 178 226 274 324 402
#     4  10  20  38  65  99 128 172 226 275 325 395
#     4  11  24  45  69  99 137 182 231 272 336 411
#     4  10  24  42  69  98 140 177 230 275 342 402
#
# _framework density 23.557400999999999
#
# number of rings (size 3 to 8) (size 9 to 14) (size 15 to 20)
#    0.000    1.429    1.429    3.429    4.000    6.286 
#    7.714    0.000    0.000    0.000    0.000    0.000 
#    0.000    0.000    0.000    0.000    0.000    0.000 
#
# Total GULP energy -78123.137376 kJ/mol
# GULP energy per Si atom -5580.224098 kJ/mol
# Density = 2.350378 g / cm^3
# Si number density = 23.557401 Si / 1000 Ang^3
#
#
#
# Elastic Constant Matrix: (Units=GPa)
#
#
# Indices 1 2 3 4 5 6 
#
# 1 62.4051 23.8338 19.0636 0.0000 -10.3515 0.0000
# 2 23.8338 135.0218 37.0777 0.0000 -13.5798 0.0000
# 3 19.0636 37.0777 110.8785 0.0000 -23.7480 0.0000
# 4 0.0000 0.0000 0.0000 25.8347 0.0000 -2.7555
# 5 -10.3515 -13.5798 -23.7480 0.0000 34.0356 0.0000
# 6 0.0000 0.0000 0.0000 -2.7555 0.0000 31.2355
#
#
#
# Elastic Compliance Matrix: (Units=1/GPa)
#
#
# Indices 1 2 3 4 5 6 
#
# 1 0.017985 -0.002403 -0.001555 0.000000 0.003426 0.000000
# 2 -0.002403 0.008550 -0.002201 0.000000 0.001145 0.000000
# 3 -0.001555 -0.002201 0.011443 0.000000 0.006633 0.000000
# 4 0.000000 0.000000 0.000000 0.039075 0.000000 0.003447
# 5 0.003426 0.001145 0.006633 0.000000 0.035508 0.000000
# 6 0.000000 0.000000 0.000000 0.003447 0.000000 0.032319
#
#
# Mechanical properties :
#
#
# Convention : Reuss Voigt Hill
#
# Bulk Modulus (GPa) = 38.96992 52.02838 45.49915
# Shear Modulus (GPa) = 30.16565 33.44318 31.80441
#
# Velocity S-wave (km/s) = 3.58231 3.77191 3.67833
# Velocity P-wave (km/s) = 5.80423 6.41120 6.11525
#
# Compressibility (1/GPa) = 0.02566082
#
# Stress axis : x y z
#
# Youngs Moduli (GPa) = 55.60046 116.96066 87.39116
#
# Poissons Ratio (x) = 0.28108 0.13588
# Poissons Ratio (y) = 0.13362 0.19232
# Poissons Ratio (z) = 0.08645 0.25739
#
# Static dielectric constant tensor:
#      x y z
#    x 1.914400 0.000000 -0.026420 
#    y 0.000000 1.895400 0.000000 
#    z -0.026420 0.000000 1.938090 
# 
# From -- ./inp_files/26720.got.cif
#   From: 2010.05.17/outbox.cif.g08.bks.cpg/sg5_14_cif.got.tgz:26720.got - 2010.06.03 18:56:24.
