data_PCOD9123731
_publ_section_title
;
Structure prediction by ZEFSAII (Michael W. Deem and Ramdas Pophale) SiO2 
 PCOD9123731
Probable space group: C 2
;
_chemical_formula_sum "Si O2"
_cell_formula_units_Z 30
_cell_length_a 28.292117
_cell_length_b 8.995783
_cell_length_c 16.771200
_cell_angle_alpha 90.000000
_cell_angle_beta 158.900719
_cell_angle_gamma 90.000000
_cell_volume 1536.572584
_symmetry_space_group_name_H-M "C 2"
_symmetry_group_IT_number 5
_symmetry_cell_setting 'monoclinic'
loop_
_space_group_symop_operation_xyz
x,y,z
-x,y,-z
1/2+x,1/2+y,z
1/2-x,1/2+y,-z
loop_
_atom_site_type_symbol
_atom_site_label
_atom_site_fract_x
_atom_site_fract_y
_atom_site_fract_z
Si Si1 0.433683 0.092190 0.642706
Si Si2 0.163137 0.772300 0.808194
Si Si3 0.000000 0.492361 0.500000
Si Si4 0.002993 0.853017 0.870700
Si Si5 0.109933 0.843407 0.548673
Si Si6 0.446429 0.844271 0.265599
Si Si7 0.719513 0.348264 0.345531
Si Si8 0.906897 0.092349 0.599572
O O1 0.489795 0.206155 0.795766
O O2 0.373114 0.193458 0.476282
O O3 0.543961 0.987881 0.776459
O O4 0.324440 0.981950 0.506782
O O5 0.112209 0.604702 0.709506
O O6 0.175367 0.838882 0.738130
O O7 0.045707 0.846631 0.673554
O O8 0.302155 0.797891 0.066903
O O9 0.965381 0.389303 0.519865
O O10 0.879340 0.859170 0.736302
O O11 0.989155 0.993917 0.790867
O O12 0.132549 0.853650 0.128302
O O13 0.149762 0.978095 0.554934
O O14 0.503471 0.707766 0.306616
O O15 0.796909 0.192324 0.468658
#
# Coordination Sequence:
#
# PCOD9123731 Si02
#       8
#     4   4   2   4   4   4   4   4
#     4  10  20  40  60  87 118 155 194 246 288 353
#     4  10  21  38  61  79 122 162 193 236 298 344
#     4  10  22  44  52  88 124 156 200 250 280 346
#     4  10  22  41  63  86 120 155 190 242 313 350
#     4   9  20  39  57  84 122 155 195 245 287 336
#     4  11  23  37  63  87 117 163 199 238 301 333
#     4  10  22  40  63  88 117 156 191 246 302 357
#     4  10  23  37  58  96 114 148 206 247 279 361
#
# _framework density 19.523972000000001
#
# number of rings (size 3 to 8) (size 9 to 14) (size 15 to 20)
#    0.000    2.133    2.667    0.800    5.600    1.067 
#    4.800    0.000    0.000    8.000    0.000    0.000 
#    0.000    0.000    0.000    0.000    0.000    0.000 
#
# Total GULP energy -83686.709446 kJ/mol
# GULP energy per Si atom -5579.113963 kJ/mol
# Density = 1.947953 g / cm^3
# Si number density = 19.523972 Si / 1000 Ang^3
#
#
#
# Elastic Constant Matrix: (Units=GPa)
#
#
# Indices 1 2 3 4 5 6 
#
# 1 60.5693 31.0085 -0.7759 0.0000 -14.7118 0.0000
# 2 31.0085 119.7672 20.8967 0.0000 -9.0055 0.0000
# 3 -0.7759 20.8967 36.9422 0.0000 1.0448 0.0000
# 4 0.0000 0.0000 0.0000 12.4082 0.0000 0.1223
# 5 -14.7118 -9.0055 1.0448 0.0000 21.6083 0.0000
# 6 0.0000 0.0000 0.0000 0.1223 0.0000 19.2248
#
#
#
# Elastic Compliance Matrix: (Units=1/GPa)
#
#
# Indices 1 2 3 4 5 6 
#
# 1 0.022439 -0.005392 0.003157 0.000000 0.012877 0.000000
# 2 -0.005392 0.010941 -0.006336 0.000000 0.001195 0.000000
# 3 0.003157 -0.006336 0.030776 0.000000 -0.001979 0.000000
# 4 0.000000 0.000000 0.000000 0.080597 0.000000 -0.000513
# 5 0.012877 0.001195 -0.001979 0.000000 0.055640 0.000000
# 6 0.000000 0.000000 0.000000 -0.000513 0.000000 0.052019
#
#
# Mechanical properties :
#
#
# Convention : Reuss Voigt Hill
#
# Bulk Modulus (GPa) = 21.27050 35.50417 28.38734
# Shear Modulus (GPa) = 17.53009 21.72488 19.62749
#
# Velocity S-wave (km/s) = 2.99971 3.33938 3.17409
# Velocity P-wave (km/s) = 4.78705 5.75265 5.29192
#
# Compressibility (1/GPa) = 0.04701348
#
# Stress axis : x y z
#
# Youngs Moduli (GPa) = 44.56574 91.40007 32.49337
#
# Poissons Ratio (x) = 0.49284 -0.10259
# Poissons Ratio (y) = 0.24030 0.20587
# Poissons Ratio (z) = -0.14070 0.57910
#
# Static dielectric constant tensor:
#      x y z
#    x 1.686220 0.000000 -0.002130 
#    y 0.000000 1.689660 0.000000 
#    z -0.002130 0.000000 1.698010 
# 
# From -- ./inp_files/63817.got.cif
#   From: 2010.05.17/outbox.cif.g08.bks.cpg/sg5_32_cif.got.tgz:63817.got - 2010.06.03 18:56:24.
