data_PCOD9123773
_publ_section_title
;
Structure prediction by ZEFSAII (Michael W. Deem and Ramdas Pophale) SiO2 
 PCOD9123773
Probable space group: C 2
;
_chemical_formula_sum "Si O2"
_cell_formula_units_Z 30
_cell_length_a 25.606749
_cell_length_b 10.082769
_cell_length_c 14.133266
_cell_angle_alpha 90.000000
_cell_angle_beta 158.327259
_cell_angle_gamma 90.000000
_cell_volume 1347.601844
_symmetry_space_group_name_H-M "C 2"
_symmetry_group_IT_number 5
_symmetry_cell_setting 'monoclinic'
loop_
_space_group_symop_operation_xyz
x,y,z
-x,y,-z
1/2+x,1/2+y,z
1/2-x,1/2+y,-z
loop_
_atom_site_type_symbol
_atom_site_label
_atom_site_fract_x
_atom_site_fract_y
_atom_site_fract_z
Si Si1 0.592898 0.557700 0.457886
Si Si2 0.034794 0.422692 0.156489
Si Si3 0.726166 0.123578 0.055329
Si Si4 0.500000 0.510997 0.000000
Si Si5 0.808976 0.869192 0.534200
Si Si6 0.887841 0.877603 0.231471
Si Si7 0.407672 0.119905 0.584512
Si Si8 0.622577 0.686527 0.036613
O O1 0.686992 0.622002 0.699215
O O2 0.684636 0.494254 0.527579
O O3 0.493909 0.439984 0.332350
O O4 0.480468 0.658549 0.223602
O O5 0.156236 0.327559 0.317722
O O6 0.102747 0.504110 0.355565
O O7 0.000000 0.501088 0.000000
O O8 0.905292 0.338298 0.980826
O O9 0.798121 0.002266 0.120216
O O10 0.716283 0.263570 0.982841
O O11 0.561168 0.101525 0.799008
O O12 0.391532 0.417966 0.763997
O O13 0.428604 0.598542 0.961103
O O14 0.887477 0.750572 0.614339
O O15 0.000000 0.828328 0.500000
O O16 0.284482 0.140809 0.299255
#
# Coordination Sequence:
#
# PCOD9123773 Si02
#       8
#     4   4   4   2   4   4   4   4
#     4  10  24  46  72  98 141 184 231 295 360 421
#     4  12  24  39  63  98 144 192 236 288 346 412
#     4  11  25  47  79 104 139 186 237 298 370 438
#     4  10  20  40  62  94 136 196 230 282 338 400
#     4  11  22  40  66  95 141 186 237 281 340 415
#     4  10  24  50  76 106 143 183 232 310 374 432
#     4  12  25  41  67 104 138 186 241 288 356 418
#     4  11  23  42  65  99 146 185 236 289 344 412
#
# _framework density 22.261768
#
# number of rings (size 3 to 8) (size 9 to 14) (size 15 to 20)
#    0.000    1.067    4.667    0.800    2.800    4.267 
#    0.000    4.667    0.000    0.000    0.000    0.000 
#    0.000    0.000    0.000    0.000    0.000    0.000 
#
# Total GULP energy -83723.016543 kJ/mol
# GULP energy per Si atom -5581.534436 kJ/mol
# Density = 2.221110 g / cm^3
# Si number density = 22.261768 Si / 1000 Ang^3
#
#
#
# Elastic Constant Matrix: (Units=GPa)
#
#
# Indices 1 2 3 4 5 6 
#
# 1 59.1275 5.3888 44.8250 0.0000 7.3214 0.0000
# 2 5.3888 52.0246 46.9516 0.0000 -11.6266 0.0000
# 3 44.8250 46.9516 168.6181 0.0000 -5.9540 0.0000
# 4 0.0000 0.0000 0.0000 42.9926 0.0000 -5.3280
# 5 7.3214 -11.6266 -5.9540 0.0000 41.3106 0.0000
# 6 0.0000 0.0000 0.0000 -5.3280 0.0000 24.6317
#
#
#
# Elastic Compliance Matrix: (Units=1/GPa)
#
#
# Indices 1 2 3 4 5 6 
#
# 1 0.022413 0.003026 -0.006947 0.000000 -0.004122 0.000000
# 2 0.003026 0.027781 -0.008325 0.000000 0.006083 0.000000
# 3 -0.006947 -0.008325 0.010108 0.000000 0.000345 0.000000
# 4 0.000000 0.000000 0.000000 0.023900 0.000000 0.005170
# 5 -0.004122 0.006083 0.000345 0.000000 0.026699 0.000000
# 6 0.000000 0.000000 0.000000 0.005170 0.000000 0.041716
#
#
# Mechanical properties :
#
#
# Convention : Reuss Voigt Hill
#
# Bulk Modulus (GPa) = 27.92432 52.67789 40.30111
# Shear Modulus (GPa) = 26.44859 33.96063 30.20461
#
# Velocity S-wave (km/s) = 3.45058 3.91002 3.68746
# Velocity P-wave (km/s) = 5.33350 6.64068 6.02266
#
# Compressibility (1/GPa) = 0.03581108
#
# Stress axis : x y z
#
# Youngs Moduli (GPa) = 44.61615 35.99566 98.93545
#
# Poissons Ratio (x) = -0.10894 0.68726
# Poissons Ratio (y) = -0.13503 0.82368
# Poissons Ratio (z) = 0.30993 0.29968
#
# Static dielectric constant tensor:
#      x y z
#    x 1.834150 0.000000 -0.014570 
#    y 0.000000 1.815870 0.000000 
#    z -0.014570 0.000000 1.882800 
# 
# From -- ./inp_files/58207.got.cif
#   From: 2010.05.17/outbox.cif.g08.bks.cpg/sg5_30_cif.got.tgz:58207.got - 2010.06.03 18:56:24.
