data_PCOD9123437
_publ_section_title
;
Structure prediction by ZEFSAII (Michael W. Deem and Ramdas Pophale) SiO2 
 PCOD9123437
Probable space group: C 2
;
_chemical_formula_sum "Si O2"
_cell_formula_units_Z 30
_cell_length_a 29.490830
_cell_length_b 9.627120
_cell_length_c 17.612347
_cell_angle_alpha 90.000000
_cell_angle_beta 17.984743
_cell_angle_gamma 90.000000
_cell_volume 1543.927472
_symmetry_space_group_name_H-M "C 2"
_symmetry_group_IT_number 5
_symmetry_cell_setting 'monoclinic'
loop_
_space_group_symop_operation_xyz
x,y,z
-x,y,-z
1/2+x,1/2+y,z
1/2-x,1/2+y,-z
loop_
_atom_site_type_symbol
_atom_site_label
_atom_site_fract_x
_atom_site_fract_y
_atom_site_fract_z
Si Si1 0.426406 0.794970 0.198853
Si Si2 0.662389 0.439913 0.217627
Si Si3 0.000000 0.499336 0.500000
Si Si4 0.334243 0.111698 0.339279
Si Si5 0.890138 0.390100 0.968494
Si Si6 0.945989 0.316580 0.436225
Si Si7 0.654412 0.158348 0.857099
Si Si8 0.749611 0.174684 0.020888
O O1 0.302987 0.679832 0.401694
O O2 0.546480 0.778418 0.074073
O O3 0.360438 0.950039 0.317038
O O4 0.500000 0.796389 0.000000
O O5 0.500000 0.471493 0.500000
O O6 0.743102 0.580409 0.065694
O O7 0.741184 0.360699 0.160965
O O8 0.681599 0.328479 0.119498
O O9 0.040861 0.404647 0.507649
O O10 0.139333 0.592991 0.252648
O O11 0.310697 0.120201 0.285989
O O12 0.481712 0.198023 0.126412
O O13 0.007912 0.403606 0.712453
O O14 0.852822 0.524930 0.077095
O O15 0.783990 0.255794 0.681227
O O16 0.078517 0.200820 0.229993
#
# Coordination Sequence:
#
# PCOD9123437 Si02
#       8
#     4   4   2   4   4   4   4   4
#     4  11  21  44  65  94 130 168 201 268 317 377
#     4  11  23  39  63  90 125 167 211 262 308 377
#     4  12  24  42  60  94 134 166 210 272 310 370
#     4  10  21  41  69  94 130 162 210 259 324 373
#     4  10  20  38  65  90 122 165 213 250 316 372
#     4  11  24  40  64  92 130 169 212 263 313 376
#     4  10  20  41  66  92 125 169 207 262 312 385
#     4  11  23  40  60  90 125 167 208 260 314 362
#
# _framework density 19.430963999999999
#
# number of rings (size 3 to 8) (size 9 to 14) (size 15 to 20)
#    0.000    1.333    7.333    0.800    2.800    0.000 
#    4.800    8.000    0.000    0.000    0.000    0.000 
#    0.000    0.000    0.000    0.000    0.000    0.000 
#
# Total GULP energy -83555.618916 kJ/mol
# GULP energy per Si atom -5570.374594 kJ/mol
# Density = 1.938674 g / cm^3
# Si number density = 19.430964 Si / 1000 Ang^3
#
#
#
# Elastic Constant Matrix: (Units=GPa)
#
#
# Indices 1 2 3 4 5 6 
#
# 1 74.0981 18.1653 29.6780 0.0000 -4.3095 0.0000
# 2 18.1653 53.8913 37.2768 0.0000 2.0604 0.0000
# 3 29.6780 37.2768 108.6343 0.0000 5.9164 0.0000
# 4 0.0000 0.0000 0.0000 34.6934 0.0000 -0.3542
# 5 -4.3095 2.0604 5.9164 0.0000 13.9864 0.0000
# 6 0.0000 0.0000 0.0000 -0.3542 0.0000 15.1749
#
#
#
# Elastic Compliance Matrix: (Units=1/GPa)
#
#
# Indices 1 2 3 4 5 6 
#
# 1 0.016164 -0.003144 -0.003719 0.000000 0.007017 0.000000
# 2 -0.003144 0.024942 -0.007623 0.000000 -0.001419 0.000000
# 3 -0.003719 -0.007623 0.013141 0.000000 -0.005582 0.000000
# 4 0.000000 0.000000 0.000000 0.028831 0.000000 0.000673
# 5 0.007017 -0.001419 -0.005582 0.000000 0.076230 0.000000
# 6 0.000000 0.000000 0.000000 0.000673 0.000000 0.065914
#
#
# Mechanical properties :
#
#
# Convention : Reuss Voigt Hill
#
# Bulk Modulus (GPa) = 39.56377 45.20709 42.38543
# Shear Modulus (GPa) = 19.03897 22.87118 20.95508
#
# Velocity S-wave (km/s) = 3.13361 3.43454 3.28752
# Velocity P-wave (km/s) = 5.78776 6.24852 6.02255
#
# Compressibility (1/GPa) = 0.02527565
#
# Stress axis : x y z
#
# Youngs Moduli (GPa) = 61.86539 40.09232 76.09875
#
# Poissons Ratio (x) = 0.12606 0.28302
# Poissons Ratio (y) = 0.19452 0.58006
# Poissons Ratio (z) = 0.23009 0.30560
#
# Static dielectric constant tensor:
#      x y z
#    x 1.731300 0.000000 -0.022340 
#    y 0.000000 1.689460 0.000000 
#    z -0.022340 0.000000 1.692560 
# 
# From -- ./inp_files/63799.got.cif
#   From: 2010.05.17/outbox.cif.g08.bks.cpg/sg5_32_cif.got.tgz:63799.got - 2010.06.03 18:56:24.
