data_PCOD9123907
_publ_section_title
;
Structure prediction by ZEFSAII (Michael W. Deem and Ramdas Pophale) SiO2 
 PCOD9123907
Probable space group: C 2
;
_chemical_formula_sum "Si O2"
_cell_formula_units_Z 26
_cell_length_a 19.700857
_cell_length_b 8.083373
_cell_length_c 14.329791
_cell_angle_alpha 90.000000
_cell_angle_beta 154.250627
_cell_angle_gamma 90.000000
_cell_volume 991.386046
_symmetry_space_group_name_H-M "C 2"
_symmetry_group_IT_number 5
_symmetry_cell_setting 'monoclinic'
loop_
_space_group_symop_operation_xyz
x,y,z
-x,y,-z
1/2+x,1/2+y,z
1/2-x,1/2+y,-z
loop_
_atom_site_type_symbol
_atom_site_label
_atom_site_fract_x
_atom_site_fract_y
_atom_site_fract_z
Si Si1 0.358379 0.509680 0.131898
Si Si2 0.844506 0.254139 0.936833
Si Si3 0.500000 0.509200 0.000000
Si Si4 0.174741 0.100922 0.544658
Si Si5 0.248110 0.429971 0.538658
Si Si6 0.037391 0.637074 0.752623
Si Si7 0.500000 0.000428 0.000000
Si Si8 0.000000 0.732020 0.500000
O O1 0.504737 0.567708 0.376706
O O2 0.396590 0.322213 0.148107
O O3 0.357971 0.643557 0.046761
O O4 0.184462 0.518939 0.958399
O O5 0.865645 0.117152 0.882150
O O6 0.667893 0.321394 0.708552
O O7 0.972341 0.385248 0.057371
O O8 0.404595 0.433027 0.795797
O O9 0.164461 0.265515 0.470115
O O10 0.198865 0.950261 0.501768
O O11 0.339685 0.103620 0.801386
O O12 0.122853 0.577919 0.399566
O O13 0.007237 0.627453 0.604039
#
# Coordination Sequence:
#
# PCOD9123907 Si02
#       8
#     4   4   2   4   4   4   2   2
#     4  11  23  42  68  98 132 180 226 277 339 405
#     4  10  21  39  70  97 133 176 224 271 348 396
#     4  11  21  40  66 100 128 178 218 283 331 412
#     4  12  25  43  67  99 137 179 227 284 340 405
#     4  12  25  42  69 101 136 178 228 284 343 401
#     4  11  24  43  67  98 133 178 234 279 339 406
#     4  11  25  44  68 104 138 176 230 285 337 408
#     4  10  20  40  68  94 124 180 216 274 334 398
#
# _framework density 26.225908
#
# number of rings (size 3 to 8) (size 9 to 14) (size 15 to 20)
#    0.000    0.923    3.077    4.154    4.308    1.231 
#    0.000    0.000    0.000    0.923    0.000    0.000 
#    0.000    0.000    0.000    0.000    0.000    0.000 
#
# Total GULP energy -72623.639065 kJ/mol
# GULP energy per Si atom -5586.433774 kJ/mol
# Density = 2.616622 g / cm^3
# Si number density = 26.225908 Si / 1000 Ang^3
#
#
#
# Elastic Constant Matrix: (Units=GPa)
#
#
# Indices 1 2 3 4 5 6 
#
# 1 76.4523 -13.8170 21.1892 0.0000 16.7783 0.0000
# 2 -13.8170 103.5952 28.1212 0.0000 11.9408 0.0000
# 3 21.1892 28.1212 196.5592 0.0000 25.4058 0.0000
# 4 0.0000 0.0000 0.0000 46.2733 0.0000 0.4475
# 5 16.7783 11.9408 25.4058 0.0000 51.1515 0.0000
# 6 0.0000 0.0000 0.0000 0.4475 0.0000 24.6277
#
#
#
# Elastic Compliance Matrix: (Units=1/GPa)
#
#
# Indices 1 2 3 4 5 6 
#
# 1 0.015092 0.002966 -0.001413 0.000000 -0.004941 0.000000
# 2 0.002966 0.010773 -0.001507 0.000000 -0.002739 0.000000
# 3 -0.001413 -0.001507 0.005717 0.000000 -0.002024 0.000000
# 4 0.000000 0.000000 0.000000 0.021615 0.000000 -0.000393
# 5 -0.004941 -0.002739 -0.002024 0.000000 0.022815 0.000000
# 6 0.000000 0.000000 0.000000 -0.000393 0.000000 0.040612
#
#
# Mechanical properties :
#
#
# Convention : Reuss Voigt Hill
#
# Bulk Modulus (GPa) = 31.57068 49.73261 40.65165
# Shear Modulus (GPa) = 39.34223 47.15139 43.24681
#
# Velocity S-wave (km/s) = 3.87735 4.24476 4.06521
# Velocity P-wave (km/s) = 5.66650 6.55959 6.12934
#
# Compressibility (1/GPa) = 0.03167496
#
# Stress axis : x y z
#
# Youngs Moduli (GPa) = 66.26048 92.82170 174.91501
#
# Poissons Ratio (x) = -0.27530 0.24708
# Poissons Ratio (y) = -0.19652 0.26359
# Poissons Ratio (z) = 0.09360 0.13988
#
# Static dielectric constant tensor:
#      x y z
#    x 2.071490 0.000000 -0.017560 
#    y 0.000000 2.112180 0.000000 
#    z -0.017560 0.000000 2.120180 
# 
# From -- ./inp_files/26546.got.cif
#   From: 2010.05.17/outbox.cif.g08.bks.cpg/sg5_14_cif.got.tgz:26546.got - 2010.06.03 18:56:24.
