data_PCOD9123011
_publ_section_title
;
Structure prediction by ZEFSAII (Michael W. Deem and Ramdas Pophale) SiO2 
 PCOD9123011
Probable space group: C 2
;
_chemical_formula_sum "Si O2"
_cell_formula_units_Z 26
_cell_length_a 17.420958
_cell_length_b 12.706475
_cell_length_c 5.343531
_cell_angle_alpha 90.000000
_cell_angle_beta 115.358673
_cell_angle_gamma 90.000000
_cell_volume 1068.865444
_symmetry_space_group_name_H-M "C 2"
_symmetry_group_IT_number 5
_symmetry_cell_setting 'monoclinic'
loop_
_space_group_symop_operation_xyz
x,y,z
-x,y,-z
1/2+x,1/2+y,z
1/2-x,1/2+y,-z
loop_
_atom_site_type_symbol
_atom_site_label
_atom_site_fract_x
_atom_site_fract_y
_atom_site_fract_z
Si Si1 0.887324 0.653170 0.984991
Si Si2 0.347179 0.940313 0.783603
Si Si3 0.241217 0.419840 0.831562
Si Si4 0.500000 0.295506 0.500000
Si Si5 0.094866 0.862023 0.233845
Si Si6 0.806108 0.177285 0.226325
Si Si7 0.600078 0.694285 0.143602
O O1 0.951676 0.715769 0.248412
O O2 0.909250 0.533216 0.959265
O O3 0.881974 0.736553 0.749867
O O4 0.791590 0.647492 0.951710
O O5 0.314447 0.976106 0.463378
O O6 0.384759 0.822239 0.833007
O O7 0.272042 0.939843 0.891009
O O8 0.334157 0.415709 0.834776
O O9 0.202244 0.302796 0.761732
O O10 0.574859 0.370589 0.498270
O O11 0.000000 0.883659 0.000000
O O12 0.852609 0.145670 0.548227
O O13 0.858877 0.151781 0.053810
O O14 0.500000 0.674274 0.000000
#
# Coordination Sequence:
#
# PCOD9123011 Si02
#       7
#     4   4   4   2   4   4   4
#     4  10  22  37  57  86 121 150 193 232 300 345
#     4  10  22  36  57  83 116 154 179 238 288 348
#     4   9  20  36  56  81 113 150 198 223 284 344
#     4  10  22  34  60  86 118 152 194 244 292 346
#     4   9  20  35  58  85 112 151 195 246 285 342
#     4   9  20  35  60  80 111 153 192 232 272 344
#     4  10  20  37  58  86 111 147 192 237 282 332
#
# _framework density 24.324860999999999
#
# number of rings (size 3 to 8) (size 9 to 14) (size 15 to 20)
#    0.000    2.462    0.000    0.462   15.077    1.846 
#    5.538    0.000    0.000    5.538    0.000    0.000 
#    0.000    0.000    0.000    0.000    0.000    0.000 
#
# Total GULP energy -72422.355230 kJ/mol
# GULP energy per Si atom -5570.950402 kJ/mol
# Density = 2.426950 g / cm^3
# Si number density = 24.324861 Si / 1000 Ang^3
#
#
#
# Elastic Constant Matrix: (Units=GPa)
#
#
# Indices 1 2 3 4 5 6 
#
# 1 178.6324 5.8719 39.9725 0.0000 6.7375 0.0000
# 2 5.8719 41.2471 12.6351 0.0000 -9.5429 0.0000
# 3 39.9725 12.6351 98.0067 0.0000 -8.0125 0.0000
# 4 0.0000 0.0000 0.0000 17.0339 0.0000 0.6425
# 5 6.7375 -9.5429 -8.0125 0.0000 29.3955 0.0000
# 6 0.0000 0.0000 0.0000 0.6425 0.0000 -7.2560
#
#
#
# Elastic Compliance Matrix: (Units=1/GPa)
#
#
# Indices 1 2 3 4 5 6 
#
# 1 0.006310 -0.000626 -0.002688 0.000000 -0.002382 0.000000
# 2 -0.000626 0.027017 -0.002556 0.000000 0.008218 0.000000
# 3 -0.002688 -0.002556 0.011876 0.000000 0.003023 0.000000
# 4 0.000000 0.000000 0.000000 0.058511 0.000000 0.005181
# 5 -0.002382 0.008218 0.003023 0.000000 0.038057 0.000000
# 6 0.000000 0.000000 0.000000 0.005181 0.000000 -0.137358
#
#
# Mechanical properties :
#
#
# Convention : Reuss Voigt Hill
#
# Bulk Modulus (GPa) = 29.88246 48.31610 39.09928
# Shear Modulus (GPa) = 183.10211 25.12845 104.11528
#
# Velocity S-wave (km/s) = 8.68545 3.21757 6.54942
# Velocity P-wave (km/s) = 10.62517 5.80600 8.56165
#
# Compressibility (1/GPa) = 0.03346444
#
# Stress axis : x y z
#
# Youngs Moduli (GPa) = 158.48093 37.01310 84.20197
#
# Poissons Ratio (x) = 0.02317 0.22630
# Poissons Ratio (y) = 0.09923 0.21521
# Poissons Ratio (z) = 0.42593 0.09460
#
# Static dielectric constant tensor:
#      x y z
#    x 2.003650 0.000000 -0.102890 
#    y 0.000000 2.042510 0.000000 
#    z -0.102890 0.000000 2.063710 
# 
# From -- ./inp_files/8591.got.cif
#   From: 2010.05.17/outbox.cif.g08.bks.cpg/sg5_5_cif.got.tgz:8591.got - 2010.06.03 18:56:24.
