data_PCOD9123779
_publ_section_title
;
Structure prediction by ZEFSAII (Michael W. Deem and Ramdas Pophale) SiO2 
 PCOD9123779
Probable space group: C 2
;
_chemical_formula_sum "Si O2"
_cell_formula_units_Z 32
_cell_length_a 18.805211
_cell_length_b 15.120334
_cell_length_c 12.316697
_cell_angle_alpha 90.000000
_cell_angle_beta 29.200711
_cell_angle_gamma 90.000000
_cell_volume 1708.592138
_symmetry_space_group_name_H-M "C 2"
_symmetry_group_IT_number 5
_symmetry_cell_setting 'monoclinic'
loop_
_space_group_symop_operation_xyz
x,y,z
-x,y,-z
1/2+x,1/2+y,z
1/2-x,1/2+y,-z
loop_
_atom_site_type_symbol
_atom_site_label
_atom_site_fract_x
_atom_site_fract_y
_atom_site_fract_z
Si Si1 0.294330 0.984300 0.108275
Si Si2 0.399118 0.218332 0.301947
Si Si3 0.686639 0.272432 0.827786
Si Si4 0.175026 0.886644 0.462932
Si Si5 0.864004 0.510182 0.372449
Si Si6 0.596630 0.515424 0.160144
Si Si7 0.658270 0.477946 0.845987
Si Si8 0.607420 0.629260 0.452278
O O1 0.233969 0.902388 0.261562
O O2 0.212012 0.999267 0.103245
O O3 0.248343 0.067599 0.246615
O O4 0.466416 0.983577 0.860560
O O5 0.352772 0.252652 0.244923
O O6 0.337010 0.286887 0.474242
O O7 0.355143 0.115928 0.364941
O O8 0.574434 0.227458 0.061258
O O9 0.671654 0.375633 0.860333
O O10 0.844194 0.228834 0.627924
O O11 0.016187 0.932830 0.683824
O O12 0.277850 0.946076 0.404307
O O13 0.785742 0.497146 0.591937
O O14 0.487828 0.599482 0.319585
O O15 0.667022 0.526396 0.949008
O O16 0.500000 0.491993 0.000000
O O17 0.500000 0.601674 0.500000
#
# Coordination Sequence:
#
# PCOD9123779 Si02
#       8
#     4   4   4   4   4   4   4   4
#     4  10  22  37  64  90 121 159 205 258 306 355
#     4  11  21  35  64  90 120 160 204 250 307 365
#     4  11  18  36  58  92 116 152 208 251 290 366
#     4  11  20  40  63  92 122 160 209 251 301 373
#     4  12  23  39  65  95 122 158 208 262 305 360
#     4  10  20  40  63  86 121 165 201 243 314 372
#     4  12  22  41  61  87 126 161 200 253 314 371
#     4   9  19  36  61  88 115 155 208 251 297 363
#
# _framework density 18.728870000000001
#
# number of rings (size 3 to 8) (size 9 to 14) (size 15 to 20)
#    0.000    1.250    6.250    3.000    1.750    0.500 
#    2.250    2.500    8.250    0.000    0.000    0.000 
#    0.000    0.000    0.000    0.000    0.000    0.000 
#
# Total GULP energy -89140.121671 kJ/mol
# GULP energy per Si atom -5571.257604 kJ/mol
# Density = 1.868624 g / cm^3
# Si number density = 18.728870 Si / 1000 Ang^3
#
#
#
# Elastic Constant Matrix: (Units=GPa)
#
#
# Indices 1 2 3 4 5 6 
#
# 1 67.2613 12.3796 48.9628 0.0000 8.6332 0.0000
# 2 12.3796 60.8065 19.1658 0.0000 0.3097 0.0000
# 3 48.9628 19.1658 121.0026 0.0000 15.6653 0.0000
# 4 0.0000 0.0000 0.0000 28.9568 0.0000 1.4377
# 5 8.6332 0.3097 15.6653 0.0000 30.1140 0.0000
# 6 0.0000 0.0000 0.0000 1.4377 0.0000 14.2353
#
#
#
# Elastic Compliance Matrix: (Units=1/GPa)
#
#
# Indices 1 2 3 4 5 6 
#
# 1 0.021340 -0.001779 -0.008110 0.000000 -0.001881 0.000000
# 2 -0.001779 0.017509 -0.002247 0.000000 0.001499 0.000000
# 3 -0.008110 -0.002247 0.012435 0.000000 -0.004121 0.000000
# 4 0.000000 0.000000 0.000000 0.034708 0.000000 -0.003505
# 5 -0.001881 0.001499 -0.004121 0.000000 0.035875 0.000000
# 6 0.000000 0.000000 0.000000 -0.003505 0.000000 0.070602
#
#
# Mechanical properties :
#
#
# Convention : Reuss Voigt Hill
#
# Bulk Modulus (GPa) = 37.02136 45.56519 41.29328
# Shear Modulus (GPa) = 22.14900 25.89869 24.02385
#
# Velocity S-wave (km/s) = 3.44264 3.72267 3.58539
# Velocity P-wave (km/s) = 5.96761 6.54670 6.26385
#
# Compressibility (1/GPa) = 0.02701143
#
# Stress axis : x y z
#
# Youngs Moduli (GPa) = 46.86122 57.11500 80.41643
#
# Poissons Ratio (x) = 0.10160 0.65215
# Poissons Ratio (y) = 0.08336 0.18073
# Poissons Ratio (z) = 0.38003 0.12837
#
# Static dielectric constant tensor:
#      x y z
#    x 1.684190 0.000000 -0.008900 
#    y 0.000000 1.704580 0.000000 
#    z -0.008900 0.000000 1.704500 
# 
# From -- ./inp_files/44948.got.cif
#   From: 2010.05.17/outbox.cif.g08.bks.cpg/sg5_23_cif.got.tgz:44948.got - 2010.06.03 18:56:24.
