data_PCOD9123049
_publ_section_title
;
Structure prediction by ZEFSAII (Michael W. Deem and Ramdas Pophale) SiO2 
 PCOD9123049
Probable space group: C 2
;
_chemical_formula_sum "Si O2"
_cell_formula_units_Z 32
_cell_length_a 24.033333
_cell_length_b 4.991350
_cell_length_c 10.663894
_cell_angle_alpha 90.000000
_cell_angle_beta 107.151801
_cell_angle_gamma 90.000000
_cell_volume 1222.336309
_symmetry_space_group_name_H-M "C 2"
_symmetry_group_IT_number 5
_symmetry_cell_setting 'monoclinic'
loop_
_space_group_symop_operation_xyz
x,y,z
-x,y,-z
1/2+x,1/2+y,z
1/2-x,1/2+y,-z
loop_
_atom_site_type_symbol
_atom_site_label
_atom_site_fract_x
_atom_site_fract_y
_atom_site_fract_z
Si Si1 0.051377 0.916140 0.937650
Si Si2 0.806845 0.614627 0.137922
Si Si3 0.115475 0.625883 0.332182
Si Si4 0.740898 0.069474 0.409578
Si Si5 0.675862 0.604934 0.017135
Si Si6 0.952358 0.038344 0.544630
Si Si7 0.002232 0.430312 0.773903
Si Si8 0.852236 0.319787 0.389236
O O1 0.041889 0.692143 0.822457
O O2 0.116089 0.981831 0.033975
O O3 0.033134 0.198686 0.869104
O O4 0.000000 0.844555 0.000000
O O5 0.824426 0.407280 0.037598
O O6 0.845736 0.538606 0.280518
O O7 0.816032 0.913199 0.097707
O O8 0.738241 0.578541 0.126980
O O9 0.178182 0.640641 0.309681
O O10 0.134881 0.453583 0.467205
O O11 0.063743 0.490956 0.220764
O O12 0.083726 0.884358 0.371414
O O13 0.749723 0.267340 0.536062
O O14 0.793530 0.150583 0.356547
O O15 0.906103 0.126621 0.410806
O O16 0.000000 0.870424 0.500000
O O17 0.985141 0.291915 0.629904
#
# Coordination Sequence:
#
# PCOD9123049 Si02
#       8
#     4   4   4   4   4   4   4   4
#     4  12  26  46  73  99 130 180 231 278 340 395
#     4  10  23  43  68  96 128 171 218 278 339 388
#     4  10  22  42  64  97 141 178 214 272 330 399
#     4  10  20  37  60  86 129 171 210 261 315 373
#     4  10  24  45  67  94 132 166 219 287 337 386
#     4  11  24  41  66 104 143 180 223 263 336 416
#     4  11  25  45  66 100 138 179 219 281 333 390
#     4  10  23  37  64  99 129 174 224 261 330 410
#
# _framework density 26.179375
#
# number of rings (size 3 to 8) (size 9 to 14) (size 15 to 20)
#    0.000    1.500    2.500    1.125    5.250    3.000 
#    0.000    2.500    0.000    0.000    0.000    0.000 
#    0.000    0.000    0.000    0.000    0.000    0.000 
#
# Total GULP energy -89454.827696 kJ/mol
# GULP energy per Si atom -5590.926731 kJ/mol
# Density = 2.611979 g / cm^3
# Si number density = 26.179375 Si / 1000 Ang^3
#
#
#
# Elastic Constant Matrix: (Units=GPa)
#
#
# Indices 1 2 3 4 5 6 
#
# 1 161.3087 20.1090 4.4159 0.0000 17.9562 0.0000
# 2 20.1090 100.2146 12.1528 0.0000 11.3757 0.0000
# 3 4.4159 12.1528 36.6230 0.0000 11.4852 0.0000
# 4 0.0000 0.0000 0.0000 22.2435 0.0000 9.2029
# 5 17.9562 11.3757 11.4852 0.0000 25.9814 0.0000
# 6 0.0000 0.0000 0.0000 9.2029 0.0000 33.1327
#
#
#
# Elastic Compliance Matrix: (Units=1/GPa)
#
#
# Indices 1 2 3 4 5 6 
#
# 1 0.006817 -0.000950 0.000976 0.000000 -0.004727 0.000000
# 2 -0.000950 0.010813 -0.002548 0.000000 -0.002952 0.000000
# 3 0.000976 -0.002548 0.032384 0.000000 -0.013874 0.000000
# 4 0.000000 0.000000 0.000000 0.050794 0.000000 -0.014108
# 5 -0.004727 -0.002952 -0.013874 0.000000 0.049181 0.000000
# 6 0.000000 0.000000 0.000000 -0.014108 0.000000 0.034100
#
#
# Mechanical properties :
#
#
# Convention : Reuss Voigt Hill
#
# Bulk Modulus (GPa) = 22.23697 41.27797 31.75747
# Shear Modulus (GPa) = 24.49483 33.70276 29.09879
#
# Velocity S-wave (km/s) = 3.06216 3.59190 3.33756
# Velocity P-wave (km/s) = 4.58421 5.74490 5.19706
#
# Compressibility (1/GPa) = 0.04497015
#
# Stress axis : x y z
#
# Youngs Moduli (GPa) = 146.68876 92.47956 30.87938
#
# Poissons Ratio (x) = 0.08782 -0.03012
# Poissons Ratio (y) = 0.13930 0.07868
# Poissons Ratio (z) = -0.14310 0.23564
#
# Static dielectric constant tensor:
#      x y z
#    x 2.171210 0.000000 -0.025220 
#    y 0.000000 2.034320 0.000000 
#    z -0.025220 0.000000 2.013760 
# 
# From -- ./inp_files/47053.got.cif
#   From: 2010.05.17/outbox.cif.g08.bks.cpg/sg5_24_cif.got.tgz:47053.got - 2010.06.03 18:56:24.
