data_PCOD9123352
_publ_section_title
;
Structure prediction by ZEFSAII (Michael W. Deem and Ramdas Pophale) SiO2 
 PCOD9123352
Probable space group: C 2
;
_chemical_formula_sum "Si O2"
_cell_formula_units_Z 28
_cell_length_a 7.503337
_cell_length_b 32.566940
_cell_length_c 5.417640
_cell_angle_alpha 90.000000
_cell_angle_beta 71.861141
_cell_angle_gamma 90.000000
_cell_volume 1258.069042
_symmetry_space_group_name_H-M "C 2"
_symmetry_group_IT_number 5
_symmetry_cell_setting 'monoclinic'
loop_
_space_group_symop_operation_xyz
x,y,z
-x,y,-z
1/2+x,1/2+y,z
1/2-x,1/2+y,-z
loop_
_atom_site_type_symbol
_atom_site_label
_atom_site_fract_x
_atom_site_fract_y
_atom_site_fract_z
Si Si1 0.376461 0.263100 0.802180
Si Si2 0.728968 0.986065 0.407652
Si Si3 0.787463 0.578709 0.489900
Si Si4 0.376951 0.353603 0.803233
Si Si5 0.705048 0.678625 0.003975
Si Si6 0.721258 0.942699 0.909358
Si Si7 0.500000 0.116812 0.000000
Si Si8 0.500000 0.643459 0.500000
O O1 0.500000 0.259058 0.500000
O O2 0.283971 0.308389 0.830252
O O3 0.500000 0.262350 0.000000
O O4 0.246752 0.223658 0.888339
O O5 0.500000 0.985280 0.500000
O O6 0.793607 0.963858 0.629279
O O7 0.779383 0.033888 0.404595
O O8 0.792164 0.962550 0.134006
O O9 0.625493 0.611593 0.606657
O O10 0.000000 0.584091 0.500000
O O11 0.840179 0.587226 0.180192
O O12 0.500000 0.357266 0.500000
O O13 0.253629 0.394141 0.878702
O O14 0.500000 0.353406 0.000000
O O15 0.660401 0.672639 0.314287
O O16 0.500000 0.666868 0.000000
O O17 0.881161 0.648764 0.882571
O O18 0.500000 0.950470 0.000000
#
# Coordination Sequence:
#
# PCOD9123352 Si02
#       8
#     4   4   4   4   4   4   2   2
#     4  10  23  42  68  94 127 172 215 262 321 392
#     4   9  20  35  62  89 121 165 208 258 307 378
#     4  10  21  38  63  84 128 169 216 263 327 370
#     4  10  21  40  64  93 127 163 206 254 313 381
#     4  11  23  39  64  94 130 166 219 268 326 389
#     4  10  20  38  62  90 124 160 209 253 312 374
#     4  10  22  38  62  90 118 180 212 268 322 384
#     4  10  24  42  58  98 128 162 224 274 314 398
#
# _framework density 22.256330999999999
#
# number of rings (size 3 to 8) (size 9 to 14) (size 15 to 20)
#    0.000    2.000    0.714    1.714    7.000    1.143 
#    3.857    0.000    4.714    0.000    0.000    0.000 
#    0.000    0.000    0.000    0.000    0.000    0.000 
#
# Total GULP energy -78016.571818 kJ/mol
# GULP energy per Si atom -5572.612273 kJ/mol
# Density = 2.220567 g / cm^3
# Si number density = 22.256331 Si / 1000 Ang^3
#
#
#
# Elastic Constant Matrix: (Units=GPa)
#
#
# Indices 1 2 3 4 5 6 
#
# 1 70.9481 31.3371 35.0637 0.0000 -3.2817 0.0000
# 2 31.3371 175.2552 93.4757 0.0000 -2.7230 0.0000
# 3 35.0637 93.4757 125.6426 0.0000 12.8097 0.0000
# 4 0.0000 0.0000 0.0000 -81.8199 0.0000 -44.8580
# 5 -3.2817 -2.7230 12.8097 0.0000 28.1453 0.0000
# 6 0.0000 0.0000 0.0000 -44.8580 0.0000 21.4224
#
#
#
# Elastic Compliance Matrix: (Units=1/GPa)
#
#
# Indices 1 2 3 4 5 6 
#
# 1 0.016845 -0.000357 -0.004858 0.000000 0.004140 0.000000
# 2 -0.000357 0.009996 -0.007793 0.000000 0.004472 0.000000
# 3 -0.004858 -0.007793 0.015989 0.000000 -0.008598 0.000000
# 4 0.000000 0.000000 0.000000 -0.005690 0.000000 -0.011914
# 5 0.004140 0.004472 -0.008598 0.000000 0.040358 0.000000
# 6 0.000000 0.000000 0.000000 -0.011914 0.000000 0.021732
#
#
# Mechanical properties :
#
#
# Convention : Reuss Voigt Hill
#
# Bulk Modulus (GPa) = 59.47186 76.84432 68.15809
# Shear Modulus (GPa) = 38.21176 7.68086 22.94631
#
# Velocity S-wave (km/s) = 4.14804 1.85973 3.21440
# Velocity P-wave (km/s) = 7.05131 6.26206 6.66837
#
# Compressibility (1/GPa) = 0.01681467
#
# Stress axis : x y z
#
# Youngs Moduli (GPa) = 59.36617 100.04142 62.54205
#
# Poissons Ratio (x) = 0.03568 0.30381
# Poissons Ratio (y) = 0.02118 0.48740
# Poissons Ratio (z) = 0.28838 0.77964
#
# Static dielectric constant tensor:
#      x y z
#    x 1.886890 0.000000 0.192990 
#    y 0.000000 1.792560 0.000000 
#    z 0.192990 0.000000 2.470710 
# 
# From -- ./inp_files/3889.got.cif
#   From: 2010.05.17/outbox.cif.g08.bks.cpg/sg5_2_cif.got.tgz:3889.got - 2010.06.03 18:56:24.
