data_PCOD9123376
_publ_section_title
;
Structure prediction by ZEFSAII (Michael W. Deem and Ramdas Pophale) SiO2 
 PCOD9123376
Probable space group: C 2
;
_chemical_formula_sum "Si O2"
_cell_formula_units_Z 32
_cell_length_a 20.450262
_cell_length_b 14.859168
_cell_length_c 9.177283
_cell_angle_alpha 90.000000
_cell_angle_beta 37.410890
_cell_angle_gamma 90.000000
_cell_volume 1694.232268
_symmetry_space_group_name_H-M "C 2"
_symmetry_group_IT_number 5
_symmetry_cell_setting 'monoclinic'
loop_
_space_group_symop_operation_xyz
x,y,z
-x,y,-z
1/2+x,1/2+y,z
1/2-x,1/2+y,-z
loop_
_atom_site_type_symbol
_atom_site_label
_atom_site_fract_x
_atom_site_fract_y
_atom_site_fract_z
Si Si1 0.536751 0.287190 0.102351
Si Si2 0.393665 0.789067 0.855507
Si Si3 0.181432 0.958318 0.863420
Si Si4 0.543525 0.580272 0.263570
Si Si5 0.121797 0.337386 0.455790
Si Si6 0.232426 0.690995 0.652304
Si Si7 0.194101 0.803016 0.423715
Si Si8 0.848770 0.008773 0.410225
O O1 0.430090 0.274953 0.386194
O O2 0.500000 0.308342 0.000000
O O3 0.607772 0.371309 0.026989
O O4 0.619923 0.206056 0.935158
O O5 0.435596 0.686326 0.781805
O O6 0.498271 0.844462 0.725212
O O7 0.374907 0.821908 0.723837
O O8 0.285544 0.793851 0.140808
O O9 0.302123 0.921113 0.639166
O O10 0.143483 0.999142 0.777231
O O11 0.155651 0.030722 0.031516
O O12 0.500000 0.558235 0.500000
O O13 0.456203 0.542603 0.302411
O O14 0.176352 0.248647 0.427554
O O15 0.224313 0.740905 0.509665
O O16 0.263305 0.587614 0.589342
O O17 0.184479 0.909009 0.479562
#
# Coordination Sequence:
#
# PCOD9123376 Si02
#       8
#     4   4   4   4   4   4   4   4
#     4   9  16  36  56  83 124 155 188 253 322 365
#     4  11  23  42  60  89 129 168 207 260 317 389
#     4  11  21  36  64  92 122 162 208 271 317 365
#     4  12  23  38  64  98 122 159 219 269 320 378
#     4  10  21  43  58  81 131 170 194 252 333 368
#     4  10  20  38  63  89 125 161 202 267 328 370
#     4  11  22  37  62  93 121 166 215 257 319 386
#     4  12  21  39  63  98 124 160 218 271 314 377
#
# _framework density 18.887611
#
# number of rings (size 3 to 8) (size 9 to 14) (size 15 to 20)
#    0.000    1.250    7.500    1.125    1.750    0.500 
#    0.000    6.875    0.000    0.000    0.000    0.000 
#    0.000    0.000    0.000    0.000    0.000    0.000 
#
# Total GULP energy -89237.070181 kJ/mol
# GULP energy per Si atom -5577.316886 kJ/mol
# Density = 1.884462 g / cm^3
# Si number density = 18.887611 Si / 1000 Ang^3
#
#
#
# Elastic Constant Matrix: (Units=GPa)
#
#
# Indices 1 2 3 4 5 6 
#
# 1 48.6514 11.6571 24.7410 0.0000 -9.4061 0.0000
# 2 11.6571 76.6907 19.1594 0.0000 -3.1361 0.0000
# 3 24.7410 19.1594 143.7619 0.0000 -12.4363 0.0000
# 4 0.0000 0.0000 0.0000 21.2044 0.0000 -9.6494
# 5 -9.4061 -3.1361 -12.4363 0.0000 24.1079 0.0000
# 6 0.0000 0.0000 0.0000 -9.6494 0.0000 20.1348
#
#
#
# Elastic Compliance Matrix: (Units=1/GPa)
#
#
# Indices 1 2 3 4 5 6 
#
# 1 0.024237 -0.002584 -0.003180 0.000000 0.007480 0.000000
# 2 -0.002584 0.013781 -0.001386 0.000000 0.000070 0.000000
# 3 -0.003180 -0.001386 0.007918 0.000000 0.002664 0.000000
# 4 0.000000 0.000000 0.000000 0.060313 0.000000 0.028904
# 5 0.007480 0.000070 0.002664 0.000000 0.045782 0.000000
# 6 0.000000 0.000000 0.000000 0.028904 0.000000 0.063517
#
#
# Mechanical properties :
#
#
# Convention : Reuss Voigt Hill
#
# Bulk Modulus (GPa) = 31.60818 42.24657 36.92738
# Shear Modulus (GPa) = 20.79926 27.32586 24.06256
#
# Velocity S-wave (km/s) = 3.32205 3.80776 3.57317
# Velocity P-wave (km/s) = 5.61123 6.46126 6.05119
#
# Compressibility (1/GPa) = 0.03163738
#
# Stress axis : x y z
#
# Youngs Moduli (GPa) = 41.25994 72.56249 126.28971
#
# Poissons Ratio (x) = 0.18748 0.40156
# Poissons Ratio (y) = 0.10661 0.17503
# Poissons Ratio (z) = 0.13119 0.10057
#
# Static dielectric constant tensor:
#      x y z
#    x 1.690300 0.000000 -0.022120 
#    y 0.000000 1.651320 0.000000 
#    z -0.022120 0.000000 1.683700 
# 
# From -- ./inp_files/29820.got.cif
#   From: 2010.05.17/outbox.cif.g08.bks.cpg/sg5_15_cif.got.tgz:29820.got - 2010.06.03 18:56:24.
