data_PCOD9123639
_publ_section_title
;
Structure prediction by ZEFSAII (Michael W. Deem and Ramdas Pophale) SiO2 
 PCOD9123639
Probable space group: C 2
;
_chemical_formula_sum "Si O2"
_cell_formula_units_Z 28
_cell_length_a 7.006821
_cell_length_b 9.331174
_cell_length_c 24.187786
_cell_angle_alpha 90.000000
_cell_angle_beta 47.719493
_cell_angle_gamma 90.000000
_cell_volume 1170.046144
_symmetry_space_group_name_H-M "C 2"
_symmetry_group_IT_number 5
_symmetry_cell_setting 'monoclinic'
loop_
_space_group_symop_operation_xyz
x,y,z
-x,y,-z
1/2+x,1/2+y,z
1/2-x,1/2+y,-z
loop_
_atom_site_type_symbol
_atom_site_label
_atom_site_fract_x
_atom_site_fract_y
_atom_site_fract_z
Si Si1 0.493596 0.527540 0.581297
Si Si2 0.092642 0.955001 0.893001
Si Si3 0.779969 0.670903 0.173282
Si Si4 0.280651 0.229768 0.822275
Si Si5 0.603828 0.874853 0.567800
Si Si6 0.014487 0.951806 0.699677
Si Si7 0.600842 0.959947 0.053763
O O1 0.567279 0.699987 0.566594
O O2 0.279719 0.451057 0.582514
O O3 0.750651 0.439963 0.513815
O O4 0.412929 0.495264 0.659506
O O5 0.271521 0.830390 0.834707
O O6 0.219275 0.983867 0.927565
O O7 0.123720 0.085181 0.845301
O O8 0.791283 0.930017 0.965818
O O9 0.561394 0.571275 0.240612
O O10 0.978849 0.692139 0.185511
O O11 0.928465 0.602312 0.091566
O O12 0.383846 0.308233 0.748390
O O13 0.089208 0.331740 0.893897
O O14 0.318132 0.931354 0.634344
#
# Coordination Sequence:
#
# PCOD9123639 Si02
#       7
#     4   4   4   4   4   4   4
#     4  11  28  53  82 122 156 205 266 325 393 478
#     4  10  20  39  65  92 131 182 250 306 376 450
#     4  10  22  43  60 101 137 184 247 305 381 463
#     4  10  22  43  60 100 137 188 244 305 386 460
#     4  11  28  53  84 118 155 208 264 323 398 476
#     4  11  25  49  72 108 159 199 248 313 401 469
#     4   9  20  38  63  91 131 184 237 319 373 446
#
# _framework density 23.930679000000001
#
# number of rings (size 3 to 8) (size 9 to 14) (size 15 to 20)
#    0.000    1.714    0.000    2.143    8.000    4.000 
#   33.429    0.000    0.000    0.000    0.000    0.000 
#    0.000    0.000    0.000    0.000    0.000    0.000 
#
# Total GULP energy -78169.068765 kJ/mol
# GULP energy per Si atom -5583.504912 kJ/mol
# Density = 2.387621 g / cm^3
# Si number density = 23.930679 Si / 1000 Ang^3
#
#
#
# Elastic Constant Matrix: (Units=GPa)
#
#
# Indices 1 2 3 4 5 6 
#
# 1 89.9662 14.7331 26.3639 0.0000 1.2706 0.0000
# 2 14.7331 135.6581 36.5994 0.0000 1.8652 0.0000
# 3 26.3639 36.5994 116.8783 -0.0002 1.5979 0.0000
# 4 0.0000 0.0000 -0.0002 -6.6840 0.0000 -8.3617
# 5 1.2706 1.8652 1.5979 0.0000 40.6036 0.0000
# 6 0.0000 0.0000 0.0000 -8.3617 0.0000 23.0803
#
#
#
# Elastic Compliance Matrix: (Units=1/GPa)
#
#
# Indices 1 2 3 4 5 6 
#
# 1 0.011953 -0.000621 -0.002498 0.000000 -0.000247 0.000000
# 2 -0.000621 0.008087 -0.002389 0.000000 -0.000258 0.000000
# 3 -0.002498 -0.002389 0.009870 0.000000 -0.000201 0.000000
# 4 0.000000 0.000000 0.000000 -0.102952 0.000000 -0.037298
# 5 -0.000247 -0.000258 -0.000201 0.000000 0.024656 0.000000
# 6 0.000000 0.000000 0.000000 -0.037298 0.000000 0.029814
#
#
# Mechanical properties :
#
#
# Convention : Reuss Voigt Hill
#
# Bulk Modulus (GPa) = 52.92686 55.32171 54.12429
# Shear Modulus (GPa) = -3974.28842 29.05374 -1972.61734
#
# Velocity S-wave (km/s) = -40.79652 3.48814 -28.74186
# Velocity P-wave (km/s) = 46.87191 6.27619 32.84498
#
# Compressibility (1/GPa) = 0.01889400
#
# Stress axis : x y z
#
# Youngs Moduli (GPa) = 83.66422 123.65660 101.31478
#
# Poissons Ratio (x) = 0.07675 0.25312
# Poissons Ratio (y) = 0.05193 0.24202
# Poissons Ratio (z) = 0.20902 0.29539
#
# Static dielectric constant tensor:
#      x y z
#    x 2.078440 0.000000 -0.006010 
#    y 0.000000 1.944540 0.000000 
#    z -0.006010 0.000000 1.865180 
# 
# From -- ./inp_files/70146.got.cif
#   From: 2010.05.17/outbox.cif.g08.bks.cpg/sg5_36_cif.got.tgz:70146.got - 2010.06.03 18:56:24.
