data_PCOD9123667
_publ_section_title
;
Structure prediction by ZEFSAII (Michael W. Deem and Ramdas Pophale) SiO2 
 PCOD9123667
Probable space group: C 2
;
_chemical_formula_sum "Si O2"
_cell_formula_units_Z 32
_cell_length_a 16.500007
_cell_length_b 9.793317
_cell_length_c 17.024682
_cell_angle_alpha 90.000000
_cell_angle_beta 32.513456
_cell_angle_gamma 90.000000
_cell_volume 1478.664109
_symmetry_space_group_name_H-M "C 2"
_symmetry_group_IT_number 5
_symmetry_cell_setting 'monoclinic'
loop_
_space_group_symop_operation_xyz
x,y,z
-x,y,-z
1/2+x,1/2+y,z
1/2-x,1/2+y,-z
loop_
_atom_site_type_symbol
_atom_site_label
_atom_site_fract_x
_atom_site_fract_y
_atom_site_fract_z
Si Si1 0.980868 0.875000 0.822577
Si Si2 0.044967 0.285179 0.544159
Si Si3 0.248751 0.474114 0.883911
Si Si4 0.200606 0.277820 0.147446
Si Si5 0.695334 0.140513 0.575430
Si Si6 0.258015 0.052377 0.636802
Si Si7 0.155975 0.249207 0.833413
Si Si8 0.022037 0.396032 0.793333
O O1 0.882663 0.924982 0.829696
O O2 0.080983 0.749946 0.707627
O O3 0.860587 0.832400 0.987689
O O4 0.087839 0.995831 0.764800
O O5 0.143016 0.185092 0.520095
O O6 0.145750 0.415272 0.441678
O O7 0.000000 0.213103 0.500000
O O8 0.896955 0.348606 0.706040
O O9 0.282636 0.626945 0.831216
O O10 0.219321 0.362862 0.840897
O O11 0.100429 0.486461 0.059843
O O12 0.084867 0.293367 0.168542
O O13 0.702708 0.137123 0.474746
O O14 0.632940 0.991187 0.652081
O O15 0.267232 0.133332 0.711089
O O16 0.111292 0.320434 0.788236
O O17 0.000000 0.196860 0.000000
#
# Coordination Sequence:
#
# PCOD9123667 Si02
#       8
#     4   4   4   4   4   4   4   4
#     4  10  23  40  70  99 125 186 229 275 335 409
#     4  11  26  41  63  98 134 177 221 287 342 396
#     4  10  21  39  66 103 131 166 229 280 341 391
#     4  11  21  43  66  98 133 174 233 282 329 416
#     4  11  22  43  66  97 135 176 231 270 343 418
#     4  11  24  45  67  95 138 183 230 271 347 410
#     4  10  23  40  65  98 136 173 220 288 347 400
#     4  10  20  39  66  98 129 175 216 283 334 406
#
# _framework density 21.641157
#
# number of rings (size 3 to 8) (size 9 to 14) (size 15 to 20)
#    0.000    1.500    2.500    2.250    3.500    2.000 
#    0.000    1.875    0.000    0.000    0.000    0.000 
#    0.000    0.000    0.000    0.000    0.000    0.000 
#
# Total GULP energy -89315.686041 kJ/mol
# GULP energy per Si atom -5582.230378 kJ/mol
# Density = 2.159190 g / cm^3
# Si number density = 21.641157 Si / 1000 Ang^3
#
#
#
# Elastic Constant Matrix: (Units=GPa)
#
#
# Indices 1 2 3 4 5 6 
#
# 1 44.6779 10.1543 32.2653 0.0000 9.2814 0.0000
# 2 10.1543 64.6340 38.3702 0.0000 1.4354 0.0000
# 3 32.2653 38.3702 136.5133 0.0000 4.1627 0.0000
# 4 0.0000 0.0000 0.0000 31.3110 0.0000 12.3751
# 5 9.2814 1.4354 4.1627 0.0000 27.9554 0.0000
# 6 0.0000 0.0000 0.0000 12.3751 0.0000 25.5636
#
#
#
# Elastic Compliance Matrix: (Units=1/GPa)
#
#
# Indices 1 2 3 4 5 6 
#
# 1 0.028936 -0.000541 -0.006424 0.000000 -0.008623 0.000000
# 2 -0.000541 0.018581 -0.005094 0.000000 -0.000016 0.000000
# 3 -0.006424 -0.005094 0.010249 0.000000 0.000868 0.000000
# 4 0.000000 0.000000 0.000000 0.039494 0.000000 -0.019119
# 5 -0.008623 -0.000016 0.000868 0.000000 0.038505 0.000000
# 6 0.000000 0.000000 0.000000 -0.019119 0.000000 0.048373
#
#
# Mechanical properties :
#
#
# Convention : Reuss Voigt Hill
#
# Bulk Modulus (GPa) = 29.71972 45.26721 37.49347
# Shear Modulus (GPa) = 22.78177 27.96837 25.37507
#
# Velocity S-wave (km/s) = 3.24806 3.59885 3.42795
# Velocity P-wave (km/s) = 5.27535 6.18317 5.74721
#
# Compressibility (1/GPa) = 0.03364769
#
# Stress axis : x y z
#
# Youngs Moduli (GPa) = 34.55909 53.81737 97.56963
#
# Poissons Ratio (x) = 0.02910 0.62680
# Poissons Ratio (y) = 0.01869 0.49706
# Poissons Ratio (z) = 0.22201 0.27417
#
# Static dielectric constant tensor:
#      x y z
#    x 1.786200 0.000000 -0.006760 
#    y 0.000000 1.841890 0.000000 
#    z -0.006760 0.000000 1.836410 
# 
# From -- ./inp_files/54568.got.cif
#   From: 2010.05.17/outbox.cif.g08.bks.cpg/sg5_28_cif.got.tgz:54568.got - 2010.06.03 18:56:24.
