data_PCOD9123553
_publ_section_title
;
Structure prediction by ZEFSAII (Michael W. Deem and Ramdas Pophale) SiO2 
 PCOD9123553
Probable space group: C 2
;
_chemical_formula_sum "Si O2"
_cell_formula_units_Z 30
_cell_length_a 20.022041
_cell_length_b 11.879953
_cell_length_c 5.591104
_cell_angle_alpha 90.000000
_cell_angle_beta 110.361798
_cell_angle_gamma 90.000000
_cell_volume 1246.804871
_symmetry_space_group_name_H-M "C 2"
_symmetry_group_IT_number 5
_symmetry_cell_setting 'monoclinic'
loop_
_space_group_symop_operation_xyz
x,y,z
-x,y,-z
1/2+x,1/2+y,z
1/2-x,1/2+y,-z
loop_
_atom_site_type_symbol
_atom_site_label
_atom_site_fract_x
_atom_site_fract_y
_atom_site_fract_z
Si Si1 0.421716 0.611550 0.401448
Si Si2 0.825772 0.694586 0.290194
Si Si3 0.056347 0.321304 0.251563
Si Si4 0.780393 0.446639 0.199108
Si Si5 0.140271 0.680457 0.168085
Si Si6 0.000000 0.531937 0.000000
Si Si7 0.664469 0.754238 0.023222
Si Si8 0.722878 0.514080 0.623492
O O1 0.500000 0.555250 0.500000
O O2 0.436044 0.733734 0.532946
O O3 0.382987 0.646219 0.105155
O O4 0.358155 0.556492 0.475497
O O5 0.831216 0.557563 0.276108
O O6 0.864112 0.736667 0.576463
O O7 0.851934 0.745084 0.071802
O O8 0.741249 0.712875 0.200969
O O9 0.022043 0.444212 0.238859
O O10 0.127671 0.328594 0.182158
O O11 0.000000 0.265734 0.000000
O O12 0.822847 0.333725 0.191346
O O13 0.739714 0.446684 0.400929
O O14 0.734341 0.457923 0.898038
O O15 0.214842 0.610079 0.284870
O O16 0.070168 0.604512 0.048612
#
# Coordination Sequence:
#
# PCOD9123553 Si02
#       8
#     4   4   4   4   4   2   4   4
#     4  12  23  37  62  96 137 178 215 276 340 410
#     4  10  22  38  61  87 125 170 220 256 315 391
#     4  10  22  35  52  94 141 165 203 253 343 418
#     4  10  22  37  63  86 125 172 218 268 312 387
#     4  10  20  39  58  84 125 170 205 260 306 389
#     4  10  22  38  60  96 136 164 214 266 344 404
#     4  12  23  39  63  95 133 174 219 274 334 402
#     4  10  22  41  57  87 129 169 227 254 318 396
#
# _framework density 24.061506000000001
#
# number of rings (size 3 to 8) (size 9 to 14) (size 15 to 20)
#    0.400    1.067    4.000    3.200    5.600    0.533 
#    2.400    0.000    0.000    0.000    6.933    0.000 
#    0.000    0.000    0.000    0.000    0.000    0.000 
#
# Total GULP energy -83698.947715 kJ/mol
# GULP energy per Si atom -5579.929848 kJ/mol
# Density = 2.400674 g / cm^3
# Si number density = 24.061506 Si / 1000 Ang^3
#
#
#
# Elastic Constant Matrix: (Units=GPa)
#
#
# Indices 1 2 3 4 5 6 
#
# 1 138.1679 10.6552 51.9198 0.0000 -10.6886 0.0000
# 2 10.6552 19.8814 11.7735 0.0000 -6.3857 0.0000
# 3 51.9198 11.7735 151.0592 0.0000 -30.4768 0.0000
# 4 0.0000 0.0000 0.0000 17.0443 0.0000 -4.1436
# 5 -10.6886 -6.3857 -30.4768 0.0000 36.4240 0.0000
# 6 0.0000 0.0000 0.0000 -4.1436 0.0000 38.4368
#
#
#
# Elastic Compliance Matrix: (Units=1/GPa)
#
#
# Indices 1 2 3 4 5 6 
#
# 1 0.008477 -0.003026 -0.002746 0.000000 -0.000341 0.000000
# 2 -0.003026 0.055332 -0.001798 0.000000 0.007308 0.000000
# 3 -0.002746 -0.001798 0.008997 0.000000 0.006406 0.000000
# 4 0.000000 0.000000 0.000000 0.060250 0.000000 0.006495
# 5 -0.000341 0.007308 0.006406 0.000000 0.033996 0.000000
# 6 0.000000 0.000000 0.000000 0.006495 0.000000 0.026717
#
#
# Mechanical properties :
#
#
# Convention : Reuss Voigt Hill
#
# Bulk Modulus (GPa) = 17.34177 50.86728 34.10452
# Shear Modulus (GPa) = 21.91728 34.03168 27.97448
#
# Velocity S-wave (km/s) = 3.02136 3.76488 3.41343
# Velocity P-wave (km/s) = 4.40391 6.33131 5.45344
#
# Compressibility (1/GPa) = 0.05766424
#
# Stress axis : x y z
#
# Youngs Moduli (GPa) = 117.97216 18.07266 111.15375
#
# Poissons Ratio (x) = 0.05469 0.30527
# Poissons Ratio (y) = 0.35699 0.19986
# Poissons Ratio (z) = 0.32400 0.03250
#
# Static dielectric constant tensor:
#      x y z
#    x 1.988440 0.000000 -0.021750 
#    y 0.000000 1.984950 0.000000 
#    z -0.021750 0.000000 1.993370 
# 
# From -- ./inp_files/8685.got.cif
#   From: 2010.05.17/outbox.cif.g08.bks.cpg/sg5_5_cif.got.tgz:8685.got - 2010.06.03 18:56:24.
