data_PCOD9123405
_publ_section_title
;
Structure prediction by ZEFSAII (Michael W. Deem and Ramdas Pophale) SiO2 
 PCOD9123405
Probable space group: C 2
;
_chemical_formula_sum "Si O2"
_cell_formula_units_Z 26
_cell_length_a 11.424504
_cell_length_b 13.078523
_cell_length_c 8.689159
_cell_angle_alpha 90.000000
_cell_angle_beta 61.691656
_cell_angle_gamma 90.000000
_cell_volume 1143.030788
_symmetry_space_group_name_H-M "C 2"
_symmetry_group_IT_number 5
_symmetry_cell_setting 'monoclinic'
loop_
_space_group_symop_operation_xyz
x,y,z
-x,y,-z
1/2+x,1/2+y,z
1/2-x,1/2+y,-z
loop_
_atom_site_type_symbol
_atom_site_label
_atom_site_fract_x
_atom_site_fract_y
_atom_site_fract_z
Si Si1 0.660992 0.241680 0.738369
Si Si2 0.824393 0.379112 0.850729
Si Si3 0.766134 0.296618 0.333062
Si Si4 0.299489 0.040798 0.368446
Si Si5 0.500000 0.004884 0.500000
Si Si6 0.917588 0.874994 0.807580
Si Si7 0.000000 0.280025 0.000000
Si Si8 0.000000 0.031351 0.500000
O O1 0.768190 0.282629 0.791854
O O2 0.718215 0.260737 0.529363
O O3 0.629560 0.122888 0.785316
O O4 0.531118 0.311750 0.819898
O O5 0.915868 0.441847 0.678399
O O6 0.690436 0.423933 0.010165
O O7 0.910968 0.346122 0.941133
O O8 0.800521 0.419327 0.331841
O O9 0.653942 0.299032 0.270872
O O10 0.890761 0.233678 0.185144
O O11 0.145194 0.077319 0.446211
O O12 0.381257 0.056141 0.476059
O O13 0.978832 0.961794 0.663290
#
# Coordination Sequence:
#
# PCOD9123405 Si02
#       8
#     4   4   4   4   2   4   2   2
#     4  12  22  40  66  96 131 176 224 284 332 407
#     4  11  22  38  67  98 129 176 226 279 337 399
#     4  10  20  41  63  89 129 178 207 276 335 401
#     4  11  24  38  70  97 133 172 231 272 341 396
#     4  12  22  44  68 104 130 178 232 284 334 412
#     4  10  20  39  66  90 129 178 221 263 341 405
#     4  10  20  38  64  88 124 176 220 266 338 382
#     4  10  20  46  62  94 136 190 212 268 350 406
#
# _framework density 22.746545000000001
#
# number of rings (size 3 to 8) (size 9 to 14) (size 15 to 20)
#    0.000    1.231    6.154    0.462    2.154    1.846 
#    2.769    0.000    3.385    0.000    0.000    0.000 
#    0.000    0.000    0.000    0.000    0.000    0.000 
#
# Total GULP energy -72437.982822 kJ/mol
# GULP energy per Si atom -5572.152525 kJ/mol
# Density = 2.269477 g / cm^3
# Si number density = 22.746545 Si / 1000 Ang^3
#
#
#
# Elastic Constant Matrix: (Units=GPa)
#
#
# Indices 1 2 3 4 5 6 
#
# 1 169.9059 32.4350 24.7534 0.0000 9.8726 0.0000
# 2 32.4350 58.9550 15.9504 0.0000 13.2256 0.0000
# 3 24.7534 15.9504 147.8504 0.0000 -9.5828 0.0000
# 4 0.0000 0.0000 0.0000 -116.7156 0.0000 -36.1812
# 5 9.8726 13.2256 -9.5828 0.0000 37.1632 0.0000
# 6 0.0000 0.0000 0.0000 -36.1812 0.0000 -9.9258
#
#
#
# Elastic Compliance Matrix: (Units=1/GPa)
#
#
# Indices 1 2 3 4 5 6 
#
# 1 0.006676 -0.003267 -0.000819 0.000000 -0.000822 0.000000
# 2 -0.003267 0.020952 -0.002177 0.000000 -0.007150 0.000000
# 3 -0.000819 -0.002177 0.007322 0.000000 0.002880 0.000000
# 4 0.000000 0.000000 0.000000 0.065912 0.000000 -0.240261
# 5 -0.000822 -0.007150 0.002880 0.000000 0.030414 0.000000
# 6 0.000000 0.000000 0.000000 -0.240261 0.000000 0.775048
#
#
# Mechanical properties :
#
#
# Convention : Reuss Voigt Hill
#
# Bulk Modulus (GPa) = 44.59150 58.10985 51.35068
# Shear Modulus (GPa) = 5.39767 2.34255 3.87011
#
# Velocity S-wave (km/s) = 1.54211 1.01591 1.30579
# Velocity P-wave (km/s) = 4.77672 5.19406 4.98975
#
# Compressibility (1/GPa) = 0.02242580
#
# Stress axis : x y z
#
# Youngs Moduli (GPa) = 149.78269 47.72700 136.57180
#
# Poissons Ratio (x) = 0.15594 0.11179
# Poissons Ratio (y) = 0.48937 0.29729
# Poissons Ratio (z) = 0.12261 0.10389
#
# Static dielectric constant tensor:
#      x y z
#    x 1.900800 0.000000 -0.087110 
#    y 0.000000 1.806770 0.000000 
#    z -0.087110 0.000000 1.935330 
# 
# From -- ./inp_files/20301.got.cif
#   From: 2010.05.17/outbox.cif.g08.bks.cpg/sg5_11_cif.got.tgz:20301.got - 2010.06.03 18:56:24.
