data_PCOD9123921
_publ_section_title
;
Structure prediction by ZEFSAII (Michael W. Deem and Ramdas Pophale) SiO2 
 PCOD9123921
Probable space group: C 2
;
_chemical_formula_sum "Si O2"
_cell_formula_units_Z 16
_cell_length_a 18.276486
_cell_length_b 4.755258
_cell_length_c 13.780814
_cell_angle_alpha 90.000000
_cell_angle_beta 154.085133
_cell_angle_gamma 90.000000
_cell_volume 523.429338
_symmetry_space_group_name_H-M "C 2"
_symmetry_group_IT_number 5
_symmetry_cell_setting 'monoclinic'
loop_
_space_group_symop_operation_xyz
x,y,z
-x,y,-z
1/2+x,1/2+y,z
1/2-x,1/2+y,-z
loop_
_atom_site_type_symbol
_atom_site_label
_atom_site_fract_x
_atom_site_fract_y
_atom_site_fract_z
Si Si1 0.397489 0.643410 0.782833
Si Si2 0.276505 0.592161 0.325138
Si Si3 0.431713 0.141517 0.108059
Si Si4 0.522333 0.089234 0.416291
O O1 0.329424 0.338246 0.750744
O O2 0.521672 0.460713 0.859817
O O3 0.410556 0.927291 0.723809
O O4 0.500000 0.768675 0.000000
O O5 0.308347 0.283250 0.413998
O O6 0.449826 0.757605 0.541742
O O7 0.213096 0.564636 0.140218
O O8 0.395975 0.131890 0.179580
O O9 0.500000 0.185015 0.500000
#
# Coordination Sequence:
#
# PCOD9123921 Si02
#       4
#     4   4   4   4
#     4  10  20  40  68  99 130 164 213 271 341 405
#     4  11  24  44  68  97 136 175 217 280 336 387
#     4  11  23  42  68  97 133 170 212 276 337 390
#     4  12  27  44  66  99 134 181 236 265 313 402
#
# _framework density 30.567643
#
# number of rings (size 3 to 8) (size 9 to 14) (size 15 to 20)
#    0.000    1.000    0.000    9.000    0.000    6.000 
#    0.000    5.000    0.000    0.000    0.000    0.000 
#    0.000    0.000    0.000    0.000    0.000    0.000 
#
# Total GULP energy -44591.323967 kJ/mol
# GULP energy per Si atom -5573.915496 kJ/mol
# Density = 3.049807 g / cm^3
# Si number density = 30.567643 Si / 1000 Ang^3
#
#
#
# Elastic Constant Matrix: (Units=GPa)
#
#
# Indices 1 2 3 4 5 6 
#
# 1 149.9738 54.4783 59.1478 0.0004 -46.2436 0.0001
# 2 54.4783 247.9150 56.4606 0.0055 -20.2550 0.0014
# 3 59.1478 56.4606 130.5775 0.0010 -50.3282 0.0004
# 4 0.0004 0.0055 0.0010 43.6449 0.0002 -0.8924
# 5 -46.2436 -20.2550 -50.3282 0.0002 73.0187 -0.0002
# 6 0.0001 0.0014 0.0004 -0.8924 -0.0002 35.5807
#
#
#
# Elastic Compliance Matrix: (Units=1/GPa)
#
#
# Indices 1 2 3 4 5 6 
#
# 1 0.009173 -0.001213 -0.002071 0.000000 0.004045 0.000000
# 2 -0.001213 0.004636 -0.001709 -0.000001 -0.000661 0.000000
# 3 -0.002071 -0.001709 0.011776 0.000000 0.006330 0.000000
# 4 0.000000 -0.000001 0.000000 0.022924 0.000000 0.000575
# 5 0.004045 -0.000661 0.006330 0.000000 0.020437 0.000000
# 6 0.000000 0.000000 0.000000 0.000575 0.000000 0.028120
#
#
# Mechanical properties :
#
#
# Convention : Reuss Voigt Hill
#
# Bulk Modulus (GPa) = 64.12060 96.51552 80.31806
# Shear Modulus (GPa) = 44.54300 54.34082 49.44191
#
# Velocity S-wave (km/s) = 3.82146 4.22088 4.02613
# Velocity P-wave (km/s) = 6.36346 7.44294 6.92427
#
# Compressibility (1/GPa) = 0.01559561
#
# Stress axis : x y z
#
# Youngs Moduli (GPa) = 109.01845 215.72100 84.92173
#
# Poissons Ratio (x) = 0.26177 0.17589
# Poissons Ratio (y) = 0.13229 0.14517
# Poissons Ratio (z) = 0.22580 0.36876
#
# Static dielectric constant tensor:
#      x y z
#    x 2.724600 0.000000 0.306960 
#    y 0.000000 2.192030 0.000000 
#    z 0.306960 0.000000 2.410600 
# 
# From -- ./inp_files/56443.got.cif
#   From: 2010.05.17/outbox.cif.g08.bks.cpg/sg5_29_cif.got.tgz:56443.got - 2010.06.03 18:56:24.
