data_PCOD9124390
_publ_section_title
;
Structure prediction by ZEFSAII (Michael W. Deem and Ramdas Pophale) SiO2 
 PCOD9124390
Probable space group: C 2
;
_chemical_formula_sum "Si O2"
_cell_formula_units_Z 32
_cell_length_a 17.023704
_cell_length_b 14.922849
_cell_length_c 11.373426
_cell_angle_alpha 90.000000
_cell_angle_beta 149.141263
_cell_angle_gamma 90.000000
_cell_volume 1482.004154
_symmetry_space_group_name_H-M "C 2"
_symmetry_group_IT_number 5
_symmetry_cell_setting 'monoclinic'
loop_
_space_group_symop_operation_xyz
x,y,z
-x,y,-z
1/2+x,1/2+y,z
1/2-x,1/2+y,-z
loop_
_atom_site_type_symbol
_atom_site_label
_atom_site_fract_x
_atom_site_fract_y
_atom_site_fract_z
Si Si1 0.670379 0.002790 0.667877
Si Si2 0.851512 0.122458 0.753051
Si Si3 0.192314 0.032143 0.906366
Si Si4 0.897022 0.824456 0.203359
Si Si5 0.850351 0.496305 0.881807
Si Si6 0.390301 0.628772 0.527311
Si Si7 0.318815 0.801492 0.296551
Si Si8 0.768887 0.797242 0.288155
O O1 0.500000 0.004530 0.500000
O O2 0.705062 0.063904 0.601094
O O3 0.713923 0.900315 0.694233
O O4 0.764061 0.038328 0.901315
O O5 0.879025 0.134904 0.652169
O O6 0.829293 0.216844 0.788424
O O7 0.000000 0.075387 0.000000
O O8 0.066212 0.107951 0.716621
O O9 0.121471 0.931954 0.802957
O O10 0.333653 0.029143 0.996100
O O11 0.827705 0.779408 0.231301
O O12 0.077819 0.805642 0.435162
O O13 0.794560 0.795277 0.960888
O O14 0.705119 0.543152 0.635929
O O15 0.823819 0.389878 0.838813
O O16 0.000000 0.521313 0.000000
O O17 0.311621 0.716173 0.371094
O O18 0.500000 0.804882 0.500000
#
# Coordination Sequence:
#
# PCOD9124390 Si02
#       8
#     4   4   4   4   4   4   4   4
#     4  10  24  46  71  99 133 182 235 291 341 409
#     4  12  27  43  64 100 137 186 239 284 347 410
#     4  10  20  45  72  97 138 185 227 276 354 418
#     4   9  20  41  73 101 131 180 236 281 347 415
#     4  11  24  41  69 106 137 173 229 297 342 411
#     4  12  25  43  68 100 145 183 224 281 357 424
#     4  10  23  43  70 103 134 178 229 286 350 413
#     4  10  22  42  68  99 138 180 232 286 345 412
#
# _framework density 21.592382000000001
#
# number of rings (size 3 to 8) (size 9 to 14) (size 15 to 20)
#    0.000    1.500    2.500    1.500    5.250    3.000 
#    2.250    0.625    0.000    0.000    0.000    0.000 
#    0.000    0.000    0.000    0.000    0.000    0.000 
#
# Total GULP energy -89391.503864 kJ/mol
# GULP energy per Si atom -5586.968992 kJ/mol
# Density = 2.154324 g / cm^3
# Si number density = 21.592382 Si / 1000 Ang^3
#
#
#
# Elastic Constant Matrix: (Units=GPa)
#
#
# Indices 1 2 3 4 5 6 
#
# 1 113.5213 39.4621 25.9145 0.0000 0.1406 0.0000
# 2 39.4621 84.0460 14.5949 0.0000 -11.4603 0.0000
# 3 25.9145 14.5949 79.9829 0.0000 -3.5251 0.0000
# 4 0.0000 0.0000 0.0000 26.4527 0.0000 -4.2854
# 5 0.1406 -11.4603 -3.5251 0.0000 33.0725 0.0000
# 6 0.0000 0.0000 0.0000 -4.2854 0.0000 4.9632
#
#
#
# Elastic Compliance Matrix: (Units=1/GPa)
#
#
# Indices 1 2 3 4 5 6 
#
# 1 0.011211 -0.005064 -0.002801 0.000000 -0.002101 0.000000
# 2 -0.005064 0.015136 -0.000893 0.000000 0.005171 0.000000
# 3 -0.002801 -0.000893 0.013624 0.000000 0.001155 0.000000
# 4 0.000000 0.000000 0.000000 0.043951 0.000000 0.037949
# 5 -0.002101 0.005171 0.001155 0.000000 0.032161 0.000000
# 6 0.000000 0.000000 0.000000 0.037949 0.000000 0.234251
#
#
# Mechanical properties :
#
#
# Convention : Reuss Voigt Hill
#
# Bulk Modulus (GPa) = 44.53385 48.61036 46.57211
# Shear Modulus (GPa) = 13.32138 26.06958 19.69548
#
# Velocity S-wave (km/s) = 2.48654 3.47846 3.02346
# Velocity P-wave (km/s) = 5.37712 6.22050 5.81412
#
# Compressibility (1/GPa) = 0.02245483
#
# Stress axis : x y z
#
# Youngs Moduli (GPa) = 89.19564 66.06644 73.39946
#
# Poissons Ratio (x) = 0.33457 0.20559
# Poissons Ratio (y) = 0.45170 0.06557
# Poissons Ratio (z) = 0.24984 0.05902
#
# Static dielectric constant tensor:
#      x y z
#    x 1.794380 0.000000 0.009450 
#    y 0.000000 1.777470 0.000000 
#    z 0.009450 0.000000 1.808460 
# 
# From -- ./inp_files/45000.got.cif
#   From: 2010.05.17/outbox.cif.g08.bks.cpg/sg5_23_cif.got.tgz:45000.got - 2010.06.03 18:56:24.
