data_PCOD9124070
_publ_section_title
;
Structure prediction by ZEFSAII (Michael W. Deem and Ramdas Pophale) SiO2 
 PCOD9124070
Probable space group: C 2
;
_chemical_formula_sum "Si O2"
_cell_formula_units_Z 26
_cell_length_a 16.741783
_cell_length_b 7.668828
_cell_length_c 8.922038
_cell_angle_alpha 90.000000
_cell_angle_beta 103.123283
_cell_angle_gamma 90.000000
_cell_volume 1115.583055
_symmetry_space_group_name_H-M "C 2"
_symmetry_group_IT_number 5
_symmetry_cell_setting 'monoclinic'
loop_
_space_group_symop_operation_xyz
x,y,z
-x,y,-z
1/2+x,1/2+y,z
1/2-x,1/2+y,-z
loop_
_atom_site_type_symbol
_atom_site_label
_atom_site_fract_x
_atom_site_fract_y
_atom_site_fract_z
Si Si1 0.242466 0.896550 0.811931
Si Si2 0.551595 0.238024 0.235543
Si Si3 0.208660 0.803798 0.141147
Si Si4 0.619984 0.867995 0.752812
Si Si5 0.000000 0.583495 0.500000
Si Si6 0.084119 0.380039 0.074549
Si Si7 0.430567 0.473817 0.336828
O O1 0.331581 0.805690 0.815605
O O2 0.160372 0.889249 0.675530
O O3 0.270409 0.099178 0.827656
O O4 0.212572 0.842383 0.965859
O O5 0.624033 0.341862 0.186736
O O6 0.471741 0.358895 0.221040
O O7 0.559813 0.185408 0.412968
O O8 0.553597 0.052059 0.150302
O O9 0.286009 0.896897 0.251212
O O10 0.557660 0.973469 0.628760
O O11 0.592261 0.667403 0.727118
O O12 0.615195 0.926149 0.922176
O O13 0.000000 0.275248 0.000000
O O14 0.500000 0.492042 0.500000
#
# Coordination Sequence:
#
# PCOD9124070 Si02
#       7
#     4   4   4   4   2   4   4
#     4   9  21  38  67  91 130 169 215 279 322 375
#     4  11  24  41  65  99 131 169 229 264 336 389
#     4   9  21  43  61  96 127 170 223 275 322 392
#     4  10  22  44  66  88 136 175 225 270 330 386
#     4  12  22  40  66  92 128 192 206 272 324 414
#     4  10  20  41  70  95 124 172 230 270 316 392
#     4  11  23  42  64  97 141 175 207 276 339 391
#
# _framework density 23.306198999999999
#
# number of rings (size 3 to 8) (size 9 to 14) (size 15 to 20)
#    0.000    1.846    3.077    0.000    4.308    0.000 
#   16.615    0.000    0.000    0.000    0.000    0.000 
#    0.000    0.000    0.000    0.000    0.000    0.000 
#
# Total GULP energy -72369.779051 kJ/mol
# GULP energy per Si atom -5566.906081 kJ/mol
# Density = 2.325315 g / cm^3
# Si number density = 23.306199 Si / 1000 Ang^3
#
#
#
# Elastic Constant Matrix: (Units=GPa)
#
#
# Indices 1 2 3 4 5 6 
#
# 1 197.4442 17.3761 38.8361 0.0000 27.0873 0.0000
# 2 17.3761 44.9652 19.1525 0.0000 3.8555 0.0000
# 3 38.8361 19.1525 79.9837 0.0000 21.4345 0.0000
# 4 0.0000 0.0000 0.0000 25.3015 0.0000 -2.2021
# 5 27.0873 3.8555 21.4345 0.0000 45.4870 0.0000
# 6 0.0000 0.0000 0.0000 -2.2021 0.0000 24.6714
#
#
#
# Elastic Compliance Matrix: (Units=1/GPa)
#
#
# Indices 1 2 3 4 5 6 
#
# 1 0.005891 -0.001258 -0.001886 0.000000 -0.002513 0.000000
# 2 -0.001258 0.025059 -0.005747 0.000000 0.001333 0.000000
# 3 -0.001886 -0.005747 0.016439 0.000000 -0.006136 0.000000
# 4 0.000000 0.000000 0.000000 0.039833 0.000000 0.003555
# 5 -0.002513 0.001333 -0.006136 0.000000 0.026259 0.000000
# 6 0.000000 0.000000 0.000000 0.003555 0.000000 0.040850
#
#
# Mechanical properties :
#
#
# Convention : Reuss Voigt Hill
#
# Bulk Modulus (GPa) = 33.77515 52.56917 43.17216
# Shear Modulus (GPa) = 27.47530 35.56054 31.51792
#
# Velocity S-wave (km/s) = 3.43721 3.91038 3.68141
# Velocity P-wave (km/s) = 5.50236 6.55690 6.05264
#
# Compressibility (1/GPa) = 0.02960757
#
# Stress axis : x y z
#
# Youngs Moduli (GPa) = 169.74803 39.90564 60.83175
#
# Poissons Ratio (x) = 0.05019 0.11472
# Poissons Ratio (y) = 0.21351 0.34961
# Poissons Ratio (z) = 0.32011 0.22934
#
# Static dielectric constant tensor:
#      x y z
#    x 2.005160 0.000000 0.041630 
#    y 0.000000 1.956890 0.000000 
#    z 0.041630 0.000000 1.862730 
# 
# From -- ./inp_files/26797.got.cif
#   From: 2010.05.17/outbox.cif.g08.bks.cpg/sg5_14_cif.got.tgz:26797.got - 2010.06.03 18:56:24.
