data_PCOD9124641
_publ_section_title
;
Structure prediction by ZEFSAII (Michael W. Deem and Ramdas Pophale) SiO2 
 PCOD9124641
Probable space group: C 2
;
_chemical_formula_sum "Si O2"
_cell_formula_units_Z 24
_cell_length_a 12.540257
_cell_length_b 5.256383
_cell_length_c 24.045737
_cell_angle_alpha 90.000000
_cell_angle_beta 136.251933
_cell_angle_gamma 90.000000
_cell_volume 1096.015282
_symmetry_space_group_name_H-M "C 2"
_symmetry_group_IT_number 5
_symmetry_cell_setting 'monoclinic'
loop_
_space_group_symop_operation_xyz
x,y,z
-x,y,-z
1/2+x,1/2+y,z
1/2-x,1/2+y,-z
loop_
_atom_site_type_symbol
_atom_site_label
_atom_site_fract_x
_atom_site_fract_y
_atom_site_fract_z
Si Si1 0.061219 0.158260 0.960687
Si Si2 0.876882 0.359253 0.497400
Si Si3 0.571878 0.230348 0.276659
Si Si4 0.027920 0.667528 0.377034
Si Si5 0.433637 0.158151 0.103617
Si Si6 0.275430 0.233222 0.368837
O O1 0.012848 0.398016 0.905059
O O2 0.012177 0.897366 0.912599
O O3 0.247548 0.158757 0.033287
O O4 0.000000 0.177916 0.000000
O O5 0.957535 0.390826 0.587726
O O6 0.707381 0.249446 0.442922
O O7 0.839173 0.629240 0.451780
O O8 0.000000 0.239193 0.500000
O O9 0.489455 0.185971 0.187574
O O10 0.671412 0.489486 0.311072
O O11 0.674948 0.984544 0.330189
O O12 0.466476 0.228613 0.292438
O O13 0.912318 0.788736 0.377497
#
# Coordination Sequence:
#
# PCOD9124641 Si02
#       6
#     4   4   4   4   4   4
#     4  10  21  41  64  88 116 154 193 236 287 344
#     4   9  19  36  58  85 114 155 205 249 285 342
#     4  11  23  39  58  88 123 154 190 242 293 347
#     4  10  21  37  60  86 117 158 197 242 299 342
#     4  10  22  38  61  91 120 149 195 239 283 349
#     4  10  23  39  58  86 120 156 201 242 287 344
#
# _framework density 21.897504999999999
#
# number of rings (size 3 to 8) (size 9 to 14) (size 15 to 20)
#    0.000    2.000    0.000    2.500    0.000    9.333 
#    0.000    4.167    0.000    0.000    0.000    0.000 
#    0.000    0.000    0.000    0.000    0.000    0.000 
#
# Total GULP energy -66944.299389 kJ/mol
# GULP energy per Si atom -5578.691616 kJ/mol
# Density = 2.184767 g / cm^3
# Si number density = 21.897505 Si / 1000 Ang^3
#
#
#
# Elastic Constant Matrix: (Units=GPa)
#
#
# Indices 1 2 3 4 5 6 
#
# 1 129.3972 29.5738 10.0966 0.0000 -32.0856 0.0000
# 2 29.5738 109.6575 11.9673 -0.0001 0.7800 0.0000
# 3 10.0966 11.9673 83.0651 0.0001 -35.6920 0.0000
# 4 0.0000 -0.0001 0.0001 26.0323 0.0000 -8.0838
# 5 -32.0856 0.7800 -35.6920 0.0000 32.7924 0.0000
# 6 0.0000 0.0000 0.0000 -8.0838 0.0000 18.9120
#
#
#
# Elastic Compliance Matrix: (Units=1/GPa)
#
#
# Indices 1 2 3 4 5 6 
#
# 1 0.014131 -0.005007 0.009385 0.000000 0.024161 0.000000
# 2 -0.005007 0.011215 -0.006062 0.000000 -0.011764 0.000000
# 3 0.009385 -0.006062 0.029642 0.000000 0.041591 0.000000
# 4 0.000000 0.000000 0.000000 0.044293 0.000000 0.018933
# 5 0.024161 -0.011764 0.041591 0.000000 0.099684 0.000000
# 6 0.000000 0.000000 0.000000 0.018933 0.000000 0.060969
#
#
# Mechanical properties :
#
#
# Convention : Reuss Voigt Hill
#
# Bulk Modulus (GPa) = 19.37191 47.26612 33.31902
# Shear Modulus (GPa) = 17.82476 33.57947 25.70211
#
# Velocity S-wave (km/s) = 2.85618 3.92022 3.42971
# Velocity P-wave (km/s) = 4.44329 6.49021 5.56173
#
# Compressibility (1/GPa) = 0.05162113
#
# Stress axis : x y z
#
# Youngs Moduli (GPa) = 70.76492 89.16673 33.73558
#
# Poissons Ratio (x) = 0.44648 -0.31663
# Poissons Ratio (y) = 0.35434 0.20450
# Poissons Ratio (z) = -0.66416 0.54053
#
# Static dielectric constant tensor:
#      x y z
#    x 1.809120 0.000000 -0.005980 
#    y 0.000000 1.869640 0.000000 
#    z -0.005980 0.000000 1.811020 
# 
# From -- ./inp_files/68153.got.cif
#   From: 2010.05.17/outbox.cif.g08.bks.cpg/sg5_35_cif.got.tgz:68153.got - 2010.06.03 18:56:24.
