data_PCOD9124489
_publ_section_title
;
Structure prediction by ZEFSAII (Michael W. Deem and Ramdas Pophale) SiO2 
 PCOD9124489
Probable space group: C 2
;
_chemical_formula_sum "Si O2"
_cell_formula_units_Z 28
_cell_length_a 10.757602
_cell_length_b 15.818181
_cell_length_c 8.094249
_cell_angle_alpha 90.000000
_cell_angle_beta 109.952631
_cell_angle_gamma 90.000000
_cell_volume 1294.687353
_symmetry_space_group_name_H-M "C 2"
_symmetry_group_IT_number 5
_symmetry_cell_setting 'monoclinic'
loop_
_space_group_symop_operation_xyz
x,y,z
-x,y,-z
1/2+x,1/2+y,z
1/2-x,1/2+y,-z
loop_
_atom_site_type_symbol
_atom_site_label
_atom_site_fract_x
_atom_site_fract_y
_atom_site_fract_z
Si Si1 0.960617 0.380300 0.223937
Si Si2 0.705011 0.203565 0.370148
Si Si3 0.784989 0.384067 0.470594
Si Si4 0.199939 0.059394 0.366932
Si Si5 0.801990 0.529363 0.043008
Si Si6 0.000000 0.233758 0.000000
Si Si7 0.097545 0.122134 0.792483
Si Si8 0.500000 0.168416 0.000000
O O1 0.855854 0.367619 0.324434
O O2 0.883813 0.443027 0.067930
O O3 0.093298 0.416298 0.362883
O O4 0.013248 0.296235 0.159798
O O5 0.725744 0.291316 0.477335
O O6 0.700746 0.122505 0.490672
O O7 0.832472 0.176853 0.316168
O O8 0.584497 0.213526 0.183784
O O9 0.687895 0.463804 0.430161
O O10 0.254122 0.040906 0.208616
O O11 0.056096 0.103270 0.303387
O O12 0.896088 0.606813 0.040614
O O13 0.679832 0.536945 0.861662
O O14 0.109348 0.172132 0.972841
#
# Coordination Sequence:
#
# PCOD9124489 Si02
#       8
#     4   4   4   4   4   2   4   2
#     4  10  21  35  61  88 125 157 214 257 308 368
#     4  11  23  42  66  89 130 168 211 269 317 379
#     4  10  22  39  59  93 121 167 209 261 309 376
#     4  11  22  39  68  91 126 168 212 262 318 375
#     4  10  21  40  61  95 124 166 210 260 315 380
#     4  12  19  36  61  94 120 160 208 258 304 380
#     4  11  22  39  64  95 126 165 210 257 322 376
#     4  10  23  40  61  88 126 168 206 260 330 372
#
# _framework density 21.626843000000001
#
# number of rings (size 3 to 8) (size 9 to 14) (size 15 to 20)
#    0.000    1.429    2.857    2.571    2.000    2.857 
#    5.143    0.000    6.286    0.000    0.000    0.000 
#    0.000    0.000    0.000    0.000    0.000    0.000 
#
# Total GULP energy -78002.012091 kJ/mol
# GULP energy per Si atom -5571.572292 kJ/mol
# Density = 2.157762 g / cm^3
# Si number density = 21.626843 Si / 1000 Ang^3
#
#
#
# Elastic Constant Matrix: (Units=GPa)
#
#
# Indices 1 2 3 4 5 6 
#
# 1 48.8927 0.2813 12.0198 0.0000 8.9386 0.0000
# 2 0.2813 118.3800 30.4518 0.0000 18.4258 0.0000
# 3 12.0198 30.4518 58.8016 0.0000 22.5840 0.0000
# 4 0.0000 0.0000 0.0000 29.5278 0.0000 1.2911
# 5 8.9386 18.4258 22.5840 0.0000 26.4116 0.0000
# 6 0.0000 0.0000 0.0000 1.2911 0.0000 14.6047
#
#
#
# Elastic Compliance Matrix: (Units=1/GPa)
#
#
# Indices 1 2 3 4 5 6 
#
# 1 0.022318 0.001691 -0.003103 0.000000 -0.006080 0.000000
# 2 0.001691 0.010123 -0.003955 0.000000 -0.004253 0.000000
# 3 -0.003103 -0.003955 0.027138 0.000000 -0.019396 0.000000
# 4 0.000000 0.000000 0.000000 0.033998 0.000000 -0.003005
# 5 -0.006080 -0.004253 -0.019396 0.000000 0.059472 0.000000
# 6 0.000000 0.000000 0.000000 -0.003005 0.000000 0.068737
#
#
# Mechanical properties :
#
#
# Convention : Reuss Voigt Hill
#
# Bulk Modulus (GPa) = 20.47236 34.62002 27.54619
# Shear Modulus (GPa) = 20.09657 26.33025 23.21341
#
# Velocity S-wave (km/s) = 3.05165 3.49303 3.27977
# Velocity P-wave (km/s) = 4.68012 5.68427 5.20646
#
# Compressibility (1/GPa) = 0.04884634
#
# Stress axis : x y z
#
# Youngs Moduli (GPa) = 44.80776 98.78907 36.84863
#
# Poissons Ratio (x) = -0.16710 0.11434
# Poissons Ratio (y) = -0.07579 0.14572
# Poissons Ratio (z) = 0.13903 0.39067
#
# Static dielectric constant tensor:
#      x y z
#    x 1.766900 0.000000 -0.010040 
#    y 0.000000 1.816900 0.000000 
#    z -0.010040 0.000000 1.878240 
# 
# From -- ./inp_files/20370.got.cif
#   From: 2010.05.17/outbox.cif.g08.bks.cpg/sg5_11_cif.got.tgz:20370.got - 2010.06.03 18:56:24.
