data_PCOD9124186
_publ_section_title
;
Structure prediction by ZEFSAII (Michael W. Deem and Ramdas Pophale) SiO2 
 PCOD9124186
Probable space group: C 2
;
_chemical_formula_sum "Si O2"
_cell_formula_units_Z 32
_cell_length_a 15.810377
_cell_length_b 16.371116
_cell_length_c 7.279550
_cell_angle_alpha 90.000000
_cell_angle_beta 132.677506
_cell_angle_gamma 90.000000
_cell_volume 1385.221392
_symmetry_space_group_name_H-M "C 2"
_symmetry_group_IT_number 5
_symmetry_cell_setting 'monoclinic'
loop_
_space_group_symop_operation_xyz
x,y,z
-x,y,-z
1/2+x,1/2+y,z
1/2-x,1/2+y,-z
loop_
_atom_site_type_symbol
_atom_site_label
_atom_site_fract_x
_atom_site_fract_y
_atom_site_fract_z
Si Si1 0.366403 0.207290 0.274245
Si Si2 0.271391 0.865348 0.875479
Si Si3 0.880175 0.012617 0.392043
Si Si4 0.865945 0.158105 0.648959
Si Si5 0.201218 0.075839 0.115642
Si Si6 0.975894 0.326024 0.683547
Si Si7 0.758689 0.897779 0.729690
Si Si8 0.366452 0.228989 0.842986
O O1 0.500000 0.221440 0.500000
O O2 0.293887 0.280685 0.258376
O O3 0.324692 0.119734 0.284405
O O4 0.343123 0.211210 0.022809
O O5 0.209881 0.941925 0.689497
O O6 0.407107 0.854570 0.048082
O O7 0.254105 0.882513 0.068747
O O8 0.898462 0.079631 0.574887
O O9 0.837008 0.060670 0.148013
O O10 0.000000 0.972936 0.500000
O O11 0.730444 0.178002 0.407208
O O12 0.124716 0.136402 0.123497
O O13 0.932664 0.238368 0.686062
O O14 0.200437 0.990128 0.219909
O O15 0.000000 0.319517 0.500000
O O16 0.867060 0.385692 0.541966
O O17 0.840176 0.825646 0.776398
O O18 0.500000 0.210894 0.000000
#
# Coordination Sequence:
#
# PCOD9124186 Si02
#       8
#     4   4   4   4   4   4   4   4
#     4  11  22  39  65  94 134 175 220 279 337 401
#     4   9  20  40  64  95 128 177 222 268 340 403
#     4  11  24  44  68  95 140 175 220 282 337 399
#     4  11  23  42  69 101 133 178 224 279 336 400
#     4  11  24  43  65 103 130 169 229 272 338 402
#     4   9  18  39  73  92 130 178 223 274 337 404
#     4   8  19  39  64  94 129 176 217 274 340 392
#     4  10  20  42  67  96 133 178 222 275 337 403
#
# _framework density 23.100999999999999
#
# number of rings (size 3 to 8) (size 9 to 14) (size 15 to 20)
#    0.000    2.000    1.250    2.250    1.750    3.000 
#   15.750    0.000    0.000    0.000    0.000    0.000 
#    0.000    0.000    0.000    0.000    0.000    0.000 
#
# Total GULP energy -89548.375451 kJ/mol
# GULP energy per Si atom -5596.773466 kJ/mol
# Density = 2.304842 g / cm^3
# Si number density = 23.101000 Si / 1000 Ang^3
#
#
#
# Elastic Constant Matrix: (Units=GPa)
#
#
# Indices 1 2 3 4 5 6 
#
# 1 61.3348 17.2523 10.5888 0.0000 -3.8746 0.0000
# 2 17.2523 68.3847 17.6051 0.0000 1.6117 0.0000
# 3 10.5888 17.6051 95.3480 0.0000 15.7967 0.0000
# 4 0.0000 0.0000 0.0000 34.5418 0.0000 4.5796
# 5 -3.8746 1.6117 15.7967 0.0000 45.4829 0.0000
# 6 0.0000 0.0000 0.0000 4.5796 0.0000 28.5691
#
#
#
# Elastic Compliance Matrix: (Units=1/GPa)
#
#
# Indices 1 2 3 4 5 6 
#
# 1 0.017888 -0.004156 -0.001587 0.000000 0.002222 0.000000
# 2 -0.004156 0.016328 -0.002545 0.000000 -0.000049 0.000000
# 3 -0.001587 -0.002545 0.011822 0.000000 -0.004151 0.000000
# 4 0.000000 0.000000 0.000000 0.029579 0.000000 -0.004742
# 5 0.002222 -0.000049 -0.004151 0.000000 0.023619 0.000000
# 6 0.000000 0.000000 0.000000 -0.004742 0.000000 0.035763
#
#
# Mechanical properties :
#
#
# Convention : Reuss Voigt Hill
#
# Bulk Modulus (GPa) = 33.94465 35.10665 34.52565
# Shear Modulus (GPa) = 30.97972 33.69353 32.33663
#
# Velocity S-wave (km/s) = 3.66602 3.82322 3.74544
# Velocity P-wave (km/s) = 5.71362 5.89231 5.80365
#
# Compressibility (1/GPa) = 0.02945973
#
# Stress axis : x y z
#
# Youngs Moduli (GPa) = 55.90492 61.24398 84.58957
#
# Poissons Ratio (x) = 0.25456 0.13426
# Poissons Ratio (y) = 0.23237 0.21529
# Poissons Ratio (z) = 0.08873 0.15588
#
# Static dielectric constant tensor:
#      x y z
#    x 1.888930 0.000000 -0.010500 
#    y 0.000000 1.810690 0.000000 
#    z -0.010500 0.000000 1.883830 
# 
# From -- ./inp_files/46608.got.cif
#   From: 2010.05.17/outbox.cif.g08.bks.cpg/sg5_24_cif.got.tgz:46608.got - 2010.06.03 18:56:24.
