data_PCOD9124948
_publ_section_title
;
Structure prediction by ZEFSAII (Michael W. Deem and Ramdas Pophale) SiO2 
 PCOD9124948
Probable space group: C 2
;
_chemical_formula_sum "Si O2"
_cell_formula_units_Z 20
_cell_length_a 14.425868
_cell_length_b 7.936668
_cell_length_c 10.511112
_cell_angle_alpha 90.000000
_cell_angle_beta 131.876246
_cell_angle_gamma 90.000000
_cell_volume 896.076466
_symmetry_space_group_name_H-M "C 2"
_symmetry_group_IT_number 5
_symmetry_cell_setting 'monoclinic'
loop_
_space_group_symop_operation_xyz
x,y,z
-x,y,-z
1/2+x,1/2+y,z
1/2-x,1/2+y,-z
loop_
_atom_site_type_symbol
_atom_site_label
_atom_site_fract_x
_atom_site_fract_y
_atom_site_fract_z
Si Si1 0.500000 0.522550 0.500000
Si Si2 0.867075 0.288855 0.513439
Si Si3 0.890926 0.424111 0.133104
Si Si4 0.638054 0.295811 0.804971
Si Si5 0.759080 0.135535 0.665927
Si Si6 0.500000 0.726368 0.000000
O O1 0.381046 0.637186 0.427185
O O2 0.530638 0.419378 0.656895
O O3 0.781400 0.231676 0.553571
O O4 0.812697 0.462020 0.412379
O O5 0.010589 0.330806 0.684446
O O6 0.905062 0.622387 0.170205
O O7 0.937687 0.351883 0.042607
O O8 0.743584 0.379178 0.992097
O O9 0.694682 0.242011 0.718813
O O10 0.898845 0.109521 0.842288
#
# Coordination Sequence:
#
# PCOD9124948 Si02
#       6
#     2   4   4   4   4   2
#     4  12  24  38  60  88 120 158 200 244 292 346
#     4  11  22  40  61  89 120 156 196 243 293 350
#     4  10  21  39  62  87 120 155 195 242 293 350
#     4  11  22  40  61  89 120 156 196 243 293 350
#     4  10  21  39  62  87 120 155 195 242 293 350
#     4   8  20  40  64  90 120 154 196 240 292 354
#
# _framework density 22.319524000000001
#
# number of rings (size 3 to 8) (size 9 to 14) (size 15 to 20)
#    0.000    1.600    0.000    4.800    0.000    0.000 
#    0.000    4.000    0.000    0.000    0.000    0.000 
#    0.000    0.000    0.000    0.000    0.000    0.000 
#
# Total GULP energy -55833.517478 kJ/mol
# GULP energy per Si atom -5583.351748 kJ/mol
# Density = 2.226872 g / cm^3
# Si number density = 22.319524 Si / 1000 Ang^3
#
#
#
# Elastic Constant Matrix: (Units=GPa)
#
#
# Indices 1 2 3 4 5 6 
#
# 1 39.8482 16.9897 30.1836 0.0000 6.7757 0.0000
# 2 16.9897 117.7877 63.2405 0.0000 8.8209 0.0000
# 3 30.1836 63.2405 68.1594 0.0000 -0.8521 0.0000
# 4 0.0000 0.0000 0.0000 31.2062 0.0000 7.2242
# 5 6.7757 8.8209 -0.8521 0.0000 16.1863 0.0000
# 6 0.0000 0.0000 0.0000 7.2242 0.0000 33.3758
#
#
#
# Elastic Compliance Matrix: (Units=1/GPa)
#
#
# Indices 1 2 3 4 5 6 
#
# 1 0.052758 0.015082 -0.037761 0.000000 -0.032292 0.000000
# 2 0.015082 0.023038 -0.028309 0.000000 -0.020359 0.000000
# 3 -0.037761 -0.028309 0.058088 0.000000 0.034292 0.000000
# 4 0.000000 0.000000 0.000000 0.033735 0.000000 -0.007302
# 5 -0.032292 -0.020359 0.034292 0.000000 0.088198 0.000000
# 6 0.000000 0.000000 0.000000 -0.007302 0.000000 0.031542
#
#
# Mechanical properties :
#
#
# Convention : Reuss Voigt Hill
#
# Bulk Modulus (GPa) = 31.33891 49.62476 40.48184
# Shear Modulus (GPa) = 12.50085 23.84574 18.17329
#
# Velocity S-wave (km/s) = 2.36918 3.27215 2.85657
# Velocity P-wave (km/s) = 4.64279 6.04633 5.39044
#
# Compressibility (1/GPa) = 0.03190921
#
# Stress axis : x y z
#
# Youngs Moduli (GPa) = 18.95446 43.40599 17.21515
#
# Poissons Ratio (x) = -0.65466 0.65006
# Poissons Ratio (y) = -0.28588 0.48735
# Poissons Ratio (z) = 0.71574 1.22879
#
# Static dielectric constant tensor:
#      x y z
#    x 1.842240 0.000000 0.018790 
#    y 0.000000 1.797910 0.000000 
#    z 0.018790 0.000000 1.876560 
# 
# From -- ./inp_files/43703.got.cif
#   From: 2010.05.17/outbox.cif.g08.bks.cpg/sg5_22_cif.got.tgz:43703.got - 2010.06.03 18:56:24.
