data_PCOD9124037
_publ_section_title
;
Structure prediction by ZEFSAII (Michael W. Deem and Ramdas Pophale) SiO2 
 PCOD9124037
Probable space group: C 2
;
_chemical_formula_sum "Si O2"
_cell_formula_units_Z 30
_cell_length_a 20.706341
_cell_length_b 9.340742
_cell_length_c 13.623726
_cell_angle_alpha 90.000000
_cell_angle_beta 31.489119
_cell_angle_gamma 90.000000
_cell_volume 1376.357084
_symmetry_space_group_name_H-M "C 2"
_symmetry_group_IT_number 5
_symmetry_cell_setting 'monoclinic'
loop_
_space_group_symop_operation_xyz
x,y,z
-x,y,-z
1/2+x,1/2+y,z
1/2-x,1/2+y,-z
loop_
_atom_site_type_symbol
_atom_site_label
_atom_site_fract_x
_atom_site_fract_y
_atom_site_fract_z
Si Si1 0.500000 0.944500 0.500000
Si Si2 0.192308 0.661982 0.755154
Si Si3 0.308459 0.598184 0.988811
Si Si4 0.746592 0.286026 0.890829
Si Si5 0.617668 0.438243 0.780366
Si Si6 0.866767 0.339801 0.216051
Si Si7 0.688505 0.115869 0.354297
Si Si8 0.915776 0.174142 0.337864
O O1 0.384246 0.847120 0.684738
O O2 0.551492 0.050989 0.519137
O O3 0.181374 0.725653 0.877904
O O4 0.125537 0.767977 0.764747
O O5 0.146202 0.502576 0.799275
O O6 0.335805 0.667555 0.538811
O O7 0.251678 0.660435 0.963633
O O8 0.440426 0.673027 0.828495
O O9 0.320348 0.426134 0.977828
O O10 0.231875 0.634969 0.185668
O O11 0.734543 0.490834 0.691917
O O12 0.612782 0.531307 0.689086
O O13 0.500000 0.473192 0.000000
O O14 0.745465 0.254184 0.334952
O O15 0.877306 0.306071 0.317845
O O16 0.000000 0.287041 0.000000
#
# Coordination Sequence:
#
# PCOD9124037 Si02
#       8
#     2   4   4   4   4   4   4   4
#     4  10  20  44  66  92 124 178 216 272 332 380
#     4  12  24  40  62 101 138 163 219 278 333 386
#     4  11  22  42  67  92 129 176 228 264 330 395
#     4  11  25  42  66  97 131 182 221 276 325 397
#     4  11  19  41  69  91 126 174 218 261 335 397
#     4  11  23  42  68 100 132 174 218 275 326 398
#     4  10  20  41  67  91 125 174 219 266 323 393
#     4  11  22  41  67  95 130 174 216 275 332 395
#
# _framework density 21.796668
#
# number of rings (size 3 to 8) (size 9 to 14) (size 15 to 20)
#    0.000    1.067    5.333    2.800    1.867    0.000 
#    4.800    0.667    2.933    0.000    0.000    0.000 
#    0.000    0.000    0.000    0.000    0.000    0.000 
#
# Total GULP energy -83768.626177 kJ/mol
# GULP energy per Si atom -5584.575078 kJ/mol
# Density = 2.174706 g / cm^3
# Si number density = 21.796668 Si / 1000 Ang^3
#
#
#
# Elastic Constant Matrix: (Units=GPa)
#
#
# Indices 1 2 3 4 5 6 
#
# 1 81.8702 29.7181 0.3765 0.0000 2.2025 0.0000
# 2 29.7181 144.8609 -8.9973 0.0000 1.3795 0.0000
# 3 0.3765 -8.9973 46.8019 0.0000 -3.4889 0.0000
# 4 0.0000 0.0000 0.0000 17.0014 0.0000 1.3246
# 5 2.2025 1.3795 -3.4889 0.0000 33.0936 0.0000
# 6 0.0000 0.0000 0.0000 1.3246 0.0000 13.4521
#
#
#
# Elastic Compliance Matrix: (Units=1/GPa)
#
#
# Indices 1 2 3 4 5 6 
#
# 1 0.013239 -0.002751 -0.000698 0.000000 -0.000840 0.000000
# 2 -0.002751 0.007559 0.001477 0.000000 0.000024 0.000000
# 3 -0.000698 0.001477 0.021827 0.000000 0.002286 0.000000
# 4 0.000000 0.000000 0.000000 0.059274 0.000000 -0.005837
# 5 -0.000840 0.000024 0.002286 0.000000 0.030513 0.000000
# 6 0.000000 0.000000 0.000000 -0.005837 0.000000 0.074912
#
#
# Mechanical properties :
#
#
# Convention : Reuss Voigt Hill
#
# Bulk Modulus (GPa) = 25.85303 35.08083 30.46693
# Shear Modulus (GPa) = 22.30530 29.53846 25.92188
#
# Velocity S-wave (km/s) = 3.20243 3.68527 3.45230
# Velocity P-wave (km/s) = 5.05577 5.85131 5.46803
#
# Compressibility (1/GPa) = 0.03868019
#
# Stress axis : x y z
#
# Youngs Moduli (GPa) = 75.53462 132.29051 45.81557
#
# Poissons Ratio (x) = 0.36397 0.03198
# Poissons Ratio (y) = 0.20782 -0.06767
# Poissons Ratio (z) = 0.05273 -0.19540
#
# Static dielectric constant tensor:
#      x y z
#    x 1.771870 0.000000 -0.013880 
#    y 0.000000 1.837020 0.000000 
#    z -0.013880 0.000000 1.838620 
# 
# From -- ./inp_files/56902.got.cif
#   From: 2010.05.17/outbox.cif.g08.bks.cpg/sg5_29_cif.got.tgz:56902.got - 2010.06.03 18:56:24.
