data_PCOD9124012
_publ_section_title
;
Structure prediction by ZEFSAII (Michael W. Deem and Ramdas Pophale) SiO2 
 PCOD9124012
Probable space group: C 2
;
_chemical_formula_sum "Si O2"
_cell_formula_units_Z 24
_cell_length_a 12.188441
_cell_length_b 12.129199
_cell_length_c 6.659144
_cell_angle_alpha 90.000000
_cell_angle_beta 108.993147
_cell_angle_gamma 90.000000
_cell_volume 930.864858
_symmetry_space_group_name_H-M "C 2"
_symmetry_group_IT_number 5
_symmetry_cell_setting 'monoclinic'
loop_
_space_group_symop_operation_xyz
x,y,z
-x,y,-z
1/2+x,1/2+y,z
1/2-x,1/2+y,-z
loop_
_atom_site_type_symbol
_atom_site_label
_atom_site_fract_x
_atom_site_fract_y
_atom_site_fract_z
Si Si1 0.101847 0.430260 0.872186
Si Si2 0.672791 0.137907 0.162604
Si Si3 0.704261 0.182631 0.604506
Si Si4 0.119387 0.085792 0.974805
Si Si5 0.650490 0.336975 0.905254
Si Si6 0.100321 0.336909 0.448562
O O1 0.114992 0.548379 0.981878
O O2 0.209572 0.359202 0.020291
O O3 0.030180 0.386120 0.217507
O O4 0.124757 0.423350 0.642611
O O5 0.652729 0.118083 0.384531
O O6 0.809021 0.132068 0.174869
O O7 0.629876 0.259378 0.082880
O O8 0.787495 0.108050 0.792637
O O9 0.624373 0.258490 0.699822
O O10 0.789158 0.270739 0.548042
O O11 0.000000 0.130709 0.000000
O O12 0.099206 0.957987 0.902298
O O13 0.000000 0.264598 0.500000
#
# Coordination Sequence:
#
# PCOD9124012 Si02
#       6
#     4   4   4   4   4   4
#     4   8  18  36  62  97 140 164 229 280 335 419
#     4  10  20  41  64  98 136 184 230 269 357 411
#     4  11  22  36  73  95 138 183 230 287 348 413
#     4  10  25  40  67  99 138 175 231 292 336 416
#     4  10  21  40  60  93 134 181 226 280 341 414
#     4   8  18  35  65 103 132 170 221 287 343 399
#
# _framework density 25.782475999999999
#
# number of rings (size 3 to 8) (size 9 to 14) (size 15 to 20)
#    1.000    1.333    1.667    0.000    7.000    2.667 
#    6.000    0.000   11.000    8.000    0.000    0.000 
#    0.000    0.000    0.000    0.000    0.000    0.000 
#
# Total GULP energy -66956.887307 kJ/mol
# GULP energy per Si atom -5579.740609 kJ/mol
# Density = 2.572379 g / cm^3
# Si number density = 25.782476 Si / 1000 Ang^3
#
#
#
# Elastic Constant Matrix: (Units=GPa)
#
#
# Indices 1 2 3 4 5 6 
#
# 1 87.1709 4.1477 12.3320 0.0000 -1.5293 0.0000
# 2 4.1477 83.0756 26.1934 0.0000 6.1853 0.0000
# 3 12.3320 26.1934 158.8639 0.0000 3.1515 0.0000
# 4 0.0000 0.0000 0.0000 49.3182 0.0000 -2.4748
# 5 -1.5293 6.1853 3.1515 0.0000 38.7086 0.0000
# 6 0.0000 0.0000 0.0000 -2.4748 0.0000 23.3624
#
#
#
# Elastic Compliance Matrix: (Units=1/GPa)
#
#
# Indices 1 2 3 4 5 6 
#
# 1 0.011620 -0.000354 -0.000855 0.000000 0.000585 0.000000
# 2 -0.000354 0.012843 -0.002052 0.000000 -0.001899 0.000000
# 3 -0.000855 -0.002052 0.006704 0.000000 -0.000252 0.000000
# 4 0.000000 0.000000 0.000000 0.020385 0.000000 0.002159
# 5 0.000585 -0.001899 -0.000252 0.000000 0.026181 0.000000
# 6 0.000000 0.000000 0.000000 0.002159 0.000000 0.043032
#
#
# Mechanical properties :
#
#
# Convention : Reuss Voigt Hill
#
# Bulk Modulus (GPa) = 40.57743 46.05072 43.31407
# Shear Modulus (GPa) = 36.89915 41.37367 39.13641
#
# Velocity S-wave (km/s) = 3.78719 4.01024 3.90031
# Velocity P-wave (km/s) = 5.90731 6.27238 6.09258
#
# Compressibility (1/GPa) = 0.02464424
#
# Stress axis : x y z
#
# Youngs Moduli (GPa) = 86.05979 77.86075 149.15384
#
# Poissons Ratio (x) = 0.02757 0.12756
# Poissons Ratio (y) = 0.03047 0.30613
# Poissons Ratio (z) = 0.07360 0.15981
#
# Static dielectric constant tensor:
#      x y z
#    x 2.124160 0.000000 -0.041040 
#    y 0.000000 2.051030 0.000000 
#    z -0.041040 0.000000 2.144050 
# 
# From -- ./inp_files/6878.got.cif
#   From: 2010.05.17/outbox.cif.g08.bks.cpg/sg5_4_cif.got.tgz:6878.got - 2010.06.03 18:56:24.
