data_PCOD9124611
_publ_section_title
;
Structure prediction by ZEFSAII (Michael W. Deem and Ramdas Pophale) SiO2 
 PCOD9124611
Probable space group: C 2
;
_chemical_formula_sum "Si O2"
_cell_formula_units_Z 26
_cell_length_a 10.683869
_cell_length_b 8.542612
_cell_length_c 24.589652
_cell_angle_alpha 90.000000
_cell_angle_beta 147.163032
_cell_angle_gamma 90.000000
_cell_volume 1216.946632
_symmetry_space_group_name_H-M "C 2"
_symmetry_group_IT_number 5
_symmetry_cell_setting 'monoclinic'
loop_
_space_group_symop_operation_xyz
x,y,z
-x,y,-z
1/2+x,1/2+y,z
1/2-x,1/2+y,-z
loop_
_atom_site_type_symbol
_atom_site_label
_atom_site_fract_x
_atom_site_fract_y
_atom_site_fract_z
Si Si1 0.772591 0.752160 0.184313
Si Si2 0.992662 0.641546 0.433009
Si Si3 0.151308 0.965249 0.507622
Si Si4 0.057432 0.982935 0.213719
Si Si5 0.586575 0.814327 0.859035
Si Si6 0.070534 0.427654 0.730003
Si Si7 0.500000 0.535906 0.000000
O O1 0.624155 0.839248 0.176190
O O2 0.934964 0.617920 0.269567
O O3 0.607545 0.648326 0.085040
O O4 0.917259 0.868276 0.200479
O O5 0.222830 0.573865 0.489068
O O6 0.000000 0.611152 0.500000
O O7 0.769336 0.561556 0.324574
O O8 0.998480 0.828321 0.425979
O O9 0.000000 0.044416 0.500000
O O10 0.360671 0.877147 0.615558
O O11 0.896517 0.125330 0.134520
O O12 0.185792 0.895515 0.210698
O O13 0.549993 0.861259 0.782656
O O14 0.805832 0.920536 0.954002
#
# Coordination Sequence:
#
# PCOD9124611 Si02
#       7
#     4   4   4   4   4   4   2
#     4  10  23  40  62  88 117 154 196 240 293 357
#     4  10  22  37  56  86 119 156 200 243 290 346
#     4  10  21  37  57  84 120 156 199 246 289 343
#     4  10  22  39  60  88 120 155 197 244 293 347
#     4  10  21  40  64  86 115 152 192 241 296 354
#     4   9  21  40  58  86 120 153 196 243 294 348
#     4  10  24  40  58  90 120 146 192 244 298 356
#
# _framework density 21.364947999999998
#
# number of rings (size 3 to 8) (size 9 to 14) (size 15 to 20)
#    0.000    2.154    0.000    1.846    0.000   16.000 
#    0.000    0.000    0.000    0.000    0.000    0.000 
#    0.000    0.000    0.000    0.000    0.000    0.000 
#
# Total GULP energy -72568.928167 kJ/mol
# GULP energy per Si atom -5582.225244 kJ/mol
# Density = 2.131632 g / cm^3
# Si number density = 21.364948 Si / 1000 Ang^3
#
#
#
# Elastic Constant Matrix: (Units=GPa)
#
#
# Indices 1 2 3 4 5 6 
#
# 1 207.2135 72.7862 30.6774 0.0000 33.8744 0.0000
# 2 72.7862 64.0061 33.3105 0.0000 22.6629 0.0000
# 3 30.6774 33.3105 71.3792 0.0000 3.2241 0.0000
# 4 0.0000 0.0000 0.0000 41.2738 0.0000 6.4387
# 5 33.8744 22.6629 3.2241 0.0000 32.9527 0.0000
# 6 0.0000 0.0000 0.0000 6.4387 0.0000 45.1376
#
#
#
# Elastic Compliance Matrix: (Units=1/GPa)
#
#
# Indices 1 2 3 4 5 6 
#
# 1 0.008235 -0.008874 0.000712 0.000000 -0.002432 0.000000
# 2 -0.008874 0.038286 -0.013334 0.000000 -0.015904 0.000000
# 3 0.000712 -0.013334 0.019632 0.000000 0.006518 0.000000
# 4 0.000000 0.000000 0.000000 0.024780 0.000000 -0.003535
# 5 -0.002432 -0.015904 0.006518 0.000000 0.043146 0.000000
# 6 0.000000 0.000000 0.000000 -0.003535 0.000000 0.022659
#
#
# Mechanical properties :
#
#
# Convention : Reuss Voigt Hill
#
# Bulk Modulus (GPa) = 43.17908 68.46079 55.81993
# Shear Modulus (GPa) = 24.10193 37.59447 30.84820
#
# Velocity S-wave (km/s) = 3.36237 4.19935 3.80395
# Velocity P-wave (km/s) = 5.94375 7.45827 6.74366
#
# Compressibility (1/GPa) = 0.02315937
#
# Stress axis : x y z
#
# Youngs Moduli (GPa) = 121.42741 26.11926 50.93692
#
# Poissons Ratio (x) = 0.23179 -0.03626
# Poissons Ratio (y) = 1.07759 0.67922
# Poissons Ratio (z) = -0.08644 0.34829
#
# Static dielectric constant tensor:
#      x y z
#    x 1.791080 0.000000 -0.015760 
#    y 0.000000 1.759960 0.000000 
#    z -0.015760 0.000000 1.842900 
# 
# From -- ./inp_files/71671.got.cif
#   From: 2010.05.17/outbox.cif.g08.bks.cpg/sg5_36_cif.got.tgz:71671.got - 2010.06.03 18:56:24.
