data_PCOD9124551
_publ_section_title
;
Structure prediction by ZEFSAII (Michael W. Deem and Ramdas Pophale) SiO2 
 PCOD9124551
Probable space group: C 2
;
_chemical_formula_sum "Si O2"
_cell_formula_units_Z 26
_cell_length_a 5.067136
_cell_length_b 30.711330
_cell_length_c 9.063348
_cell_angle_alpha 90.000000
_cell_angle_beta 116.606866
_cell_angle_gamma 90.000000
_cell_volume 1261.061348
_symmetry_space_group_name_H-M "C 2"
_symmetry_group_IT_number 5
_symmetry_cell_setting 'monoclinic'
loop_
_space_group_symop_operation_xyz
x,y,z
-x,y,-z
1/2+x,1/2+y,z
1/2-x,1/2+y,-z
loop_
_atom_site_type_symbol
_atom_site_label
_atom_site_fract_x
_atom_site_fract_y
_atom_site_fract_z
Si Si1 0.717403 0.072930 0.848786
Si Si2 0.063078 0.109815 0.687409
Si Si3 0.658529 0.791935 0.883463
Si Si4 0.676180 0.435812 0.697574
Si Si5 0.349834 0.696761 0.121256
Si Si6 0.169903 0.378040 0.692622
Si Si7 0.000000 0.497529 0.000000
O O1 0.404587 0.096040 0.792137
O O2 0.836000 0.076623 0.711728
O O3 0.000000 0.094381 0.000000
O O4 0.663886 0.027545 0.919342
O O5 0.034930 0.157837 0.748536
O O6 0.000000 0.109918 0.500000
O O7 0.568270 0.744877 0.795511
O O8 0.645234 0.834803 0.782013
O O9 0.500000 0.798912 0.000000
O O10 0.000000 0.785667 0.000000
O O11 0.500000 0.448888 0.500000
O O12 0.486897 0.397215 0.726567
O O13 0.989107 0.416541 0.725391
O O14 0.759398 0.470797 0.843719
O O15 0.500000 0.695188 0.000000
O O16 0.000000 0.692062 0.000000
O O17 0.000000 0.368432 0.500000
#
# Coordination Sequence:
#
# PCOD9124551 Si02
#       7
#     4   4   4   4   4   4   2
#     4  12  25  46  67  97 128 170 227 270 344 407
#     4  12  25  43  68 100 134 177 222 275 339 403
#     4  10  21  36  60 100 126 169 222 264 310 383
#     4  10  25  44  65  98 131 169 220 276 330 401
#     4  10  21  38  64  91 134 172 218 268 315 388
#     4  10  22  41  63  92 134 171 207 266 330 382
#     4  12  28  44  76  96 128 180 224 278 360 390
#
# _framework density 20.617553999999998
#
# number of rings (size 3 to 8) (size 9 to 14) (size 15 to 20)
#    0.000    1.231    1.538    3.692    5.385    1.231 
#    2.769    0.000    0.000    9.231    0.000    0.000 
#    0.000    0.000    0.000    0.000    0.000    0.000 
#
# Total GULP energy -72543.220366 kJ/mol
# GULP energy per Si atom -5580.247720 kJ/mol
# Density = 2.057063 g / cm^3
# Si number density = 20.617554 Si / 1000 Ang^3
#
#
#
# Elastic Constant Matrix: (Units=GPa)
#
#
# Indices 1 2 3 4 5 6 
#
# 1 122.4121 23.2800 27.0497 0.0000 -17.9200 0.0000
# 2 23.2800 119.1448 82.1061 0.0000 -14.2973 0.0000
# 3 27.0497 82.1061 92.6252 0.0000 -25.1366 0.0000
# 4 0.0000 0.0000 0.0000 7.9940 0.0000 -6.3396
# 5 -17.9200 -14.2973 -25.1366 0.0000 32.1778 0.0000
# 6 0.0000 0.0000 0.0000 -6.3396 0.0000 18.6010
#
#
#
# Elastic Compliance Matrix: (Units=1/GPa)
#
#
# Indices 1 2 3 4 5 6 
#
# 1 0.009096 -0.000546 -0.001095 0.000000 0.003967 0.000000
# 2 -0.000546 0.022839 -0.022099 0.000000 -0.007420 0.000000
# 3 -0.001095 -0.022099 0.035374 0.000000 0.017205 0.000000
# 4 0.000000 0.000000 0.000000 0.171430 0.000000 0.058427
# 5 0.003967 -0.007420 0.017205 0.000000 0.043430 0.000000
# 6 0.000000 0.000000 0.000000 0.058427 0.000000 0.073674
#
#
# Mechanical properties :
#
#
# Convention : Reuss Voigt Hill
#
# Bulk Modulus (GPa) = 50.43535 66.56152 58.49844
# Shear Modulus (GPa) = 12.19712 25.20430 18.70071
#
# Velocity S-wave (km/s) = 2.43490 3.50017 3.01496
# Velocity P-wave (km/s) = 5.69389 6.97775 6.36826
#
# Compressibility (1/GPa) = 0.01982736
#
# Stress axis : x y z
#
# Youngs Moduli (GPa) = 109.94058 43.78562 28.26904
#
# Poissons Ratio (x) = 0.02392 0.03097
# Poissons Ratio (y) = 0.06006 0.62472
# Poissons Ratio (z) = 0.12044 0.96762
#
# Static dielectric constant tensor:
#      x y z
#    x 1.773870 0.000000 -0.063000 
#    y 0.000000 1.820570 0.000000 
#    z -0.063000 0.000000 1.792960 
# 
# From -- ./inp_files/13249.got.cif
#   From: 2010.05.17/outbox.cif.g08.bks.cpg/sg5_7_cif.got.tgz:13249.got - 2010.06.03 18:56:24.
