data_PCOD9124743
_publ_section_title
;
Structure prediction by ZEFSAII (Michael W. Deem and Ramdas Pophale) SiO2 
 PCOD9124743
Probable space group: C 2
;
_chemical_formula_sum "Si O2"
_cell_formula_units_Z 28
_cell_length_a 18.764249
_cell_length_b 13.467644
_cell_length_c 5.417780
_cell_angle_alpha 90.000000
_cell_angle_beta 60.117834
_cell_angle_gamma 90.000000
_cell_volume 1187.105340
_symmetry_space_group_name_H-M "C 2"
_symmetry_group_IT_number 5
_symmetry_cell_setting 'monoclinic'
loop_
_space_group_symop_operation_xyz
x,y,z
-x,y,-z
1/2+x,1/2+y,z
1/2-x,1/2+y,-z
loop_
_atom_site_type_symbol
_atom_site_label
_atom_site_fract_x
_atom_site_fract_y
_atom_site_fract_z
Si Si1 0.098718 0.044800 0.325596
Si Si2 0.500000 0.849777 0.000000
Si Si3 0.230577 0.212396 0.083359
Si Si4 0.000000 0.350750 0.500000
Si Si5 0.901357 0.928072 0.174992
Si Si6 0.822601 0.437313 0.794722
Si Si7 0.670658 0.211498 0.589417
Si Si8 0.852619 0.507407 0.243063
O O1 0.151161 0.143654 0.187499
O O2 0.000000 0.059113 0.500000
O O3 0.120444 0.998960 0.556360
O O4 0.120065 0.969880 0.061107
O O5 0.501686 0.789288 0.747089
O O6 0.578353 0.921944 0.888570
O O7 0.208960 0.328325 0.097296
O O8 0.261114 0.201210 0.312880
O O9 0.294638 0.197628 0.746958
O O10 0.078464 0.422321 0.388260
O O11 0.867199 0.819038 0.298214
O O12 0.000000 0.920353 0.000000
O O13 0.796770 0.476550 0.572235
O O14 0.807782 0.505417 0.056803
O O15 0.613749 0.116045 0.748875
#
# Coordination Sequence:
#
# PCOD9124743 Si02
#       8
#     4   2   4   2   4   4   4   4
#     4  10  23  45  70  94 126 174 228 278 321 376
#     4   8  16  32  54  80 106 142 188 226 282 354
#     4  12  26  40  62  97 128 167 213 262 328 387
#     4   8  16  32  54  80 106 142 188 226 282 354
#     4  10  23  45  70  94 126 174 228 278 321 376
#     4  10  21  38  59  86 121 158 193 242 307 371
#     4  12  26  40  62  97 128 167 213 262 328 387
#     4  10  21  38  59  86 121 158 193 242 307 371
#
# _framework density 23.586784999999999
#
# number of rings (size 3 to 8) (size 9 to 14) (size 15 to 20)
#    0.000    1.714    0.000    3.429    2.000    6.857 
#    0.000    0.000    0.000    0.000    0.000    0.000 
#    0.000    0.000    0.000    0.000    0.000    0.000 
#
# Total GULP energy -78218.764537 kJ/mol
# GULP energy per Si atom -5587.054610 kJ/mol
# Density = 2.353310 g / cm^3
# Si number density = 23.586785 Si / 1000 Ang^3
#
#
#
# Elastic Constant Matrix: (Units=GPa)
#
#
# Indices 1 2 3 4 5 6 
#
# 1 48.9954 -9.1698 43.3564 0.0000 14.6594 0.0000
# 2 -9.1698 92.8295 31.1825 0.0000 12.0925 0.0000
# 3 43.3564 31.1825 168.6594 0.0000 49.0430 0.0000
# 4 0.0000 0.0000 0.0000 27.1576 0.0000 5.4375
# 5 14.6594 12.0925 49.0430 0.0000 56.9010 0.0000
# 6 0.0000 0.0000 0.0000 5.4375 0.0000 28.0875
#
#
#
# Elastic Compliance Matrix: (Units=1/GPa)
#
#
# Indices 1 2 3 4 5 6 
#
# 1 0.029161 0.005819 -0.008044 0.000000 -0.001816 0.000000
# 2 0.005819 0.012675 -0.003496 0.000000 -0.001179 0.000000
# 3 -0.008044 -0.003496 0.010442 0.000000 -0.006184 0.000000
# 4 0.000000 0.000000 0.000000 0.038307 0.000000 -0.007416
# 5 -0.001816 -0.001179 -0.006184 0.000000 0.023623 0.000000
# 6 0.000000 0.000000 0.000000 -0.007416 0.000000 0.037039
#
#
# Mechanical properties :
#
#
# Convention : Reuss Voigt Hill
#
# Bulk Modulus (GPa) = 24.48857 49.02471 36.75664
# Shear Modulus (GPa) = 28.36065 38.77026 33.56545
#
# Velocity S-wave (km/s) = 3.47132 4.05869 3.77644
# Velocity P-wave (km/s) = 5.14506 6.54170 5.88496
#
# Compressibility (1/GPa) = 0.04083537
#
# Stress axis : x y z
#
# Youngs Moduli (GPa) = 34.29263 78.89301 95.77059
#
# Poissons Ratio (x) = -0.45909 0.77037
# Poissons Ratio (y) = -0.19956 0.33486
# Poissons Ratio (z) = 0.27585 0.27585
#
# Static dielectric constant tensor:
#      x y z
#    x 1.957030 0.000000 0.021670 
#    y 0.000000 1.847680 0.000000 
#    z 0.021670 0.000000 1.973790 
# 
# From -- ./inp_files/9544.got.cif
#   From: 2010.05.17/outbox.cif.g08.bks.cpg/sg5_5_cif.got.tgz:9544.got - 2010.06.03 18:56:24.
