data_PCOD9124447
_publ_section_title
;
Structure prediction by ZEFSAII (Michael W. Deem and Ramdas Pophale) SiO2 
 PCOD9124447
Probable space group: C 2
;
_chemical_formula_sum "Si O2"
_cell_formula_units_Z 32
_cell_length_a 17.969748
_cell_length_b 5.516762
_cell_length_c 31.593574
_cell_angle_alpha 90.000000
_cell_angle_beta 152.013026
_cell_angle_gamma 90.000000
_cell_volume 1469.767158
_symmetry_space_group_name_H-M "C 2"
_symmetry_group_IT_number 5
_symmetry_cell_setting 'monoclinic'
loop_
_space_group_symop_operation_xyz
x,y,z
-x,y,-z
1/2+x,1/2+y,z
1/2-x,1/2+y,-z
loop_
_atom_site_type_symbol
_atom_site_label
_atom_site_fract_x
_atom_site_fract_y
_atom_site_fract_z
Si Si1 0.452842 0.948890 0.434478
Si Si2 0.193258 0.329385 0.333972
Si Si3 0.679676 0.341171 0.516093
Si Si4 0.157352 0.776263 0.165737
Si Si5 0.982023 0.100718 0.638936
Si Si6 0.354398 0.213812 0.747526
Si Si7 0.370236 0.786248 0.898648
Si Si8 0.981422 0.923548 0.254693
O O1 0.500000 0.801867 0.500000
O O2 0.325628 0.807789 0.343434
O O3 0.340431 0.156251 0.397807
O O4 0.597542 0.080837 0.484669
O O5 0.262815 0.460867 0.410808
O O6 0.154634 0.432964 0.268343
O O7 0.033726 0.200272 0.270724
O O8 0.554349 0.476739 0.423991
O O9 0.842536 0.295260 0.573481
O O10 0.344506 0.711310 0.265684
O O11 0.080567 0.781683 0.174232
O O12 0.094119 0.535913 0.109469
O O13 0.139750 0.036740 0.133864
O O14 0.961302 0.907377 0.667580
O O15 0.436078 0.298268 0.744426
O O16 0.199528 0.841989 0.834239
O O17 0.500000 0.751333 0.000000
#
# Coordination Sequence:
#
# PCOD9124447 Si02
#       8
#     4   4   4   4   4   4   4   4
#     4   9  20  36  51  85 130 182 240 295 333 390
#     4   9  20  39  58  93 134 186 241 290 353 395
#     4  10  21  34  54  87 139 188 256 293 335 398
#     4  11  27  45  75 107 143 185 235 291 368 434
#     4  10  23  36  59  96 138 193 244 299 340 410
#     4  11  23  37  70  92 138 189 228 297 351 431
#     4  11  26  52  80 109 139 177 228 297 373 455
#     4   9  23  41  67  98 136 182 228 294 358 427
#
# _framework density 21.772155000000001
#
# number of rings (size 3 to 8) (size 9 to 14) (size 15 to 20)
#    0.000    2.000    0.000    1.875   15.750    2.500 
#    0.000    1.250    0.000    0.000    0.000    0.000 
#    0.000    0.000    0.000    0.000    0.000    0.000 
#
# Total GULP energy -89078.684411 kJ/mol
# GULP energy per Si atom -5567.417776 kJ/mol
# Density = 2.172260 g / cm^3
# Si number density = 21.772155 Si / 1000 Ang^3
#
#
#
# Elastic Constant Matrix: (Units=GPa)
#
#
# Indices 1 2 3 4 5 6 
#
# 1 107.7325 43.1122 49.1167 -0.0047 -24.3480 0.0101
# 2 43.1122 79.0984 45.1656 -0.0116 -15.7826 0.0150
# 3 49.1167 45.1656 119.0167 -0.0028 -24.0917 0.0017
# 4 -0.0047 -0.0116 -0.0028 27.0368 0.0010 -3.5653
# 5 -24.3480 -15.7826 -24.0917 0.0010 22.8206 -0.0077
# 6 0.0101 0.0150 0.0017 -3.5653 -0.0077 35.7707
#
#
#
# Elastic Compliance Matrix: (Units=1/GPa)
#
#
# Indices 1 2 3 4 5 6 
#
# 1 0.014339 -0.004613 -0.002182 0.000000 0.009805 0.000000
# 2 -0.004613 0.018290 -0.004417 0.000006 0.003065 -0.000005
# 3 -0.002182 -0.004417 0.012577 -0.000001 0.007894 0.000003
# 4 0.000000 0.000006 -0.000001 0.037479 0.000003 0.003736
# 5 0.009805 0.003065 0.007894 0.000003 0.064735 0.000010
# 6 0.000000 -0.000005 0.000003 0.003736 0.000010 0.028328
#
#
# Mechanical properties :
#
#
# Convention : Reuss Voigt Hill
#
# Bulk Modulus (GPa) = 43.89419 64.51519 54.20469
# Shear Modulus (GPa) = 24.29933 28.35584 26.32759
#
# Velocity S-wave (km/s) = 3.34439 3.61278 3.48117
# Velocity P-wave (km/s) = 5.92602 6.86289 6.41159
#
# Compressibility (1/GPa) = 0.02278206
#
# Stress axis : x y z
#
# Youngs Moduli (GPa) = 69.73936 54.67352 79.51038
#
# Poissons Ratio (x) = 0.25221 0.17351
# Poissons Ratio (y) = 0.32171 0.35119
# Poissons Ratio (z) = 0.15219 0.24149
#
# Static dielectric constant tensor:
#      x y z
#    x 1.874610 -0.000010 -0.022180 
#    y -0.000010 1.981980 0.000010 
#    z -0.022180 0.000010 1.768640 
# 
# From -- ./inp_files/72035.got.cif
#   From: 2010.05.17/outbox.cif.g08.bks.cpg/sg5_37_cif.got.tgz:72035.got - 2010.06.03 18:56:24.
