data_PCOD9124257
_publ_section_title
;
Structure prediction by ZEFSAII (Michael W. Deem and Ramdas Pophale) SiO2 
 PCOD9124257
Probable space group: C 2
;
_chemical_formula_sum "Si O2"
_cell_formula_units_Z 28
_cell_length_a 11.002928
_cell_length_b 8.615136
_cell_length_c 17.869037
_cell_angle_alpha 90.000000
_cell_angle_beta 40.589401
_cell_angle_gamma 90.000000
_cell_volume 1102.067372
_symmetry_space_group_name_H-M "C 2"
_symmetry_group_IT_number 5
_symmetry_cell_setting 'monoclinic'
loop_
_space_group_symop_operation_xyz
x,y,z
-x,y,-z
1/2+x,1/2+y,z
1/2-x,1/2+y,-z
loop_
_atom_site_type_symbol
_atom_site_label
_atom_site_fract_x
_atom_site_fract_y
_atom_site_fract_z
Si Si1 0.000000 0.773990 0.500000
Si Si2 0.358284 0.901879 0.968657
Si Si3 0.608679 0.359115 0.641687
Si Si4 0.700373 0.885855 0.180552
Si Si5 0.133569 0.559329 0.578330
Si Si6 0.044704 0.103264 0.193018
Si Si7 0.000000 0.117627 0.000000
Si Si8 0.274352 0.864529 0.256082
O O1 0.066475 0.658803 0.536026
O O2 0.161633 0.879197 0.386565
O O3 0.289498 0.882384 0.915542
O O4 0.375027 0.743672 0.011034
O O5 0.567730 0.970581 0.856573
O O6 0.217075 0.019955 0.072874
O O7 0.709857 0.448663 0.527453
O O8 0.700856 0.192529 0.603895
O O9 0.601149 0.470594 0.714720
O O10 0.389481 0.336318 0.725915
O O11 0.533699 0.971984 0.301923
O O12 0.636069 0.704645 0.218939
O O13 0.879136 0.998498 0.108028
O O14 0.908977 0.220983 0.213013
#
# Coordination Sequence:
#
# PCOD9124257 Si02
#       8
#     2   4   4   4   4   4   2   4
#     4  10  20  42  74 104 148 200 238 314 382 444
#     4  11  24  43  76 107 150 203 250 312 384 457
#     4  11  23  42  74 105 148 203 248 313 381 455
#     4  11  25  43  73 112 149 198 259 315 382 462
#     4  11  23  42  73 109 149 198 257 316 386 457
#     4  11  23  44  70 108 152 194 257 314 375 457
#     4  12  24  48  70 112 158 200 254 316 390 454
#     4  10  22  39  70 105 138 193 242 298 378 437
#
# _framework density 25.406796
#
# number of rings (size 3 to 8) (size 9 to 14) (size 15 to 20)
#    0.000    1.143    1.429    6.000    6.000    1.714 
#    0.000    0.000   15.714    0.857    0.000    0.000 
#    0.000    0.000    0.000    0.000    0.000    0.000 
#
# Total GULP energy -77973.665960 kJ/mol
# GULP energy per Si atom -5569.547569 kJ/mol
# Density = 2.534897 g / cm^3
# Si number density = 25.406796 Si / 1000 Ang^3
#
#
#
# Elastic Constant Matrix: (Units=GPa)
#
#
# Indices 1 2 3 4 5 6 
#
# 1 50.7264 14.6266 -9.0611 0.0000 -8.3807 0.0000
# 2 14.6266 109.9302 44.0391 0.0000 -12.7260 0.0000
# 3 -9.0611 44.0391 196.8049 0.0000 -18.3628 0.0000
# 4 0.0000 0.0000 0.0000 59.8329 0.0000 -4.6302
# 5 -8.3807 -12.7260 -18.3628 0.0000 42.0741 0.0000
# 6 0.0000 0.0000 0.0000 -4.6302 0.0000 44.1761
#
#
#
# Elastic Compliance Matrix: (Units=1/GPa)
#
#
# Indices 1 2 3 4 5 6 
#
# 1 0.021737 -0.003249 0.002127 0.000000 0.004275 0.000000
# 2 -0.003249 0.010665 -0.002393 0.000000 0.001534 0.000000
# 3 0.002127 -0.002393 0.005928 0.000000 0.002287 0.000000
# 4 0.000000 0.000000 0.000000 0.016850 0.000000 0.001766
# 5 0.004275 0.001534 0.002287 0.000000 0.026081 0.000000
# 6 0.000000 0.000000 0.000000 0.001766 0.000000 0.022822
#
#
# Mechanical properties :
#
#
# Convention : Reuss Voigt Hill
#
# Bulk Modulus (GPa) = 31.94995 50.74119 41.34557
# Shear Modulus (GPa) = 41.13635 49.74039 45.43837
#
# Velocity S-wave (km/s) = 4.02818 4.42946 4.23358
# Velocity P-wave (km/s) = 5.85129 6.79522 6.34084
#
# Compressibility (1/GPa) = 0.03129895
#
# Stress axis : x y z
#
# Youngs Moduli (GPa) = 46.00516 93.76214 168.69188
#
# Poissons Ratio (x) = 0.30465 -0.35877
# Poissons Ratio (y) = 0.14948 0.40368
# Poissons Ratio (z) = -0.09784 0.22437
#
# Static dielectric constant tensor:
#      x y z
#    x 2.141970 0.000000 0.024630 
#    y 0.000000 2.172390 0.000000 
#    z 0.024630 0.000000 2.058980 
# 
# From -- ./inp_files/65991.got.cif
#   From: 2010.05.17/outbox.cif.g08.bks.cpg/sg5_33_cif.got.tgz:65991.got - 2010.06.03 18:56:24.
