data_PCOD9124732
_publ_section_title
;
Structure prediction by ZEFSAII (Michael W. Deem and Ramdas Pophale) SiO2 
 PCOD9124732
Probable space group: C 2
;
_chemical_formula_sum "Si O2"
_cell_formula_units_Z 24
_cell_length_a 8.052087
_cell_length_b 7.336731
_cell_length_c 15.767277
_cell_angle_alpha 90.000000
_cell_angle_beta 68.416446
_cell_angle_gamma 90.000000
_cell_volume 866.155058
_symmetry_space_group_name_H-M "C 2"
_symmetry_group_IT_number 5
_symmetry_cell_setting 'monoclinic'
loop_
_space_group_symop_operation_xyz
x,y,z
-x,y,-z
1/2+x,1/2+y,z
1/2-x,1/2+y,-z
loop_
_atom_site_type_symbol
_atom_site_label
_atom_site_fract_x
_atom_site_fract_y
_atom_site_fract_z
Si Si1 0.306968 0.584540 0.060315
Si Si2 0.392805 0.241568 0.439005
Si Si3 0.838880 0.703095 0.271245
Si Si4 0.927766 0.165817 0.392383
Si Si5 0.715344 0.168497 0.897372
Si Si6 0.629649 0.627460 0.776557
O O1 0.340611 0.376067 0.078139
O O2 0.252128 0.669233 0.161692
O O3 0.500000 0.667279 0.000000
O O4 0.193363 0.583880 0.995281
O O5 0.500000 0.169638 0.500000
O O6 0.422548 0.137616 0.344400
O O7 0.188005 0.244601 0.509667
O O8 0.437117 0.450642 0.411149
O O9 0.629880 0.716284 0.334847
O O10 0.863924 0.596673 0.177300
O O11 0.883223 0.912060 0.241380
O O12 0.824441 0.210855 0.323070
O O13 0.926874 0.175525 0.838904
#
# Coordination Sequence:
#
# PCOD9124732 Si02
#       6
#     4   4   4   4   4   4
#     4   9  17  33  55  80 111 149 188 231 282 333
#     4  11  22  36  57  85 115 150 191 236 282 334
#     4   9  18  36  60  82 112 153 190 230 282 334
#     4  10  21  38  58  83 114 150 190 235 284 334
#     4   9  17  33  58  83 111 149 188 231 283 334
#     4   8  17  34  58  81 110 149 188 231 280 335
#
# _framework density 27.708666999999998
#
# number of rings (size 3 to 8) (size 9 to 14) (size 15 to 20)
#    0.000    2.667    0.000    1.500    0.000    2.667 
#    0.000   14.167    0.000   26.000    0.000    0.000 
#    0.000    0.000    0.000    0.000    0.000    0.000 
#
# Total GULP energy -67079.635793 kJ/mol
# GULP energy per Si atom -5589.969649 kJ/mol
# Density = 2.764560 g / cm^3
# Si number density = 27.708667 Si / 1000 Ang^3
#
#
#
# Elastic Constant Matrix: (Units=GPa)
#
#
# Indices 1 2 3 4 5 6 
#
# 1 89.6816 4.5179 59.5362 0.0000 26.4188 0.0000
# 2 4.5179 58.5096 20.2196 0.0000 -10.3674 0.0000
# 3 59.5362 20.2196 313.7200 0.0000 66.0524 0.0000
# 4 0.0000 0.0000 0.0000 23.4470 0.0000 4.2646
# 5 26.4188 -10.3674 66.0524 0.0000 74.6706 0.0000
# 6 0.0000 0.0000 0.0000 4.2646 0.0000 14.8484
#
#
#
# Elastic Compliance Matrix: (Units=1/GPa)
#
#
# Indices 1 2 3 4 5 6 
#
# 1 0.013349 -0.001000 -0.001776 0.000000 -0.003291 0.000000
# 2 -0.001000 0.018702 -0.002011 0.000000 0.004730 0.000000
# 3 -0.001776 -0.002011 0.004400 0.000000 -0.003543 0.000000
# 4 0.000000 0.000000 0.000000 0.045000 0.000000 -0.012924
# 5 -0.003291 0.004730 -0.003543 0.000000 0.018347 0.000000
# 6 0.000000 0.000000 0.000000 -0.012924 0.000000 0.071059
#
#
# Mechanical properties :
#
#
# Convention : Reuss Voigt Hill
#
# Bulk Modulus (GPa) = 37.20766 70.05098 53.62932
# Shear Modulus (GPa) = 26.40028 47.76903 37.08466
#
# Velocity S-wave (km/s) = 3.09006 4.15658 3.66235
# Velocity P-wave (km/s) = 5.11748 6.95502 6.10578
#
# Compressibility (1/GPa) = 0.02687618
#
# Stress axis : x y z
#
# Youngs Moduli (GPa) = 74.90947 53.47146 227.25933
#
# Poissons Ratio (x) = 0.05348 0.40362
# Poissons Ratio (y) = 0.07492 0.45709
# Poissons Ratio (z) = 0.13304 0.10755
#
# Static dielectric constant tensor:
#      x y z
#    x 2.265850 0.000000 0.156240 
#    y 0.000000 2.064830 0.000000 
#    z 0.156240 0.000000 2.210860 
# 
# From -- ./inp_files/49870.got.cif
#   From: 2010.05.17/outbox.cif.g08.bks.cpg/sg5_25_cif.got.tgz:49870.got - 2010.06.03 18:56:24.
