data_PCOD9124028
_publ_section_title
;
Structure prediction by ZEFSAII (Michael W. Deem and Ramdas Pophale) SiO2 
 PCOD9124028
Probable space group: C 2
;
_chemical_formula_sum "Si O2"
_cell_formula_units_Z 26
_cell_length_a 18.245711
_cell_length_b 10.072243
_cell_length_c 7.477663
_cell_angle_alpha 90.000000
_cell_angle_beta 60.469481
_cell_angle_gamma 90.000000
_cell_volume 1195.690254
_symmetry_space_group_name_H-M "C 2"
_symmetry_group_IT_number 5
_symmetry_cell_setting 'monoclinic'
loop_
_space_group_symop_operation_xyz
x,y,z
-x,y,-z
1/2+x,1/2+y,z
1/2-x,1/2+y,-z
loop_
_atom_site_type_symbol
_atom_site_label
_atom_site_fract_x
_atom_site_fract_y
_atom_site_fract_z
Si Si1 0.486790 0.454300 0.722391
Si Si2 0.438813 0.200347 0.226416
Si Si3 0.665157 0.898773 0.260760
Si Si4 0.689223 0.395987 0.196908
Si Si5 0.779367 0.647509 0.588264
Si Si6 0.000000 0.547097 0.500000
Si Si7 0.632822 0.634075 0.519399
O O1 0.500000 0.413804 0.500000
O O2 0.540262 0.355377 0.779232
O O3 0.387047 0.426339 0.853541
O O4 0.534964 0.595278 0.674069
O O5 0.339489 0.173741 0.342943
O O6 0.465937 0.134275 0.379497
O O7 0.500000 0.146749 0.000000
O O8 0.647939 0.756601 0.369276
O O9 0.705835 0.000144 0.355838
O O10 0.574328 0.959621 0.330697
O O11 0.725256 0.901053 0.017704
O O12 0.691948 0.254308 0.295891
O O13 0.674261 0.507045 0.367653
O O14 0.684043 0.662677 0.638184
#
# Coordination Sequence:
#
# PCOD9124028 Si02
#       7
#     4   4   4   4   4   2   4
#     4  10  20  41  66  93 133 177 229 287 336 417
#     4  11  22  39  72  95 129 179 241 287 346 416
#     4  11  25  41  70  95 137 186 223 289 367 416
#     4  11  23  43  73  94 134 189 243 273 356 435
#     4  11  23  44  64 104 133 176 237 297 336 431
#     4  10  24  46  62 100 142 178 236 294 350 436
#     4  11  24  40  67  97 145 171 220 298 360 394
#
# _framework density 21.744762000000001
#
# number of rings (size 3 to 8) (size 9 to 14) (size 15 to 20)
#    0.000    1.231    3.846    2.769    7.538    0.000 
#    0.000    0.000    0.000    0.000    0.000    0.000 
#    0.000    0.000    0.000    0.000    0.000    0.000 
#
# Total GULP energy -72536.267114 kJ/mol
# GULP energy per Si atom -5579.712855 kJ/mol
# Density = 2.169527 g / cm^3
# Si number density = 21.744762 Si / 1000 Ang^3
#
#
#
# Elastic Constant Matrix: (Units=GPa)
#
#
# Indices 1 2 3 4 5 6 
#
# 1 85.3460 23.3904 18.3274 0.0000 -22.1056 0.0000
# 2 23.3904 106.9482 26.0106 0.0000 -6.9971 0.0000
# 3 18.3274 26.0106 113.5239 0.0000 -29.1646 0.0000
# 4 0.0000 0.0000 0.0000 10.3978 0.0000 -8.9391
# 5 -22.1056 -6.9971 -29.1646 0.0000 30.3587 0.0000
# 6 0.0000 0.0000 0.0000 -8.9391 0.0000 15.5851
#
#
#
# Elastic Compliance Matrix: (Units=1/GPa)
#
#
# Indices 1 2 3 4 5 6 
#
# 1 0.015245 -0.002861 0.001164 0.000000 0.011560 0.000000
# 2 -0.002861 0.010439 -0.002452 0.000000 -0.002033 0.000000
# 3 0.001164 -0.002452 0.012288 0.000000 0.012087 0.000000
# 4 0.000000 0.000000 0.000000 0.189730 0.000000 0.108823
# 5 0.011560 -0.002033 0.012087 0.000000 0.052499 0.000000
# 6 0.000000 0.000000 0.000000 0.108823 0.000000 0.126581
#
#
# Mechanical properties :
#
#
# Convention : Reuss Voigt Hill
#
# Bulk Modulus (GPa) = 33.69970 49.03053 41.36512
# Shear Modulus (GPa) = 11.76544 27.14097 19.45320
#
# Velocity S-wave (km/s) = 2.32861 3.53677 2.99426
# Velocity P-wave (km/s) = 4.77089 6.26701 5.56942
#
# Compressibility (1/GPa) = 0.02967385
#
# Stress axis : x y z
#
# Youngs Moduli (GPa) = 65.59436 95.79046 81.38138
#
# Poissons Ratio (x) = 0.27406 -0.09473
# Poissons Ratio (y) = 0.18767 0.19957
# Poissons Ratio (z) = -0.07635 0.23490
#
# Static dielectric constant tensor:
#      x y z
#    x 1.867520 0.000000 -0.046570 
#    y 0.000000 1.802760 0.000000 
#    z -0.046570 0.000000 1.809400 
# 
# From -- ./inp_files/29092.got.cif
#   From: 2010.05.17/outbox.cif.g08.bks.cpg/sg5_15_cif.got.tgz:29092.got - 2010.06.03 18:56:24.
