data_PCOD9124239
_publ_section_title
;
Structure prediction by ZEFSAII (Michael W. Deem and Ramdas Pophale) SiO2 
 PCOD9124239
Probable space group: C 2
;
_chemical_formula_sum "Si O2"
_cell_formula_units_Z 24
_cell_length_a 8.073326
_cell_length_b 27.701261
_cell_length_c 5.844692
_cell_angle_alpha 90.000000
_cell_angle_beta 61.087277
_cell_angle_gamma 90.000000
_cell_volume 1144.192143
_symmetry_space_group_name_H-M "C 2"
_symmetry_group_IT_number 5
_symmetry_cell_setting 'monoclinic'
loop_
_space_group_symop_operation_xyz
x,y,z
-x,y,-z
1/2+x,1/2+y,z
1/2-x,1/2+y,-z
loop_
_atom_site_type_symbol
_atom_site_label
_atom_site_fract_x
_atom_site_fract_y
_atom_site_fract_z
Si Si1 0.500000 0.085330 0.500000
Si Si2 0.798110 0.719406 0.019883
Si Si3 0.801257 0.529920 0.261538
Si Si4 0.319265 0.617293 0.966414
Si Si5 0.000000 0.946861 0.500000
Si Si6 0.215789 0.317384 0.320633
Si Si7 0.000000 0.893503 0.000000
Si Si8 0.000000 0.774861 0.500000
O O1 0.351929 0.050747 0.474456
O O2 0.621853 0.115847 0.240431
O O3 0.671022 0.672166 0.125321
O O4 0.857938 0.739819 0.732903
O O5 0.710124 0.765639 0.201488
O O6 0.000000 0.708175 0.000000
O O7 0.679379 0.482223 0.354774
O O8 0.698621 0.574302 0.202065
O O9 0.000000 0.521549 0.000000
O O10 0.500000 0.607753 0.000000
O O11 0.015413 0.920513 0.740887
O O12 0.361912 0.307272 0.433542
O O13 0.000000 0.332310 0.500000
O O14 0.319310 0.358208 0.104304
#
# Coordination Sequence:
#
# PCOD9124239 Si02
#       8
#     2   4   4   4   2   4   2   2
#     4  10  21  42  67  92 144 187 230 298 357 428
#     4  10  21  40  65  98 143 186 242 293 361 436
#     4  10  24  44  71 101 144 187 239 305 362 442
#     4  11  23  38  64 105 142 191 240 286 365 440
#     4  12  29  48  81 106 148 189 250 315 380 438
#     4  11  25  46  71 100 145 188 246 311 373 443
#     4  12  28  52  76 112 144 194 252 320 384 438
#     4  10  20  42  70  98 148 190 238 313 359 436
#
# _framework density 20.975498000000002
#
# number of rings (size 3 to 8) (size 9 to 14) (size 15 to 20)
#    0.000    1.333    2.500    3.500    8.167    2.667 
#    1.500    0.000    0.000    0.000    0.000    0.000 
#    0.000    0.000    0.000    0.000    0.000    0.000 
#
# Total GULP energy -66981.477644 kJ/mol
# GULP energy per Si atom -5581.789804 kJ/mol
# Density = 2.092776 g / cm^3
# Si number density = 20.975498 Si / 1000 Ang^3
#
#
#
# Elastic Constant Matrix: (Units=GPa)
#
#
# Indices 1 2 3 4 5 6 
#
# 1 82.8981 64.0989 31.0948 0.0000 -12.0909 0.0000
# 2 64.0989 133.5727 60.7861 0.0000 5.1788 0.0000
# 3 31.0948 60.7861 87.3299 0.0000 0.3132 0.0000
# 4 0.0000 0.0000 0.0000 -587.2593 0.0000 1599.9032
# 5 -12.0909 5.1788 0.3132 0.0000 34.4971 0.0000
# 6 0.0000 0.0000 0.0000 1599.9032 0.0000-4041.8792
#
#
#
# Elastic Compliance Matrix: (Units=1/GPa)
#
#
# Indices 1 2 3 4 5 6 
#
# 1 0.021775 -0.010631 -0.000386 0.000000 0.009231 0.000000
# 2 -0.010631 0.016234 -0.007493 0.000000 -0.006095 0.000000
# 3 -0.000386 -0.007493 0.016801 0.000000 0.000837 0.000000
# 4 0.000000 0.000000 0.000000 0.021724 0.000000 0.008599
# 5 0.009231 -0.006095 0.000837 0.000000 0.033131 0.000000
# 6 0.000000 0.000000 0.000000 0.008599 0.000000 0.003156
#
#
# Mechanical properties :
#
#
# Convention : Reuss Voigt Hill
#
# Bulk Modulus (GPa) = 56.21406 68.41781 62.31594
# Shear Modulus (GPa) = 32.09831 -909.07357 -438.48763
#
# Velocity S-wave (km/s) = 3.91612 -20.84079 -14.47416
# Velocity P-wave (km/s) = 6.87794 23.37583 15.79752
#
# Compressibility (1/GPa) = 0.01778914
#
# Stress axis : x y z
#
# Youngs Moduli (GPa) = 45.92461 61.59729 59.52143
#
# Poissons Ratio (x) = 0.65487 0.02299
# Poissons Ratio (y) = 0.48825 0.44598
# Poissons Ratio (z) = 0.01774 0.46153
#
# Static dielectric constant tensor:
#      x y z
#    x 1.851370 0.000000 0.159430 
#    y 0.000000 1.739380 0.000000 
#    z 0.159430 0.000000 1.977360 
# 
# From -- ./inp_files/3375.got.cif
#   From: 2010.05.17/outbox.cif.g08.bks.cpg/sg5_2_cif.got.tgz:3375.got - 2010.06.03 18:56:24.
