data_PCOD9124478
_publ_section_title
;
Structure prediction by ZEFSAII (Michael W. Deem and Ramdas Pophale) SiO2 
 PCOD9124478
Probable space group: C 2
;
_chemical_formula_sum "Si O2"
_cell_formula_units_Z 14
_cell_length_a 7.073892
_cell_length_b 17.671846
_cell_length_c 6.370649
_cell_angle_alpha 90.000000
_cell_angle_beta 136.341680
_cell_angle_gamma 90.000000
_cell_volume 549.790607
_symmetry_space_group_name_H-M "C 2"
_symmetry_group_IT_number 5
_symmetry_cell_setting 'monoclinic'
loop_
_space_group_symop_operation_xyz
x,y,z
-x,y,-z
1/2+x,1/2+y,z
1/2-x,1/2+y,-z
loop_
_atom_site_type_symbol
_atom_site_label
_atom_site_fract_x
_atom_site_fract_y
_atom_site_fract_z
Si Si1 0.089393 0.258580 0.330125
Si Si2 0.090527 0.663538 0.827951
Si Si3 0.302091 0.522500 0.157517
Si Si4 0.000000 0.882456 0.500000
O O1 0.308577 0.188745 0.494147
O O2 0.248125 0.331412 0.372988
O O3 0.000000 0.270893 0.500000
O O4 0.809214 0.230924 0.000269
O O5 0.237886 0.582107 0.921381
O O6 0.000000 0.658816 0.000000
O O7 0.500000 0.558152 0.500000
O O8 0.435342 0.439469 0.253135
O O9 0.000000 0.504644 0.000000
#
# Coordination Sequence:
#
# PCOD9124478 Si02
#       4
#     4   4   4   2
#     4  10  21  35  58  83 114 146 188 233 278 331
#     4   9  17  34  56  81 107 151 190 218 275 341
#     4   9  18  32  57  82 110 151 188 220 281 343
#     4  10  24  34  62  86 118 140 192 236 288 320
#
# _framework density 25.464241999999999
#
# number of rings (size 3 to 8) (size 9 to 14) (size 15 to 20)
#    0.857    1.714    0.000    4.286    4.000    0.000 
#    0.000    0.000    3.143   10.286    0.000    0.000 
#    0.000    0.000    0.000    0.000    0.000    0.000 
#
# Total GULP energy -39044.601404 kJ/mol
# GULP energy per Si atom -5577.800201 kJ/mol
# Density = 2.540628 g / cm^3
# Si number density = 25.464242 Si / 1000 Ang^3
#
#
#
# Elastic Constant Matrix: (Units=GPa)
#
#
# Indices 1 2 3 4 5 6 
#
# 1 83.4598 42.9115 19.8920 0.0000 21.7588 0.0000
# 2 42.9115 209.3432 68.3625 0.0000 9.0539 0.0000
# 3 19.8920 68.3625 185.7371 0.0000 0.9416 0.0000
# 4 0.0000 0.0000 0.0000 64.4334 0.0000 12.8915
# 5 21.7588 9.0539 0.9416 0.0000 41.5256 0.0000
# 6 0.0000 0.0000 0.0000 12.8915 0.0000 18.0512
#
#
#
# Elastic Compliance Matrix: (Units=1/GPa)
#
#
# Indices 1 2 3 4 5 6 
#
# 1 0.015445 -0.002630 -0.000648 0.000000 -0.007505 0.000000
# 2 -0.002630 0.005932 -0.001902 0.000000 0.000128 0.000000
# 3 -0.000648 -0.001902 0.006150 0.000000 0.000615 0.000000
# 4 0.000000 0.000000 0.000000 0.018107 0.000000 -0.012932
# 5 -0.007505 0.000128 0.000615 0.000000 0.027972 0.000000
# 6 0.000000 0.000000 0.000000 -0.012932 0.000000 0.064633
#
#
# Mechanical properties :
#
#
# Convention : Reuss Voigt Hill
#
# Bulk Modulus (GPa) = 58.25202 82.31912 70.28557
# Shear Modulus (GPa) = 32.39978 47.96030 40.18004
#
# Velocity S-wave (km/s) = 3.57089 4.34457 3.97659
# Velocity P-wave (km/s) = 6.31881 7.58713 6.98183
#
# Compressibility (1/GPa) = 0.01716679
#
# Stress axis : x y z
#
# Youngs Moduli (GPa) = 64.74591 168.59072 162.59178
#
# Poissons Ratio (x) = 0.44334 0.10539
# Poissons Ratio (y) = 0.17026 0.30928
# Poissons Ratio (z) = 0.04197 0.32069
#
# Static dielectric constant tensor:
#      x y z
#    x 2.182570 0.000000 -0.115860 
#    y 0.000000 2.058870 0.000000 
#    z -0.115860 0.000000 2.037940 
# 
# From -- ./inp_files/1706.got.cif
#   From: 2010.05.17/outbox.cif.g08.bks.cpg/sg5_1_cif.got.tgz:1706.got - 2010.06.03 18:56:24.
