data_PCOD9124603
_publ_section_title
;
Structure prediction by ZEFSAII (Michael W. Deem and Ramdas Pophale) SiO2 
 PCOD9124603
Probable space group: C 2
;
_chemical_formula_sum "Si O2"
_cell_formula_units_Z 30
_cell_length_a 21.496621
_cell_length_b 12.637114
_cell_length_c 5.275919
_cell_angle_alpha 90.000000
_cell_angle_beta 71.710514
_cell_angle_gamma 90.000000
_cell_volume 1360.828676
_symmetry_space_group_name_H-M "C 2"
_symmetry_group_IT_number 5
_symmetry_cell_setting 'monoclinic'
loop_
_space_group_symop_operation_xyz
x,y,z
-x,y,-z
1/2+x,1/2+y,z
1/2-x,1/2+y,-z
loop_
_atom_site_type_symbol
_atom_site_label
_atom_site_fract_x
_atom_site_fract_y
_atom_site_fract_z
Si Si1 0.622744 0.059300 0.421362
Si Si2 0.866831 0.944077 0.968417
Si Si3 0.500000 0.438061 0.000000
Si Si4 0.741706 0.048959 0.937855
Si Si5 0.730829 0.269250 0.711791
Si Si6 0.931916 0.783803 0.488833
Si Si7 0.197439 0.327297 0.869156
Si Si8 0.073636 0.440838 0.981445
O O1 0.612782 0.182869 0.495930
O O2 0.600520 0.999088 0.697853
O O3 0.697398 0.041272 0.245152
O O4 0.583526 0.014228 0.221152
O O5 0.892853 0.861308 0.724761
O O6 0.817008 0.032047 0.924298
O O7 0.935736 0.995481 0.972315
O O8 0.825015 0.861832 0.202899
O O9 0.462230 0.359111 0.237675
O O10 0.714577 0.150885 0.824997
O O11 0.725486 0.945642 0.796257
O O12 0.767945 0.263212 0.397488
O O13 0.780114 0.298503 0.878433
O O14 0.000000 0.733359 0.500000
O O15 0.119754 0.338825 0.958410
O O16 0.000000 0.415747 0.000000
#
# Coordination Sequence:
#
# PCOD9124603 Si02
#       8
#     4   4   2   4   4   4   4   4
#     4  11  23  37  59  98 125 166 214 264 328 395
#     4  10  22  40  61  96 129 173 216 266 332 392
#     4  10  24  36  66  86 138 172 218 266 336 390
#     4  10  23  43  66  95 135 168 217 272 325 385
#     4  11  23  42  67  94 127 172 213 276 319 382
#     4  10  21  37  56  91 128 170 205 267 325 398
#     4  10  24  41  63  97 126 163 223 261 321 383
#     4  11  22  38  61  88 129 168 205 264 324 382
#
# _framework density 22.045390999999999
#
# number of rings (size 3 to 8) (size 9 to 14) (size 15 to 20)
#    0.000    1.600    1.333    3.600    8.400    4.267 
#    0.000    0.000    1.467    0.000    0.000    0.000 
#    0.000    0.000    0.000    0.000    0.000    0.000 
#
# Total GULP energy -83655.686014 kJ/mol
# GULP energy per Si atom -5577.045734 kJ/mol
# Density = 2.199521 g / cm^3
# Si number density = 22.045391 Si / 1000 Ang^3
#
#
#
# Elastic Constant Matrix: (Units=GPa)
#
#
# Indices 1 2 3 4 5 6 
#
# 1 176.1085 -0.0226 24.5508 0.0000 -18.5397 0.0000
# 2 -0.0226 20.7316 -10.8371 0.0000 -3.0175 0.0000
# 3 24.5508 -10.8371 58.8421 0.0000 -11.9557 0.0000
# 4 0.0000 0.0000 0.0000 11.0857 0.0000 -9.1948
# 5 -18.5397 -3.0175 -11.9557 0.0000 31.5770 0.0000
# 6 0.0000 0.0000 0.0000 -9.1948 0.0000 22.6738
#
#
#
# Elastic Compliance Matrix: (Units=1/GPa)
#
#
# Indices 1 2 3 4 5 6 
#
# 1 0.006277 -0.000731 -0.002187 0.000000 0.002787 0.000000
# 2 -0.000731 0.056262 0.012645 0.000000 0.009735 0.000000
# 3 -0.002187 0.012645 0.021906 0.000000 0.008218 0.000000
# 4 0.000000 0.000000 0.000000 0.135925 0.000000 0.055121
# 5 0.002787 0.009735 0.008218 0.000000 0.037347 0.000000
# 6 0.000000 0.000000 0.000000 0.055121 0.000000 0.066457
#
#
# Mechanical properties :
#
#
# Convention : Reuss Voigt Hill
#
# Bulk Modulus (GPa) = 9.62486 31.45160 20.53823
# Shear Modulus (GPa) = 14.73398 29.20002 21.96700
#
# Velocity S-wave (km/s) = 2.58805 3.64337 3.16008
# Velocity P-wave (km/s) = 3.64775 5.65655 4.75934
#
# Compressibility (1/GPa) = 0.10389762
#
# Stress axis : x y z
#
# Youngs Moduli (GPa) = 159.32351 17.77414 45.65013
#
# Poissons Ratio (x) = 0.01299 0.09984
# Poissons Ratio (y) = 0.11642 -0.57723
# Poissons Ratio (z) = 0.34845 -0.22475
#
# Static dielectric constant tensor:
#      x y z
#    x 2.048120 0.000000 0.037640 
#    y 0.000000 1.844730 0.000000 
#    z 0.037640 0.000000 1.817030 
# 
# From -- ./inp_files/9741.got.cif
#   From: 2010.05.17/outbox.cif.g08.bks.cpg/sg5_5_cif.got.tgz:9741.got - 2010.06.03 18:56:24.
