data_PCOD9124781
_publ_section_title
;
Structure prediction by ZEFSAII (Michael W. Deem and Ramdas Pophale) SiO2 
 PCOD9124781
Probable space group: C 2
;
_chemical_formula_sum "Si O2"
_cell_formula_units_Z 20
_cell_length_a 5.099168
_cell_length_b 24.744755
_cell_length_c 9.907783
_cell_angle_alpha 90.000000
_cell_angle_beta 123.030285
_cell_angle_gamma 90.000000
_cell_volume 1048.096342
_symmetry_space_group_name_H-M "C 2"
_symmetry_group_IT_number 5
_symmetry_cell_setting 'monoclinic'
loop_
_space_group_symop_operation_xyz
x,y,z
-x,y,-z
1/2+x,1/2+y,z
1/2-x,1/2+y,-z
loop_
_atom_site_type_symbol
_atom_site_label
_atom_site_fract_x
_atom_site_fract_y
_atom_site_fract_z
Si Si1 0.873727 0.787460 0.113635
Si Si2 0.127155 0.998585 0.384951
Si Si3 0.428956 0.166079 0.821575
Si Si4 0.207723 0.111619 0.315171
Si Si5 0.375454 0.377932 0.615713
O O1 0.007563 0.728808 0.192081
O O2 0.986502 0.833247 0.247113
O O3 0.500000 0.783608 0.000000
O O4 0.000000 0.799781 0.000000
O O5 0.500000 0.994144 0.500000
O O6 0.068097 0.050755 0.276302
O O7 0.000000 0.009688 0.500000
O O8 0.021611 0.938810 0.312030
O O9 0.654294 0.131266 0.788456
O O10 0.067502 0.149579 0.706381
O O11 0.500000 0.157837 0.000000
O O12 0.500000 0.112163 0.500000
O O13 0.500000 0.369793 0.500000
O O14 0.000000 0.374661 0.500000
#
# Coordination Sequence:
#
# PCOD9124781 Si02
#       5
#     4   4   4   4   4
#     4  11  23  41  59  80 117 155 185 229 290 337
#     4   9  18  35  57  84 116 145 177 231 292 327
#     4  11  23  39  56  81 118 155 185 228 289 335
#     4  11  21  37  61  86 111 148 194 232 273 335
#     4  10  21  38  62  87 111 145 192 236 275 332
#
# _framework density 19.082215999999999
#
# number of rings (size 3 to 8) (size 9 to 14) (size 15 to 20)
#    0.000    1.600    0.000    7.200    0.000    2.400 
#    0.000    3.000    0.000    0.000    0.000    0.000 
#    0.000    0.000    0.000    0.000    0.000    0.000 
#
# Total GULP energy -55836.947542 kJ/mol
# GULP energy per Si atom -5583.694754 kJ/mol
# Density = 1.903878 g / cm^3
# Si number density = 19.082216 Si / 1000 Ang^3
#
#
#
# Elastic Constant Matrix: (Units=GPa)
#
#
# Indices 1 2 3 4 5 6 
#
# 1 164.6544 75.5946 33.2396 0.0000 -10.4791 0.0000
# 2 75.5946 199.2985 83.7384 0.0000 -18.6804 0.0000
# 3 33.2396 83.7384 47.3247 0.0000 -3.0712 0.0000
# 4 0.0000 0.0000 0.0000 -131.0640 0.0000 -55.7601
# 5 -10.4791 -18.6804 -3.0712 0.0000 38.7427 0.0000
# 6 0.0000 0.0000 0.0000 -55.7601 0.0000 18.6819
#
#
#
# Elastic Compliance Matrix: (Units=1/GPa)
#
#
# Indices 1 2 3 4 5 6 
#
# 1 0.007388 -0.002208 -0.001228 0.000000 0.000836 0.000000
# 2 -0.002208 0.022130 -0.037145 0.000000 0.007129 0.000000
# 3 -0.001228 -0.037145 0.086982 0.000000 -0.011347 0.000000
# 4 0.000000 0.000000 0.000000 -0.003361 0.000000 -0.010033
# 5 0.000836 0.007129 -0.011347 0.000000 0.028575 0.000000
# 6 0.000000 0.000000 0.000000 -0.010033 0.000000 0.023582
#
#
# Mechanical properties :
#
#
# Convention : Reuss Voigt Hill
#
# Bulk Modulus (GPa) = 28.29727 88.49142 58.39435
# Shear Modulus (GPa) = 19.36197 -0.14755 9.60721
#
# Velocity S-wave (km/s) = 3.18883 -0.27837 2.24623
# Velocity P-wave (km/s) = 5.33099 6.80963 6.11517
#
# Compressibility (1/GPa) = 0.03533910
#
# Stress axis : x y z
#
# Youngs Moduli (GPa) = 135.35135 45.18717 11.49659
#
# Poissons Ratio (x) = 0.09977 0.01412
# Poissons Ratio (y) = 0.29885 0.42704
# Poissons Ratio (z) = 0.16623 1.67846
#
# Static dielectric constant tensor:
#      x y z
#    x 1.647440 0.000000 -0.003010 
#    y 0.000000 1.704290 0.000000 
#    z -0.003010 0.000000 1.629310 
# 
# From -- ./inp_files/12400.got.cif
#   From: 2010.05.17/outbox.cif.g08.bks.cpg/sg5_7_cif.got.tgz:12400.got - 2010.06.03 18:56:24.
