data_PCOD9124108
_publ_section_title
;
Structure prediction by ZEFSAII (Michael W. Deem and Ramdas Pophale) SiO2 
 PCOD9124108
Probable space group: C 2
;
_chemical_formula_sum "Si O2"
_cell_formula_units_Z 26
_cell_length_a 32.717183
_cell_length_b 5.347530
_cell_length_c 23.112363
_cell_angle_alpha 90.000000
_cell_angle_beta 165.506674
_cell_angle_gamma 90.000000
_cell_volume 1011.992907
_symmetry_space_group_name_H-M "C 2"
_symmetry_group_IT_number 5
_symmetry_cell_setting 'monoclinic'
loop_
_space_group_symop_operation_xyz
x,y,z
-x,y,-z
1/2+x,1/2+y,z
1/2-x,1/2+y,-z
loop_
_atom_site_type_symbol
_atom_site_label
_atom_site_fract_x
_atom_site_fract_y
_atom_site_fract_z
Si Si1 0.493521 0.105940 0.372855
Si Si2 0.500000 0.359836 0.500000
Si Si3 0.479524 0.518564 0.160372
Si Si4 0.977712 0.507411 0.709259
Si Si5 0.125941 0.139239 0.242952
Si Si6 0.182128 0.374925 0.214723
Si Si7 0.725431 0.735785 0.745176
O O1 0.437518 0.205955 0.358273
O O2 0.417086 0.056197 0.205036
O O3 0.633423 0.303552 0.546307
O O4 0.581447 0.847531 0.509407
O O5 0.647512 0.537324 0.681886
O O6 0.515506 0.255447 0.241462
O O7 0.611307 0.593565 0.291207
O O8 0.467636 0.753709 0.185856
O O9 0.309720 0.456882 0.895850
O O10 0.779063 0.480477 0.428840
O O11 0.163572 0.399199 0.258383
O O12 0.934515 0.141240 0.962161
O O13 0.147466 0.596446 0.122758
#
# Coordination Sequence:
#
# PCOD9124108 Si02
#       7
#     4   2   4   4   4   4   4
#     4  10  22  45  71 106 136 187 248 314 366 443
#     4  10  24  44  84 106 132 186 260 316 384 438
#     4  12  25  45  68 106 153 200 233 300 364 439
#     4  11  27  42  71 103 156 195 242 289 370 441
#     4  10  20  42  63 103 147 199 240 287 342 440
#     4   9  20  39  66 109 142 187 249 306 348 410
#     4  11  23  44  79 104 143 188 252 315 372 441
#
# _framework density 25.691883000000001
#
# number of rings (size 3 to 8) (size 9 to 14) (size 15 to 20)
#    0.000    1.538    1.538    2.308    8.615    1.231 
#   11.077    0.000    6.769    0.000    0.000    0.000 
#    0.000    0.000    0.000    0.000    0.000    0.000 
#
# Total GULP energy -72453.130095 kJ/mol
# GULP energy per Si atom -5573.317700 kJ/mol
# Density = 2.563341 g / cm^3
# Si number density = 25.691883 Si / 1000 Ang^3
#
#
#
# Elastic Constant Matrix: (Units=GPa)
#
#
# Indices 1 2 3 4 5 6 
#
# 1 210.5379 89.6555 0.9087 0.0006 -1.5795 -0.0005
# 2 89.6555 148.0109 22.1792 0.0015 -10.3068 -0.0016
# 3 0.9087 22.1792 22.2351 0.0001 -4.9386 -0.0005
# 4 0.0006 0.0015 0.0001 35.6701 -0.0002 -6.8475
# 5 -1.5795 -10.3068 -4.9386 -0.0002 31.5532 0.0001
# 6 -0.0005 -0.0016 -0.0005 -6.8475 0.0001 15.2498
#
#
#
# Elastic Compliance Matrix: (Units=1/GPa)
#
#
# Indices 1 2 3 4 5 6 
#
# 1 0.006769 -0.004795 0.004386 0.000000 -0.000541 0.000000
# 2 -0.004795 0.011401 -0.010777 0.000000 0.001797 0.000001
# 3 0.004386 -0.010777 0.056786 0.000000 0.005587 0.000001
# 4 0.000000 0.000000 0.000000 0.030679 0.000000 0.013776
# 5 -0.000541 0.001797 0.005587 0.000000 0.033127 0.000000
# 6 0.000000 0.000001 0.000001 0.013776 0.000000 0.071760
#
#
# Mechanical properties :
#
#
# Convention : Reuss Voigt Hill
#
# Bulk Modulus (GPa) = 19.01743 67.36341 43.19042
# Shear Modulus (GPa) = 19.96639 34.36399 27.16519
#
# Velocity S-wave (km/s) = 2.79076 3.66121 3.25521
# Velocity P-wave (km/s) = 4.21932 6.64449 5.56560
#
# Compressibility (1/GPa) = 0.05258334
#
# Stress axis : x y z
#
# Youngs Moduli (GPa) = 147.74072 87.71341 17.61012
#
# Poissons Ratio (x) = 0.42058 -0.07724
# Poissons Ratio (y) = 0.70840 0.18978
# Poissons Ratio (z) = -0.64800 0.94528
#
# Static dielectric constant tensor:
#      x y z
#    x 2.161500 0.000000 -0.056260 
#    y 0.000000 2.044370 0.000000 
#    z -0.056260 0.000000 2.196890 
# 
# From -- ./inp_files/67694.got.cif
#   From: 2010.05.17/outbox.cif.g08.bks.cpg/sg5_34_cif.got.tgz:67694.got - 2010.06.03 18:56:24.
