data_PCOD9124930
_publ_section_title
;
Structure prediction by ZEFSAII (Michael W. Deem and Ramdas Pophale) SiO2 
 PCOD9124930
Probable space group: C 2
;
_chemical_formula_sum "Si O2"
_cell_formula_units_Z 24
_cell_length_a 26.816619
_cell_length_b 5.161339
_cell_length_c 8.003809
_cell_angle_alpha 90.000000
_cell_angle_beta 97.168090
_cell_angle_gamma 90.000000
_cell_volume 1099.146282
_symmetry_space_group_name_H-M "C 2"
_symmetry_group_IT_number 5
_symmetry_cell_setting 'monoclinic'
loop_
_space_group_symop_operation_xyz
x,y,z
-x,y,-z
1/2+x,1/2+y,z
1/2-x,1/2+y,-z
loop_
_atom_site_type_symbol
_atom_site_label
_atom_site_fract_x
_atom_site_fract_y
_atom_site_fract_z
Si Si1 0.227501 0.712930 0.563639
Si Si2 0.383891 0.360088 0.409891
Si Si3 0.557819 0.852175 0.974419
Si Si4 0.266047 0.449219 0.913887
Si Si5 0.881041 0.851932 0.000327
Si Si6 0.056962 0.359856 0.572993
O O1 0.241943 0.481438 0.442967
O O2 0.169446 0.790722 0.534525
O O3 0.240064 0.575821 0.743520
O O4 0.378113 0.354572 0.203776
O O5 0.405049 0.637995 0.470720
O O6 0.424076 0.140540 0.474345
O O7 0.582528 0.583520 0.039603
O O8 0.559124 0.855010 0.774239
O O9 0.593361 0.086304 0.045423
O O10 0.500000 0.881805 0.000000
O O11 0.239694 0.179530 0.952505
O O12 0.324717 0.391296 0.913229
O O13 0.000000 0.306219 0.500000
#
# Coordination Sequence:
#
# PCOD9124930 Si02
#       6
#     4   4   4   4   4   4
#     4  12  26  44  64  99 139 170 209 277 341 370
#     4  10  21  41  65  86 125 170 209 258 317 385
#     4  10  21  39  61  89 127 154 202 273 325 357
#     4  12  24  42  72  96 125 173 232 264 305 412
#     4  10  21  39  66  91 116 169 217 255 309 386
#     4  10  21  39  64  89 116 166 217 251 308 395
#
# _framework density 21.835128000000001
#
# number of rings (size 3 to 8) (size 9 to 14) (size 15 to 20)
#    0.000    1.333    1.667    4.000    4.667    0.000 
#    9.000    0.000    0.000    0.000    0.000    0.000 
#    0.000    0.000    0.000    0.000    0.000    0.000 
#
# Total GULP energy -67146.188292 kJ/mol
# GULP energy per Si atom -5595.515691 kJ/mol
# Density = 2.178543 g / cm^3
# Si number density = 21.835128 Si / 1000 Ang^3
#
#
#
# Elastic Constant Matrix: (Units=GPa)
#
#
# Indices 1 2 3 4 5 6 
#
# 1 147.5820 53.2743 8.0507 0.0000 13.8285 0.0000
# 2 53.2743 140.2778 11.6561 0.0000 -3.0510 0.0000
# 3 8.0507 11.6561 24.1211 0.0000 8.4059 0.0000
# 4 0.0000 0.0000 0.0000 13.7156 0.0000 -2.3881
# 5 13.8285 -3.0510 8.4059 0.0000 29.6633 0.0000
# 6 0.0000 0.0000 0.0000 -2.3881 0.0000 49.3242
#
#
#
# Elastic Compliance Matrix: (Units=1/GPa)
#
#
# Indices 1 2 3 4 5 6 
#
# 1 0.008352 -0.003291 0.000308 0.000000 -0.004319 0.000000
# 2 -0.003291 0.008830 -0.004460 0.000000 0.003707 0.000000
# 3 0.000308 -0.004460 0.048510 0.000000 -0.014349 0.000000
# 4 0.000000 0.000000 0.000000 0.073529 0.000000 0.003560
# 5 -0.004319 0.003707 -0.014349 0.000000 0.040173 0.000000
# 6 0.000000 0.000000 0.000000 0.003560 0.000000 0.020446
#
#
# Mechanical properties :
#
#
# Convention : Reuss Voigt Hill
#
# Bulk Modulus (GPa) = 19.68279 50.88257 35.28268
# Shear Modulus (GPa) = 21.58310 34.47393 28.02852
#
# Velocity S-wave (km/s) = 3.14739 3.97776 3.58668
# Velocity P-wave (km/s) = 4.71613 6.66711 5.77461
#
# Compressibility (1/GPa) = 0.05080580
#
# Stress axis : x y z
#
# Youngs Moduli (GPa) = 119.73230 113.25098 20.61415
#
# Poissons Ratio (x) = 0.37276 -0.00635
# Poissons Ratio (y) = 0.39409 0.09194
# Poissons Ratio (z) = -0.03691 0.50510
#
# Static dielectric constant tensor:
#      x y z
#    x 1.735560 0.000000 -0.037450 
#    y 0.000000 1.771930 0.000000 
#    z -0.037450 0.000000 1.858790 
# 
# From -- ./inp_files/30329.got.cif
#   From: 2010.05.17/outbox.cif.g08.bks.cpg/sg5_16_cif.got.tgz:30329.got - 2010.06.03 18:56:24.
