data_PCOD9124776
_publ_section_title
;
Structure prediction by ZEFSAII (Michael W. Deem and Ramdas Pophale) SiO2 
 PCOD9124776
Probable space group: C 2
;
_chemical_formula_sum "Si O2"
_cell_formula_units_Z 32
_cell_length_a 16.583530
_cell_length_b 11.744830
_cell_length_c 8.191499
_cell_angle_alpha 90.000000
_cell_angle_beta 97.990976
_cell_angle_gamma 90.000000
_cell_volume 1579.972330
_symmetry_space_group_name_H-M "C 2"
_symmetry_group_IT_number 5
_symmetry_cell_setting 'monoclinic'
loop_
_space_group_symop_operation_xyz
x,y,z
-x,y,-z
1/2+x,1/2+y,z
1/2-x,1/2+y,-z
loop_
_atom_site_type_symbol
_atom_site_label
_atom_site_fract_x
_atom_site_fract_y
_atom_site_fract_z
Si Si1 0.749977 0.758430 0.103542
Si Si2 0.372972 0.921641 0.776199
Si Si3 0.297512 0.848647 0.410852
Si Si4 0.262116 0.133646 0.762585
Si Si5 0.815090 0.035531 0.770022
Si Si6 0.362506 0.455536 0.145791
Si Si7 0.508023 0.576769 0.308570
Si Si8 0.533628 0.830474 0.696408
O O1 0.671938 0.843508 0.100139
O O2 0.736443 0.648155 0.209457
O O3 0.827816 0.832212 0.176071
O O4 0.762138 0.710725 0.925225
O O5 0.334691 0.871337 0.598346
O O6 0.470079 0.903891 0.785722
O O7 0.340914 0.051526 0.778166
O O8 0.257343 0.723986 0.383902
O O9 0.372024 0.860489 0.301767
O O10 0.232113 0.943987 0.349574
O O11 0.187208 0.045839 0.758029
O O12 0.898615 0.071908 0.711355
O O13 0.837017 0.982390 0.952997
O O14 0.456214 0.479958 0.204374
O O15 0.500000 0.565220 0.500000
O O16 0.473318 0.700039 0.247363
O O17 0.500000 0.832687 0.500000
#
# Coordination Sequence:
#
# PCOD9124776 Si02
#       8
#     4   4   4   4   4   4   4   4
#     4  10  21  39  62  88 126 160 208 249 313 372
#     4  10  22  37  66  92 128 162 209 261 314 361
#     4  11  22  38  65  95 120 163 210 259 310 373
#     4  10  21  38  61  93 125 164 207 258 307 376
#     4  11  23  38  62  91 123 163 204 255 313 374
#     4  10  21  39  61  88 126 164 203 257 312 364
#     4  11  22  37  62  93 124 155 208 260 305 365
#     4   9  19  38  59  92 124 154 203 261 305 360
#
# _framework density 20.253518
#
# number of rings (size 3 to 8) (size 9 to 14) (size 15 to 20)
#    0.000    1.750    3.750    0.375    5.250    0.000 
#    0.000    1.875    0.000    1.500    0.000    0.000 
#    0.000    0.000    0.000    0.000    0.000    0.000 
#
# Total GULP energy -89400.448599 kJ/mol
# GULP energy per Si atom -5587.528037 kJ/mol
# Density = 2.020742 g / cm^3
# Si number density = 20.253518 Si / 1000 Ang^3
#
#
#
# Elastic Constant Matrix: (Units=GPa)
#
#
# Indices 1 2 3 4 5 6 
#
# 1 61.8387 31.5481 18.9777 0.0000 -17.1371 0.0000
# 2 31.5481 101.8071 30.8463 0.0000 -6.0717 0.0000
# 3 18.9777 30.8463 53.1430 0.0000 -7.6883 0.0000
# 4 0.0000 0.0000 0.0000 21.1066 0.0000 -3.8953
# 5 -17.1371 -6.0717 -7.6883 0.0000 24.9402 0.0000
# 6 0.0000 0.0000 0.0000 -3.8953 0.0000 34.6274
#
#
#
# Elastic Compliance Matrix: (Units=1/GPa)
#
#
# Indices 1 2 3 4 5 6 
#
# 1 0.023922 -0.005584 -0.003266 0.000000 0.014071 0.000000
# 2 -0.005584 0.013238 -0.006048 0.000000 -0.002479 0.000000
# 3 -0.003266 -0.006048 0.024028 0.000000 0.003691 0.000000
# 4 0.000000 0.000000 0.000000 0.048383 0.000000 0.005443
# 5 0.014071 -0.002479 0.003691 0.000000 0.050299 0.000000
# 6 0.000000 0.000000 0.000000 0.005443 0.000000 0.029491
#
#
# Mechanical properties :
#
#
# Convention : Reuss Voigt Hill
#
# Bulk Modulus (GPa) = 31.85600 42.17034 37.01317
# Shear Modulus (GPa) = 21.77516 25.16262 23.46889
#
# Velocity S-wave (km/s) = 3.28247 3.52857 3.40774
# Velocity P-wave (km/s) = 5.48898 6.12107 5.81362
#
# Compressibility (1/GPa) = 0.03139126
#
# Stress axis : x y z
#
# Youngs Moduli (GPa) = 41.80320 75.54226 41.61848
#
# Poissons Ratio (x) = 0.42185 0.13591
# Poissons Ratio (y) = 0.23344 0.25171
# Poissons Ratio (z) = 0.13651 0.45689
#
# Static dielectric constant tensor:
#      x y z
#    x 1.725890 0.000000 -0.011750 
#    y 0.000000 1.702620 0.000000 
#    z -0.011750 0.000000 1.771550 
# 
# From -- ./inp_files/23894.got.cif
#   From: 2010.05.17/outbox.cif.g08.bks.cpg/sg5_12_cif.got.tgz:23894.got - 2010.06.03 18:56:24.
