data_PCOD9124993
_publ_section_title
;
Structure prediction by ZEFSAII (Michael W. Deem and Ramdas Pophale) SiO2 
 PCOD9124993
Probable space group: C 2
;
_chemical_formula_sum "Si O2"
_cell_formula_units_Z 28
_cell_length_a 13.600639
_cell_length_b 12.077803
_cell_length_c 9.825976
_cell_angle_alpha 90.000000
_cell_angle_beta 70.134490
_cell_angle_gamma 90.000000
_cell_volume 1518.023356
_symmetry_space_group_name_H-M "C 2"
_symmetry_group_IT_number 5
_symmetry_cell_setting 'monoclinic'
loop_
_space_group_symop_operation_xyz
x,y,z
-x,y,-z
1/2+x,1/2+y,z
1/2-x,1/2+y,-z
loop_
_atom_site_type_symbol
_atom_site_label
_atom_site_fract_x
_atom_site_fract_y
_atom_site_fract_z
Si Si1 0.378210 0.246790 0.537949
Si Si2 0.241588 0.214236 0.838895
Si Si3 0.321830 0.510221 0.962581
Si Si4 0.880147 0.779584 0.023004
Si Si5 0.307827 0.139844 0.298908
Si Si6 0.890356 0.002483 0.620284
Si Si7 0.380860 0.939621 0.101310
O O1 0.500000 0.220808 0.500000
O O2 0.299719 0.180516 0.673514
O O3 0.352121 0.214810 0.397035
O O4 0.364596 0.376563 0.584937
O O5 0.167214 0.319261 0.845211
O O6 0.337410 0.248776 0.894082
O O7 0.178570 0.121439 0.950295
O O8 0.383513 0.509123 0.788868
O O9 0.201164 0.485044 0.974301
O O10 0.364603 0.410850 0.034415
O O11 0.808465 0.715411 0.164103
O O12 0.000000 0.749627 0.000000
O O13 0.195449 0.090263 0.387014
O O14 0.372215 0.029305 0.226722
O O15 0.000000 0.028592 0.500000
O O16 0.500000 0.932762 0.000000
#
# Coordination Sequence:
#
# PCOD9124993 Si02
#       7
#     4   4   4   4   4   4   4
#     4  11  23  38  64  89 125 164 205 251 307 362
#     4  11  21  43  61  91 124 161 200 260 301 367
#     4  10  22  40  64  91 121 157 216 252 301 362
#     4  11  21  37  64  94 116 156 212 250 298 366
#     4  11  22  39  64  91 122 158 206 253 311 359
#     4  10  21  42  61  85 129 166 197 255 314 362
#     4  10  21  39  64  86 123 159 200 253 313 354
#
# _framework density 18.445039000000001
#
# number of rings (size 3 to 8) (size 9 to 14) (size 15 to 20)
#    0.000    1.429    7.143    1.286    4.000    1.714 
#    2.571    0.000    0.000    0.857    0.000    0.000 
#    0.000    0.000    0.000    0.000    0.000    0.000 
#
# Total GULP energy -78050.737824 kJ/mol
# GULP energy per Si atom -5575.052702 kJ/mol
# Density = 1.840306 g / cm^3
# Si number density = 18.445039 Si / 1000 Ang^3
#
#
#
# Elastic Constant Matrix: (Units=GPa)
#
#
# Indices 1 2 3 4 5 6 
#
# 1 73.6184 7.4822 38.1820 0.0000 -31.8033 0.0000
# 2 7.4822 81.3488 26.2301 0.0000 -8.8372 0.0000
# 3 38.1820 26.2301 71.1411 0.0000 -12.9660 0.0000
# 4 0.0000 0.0000 0.0000 27.3439 0.0000 -0.1066
# 5 -31.8033 -8.8372 -12.9660 0.0000 33.6316 0.0000
# 6 0.0000 0.0000 0.0000 -0.1066 0.0000 7.8227
#
#
#
# Elastic Compliance Matrix: (Units=1/GPa)
#
#
# Indices 1 2 3 4 5 6 
#
# 1 0.031220 0.004308 -0.013722 0.000000 0.025365 0.000000
# 2 0.004308 0.014649 -0.006743 0.000000 0.005324 0.000000
# 3 -0.013722 -0.006743 0.022823 0.000000 -0.005949 0.000000
# 4 0.000000 0.000000 0.000000 0.036573 0.000000 0.000498
# 5 0.025365 0.005324 -0.005949 0.000000 0.052826 0.000000
# 6 0.000000 0.000000 0.000000 0.000498 0.000000 0.127839
#
#
# Mechanical properties :
#
#
# Convention : Reuss Voigt Hill
#
# Bulk Modulus (GPa) = 27.48815 41.09963 34.29389
# Shear Modulus (GPa) = 15.13456 24.04057 19.58756
#
# Velocity S-wave (km/s) = 2.86758 3.61413 3.26228
# Velocity P-wave (km/s) = 5.08912 6.30448 5.72912
#
# Compressibility (1/GPa) = 0.03637931
#
# Stress axis : x y z
#
# Youngs Moduli (GPa) = 32.03072 68.26361 43.81514
#
# Poissons Ratio (x) = -0.29410 0.60121
# Poissons Ratio (y) = -0.13800 0.29546
# Poissons Ratio (z) = 0.43951 0.46032
#
# Static dielectric constant tensor:
#      x y z
#    x 1.637820 0.000000 -0.003550 
#    y 0.000000 1.668330 0.000000 
#    z -0.003550 0.000000 1.642530 
# 
# From -- ./inp_files/23582.got.cif
#   From: 2010.05.17/outbox.cif.g08.bks.cpg/sg5_12_cif.got.tgz:23582.got - 2010.06.03 18:56:24.
