data_PCOD9124911
_publ_section_title
;
Structure prediction by ZEFSAII (Michael W. Deem and Ramdas Pophale) SiO2 
 PCOD9124911
Probable space group: C 2
;
_chemical_formula_sum "Si O2"
_cell_formula_units_Z 32
_cell_length_a 14.444122
_cell_length_b 27.860284
_cell_length_c 8.947373
_cell_angle_alpha 90.000000
_cell_angle_beta 151.403662
_cell_angle_gamma 90.000000
_cell_volume 1723.365346
_symmetry_space_group_name_H-M "C 2"
_symmetry_group_IT_number 5
_symmetry_cell_setting 'monoclinic'
loop_
_space_group_symop_operation_xyz
x,y,z
-x,y,-z
1/2+x,1/2+y,z
1/2-x,1/2+y,-z
loop_
_atom_site_type_symbol
_atom_site_label
_atom_site_fract_x
_atom_site_fract_y
_atom_site_fract_z
Si Si1 0.033659 0.553110 0.370358
Si Si2 0.799919 0.972548 0.636726
Si Si3 0.940628 0.653167 0.750355
Si Si4 0.288875 0.491568 0.262767
Si Si5 0.444850 0.801398 0.255920
Si Si6 0.817549 0.241947 0.631518
Si Si7 0.564791 0.238085 0.755721
Si Si8 0.460430 0.901465 0.119417
O O1 0.072607 0.606888 0.370585
O O2 0.000000 0.552166 0.500000
O O3 0.215371 0.519242 0.597069
O O4 0.862602 0.529637 0.024138
O O5 0.797613 0.986440 0.456145
O O6 0.651263 0.928566 0.449860
O O7 0.000000 0.960459 0.000000
O O8 0.095114 0.691210 0.900963
O O9 0.748931 0.686748 0.485531
O O10 0.000000 0.638689 0.000000
O O11 0.500000 0.502090 0.500000
O O12 0.211683 0.439464 0.100431
O O13 0.500000 0.815624 0.500000
O O14 0.612673 0.769255 0.416989
O O15 0.419720 0.849732 0.127409
O O16 0.249470 0.770680 0.992970
O O17 0.622487 0.263258 0.431817
O O18 0.000000 0.244794 0.000000
O O19 0.500000 0.221075 0.500000
O O20 0.500000 0.896109 0.000000
#
# Coordination Sequence:
#
# PCOD9124911 Si02
#       8
#     4   4   4   4   4   4   4   4
#     4  11  22  38  64  91 126 160 206 252 304 372
#     4  10  21  41  63  91 124 158 203 256 313 371
#     4  10  21  39  60  88 125 161 200 257 309 361
#     4  10  21  41  64  89 122 163 203 254 312 370
#     4  12  23  39  62  92 123 164 209 256 311 366
#     4  10  22  41  63  86 124 162 207 255 304 367
#     4  10  22  40  62  87 122 165 205 254 307 366
#     4   9  22  41  60  87 123 160 204 253 305 369
#
# _framework density 18.56832
#
# number of rings (size 3 to 8) (size 9 to 14) (size 15 to 20)
#    0.750    1.000    1.250    4.125    0.000    4.000 
#    4.500    4.375    0.000    0.000    0.000    0.000 
#    0.000    0.000    0.000    0.000    0.000    0.000 
#
# Total GULP energy -89169.612168 kJ/mol
# GULP energy per Si atom -5573.100760 kJ/mol
# Density = 1.852606 g / cm^3
# Si number density = 18.568320 Si / 1000 Ang^3
#
#
#
# Elastic Constant Matrix: (Units=GPa)
#
#
# Indices 1 2 3 4 5 6 
#
# 1 76.7795 29.9626 11.8884 0.0000 8.0437 0.0000
# 2 29.9626 114.3992 13.1765 0.0000 6.6979 0.0000
# 3 11.8884 13.1765 51.4187 0.0000 -0.5901 0.0000
# 4 0.0000 0.0000 0.0000 5.7436 0.0000 -8.3440
# 5 8.0437 6.6979 -0.5901 0.0000 31.7950 0.0000
# 6 0.0000 0.0000 0.0000 -8.3440 0.0000 29.4419
#
#
#
# Elastic Compliance Matrix: (Units=1/GPa)
#
#
# Indices 1 2 3 4 5 6 
#
# 1 0.015117 -0.003471 -0.002642 0.000000 -0.003142 0.000000
# 2 -0.003471 0.009926 -0.001755 0.000000 -0.001245 0.000000
# 3 -0.002642 -0.001755 0.020525 0.000000 0.001419 0.000000
# 4 0.000000 0.000000 0.000000 0.295957 0.000000 0.083876
# 5 -0.003142 -0.001245 0.001419 0.000000 0.032535 0.000000
# 6 0.000000 0.000000 0.000000 0.083876 0.000000 0.057736
#
#
# Mechanical properties :
#
#
# Convention : Reuss Voigt Hill
#
# Bulk Modulus (GPa) = 33.52162 39.18360 36.35261
# Shear Modulus (GPa) = 10.92952 25.90075 18.41514
#
# Velocity S-wave (km/s) = 2.42876 3.73887 3.15262
# Velocity P-wave (km/s) = 5.09485 6.30770 5.73344
#
# Compressibility (1/GPa) = 0.02983149
#
# Stress axis : x y z
#
# Youngs Moduli (GPa) = 66.15019 100.75030 48.72093
#
# Poissons Ratio (x) = 0.34972 0.12871
# Poissons Ratio (y) = 0.22961 0.08552
# Poissons Ratio (z) = 0.17475 0.17684
#
# Static dielectric constant tensor:
#      x y z
#    x 1.653730 0.000000 -0.017730 
#    y 0.000000 1.616600 0.000000 
#    z -0.017730 0.000000 1.663810 
# 
# From -- ./inp_files/25710.got.cif
#   From: 2010.05.17/outbox.cif.g08.bks.cpg/sg5_13_cif.got.tgz:25710.got - 2010.06.03 18:56:24.
