data_PCOD9124897
_publ_section_title
;
Structure prediction by ZEFSAII (Michael W. Deem and Ramdas Pophale) SiO2 
 PCOD9124897
Probable space group: C 2
;
_chemical_formula_sum "Si O2"
_cell_formula_units_Z 28
_cell_length_a 9.341591
_cell_length_b 11.066006
_cell_length_c 13.552557
_cell_angle_alpha 90.000000
_cell_angle_beta 60.976055
_cell_angle_gamma 90.000000
_cell_volume 1225.043738
_symmetry_space_group_name_H-M "C 2"
_symmetry_group_IT_number 5
_symmetry_cell_setting 'monoclinic'
loop_
_space_group_symop_operation_xyz
x,y,z
-x,y,-z
1/2+x,1/2+y,z
1/2-x,1/2+y,-z
loop_
_atom_site_type_symbol
_atom_site_label
_atom_site_fract_x
_atom_site_fract_y
_atom_site_fract_z
Si Si1 0.526449 0.618680 0.374836
Si Si2 0.514352 0.348734 0.376917
Si Si3 0.218044 0.832694 0.717904
Si Si4 0.104862 0.278377 0.054402
Si Si5 0.056749 0.460703 0.228382
Si Si6 0.163942 0.238231 0.713428
Si Si7 0.455331 0.184512 0.902373
O O1 0.500000 0.621143 0.500000
O O2 0.572134 0.483581 0.329565
O O3 0.660191 0.719708 0.304738
O O4 0.361501 0.655163 0.372399
O O5 0.500000 0.342208 0.500000
O O6 0.347609 0.332065 0.371904
O O7 0.656355 0.253703 0.304198
O O8 0.323449 0.948699 0.717701
O O9 0.058664 0.802969 0.836795
O O10 0.154186 0.385875 0.111030
O O11 0.973089 0.200321 0.160930
O O12 0.262559 0.208980 0.966705
O O13 0.000000 0.330404 0.000000
O O14 0.007401 0.584048 0.193144
O O15 0.898522 0.373955 0.296960
O O16 0.500000 0.149586 0.000000
#
# Coordination Sequence:
#
# PCOD9124897 Si02
#       7
#     4   4   4   4   4   4   4
#     4  10  21  41  64  89 124 162 202 257 316 369
#     4  11  23  39  68  95 119 163 208 259 317 367
#     4  11  23  42  61  94 125 159 211 258 301 374
#     4  10  21  39  56  89 122 163 205 243 305 362
#     4   9  22  40  59  85 123 165 202 247 308 353
#     4   9  20  41  57  89 124 157 204 249 309 365
#     4  12  21  41  63  90 128 166 210 252 301 367
#
# _framework density 22.856324999999998
#
# number of rings (size 3 to 8) (size 9 to 14) (size 15 to 20)
#    0.857    0.857    1.429    3.000    0.000    2.286 
#    7.714    0.000    0.000    6.000    0.000    0.000 
#    0.000    0.000    0.000    0.000    0.000    0.000 
#
# Total GULP energy -78114.768508 kJ/mol
# GULP energy per Si atom -5579.626322 kJ/mol
# Density = 2.280430 g / cm^3
# Si number density = 22.856325 Si / 1000 Ang^3
#
#
#
# Elastic Constant Matrix: (Units=GPa)
#
#
# Indices 1 2 3 4 5 6 
#
# 1 142.9970 18.9574 8.5625 0.0000 27.7478 0.0000
# 2 18.9574 50.7945 0.9851 0.0000 3.5821 0.0000
# 3 8.5625 0.9851 29.5077 0.0000 11.7430 0.0000
# 4 0.0000 0.0000 0.0000 16.3488 0.0000 4.5565
# 5 27.7478 3.5821 11.7430 0.0000 39.2998 0.0000
# 6 0.0000 0.0000 0.0000 4.5565 0.0000 27.3143
#
#
#
# Elastic Compliance Matrix: (Units=1/GPa)
#
#
# Indices 1 2 3 4 5 6 
#
# 1 0.008471 -0.002758 -0.000097 0.000000 -0.005700 0.000000
# 2 -0.002758 0.020712 0.000097 0.000000 0.000030 0.000000
# 3 -0.000097 0.000097 0.038465 0.000000 -0.011433 0.000000
# 4 0.000000 0.000000 0.000000 0.064149 0.000000 -0.010701
# 5 -0.005700 0.000030 -0.011433 0.000000 0.032884 0.000000
# 6 0.000000 0.000000 0.000000 -0.010701 0.000000 0.038396
#
#
# Mechanical properties :
#
#
# Convention : Reuss Voigt Hill
#
# Bulk Modulus (GPa) = 16.09498 31.14545 23.62021
# Shear Modulus (GPa) = 21.80518 29.57886 25.69202
#
# Velocity S-wave (km/s) = 3.09206 3.60129 3.35635
# Velocity P-wave (km/s) = 4.45026 5.56315 5.03753
#
# Compressibility (1/GPa) = 0.06213118
#
# Stress axis : x y z
#
# Youngs Moduli (GPa) = 118.05450 48.28046 25.99792
#
# Poissons Ratio (x) = 0.13313 0.00253
# Poissons Ratio (y) = 0.32554 -0.00251
# Poissons Ratio (z) = 0.01150 -0.00467
#
# Static dielectric constant tensor:
#      x y z
#    x 1.904370 0.000000 0.029960 
#    y 0.000000 1.863580 0.000000 
#    z 0.029960 0.000000 1.866150 
# 
# From -- ./inp_files/50399.got.cif
#   From: 2010.05.17/outbox.cif.g08.bks.cpg/sg5_26_cif.got.tgz:50399.got - 2010.06.03 18:56:24.
