data_PCOD9124547
_publ_section_title
;
Structure prediction by ZEFSAII (Michael W. Deem and Ramdas Pophale) SiO2 
 PCOD9124547
Probable space group: C 2
;
_chemical_formula_sum "Si O2"
_cell_formula_units_Z 28
_cell_length_a 5.116508
_cell_length_b 13.385647
_cell_length_c 22.303688
_cell_angle_alpha 90.000000
_cell_angle_beta 104.282524
_cell_angle_gamma 90.000000
_cell_volume 1480.315470
_symmetry_space_group_name_H-M "C 2"
_symmetry_group_IT_number 5
_symmetry_cell_setting 'monoclinic'
loop_
_space_group_symop_operation_xyz
x,y,z
-x,y,-z
1/2+x,1/2+y,z
1/2-x,1/2+y,-z
loop_
_atom_site_type_symbol
_atom_site_label
_atom_site_fract_x
_atom_site_fract_y
_atom_site_fract_z
Si Si1 0.889714 0.509950 0.363732
Si Si2 0.044106 0.919105 0.572980
Si Si3 0.199976 0.013473 0.956952
Si Si4 0.534721 0.739772 0.931343
Si Si5 0.141783 0.741573 0.667748
Si Si6 0.989332 0.832502 0.874137
Si Si7 0.293157 0.831577 0.269715
O O1 0.708076 0.468993 0.407766
O O2 0.841105 0.625717 0.347690
O O3 0.818388 0.439800 0.302761
O O4 0.198214 0.487649 0.397819
O O5 0.099733 0.811732 0.607011
O O6 0.000000 0.909879 0.500000
O O7 0.133574 0.125915 0.933461
O O8 0.500000 0.008481 0.000000
O O9 0.135952 0.934926 0.901504
O O10 0.000000 0.989718 0.000000
O O11 0.763240 0.803422 0.910595
O O12 0.236844 0.754096 0.887286
O O13 0.500000 0.765850 0.000000
O O14 0.412784 0.781701 0.714666
O O15 0.893534 0.764569 0.697655
O O16 0.841298 0.839005 0.802528
#
# Coordination Sequence:
#
# PCOD9124547 Si02
#       7
#     4   4   4   4   4   4   4
#     4  10  21  40  60  82 121 159 187 235 291 331
#     4  10  21  36  59  92 118 146 197 239 275 342
#     4  11  23  39  59  84 113 146 185 231 290 350
#     4  11  23  40  59  84 117 149 187 237 294 350
#     4  10  21  41  60  81 119 159 187 233 292 332
#     4  12  23  38  61  86 113 150 192 239 288 338
#     4  10  23  38  58  87 114 149 200 238 275 343
#
# _framework density 18.914885999999999
#
# number of rings (size 3 to 8) (size 9 to 14) (size 15 to 20)
#    0.000    1.429    0.000    6.429    0.000    3.429 
#    0.000    0.000    0.000    0.000    0.000    0.000 
#    0.000    0.000    0.000    0.000    0.000    0.000 
#
# Total GULP energy -78258.632814 kJ/mol
# GULP energy per Si atom -5589.902344 kJ/mol
# Density = 1.887183 g / cm^3
# Si number density = 18.914886 Si / 1000 Ang^3
#
#
#
# Elastic Constant Matrix: (Units=GPa)
#
#
# Indices 1 2 3 4 5 6 
#
# 1 73.1225 -2.4306 -8.8315 0.0000 -5.2077 0.0000
# 2 -2.4306 103.0164 34.1754 0.0000 -7.5447 0.0000
# 3 -8.8315 34.1754 93.7140 0.0000 2.3580 0.0000
# 4 0.0000 0.0000 0.0000 9.0144 0.0000 3.9785
# 5 -5.2077 -7.5447 2.3580 0.0000 11.5946 0.0000
# 6 0.0000 0.0000 0.0000 3.9785 0.0000 21.3937
#
#
#
# Elastic Compliance Matrix: (Units=1/GPa)
#
#
# Indices 1 2 3 4 5 6 
#
# 1 0.014278 0.000481 0.001006 0.000000 0.006521 0.000000
# 2 0.000481 0.011860 -0.004503 0.000000 0.008849 0.000000
# 3 0.001006 -0.004503 0.012534 0.000000 -0.005027 0.000000
# 4 0.000000 0.000000 0.000000 0.120853 0.000000 -0.022475
# 5 0.006521 0.008849 -0.005027 0.000000 0.095956 0.000000
# 6 0.000000 0.000000 0.000000 -0.022475 0.000000 0.050922
#
#
# Mechanical properties :
#
#
# Convention : Reuss Voigt Hill
#
# Bulk Modulus (GPa) = 30.63683 35.07551 32.85617
# Shear Modulus (GPa) = 15.46479 24.86318 20.16398
#
# Velocity S-wave (km/s) = 2.86247 3.62950 3.26857
# Velocity P-wave (km/s) = 5.21127 6.01236 5.62609
#
# Compressibility (1/GPa) = 0.03264046
#
# Stress axis : x y z
#
# Youngs Moduli (GPa) = 70.03983 84.31453 79.78261
#
# Poissons Ratio (x) = -0.04053 -0.08027
# Poissons Ratio (y) = -0.03367 0.35923
# Poissons Ratio (z) = -0.07047 0.37963
#
# Static dielectric constant tensor:
#      x y z
#    x 1.642720 0.000000 -0.003740 
#    y 0.000000 1.650270 0.000000 
#    z -0.003740 0.000000 1.618560 
# 
# From -- ./inp_files/63947.got.cif
#   From: 2010.05.17/outbox.cif.g08.bks.cpg/sg5_32_cif.got.tgz:63947.got - 2010.06.03 18:56:24.
