data_PCOD9124965
_publ_section_title
;
Structure prediction by ZEFSAII (Michael W. Deem and Ramdas Pophale) SiO2 
 PCOD9124965
Probable space group: C 2
;
_chemical_formula_sum "Si O2"
_cell_formula_units_Z 28
_cell_length_a 12.222568
_cell_length_b 8.947377
_cell_length_c 12.191813
_cell_angle_alpha 90.000000
_cell_angle_beta 124.892037
_cell_angle_gamma 90.000000
_cell_volume 1093.611012
_symmetry_space_group_name_H-M "C 2"
_symmetry_group_IT_number 5
_symmetry_cell_setting 'monoclinic'
loop_
_space_group_symop_operation_xyz
x,y,z
-x,y,-z
1/2+x,1/2+y,z
1/2-x,1/2+y,-z
loop_
_atom_site_type_symbol
_atom_site_label
_atom_site_fract_x
_atom_site_fract_y
_atom_site_fract_z
Si Si1 0.013570 0.355840 0.352868
Si Si2 0.282429 0.079964 0.015049
Si Si3 0.780405 0.703770 0.790496
Si Si4 0.365519 0.141017 0.308074
Si Si5 0.555801 0.775275 0.909851
Si Si6 0.358380 0.458171 0.418051
Si Si7 0.769853 0.909226 0.613641
O O1 0.863933 0.287553 0.275910
O O2 0.993962 0.532423 0.368581
O O3 0.046863 0.318103 0.245818
O O4 0.135322 0.317293 0.501370
O O5 0.315362 0.141382 0.154415
O O6 0.336065 0.911698 0.035312
O O7 0.339658 0.170145 0.943292
O O8 0.124782 0.117043 0.919118
O O9 0.748147 0.549541 0.712625
O O10 0.854757 0.805607 0.744230
O O11 0.382108 0.302954 0.367782
O O12 0.268043 0.052144 0.335132
O O13 0.500000 0.771410 0.000000
O O14 0.500000 0.540047 0.500000
O O15 0.326055 0.442766 0.527242
#
# Coordination Sequence:
#
# PCOD9124965 Si02
#       7
#     4   4   4   4   4   4   4
#     4   9  20  39  64  87 115 160 207 250 310 369
#     4  10  22  42  66  94 126 166 216 266 322 378
#     4  10  21  39  63  86 121 155 200 259 306 375
#     4  10  21  39  63  86 121 155 200 259 306 375
#     4  10  22  41  67  94 128 172 216 261 320 392
#     4  12  24  37  56  89 124 157 199 256 312 362
#     4  11  22  39  62  88 119 163 206 251 310 378
#
# _framework density 25.603254
#
# number of rings (size 3 to 8) (size 9 to 14) (size 15 to 20)
#    0.000    1.714    0.000    6.000    4.000    0.000 
#    5.143    0.714    0.000    0.000    0.000    0.000 
#    0.000    0.000    0.000    0.000    0.000    0.000 
#
# Total GULP energy -78253.906791 kJ/mol
# GULP energy per Si atom -5589.564771 kJ/mol
# Density = 2.554498 g / cm^3
# Si number density = 25.603254 Si / 1000 Ang^3
#
#
#
# Elastic Constant Matrix: (Units=GPa)
#
#
# Indices 1 2 3 4 5 6 
#
# 1 78.4652 20.4441 31.5557 0.0000 -29.7406 0.0000
# 2 20.4441 88.1413 24.1590 0.0000 -5.6636 0.0000
# 3 31.5557 24.1590 165.3276 0.0000 -54.9429 0.0000
# 4 0.0000 0.0000 0.0000 34.1616 0.0000 -8.2162
# 5 -29.7406 -5.6636 -54.9429 0.0000 42.9100 0.0000
# 6 0.0000 0.0000 0.0000 -8.2162 0.0000 25.3851
#
#
#
# Elastic Compliance Matrix: (Units=1/GPa)
#
#
# Indices 1 2 3 4 5 6 
#
# 1 0.018622 -0.003902 0.001974 0.000000 0.014919 0.000000
# 2 -0.003902 0.012668 -0.002523 0.000000 -0.004263 0.000000
# 3 0.001974 -0.002523 0.011114 0.000000 0.015265 0.000000
# 4 0.000000 0.000000 0.000000 0.031744 0.000000 0.010274
# 5 0.014919 -0.004263 0.015265 0.000000 0.052628 0.000000
# 6 0.000000 0.000000 0.000000 0.010274 0.000000 0.042719
#
#
# Mechanical properties :
#
#
# Convention : Reuss Voigt Hill
#
# Bulk Modulus (GPa) = 29.84913 53.80577 41.82745
# Shear Modulus (GPa) = 26.37638 37.54301 31.95969
#
# Velocity S-wave (km/s) = 3.21315 3.83343 3.53691
# Velocity P-wave (km/s) = 5.04474 6.37608 5.74908
#
# Compressibility (1/GPa) = 0.03350181
#
# Stress axis : x y z
#
# Youngs Moduli (GPa) = 53.69954 78.93856 89.98015
#
# Poissons Ratio (x) = 0.30800 -0.17761
# Poissons Ratio (y) = 0.20952 0.22703
# Poissons Ratio (z) = -0.10600 0.19917
#
# Static dielectric constant tensor:
#      x y z
#    x 2.127610 0.000000 0.008190 
#    y 0.000000 2.035790 0.000000 
#    z 0.008190 0.000000 2.063540 
# 
# From -- ./inp_files/42019.got.cif
#   From: 2010.05.17/outbox.cif.g08.bks.cpg/sg5_22_cif.got.tgz:42019.got - 2010.06.03 18:56:24.
