data_PCOD9124838
_publ_section_title
;
Structure prediction by ZEFSAII (Michael W. Deem and Ramdas Pophale) SiO2 
 PCOD9124838
Probable space group: C 2
;
_chemical_formula_sum "Si O2"
_cell_formula_units_Z 30
_cell_length_a 11.317994
_cell_length_b 21.857106
_cell_length_c 9.199245
_cell_angle_alpha 90.000000
_cell_angle_beta 140.202534
_cell_angle_gamma 90.000000
_cell_volume 1456.617948
_symmetry_space_group_name_H-M "C 2"
_symmetry_group_IT_number 5
_symmetry_cell_setting 'monoclinic'
loop_
_space_group_symop_operation_xyz
x,y,z
-x,y,-z
1/2+x,1/2+y,z
1/2-x,1/2+y,-z
loop_
_atom_site_type_symbol
_atom_site_label
_atom_site_fract_x
_atom_site_fract_y
_atom_site_fract_z
Si Si1 0.577029 0.408020 0.232905
Si Si2 0.199275 0.200750 0.109985
Si Si3 0.317556 0.510814 0.020113
Si Si4 0.145846 0.834990 0.760635
Si Si5 0.433363 0.621397 0.271823
Si Si6 0.426523 0.969242 0.645158
Si Si7 0.500000 0.912521 0.000000
Si Si8 0.252772 0.584432 0.664874
O O1 0.472883 0.352312 0.210138
O O2 0.796219 0.418355 0.447534
O O3 0.500000 0.410398 0.000000
O O4 0.494802 0.470295 0.225369
O O5 0.308453 0.263591 0.207768
O O6 0.294397 0.148046 0.298701
O O7 0.162023 0.175706 0.910987
O O8 0.000000 0.210229 0.000000
O O9 0.323631 0.545980 0.871985
O O10 0.146255 0.465461 0.839319
O O11 0.299904 0.562257 0.127631
O O12 0.340130 0.870321 0.920530
O O13 0.000000 0.853946 0.500000
O O14 0.500000 0.632500 0.500000
O O15 0.603654 0.602616 0.326159
O O16 0.398247 0.955651 0.787838
O O17 0.384525 0.036795 0.542547
#
# Coordination Sequence:
#
# PCOD9124838 Si02
#       8
#     4   4   4   4   4   4   2   4
#     4  12  24  41  62 101 139 176 220 282 343 398
#     4   9  21  43  69  94 126 180 240 277 329 413
#     4  11  21  37  64  94 138 176 218 265 334 426
#     4  12  25  45  71  92 135 184 232 281 332 415
#     4  10  21  38  65 100 136 173 216 294 356 390
#     4  12  24  37  66  98 144 174 221 275 344 415
#     4  12  26  42  62 112 134 176 224 280 358 400
#     4  10  21  40  66  99 132 178 225 278 338 409
#
# _framework density 20.595654
#
# number of rings (size 3 to 8) (size 9 to 14) (size 15 to 20)
#    0.000    1.067    6.000    1.600    1.867    2.667 
#    0.000    4.000    0.000    0.000    0.000    0.000 
#    0.000    0.000    0.000    0.000    0.000    0.000 
#
# Total GULP energy -83565.353337 kJ/mol
# GULP energy per Si atom -5571.023556 kJ/mol
# Density = 2.054878 g / cm^3
# Si number density = 20.595654 Si / 1000 Ang^3
#
#
#
# Elastic Constant Matrix: (Units=GPa)
#
#
# Indices 1 2 3 4 5 6 
#
# 1 65.7265 40.2172 33.5716 0.0000 1.8410 0.0000
# 2 40.2172 109.5921 31.0056 0.0000 -7.9537 0.0000
# 3 33.5716 31.0056 110.7765 0.0000 -11.8518 0.0000
# 4 0.0000 0.0000 0.0000 22.1320 0.0000 1.9912
# 5 1.8410 -7.9537 -11.8518 0.0000 41.1703 0.0000
# 6 0.0000 0.0000 0.0000 1.9912 0.0000 21.7256
#
#
#
# Elastic Compliance Matrix: (Units=1/GPa)
#
#
# Indices 1 2 3 4 5 6 
#
# 1 0.022243 -0.006970 -0.005201 0.000000 -0.003838 0.000000
# 2 -0.006970 0.012147 -0.001035 0.000000 0.002360 0.000000
# 3 -0.005201 -0.001035 0.011243 0.000000 0.003269 0.000000
# 4 0.000000 0.000000 0.000000 0.045559 0.000000 -0.004176
# 5 -0.003838 0.002360 0.003269 0.000000 0.025858 0.000000
# 6 0.000000 0.000000 0.000000 -0.004176 0.000000 0.046411
#
#
# Mechanical properties :
#
#
# Convention : Reuss Voigt Hill
#
# Bulk Modulus (GPa) = 52.02533 55.07598 53.55065
# Shear Modulus (GPa) = 25.47386 29.09227 27.28306
#
# Velocity S-wave (km/s) = 3.52071 3.76246 3.64359
# Velocity P-wave (km/s) = 6.46857 6.75829 6.61501
#
# Compressibility (1/GPa) = 0.01922141
#
# Stress axis : x y z
#
# Youngs Moduli (GPa) = 44.95742 82.32770 88.94601
#
# Poissons Ratio (x) = 0.57381 0.46259
# Poissons Ratio (y) = 0.31334 0.09206
# Poissons Ratio (z) = 0.23382 0.08521
#
# Static dielectric constant tensor:
#      x y z
#    x 1.867680 0.000000 0.022510 
#    y 0.000000 1.757500 0.000000 
#    z 0.022510 0.000000 1.782640 
# 
# From -- ./inp_files/22151.got.cif
#   From: 2010.05.17/outbox.cif.g08.bks.cpg/sg5_12_cif.got.tgz:22151.got - 2010.06.03 18:56:24.
