data_PCOD9124000
_publ_section_title
;
Structure prediction by ZEFSAII (Michael W. Deem and Ramdas Pophale) SiO2 
 PCOD9124000
Probable space group: C 2
;
_chemical_formula_sum "Si O2"
_cell_formula_units_Z 28
_cell_length_a 24.571856
_cell_length_b 10.029045
_cell_length_c 9.491280
_cell_angle_alpha 90.000000
_cell_angle_beta 37.892149
_cell_angle_gamma 90.000000
_cell_volume 1436.534052
_symmetry_space_group_name_H-M "C 2"
_symmetry_group_IT_number 5
_symmetry_cell_setting 'monoclinic'
loop_
_space_group_symop_operation_xyz
x,y,z
-x,y,-z
1/2+x,1/2+y,z
1/2-x,1/2+y,-z
loop_
_atom_site_type_symbol
_atom_site_label
_atom_site_fract_x
_atom_site_fract_y
_atom_site_fract_z
Si Si1 0.634642 0.533010 0.787488
Si Si2 0.751684 0.937509 0.715412
Si Si3 0.534636 0.278252 0.077718
Si Si4 0.812747 0.705181 0.037413
Si Si5 0.208256 0.452296 0.339865
Si Si6 0.127740 0.715490 0.390637
Si Si7 0.399696 0.841753 0.177195
O O1 0.681489 0.477537 0.549316
O O2 0.710069 0.528237 0.752942
O O3 0.602282 0.682096 0.832422
O O4 0.559866 0.431538 0.994416
O O5 0.795763 0.814085 0.706704
O O6 0.657212 0.899342 0.837484
O O7 0.737608 0.065215 0.844576
O O8 0.626121 0.216900 0.947950
O O9 0.460304 0.258929 0.347170
O O10 0.500000 0.220890 0.000000
O O11 0.872773 0.719294 0.776748
O O12 0.746914 0.831037 0.170244
O O13 0.150562 0.563291 0.382162
O O14 0.154385 0.384171 0.575113
O O15 0.500000 0.887052 0.000000
#
# Coordination Sequence:
#
# PCOD9124000 Si02
#       7
#     4   4   4   4   4   4   4
#     4  10  20  41  63  97 126 163 217 270 320 372
#     4  11  23  40  65  93 127 175 211 262 323 389
#     4  11  24  39  68  98 128 162 217 269 317 380
#     4  11  25  43  65  94 135 172 210 263 330 388
#     4  10  23  40  63  93 130 169 215 266 322 386
#     4  12  24  43  66  96 129 174 217 264 321 391
#     4  11  23  37  64  97 129 161 215 275 324 368
#
# _framework density 19.491358000000002
#
# number of rings (size 3 to 8) (size 9 to 14) (size 15 to 20)
#    0.000    1.143    4.286    1.714    6.000    0.000 
#    0.000    0.000    0.000    0.000    0.000    0.000 
#    0.000    0.000    0.000    0.000    0.000    0.000 
#
# Total GULP energy -78199.668528 kJ/mol
# GULP energy per Si atom -5585.690609 kJ/mol
# Density = 1.944699 g / cm^3
# Si number density = 19.491358 Si / 1000 Ang^3
#
#
#
# Elastic Constant Matrix: (Units=GPa)
#
#
# Indices 1 2 3 4 5 6 
#
# 1 40.5622 24.3790 15.1255 0.0000 -6.4353 0.0000
# 2 24.3790 128.4808 37.3946 0.0000 -5.6371 0.0000
# 3 15.1255 37.3946 95.7329 0.0000 -3.0369 0.0000
# 4 0.0000 0.0000 0.0000 19.5655 0.0000 -8.6319
# 5 -6.4353 -5.6371 -3.0369 0.0000 32.1522 0.0000
# 6 0.0000 0.0000 0.0000 -8.6319 0.0000 4.2007
#
#
#
# Elastic Compliance Matrix: (Units=1/GPa)
#
#
# Indices 1 2 3 4 5 6 
#
# 1 0.029140 -0.004540 -0.002679 0.000000 0.004783 0.000000
# 2 -0.004540 0.009537 -0.002993 0.000000 0.000481 0.000000
# 3 -0.002679 -0.002993 0.012040 0.000000 0.000076 0.000000
# 4 0.000000 0.000000 0.000000 0.546966 0.000000 1.123937
# 5 0.004783 0.000481 0.000076 0.000000 0.032151 0.000000
# 6 0.000000 0.000000 0.000000 1.123937 0.000000 2.547584
#
#
# Mechanical properties :
#
#
# Convention : Reuss Voigt Hill
#
# Bulk Modulus (GPa) = 33.00944 46.50821 39.75883
# Shear Modulus (GPa) = 1.55863 23.70882 12.63373
#
# Velocity S-wave (km/s) = 0.89520 3.49144 2.54868
# Velocity P-wave (km/s) = 4.24744 6.33769 5.39477
#
# Compressibility (1/GPa) = 0.03029436
#
# Stress axis : x y z
#
# Youngs Moduli (GPa) = 34.31730 104.85730 83.05359
#
# Poissons Ratio (x) = 0.47601 0.22250
# Poissons Ratio (y) = 0.15579 0.24855
# Poissons Ratio (z) = 0.09194 0.31381
#
# Static dielectric constant tensor:
#      x y z
#    x 1.719700 0.000000 -0.021900 
#    y 0.000000 1.670000 0.000000 
#    z -0.021900 0.000000 1.669820 
# 
# From -- ./inp_files/31736.got.cif
#   From: 2010.05.17/outbox.cif.g08.bks.cpg/sg5_16_cif.got.tgz:31736.got - 2010.06.03 18:56:24.
