data_PCOD9124615
_publ_section_title
;
Structure prediction by ZEFSAII (Michael W. Deem and Ramdas Pophale) SiO2 
 PCOD9124615
Probable space group: C 2
;
_chemical_formula_sum "Si O2"
_cell_formula_units_Z 32
_cell_length_a 7.675467
_cell_length_b 22.096942
_cell_length_c 13.165920
_cell_angle_alpha 90.000000
_cell_angle_beta 44.614533
_cell_angle_gamma 90.000000
_cell_volume 1568.309105
_symmetry_space_group_name_H-M "C 2"
_symmetry_group_IT_number 5
_symmetry_cell_setting 'monoclinic'
loop_
_space_group_symop_operation_xyz
x,y,z
-x,y,-z
1/2+x,1/2+y,z
1/2-x,1/2+y,-z
loop_
_atom_site_type_symbol
_atom_site_label
_atom_site_fract_x
_atom_site_fract_y
_atom_site_fract_z
Si Si1 0.066602 0.529460 0.298113
Si Si2 0.356480 0.508346 0.386371
Si Si3 0.726685 0.273558 0.225609
Si Si4 0.797827 0.810402 0.997816
Si Si5 0.836371 0.145259 0.161498
Si Si6 0.363580 0.944896 0.913137
Si Si7 0.577815 0.396695 0.353284
Si Si8 0.232517 0.062146 0.107474
O O1 0.209751 0.526484 0.345985
O O2 0.145236 0.592000 0.212574
O O3 0.153848 0.474763 0.190957
O O4 0.785226 0.526076 0.452792
O O5 0.387285 0.436338 0.368105
O O6 0.622239 0.539972 0.260574
O O7 0.697260 0.203151 0.263660
O O8 0.569524 0.325097 0.345558
O O9 0.014368 0.288678 0.134960
O O10 0.664109 0.285738 0.132382
O O11 0.788691 0.884035 0.000982
O O12 0.000000 0.792393 0.000000
O O13 0.041411 0.110482 0.142577
O O14 0.000000 0.168873 0.000000
O O15 0.649987 0.920672 0.795423
O O16 0.278217 0.000244 0.022051
O O17 0.500000 0.412127 0.500000
O O18 0.500000 0.091471 0.000000
#
# Coordination Sequence:
#
# PCOD9124615 Si02
#       8
#     4   4   4   4   4   4   4   4
#     4  10  22  37  58  90 123 161 198 256 328 377
#     4  10  21  37  57  89 128 154 195 259 326 379
#     4  10  23  43  57  88 129 167 218 259 308 376
#     4  10  22  35  62  91 122 164 203 267 324 369
#     4  11  21  40  60  83 126 165 210 257 307 375
#     4  11  21  33  57  94 121 146 204 258 322 381
#     4  11  21  38  61  85 125 167 200 256 318 377
#     4  11  22  35  61  95 120 159 204 261 322 379
#
# _framework density 20.404140999999999
#
# number of rings (size 3 to 8) (size 9 to 14) (size 15 to 20)
#    0.000    1.500    5.000    0.750    7.000    0.500 
#    4.500    0.000    0.000    0.000    0.000    7.000 
#    0.000    0.000    0.000    0.000    0.000    0.000 
#
# Total GULP energy -89117.501408 kJ/mol
# GULP energy per Si atom -5569.843838 kJ/mol
# Density = 2.035770 g / cm^3
# Si number density = 20.404141 Si / 1000 Ang^3
#
#
#
# Elastic Constant Matrix: (Units=GPa)
#
#
# Indices 1 2 3 4 5 6 
#
# 1 72.6980 22.1220 20.0135 0.0000 -0.6201 0.0000
# 2 22.1220 129.0176 19.1475 0.0000 -6.2668 0.0000
# 3 20.0135 19.1475 75.1154 0.0000 -2.5022 0.0000
# 4 0.0000 0.0000 0.0000 7.9406 0.0000 2.2003
# 5 -0.6201 -6.2668 -2.5022 0.0000 19.6884 0.0000
# 6 0.0000 0.0000 0.0000 2.2003 0.0000 20.0274
#
#
#
# Elastic Compliance Matrix: (Units=1/GPa)
#
#
# Indices 1 2 3 4 5 6 
#
# 1 0.015385 -0.002139 -0.003576 0.000000 -0.000651 0.000000
# 2 -0.002139 0.008459 -0.001505 0.000000 0.002434 0.000000
# 3 -0.003576 -0.001505 0.014692 0.000000 0.001275 0.000000
# 4 0.000000 0.000000 0.000000 0.129889 0.000000 -0.014270
# 5 -0.000651 0.002434 0.001275 0.000000 0.051708 0.000000
# 6 0.000000 0.000000 0.000000 -0.014270 0.000000 0.051499
#
#
# Mechanical properties :
#
#
# Convention : Reuss Voigt Hill
#
# Bulk Modulus (GPa) = 41.50010 44.37745 42.93878
# Shear Modulus (GPa) = 17.00075 23.90114 20.45094
#
# Velocity S-wave (km/s) = 2.88965 3.42627 3.16934
# Velocity P-wave (km/s) = 5.61397 6.11955 5.87220
#
# Compressibility (1/GPa) = 0.02409633
#
# Stress axis : x y z
#
# Youngs Moduli (GPa) = 64.99744 118.21350 68.06547
#
# Poissons Ratio (x) = 0.25286 0.24338
# Poissons Ratio (y) = 0.13903 0.10246
# Poissons Ratio (z) = 0.23241 0.17795
#
# Static dielectric constant tensor:
#      x y z
#    x 1.799640 0.000000 -0.035660 
#    y 0.000000 1.729280 0.000000 
#    z -0.035660 0.000000 1.833420 
# 
# From -- ./inp_files/51545.got.cif
#   From: 2010.05.17/outbox.cif.g08.bks.cpg/sg5_26_cif.got.tgz:51545.got - 2010.06.03 18:56:24.
