data_PCOD9124785
_publ_section_title
;
Structure prediction by ZEFSAII (Michael W. Deem and Ramdas Pophale) SiO2 
 PCOD9124785
Probable space group: C 2
;
_chemical_formula_sum "Si O2"
_cell_formula_units_Z 32
_cell_length_a 9.213952
_cell_length_b 5.257668
_cell_length_c 26.356249
_cell_angle_alpha 90.000000
_cell_angle_beta 89.558917
_cell_angle_gamma 90.000000
_cell_volume 1276.761672
_symmetry_space_group_name_H-M "C 2"
_symmetry_group_IT_number 5
_symmetry_cell_setting 'monoclinic'
loop_
_space_group_symop_operation_xyz
x,y,z
-x,y,-z
1/2+x,1/2+y,z
1/2-x,1/2+y,-z
loop_
_atom_site_type_symbol
_atom_site_label
_atom_site_fract_x
_atom_site_fract_y
_atom_site_fract_z
Si Si1 0.089149 0.376240 0.709819
Si Si2 0.630272 0.820575 0.140015
Si Si3 0.835740 0.465047 0.481837
Si Si4 0.459387 0.316925 0.177127
Si Si5 0.165648 0.352542 0.019399
Si Si6 0.325520 0.627991 0.389337
Si Si7 0.382047 0.493321 0.730220
Si Si8 0.533488 0.247052 0.369307
O O1 0.136787 0.150550 0.670589
O O2 0.219620 0.428545 0.747457
O O3 0.939105 0.280218 0.733955
O O4 0.062790 0.596359 0.670040
O O5 0.530701 0.061824 0.154763
O O6 0.788182 0.832550 0.166647
O O7 0.543369 0.562377 0.153706
O O8 0.661096 0.828143 0.080033
O O9 0.740716 0.715316 0.492975
O O10 0.841264 0.379915 0.422768
O O11 0.000000 0.496320 0.500000
O O12 0.504091 0.338025 0.236340
O O13 0.250071 0.608995 0.003446
O O14 0.000000 0.360306 0.000000
O O15 0.440870 0.419522 0.406967
O O16 0.155465 0.567042 0.393028
O O17 0.377252 0.428717 0.670195
#
# Coordination Sequence:
#
# PCOD9124785 Si02
#       8
#     4   4   4   4   4   4   4   4
#     4  10  21  38  62  88 122 160 223 264 324 382
#     4  12  26  45  68 103 134 185 228 276 349 404
#     4  12  28  47  73 102 138 177 223 272 341 417
#     4  12  26  44  69  96 145 180 226 278 333 415
#     4  12  24  44  72 100 136 175 229 292 341 402
#     4  10  23  39  61  93 120 167 209 275 325 382
#     4  10  23  37  58  93 121 173 215 267 323 384
#     4  10  21  38  64  87 124 159 221 266 322 384
#
# _framework density 25.063407000000002
#
# number of rings (size 3 to 8) (size 9 to 14) (size 15 to 20)
#    0.000    1.000    0.000    6.000    7.000    0.000 
#    0.000    0.000    0.000    0.000    0.000    0.000 
#    0.000    0.000    0.000    0.000    0.000    0.000 
#
# Total GULP energy -89562.553915 kJ/mol
# GULP energy per Si atom -5597.659620 kJ/mol
# Density = 2.500636 g / cm^3
# Si number density = 25.063407 Si / 1000 Ang^3
#
#
#
# Elastic Constant Matrix: (Units=GPa)
#
#
# Indices 1 2 3 4 5 6 
#
# 1 182.9417 47.1025 9.6615 0.0000 19.7624 0.0000
# 2 47.1025 130.9700 -3.3707 0.0000 -14.9901 0.0000
# 3 9.6615 -3.3707 100.8276 0.0000 -1.8695 0.0000
# 4 0.0000 0.0000 0.0000 42.3906 0.0000 -13.5786
# 5 19.7624 -14.9901 -1.8695 0.0000 41.7909 0.0000
# 6 0.0000 0.0000 0.0000 -13.5786 0.0000 51.2294
#
#
#
# Elastic Compliance Matrix: (Units=1/GPa)
#
#
# Indices 1 2 3 4 5 6 
#
# 1 0.006724 -0.002928 -0.000821 0.000000 -0.004267 0.000000
# 2 -0.002928 0.009247 0.000677 0.000000 0.004732 0.000000
# 3 -0.000821 0.000677 0.010039 0.000000 0.001080 0.000000
# 4 0.000000 0.000000 0.000000 0.025779 0.000000 0.006833
# 5 -0.004267 0.004732 0.001080 0.000000 0.027692 0.000000
# 6 0.000000 0.000000 0.000000 0.006833 0.000000 0.021331
#
#
# Mechanical properties :
#
#
# Convention : Reuss Voigt Hill
#
# Bulk Modulus (GPa) = 50.33355 57.94731 54.14043
# Shear Modulus (GPa) = 44.02225 51.17193 47.59709
#
# Velocity S-wave (km/s) = 4.19553 4.52342 4.36256
# Velocity P-wave (km/s) = 6.60273 7.10297 6.85742
#
# Compressibility (1/GPa) = 0.01986747
#
# Stress axis : x y z
#
# Youngs Moduli (GPa) = 148.71272 108.13920 99.60851
#
# Poissons Ratio (x) = 0.31662 0.08181
# Poissons Ratio (y) = 0.43541 -0.06748
# Poissons Ratio (z) = 0.12214 -0.07326
#
# Static dielectric constant tensor:
#      x y z
#    x 2.052690 0.000000 -0.053250 
#    y 0.000000 2.045750 0.000000 
#    z -0.053250 0.000000 2.016820 
# 
# From -- ./inp_files/71518.got.cif
#   From: 2010.05.17/outbox.cif.g08.bks.cpg/sg5_36_cif.got.tgz:71518.got - 2010.06.03 18:56:24.
