data_PCOD9124284
_publ_section_title
;
Structure prediction by ZEFSAII (Michael W. Deem and Ramdas Pophale) SiO2 
 PCOD9124284
Probable space group: C 2
;
_chemical_formula_sum "Si O2"
_cell_formula_units_Z 28
_cell_length_a 16.121987
_cell_length_b 13.200142
_cell_length_c 9.884997
_cell_angle_alpha 90.000000
_cell_angle_beta 134.100121
_cell_angle_gamma 90.000000
_cell_volume 1510.684084
_symmetry_space_group_name_H-M "C 2"
_symmetry_group_IT_number 5
_symmetry_cell_setting 'monoclinic'
loop_
_space_group_symop_operation_xyz
x,y,z
-x,y,-z
1/2+x,1/2+y,z
1/2-x,1/2+y,-z
loop_
_atom_site_type_symbol
_atom_site_label
_atom_site_fract_x
_atom_site_fract_y
_atom_site_fract_z
Si Si1 0.062408 0.877930 0.427613
Si Si2 0.509718 0.603832 0.732201
Si Si3 0.429882 0.249666 0.057691
Si Si4 0.000000 0.260776 0.500000
Si Si5 0.286277 0.885817 0.139749
Si Si6 0.500000 0.707469 0.000000
Si Si7 0.216586 0.615254 0.916370
Si Si8 0.734035 0.807813 0.186521
O O1 0.195531 0.863790 0.617564
O O2 0.000000 0.859032 0.500000
O O3 0.016832 0.799734 0.264911
O O4 0.029416 0.990988 0.345469
O O5 0.457626 0.685031 0.569416
O O6 0.477291 0.636665 0.845805
O O7 0.649655 0.613845 0.881257
O O8 0.366405 0.153445 0.056635
O O9 0.500000 0.228769 0.000000
O O10 0.327686 0.334224 0.924127
O O11 0.897471 0.328116 0.323088
O O12 0.301980 0.005664 0.169157
O O13 0.271364 0.867414 0.961397
O O14 0.607676 0.777916 0.089648
O O15 0.207339 0.701550 0.791231
#
# Coordination Sequence:
#
# PCOD9124284 Si02
#       8
#     4   4   4   2   4   2   4   4
#     4  12  21  39  70  94 121 178 223 260 328 405
#     4  11  22  38  71  95 122 172 233 260 315 403
#     4  11  24  40  64 103 135 160 221 289 323 375
#     4  12  22  38  66 100 118 174 226 264 318 404
#     4  11  22  40  66  92 132 173 214 262 333 393
#     4  10  22  44  60  94 138 164 206 290 326 370
#     4  10  20  43  65  89 131 176 205 264 331 388
#     4  10  22  41  64  90 129 173 211 268 322 390
#
# _framework density 18.534649999999999
#
# number of rings (size 3 to 8) (size 9 to 14) (size 15 to 20)
#    0.000    1.143    9.286    0.000    1.000    2.286 
#    1.286    0.000    0.000    0.000    0.000    0.000 
#    0.000    0.000    0.000    0.000    0.000    0.000 
#
# Total GULP energy -78137.076255 kJ/mol
# GULP energy per Si atom -5581.219732 kJ/mol
# Density = 1.849246 g / cm^3
# Si number density = 18.534650 Si / 1000 Ang^3
#
#
#
# Elastic Constant Matrix: (Units=GPa)
#
#
# Indices 1 2 3 4 5 6 
#
# 1 87.5674 -1.4848 -14.7886 0.0000 -2.7630 0.0000
# 2 -1.4848 65.8897 6.6918 0.0000 5.0817 0.0000
# 3 -14.7886 6.6918 57.4029 0.0000 3.4904 0.0000
# 4 0.0000 0.0000 0.0000 9.6889 0.0000 11.4389
# 5 -2.7630 5.0817 3.4904 0.0000 24.8523 0.0000
# 6 0.0000 0.0000 0.0000 11.4389 0.0000 -1.5333
#
#
#
# Elastic Compliance Matrix: (Units=1/GPa)
#
#
# Indices 1 2 3 4 5 6 
#
# 1 0.011960 -0.000110 0.003038 0.000000 0.000926 0.000000
# 2 -0.000110 0.015572 -0.001664 0.000000 -0.002963 0.000000
# 3 0.003038 -0.001664 0.018514 0.000000 -0.001922 0.000000
# 4 0.000000 0.000000 0.000000 0.010524 0.000000 0.078507
# 5 0.000926 -0.002963 -0.001922 0.000000 0.041217 0.000000
# 6 0.000000 0.000000 0.000000 0.078507 0.000000 -0.066497
#
#
# Mechanical properties :
#
#
# Convention : Reuss Voigt Hill
#
# Bulk Modulus (GPa) = 20.58720 21.29966 20.94343
# Shear Modulus (GPa) = 111.22715 21.29766 66.26241
#
# Velocity S-wave (km/s) = 7.75504 3.39348 5.98566
# Velocity P-wave (km/s) = 9.55610 5.18372 7.68733
#
# Compressibility (1/GPa) = 0.04857388
#
# Stress axis : x y z
#
# Youngs Moduli (GPa) = 83.61100 64.21851 54.01264
#
# Poissons Ratio (x) = 0.00709 -0.16408
# Poissons Ratio (y) = 0.00923 0.08986
# Poissons Ratio (z) = -0.25400 0.10683
#
# Static dielectric constant tensor:
#      x y z
#    x 1.724970 0.000000 0.048180 
#    y 0.000000 1.650980 0.000000 
#    z 0.048180 0.000000 1.678500 
# 
# From -- ./inp_files/24716.got.cif
#   From: 2010.05.17/outbox.cif.g08.bks.cpg/sg5_13_cif.got.tgz:24716.got - 2010.06.03 18:56:24.
