data_PCOD9124252
_publ_section_title
;
Structure prediction by ZEFSAII (Michael W. Deem and Ramdas Pophale) SiO2 
 PCOD9124252
Probable space group: C 2
;
_chemical_formula_sum "Si O2"
_cell_formula_units_Z 24
_cell_length_a 10.557079
_cell_length_b 9.935842
_cell_length_c 15.734301
_cell_angle_alpha 90.000000
_cell_angle_beta 35.007619
_cell_angle_gamma 90.000000
_cell_volume 946.824896
_symmetry_space_group_name_H-M "C 2"
_symmetry_group_IT_number 5
_symmetry_cell_setting 'monoclinic'
loop_
_space_group_symop_operation_xyz
x,y,z
-x,y,-z
1/2+x,1/2+y,z
1/2-x,1/2+y,-z
loop_
_atom_site_type_symbol
_atom_site_label
_atom_site_fract_x
_atom_site_fract_y
_atom_site_fract_z
Si Si1 0.000000 0.727830 0.000000
Si Si2 0.144235 0.597721 0.552804
Si Si3 0.074240 0.700017 0.771185
Si Si4 0.539275 0.714055 0.229120
Si Si5 0.345550 0.337987 0.656484
Si Si6 0.500000 0.875195 0.500000
Si Si7 0.761004 0.930092 0.878418
O O1 0.043778 0.653500 0.885090
O O2 0.236668 0.797990 0.877306
O O3 0.106531 0.596162 0.675200
O O4 0.368830 0.673141 0.398210
O O5 0.102176 0.464377 0.520958
O O6 0.954154 0.696697 0.622731
O O7 0.296284 0.787928 0.644831
O O8 0.868997 0.800997 0.864857
O O9 0.393869 0.799261 0.244474
O O10 0.635527 0.569758 0.142809
O O11 0.500000 0.399027 0.500000
O O12 0.362049 0.427833 0.728770
O O13 0.500000 0.913793 0.000000
#
# Coordination Sequence:
#
# PCOD9124252 Si02
#       7
#     2   4   4   4   4   2   4
#     4  12  26  44  58  96 150 178 212 282 338 406
#     4  10  20  42  72  99 125 173 233 286 329 391
#     4  11  25  43  68 100 137 178 228 280 335 408
#     4  11  20  41  63  89 137 166 216 279 326 400
#     4   9  19  38  65  91 122 164 215 283 323 373
#     4  12  20  46  76 100 132 176 228 286 348 390
#     4  11  21  39  64  93 125 173 221 258 331 409
#
# _framework density 25.347874999999998
#
# number of rings (size 3 to 8) (size 9 to 14) (size 15 to 20)
#    0.000    1.333    5.000    2.000    0.000    0.000 
#    6.000    0.000    3.667    0.000    0.000    0.000 
#    0.000    0.000    0.000    0.000    0.000    0.000 
#
# Total GULP energy -67008.396291 kJ/mol
# GULP energy per Si atom -5584.033024 kJ/mol
# Density = 2.529018 g / cm^3
# Si number density = 25.347875 Si / 1000 Ang^3
#
#
#
# Elastic Constant Matrix: (Units=GPa)
#
#
# Indices 1 2 3 4 5 6 
#
# 1 146.8330 39.3853 75.2285 -0.0003 -3.1385 0.0000
# 2 39.3853 81.2716 16.7887 -0.0008 -9.2926 0.0000
# 3 75.2285 16.7887 114.9074 -0.0027 -10.2005 0.0005
# 4 -0.0003 -0.0008 -0.0027 24.3632 0.0006 -5.5934
# 5 -3.1385 -9.2926 -10.2005 0.0006 89.3529 0.0001
# 6 0.0000 0.0000 0.0005 -5.5934 0.0001 30.2446
#
#
#
# Elastic Compliance Matrix: (Units=1/GPa)
#
#
# Indices 1 2 3 4 5 6 
#
# 1 0.011508 -0.004228 -0.006991 -0.000001 -0.000834 0.000000
# 2 -0.004228 0.014353 0.000799 0.000001 0.001435 0.000000
# 3 -0.006991 0.000799 0.013283 0.000001 0.001354 0.000000
# 4 -0.000001 0.000001 0.000001 0.042865 0.000000 0.007927
# 5 -0.000834 0.001435 0.001354 0.000000 0.011466 0.000000
# 6 0.000000 0.000000 0.000000 0.007927 0.000000 0.034530
#
#
# Mechanical properties :
#
#
# Convention : Reuss Voigt Hill
#
# Bulk Modulus (GPa) = 54.63508 67.31300 60.97404
# Shear Modulus (GPa) = 32.26910 42.89944 37.58427
#
# Velocity S-wave (km/s) = 3.57185 4.11838 3.85481
# Velocity P-wave (km/s) = 6.21383 7.01627 6.62721
#
# Compressibility (1/GPa) = 0.01830326
#
# Stress axis : x y z
#
# Youngs Moduli (GPa) = 86.89308 69.67345 75.28514
#
# Poissons Ratio (x) = 0.29460 0.52629
# Poissons Ratio (y) = 0.36741 -0.06013
# Poissons Ratio (z) = 0.60744 -0.05564
#
# Static dielectric constant tensor:
#      x y z
#    x 2.036040 0.000000 0.004970 
#    y 0.000000 1.979330 0.000000 
#    z 0.004970 0.000000 2.030950 
# 
# From -- ./inp_files/60461.got.cif
#   From: 2010.05.17/outbox.cif.g08.bks.cpg/sg5_31_cif.got.tgz:60461.got - 2010.06.03 18:56:24.
