data_PCOD9124878
_publ_section_title
;
Structure prediction by ZEFSAII (Michael W. Deem and Ramdas Pophale) SiO2 
 PCOD9124878
Probable space group: C 2
;
_chemical_formula_sum "Si O2"
_cell_formula_units_Z 20
_cell_length_a 18.099738
_cell_length_b 9.007500
_cell_length_c 5.134631
_cell_angle_alpha 90.000000
_cell_angle_beta 91.560785
_cell_angle_gamma 90.000000
_cell_volume 836.805721
_symmetry_space_group_name_H-M "C 2"
_symmetry_group_IT_number 5
_symmetry_cell_setting 'monoclinic'
loop_
_space_group_symop_operation_xyz
x,y,z
-x,y,-z
1/2+x,1/2+y,z
1/2-x,1/2+y,-z
loop_
_atom_site_type_symbol
_atom_site_label
_atom_site_fract_x
_atom_site_fract_y
_atom_site_fract_z
Si Si1 0.050291 0.710100 0.248124
Si Si2 0.413550 0.530042 0.965530
Si Si3 0.088810 0.183407 0.534898
Si Si4 0.795091 0.568010 0.724570
Si Si5 0.709506 0.876524 0.758919
O O1 0.117961 0.601665 0.305429
O O2 0.000000 0.733156 0.500000
O O3 0.085612 0.866304 0.153407
O O4 0.000000 0.659360 0.000000
O O5 0.381699 0.643485 0.749831
O O6 0.500000 0.568211 0.000000
O O7 0.389257 0.551554 0.259711
O O8 0.127005 0.324358 0.669023
O O9 0.000000 0.197111 0.500000
O O10 0.755962 0.725441 0.765004
O O11 0.765551 0.485930 0.467181
O O12 0.785734 0.462583 0.971586
#
# Coordination Sequence:
#
# PCOD9124878 Si02
#       5
#     4   4   4   4   4
#     4  11  23  42  71 104 142 183 240 296 356 423
#     4   9  18  35  63 104 134 178 222 282 352 414
#     4  10  21  38  68 100 139 177 234 289 350 413
#     4  12  29  48  74 106 144 197 237 298 367 428
#     4  12  28  49  72 106 147 193 241 295 365 434
#
# _framework density 23.900411999999999
#
# number of rings (size 3 to 8) (size 9 to 14) (size 15 to 20)
#    0.000    1.200    0.000    6.600    5.600    2.400 
#    0.000    0.000    0.000    0.000    0.000    0.000 
#    0.000    0.000    0.000    0.000    0.000    0.000 
#
# Total GULP energy -55964.501175 kJ/mol
# GULP energy per Si atom -5596.450117 kJ/mol
# Density = 2.384601 g / cm^3
# Si number density = 23.900412 Si / 1000 Ang^3
#
#
#
# Elastic Constant Matrix: (Units=GPa)
#
#
# Indices 1 2 3 4 5 6 
#
# 1 91.3153 37.5137 15.0223 0.0000 5.3033 0.0000
# 2 37.5137 97.7630 25.8524 0.0000 -7.0495 0.0000
# 3 15.0223 25.8524 64.8404 0.0000 -9.1569 0.0000
# 4 0.0000 0.0000 0.0000 54.5449 0.0000 8.7043
# 5 5.3033 -7.0495 -9.1569 0.0000 26.0194 0.0000
# 6 0.0000 0.0000 0.0000 8.7043 0.0000 38.3602
#
#
#
# Elastic Compliance Matrix: (Units=1/GPa)
#
#
# Indices 1 2 3 4 5 6 
#
# 1 0.013619 -0.005095 -0.001800 0.000000 -0.004790 0.000000
# 2 -0.005095 0.013402 -0.003687 0.000000 0.003372 0.000000
# 3 -0.001800 -0.003687 0.018121 0.000000 0.005745 0.000000
# 4 0.000000 0.000000 0.000000 0.019022 0.000000 -0.004316
# 5 -0.004790 0.003372 0.005745 0.000000 0.042345 0.000000
# 6 0.000000 0.000000 0.000000 -0.004316 0.000000 0.027048
#
#
# Mechanical properties :
#
#
# Convention : Reuss Voigt Hill
#
# Bulk Modulus (GPa) = 41.70609 45.63282 43.66946
# Shear Modulus (GPa) = 30.72898 35.48691 33.10794
#
# Velocity S-wave (km/s) = 3.58957 3.85747 3.72593
# Velocity P-wave (km/s) = 5.88794 6.24295 6.06804
#
# Compressibility (1/GPa) = 0.02397732
#
# Stress axis : x y z
#
# Youngs Moduli (GPa) = 73.42951 74.61569 55.18506
#
# Poissons Ratio (x) = 0.38017 0.09934
# Poissons Ratio (y) = 0.37413 0.20346
# Poissons Ratio (z) = 0.13218 0.27510
#
# Static dielectric constant tensor:
#      x y z
#    x 1.975430 0.000000 -0.019460 
#    y 0.000000 1.890700 0.000000 
#    z -0.019460 0.000000 1.879750 
# 
# From -- ./inp_files/7924.got.cif
#   From: 2010.05.17/outbox.cif.g08.bks.cpg/sg5_4_cif.got.tgz:7924.got - 2010.06.03 18:56:24.
