data_PCOD9124066
_publ_section_title
;
Structure prediction by ZEFSAII (Michael W. Deem and Ramdas Pophale) SiO2 
 PCOD9124066
Probable space group: C 2
;
_chemical_formula_sum "Si O2"
_cell_formula_units_Z 32
_cell_length_a 15.706123
_cell_length_b 5.852317
_cell_length_c 28.243289
_cell_angle_alpha 90.000000
_cell_angle_beta 147.280969
_cell_angle_gamma 90.000000
_cell_volume 1403.213374
_symmetry_space_group_name_H-M "C 2"
_symmetry_group_IT_number 5
_symmetry_cell_setting 'monoclinic'
loop_
_space_group_symop_operation_xyz
x,y,z
-x,y,-z
1/2+x,1/2+y,z
1/2-x,1/2+y,-z
loop_
_atom_site_type_symbol
_atom_site_label
_atom_site_fract_x
_atom_site_fract_y
_atom_site_fract_z
Si Si1 0.312509 0.421500 0.160397
Si Si2 0.431078 0.613093 0.915186
Si Si3 0.898713 0.645005 0.732434
Si Si4 0.830288 0.437609 0.427706
Si Si5 0.463344 0.766913 0.685864
Si Si6 0.169041 0.245077 0.471261
Si Si7 0.138397 0.708154 0.006230
Si Si8 0.552772 0.904809 0.883522
O O1 0.240442 0.223085 0.159688
O O2 0.454710 0.320735 0.195492
O O3 0.388949 0.623895 0.226404
O O4 0.177602 0.521507 0.063575
O O5 0.504820 0.723081 0.901862
O O6 0.500000 0.657639 0.000000
O O7 0.476996 0.347578 0.934570
O O8 0.741216 0.786937 0.648473
O O9 0.936632 0.495955 0.703294
O O10 0.909500 0.483291 0.783197
O O11 0.693435 0.616955 0.376026
O O12 0.858367 0.274196 0.486000
O O13 0.000000 0.550975 0.500000
O O14 0.467986 0.784748 0.631414
O O15 0.272600 0.480141 0.508699
O O16 0.302367 0.845406 0.083217
O O17 0.124878 0.606440 0.948087
#
# Coordination Sequence:
#
# PCOD9124066 Si02
#       8
#     4   4   4   4   4   4   4   4
#     4  11  25  45  69  99 136 185 237 297 357 411
#     4  12  27  41  63 100 132 180 239 289 340 413
#     4  11  23  44  71 101 138 182 229 295 358 422
#     4  10  23  42  69 106 141 181 231 287 360 439
#     4  10  22  42  73  97 139 184 229 296 356 434
#     4  10  20  41  70 103 137 188 235 283 362 444
#     4  12  24  44  68  96 138 188 234 282 355 426
#     4  12  24  41  68  96 134 187 231 280 353 416
#
# _framework density 22.804798999999999
#
# number of rings (size 3 to 8) (size 9 to 14) (size 15 to 20)
#    0.000    1.000    5.000    1.500    1.750    1.500 
#    0.000    1.250    0.000    0.000    0.000    0.000 
#    0.000    0.000    0.000    0.000    0.000    0.000 
#
# Total GULP energy -89169.617169 kJ/mol
# GULP energy per Si atom -5573.101073 kJ/mol
# Density = 2.275289 g / cm^3
# Si number density = 22.804799 Si / 1000 Ang^3
#
#
#
# Elastic Constant Matrix: (Units=GPa)
#
#
# Indices 1 2 3 4 5 6 
#
# 1 44.8594 8.0002 24.2634 0.0002 5.7467 -0.0026
# 2 8.0002 53.1593 16.3929 0.0005 4.9391 -0.0032
# 3 24.2634 16.3929 84.1977 0.0000 -11.1795 0.0005
# 4 0.0002 0.0005 0.0000 35.6172 -0.0001 -7.1968
# 5 5.7467 4.9391 -11.1795 -0.0001 42.4433 0.0013
# 6 -0.0026 -0.0032 0.0005 -7.1968 0.0013 -8.9662
#
#
#
# Elastic Compliance Matrix: (Units=1/GPa)
#
#
# Indices 1 2 3 4 5 6 
#
# 1 0.027899 -0.000984 -0.008637 -0.000002 -0.005938 -0.000008
# 2 -0.000984 0.020555 -0.004164 -0.000002 -0.003356 -0.000006
# 3 -0.008637 -0.004164 0.015954 0.000001 0.005856 0.000005
# 4 -0.000002 -0.000002 0.000001 0.024158 0.000001 -0.019391
# 5 -0.005938 -0.003356 0.005856 0.000001 0.026298 0.000006
# 6 -0.000008 -0.000006 0.000005 -0.019391 0.000006 -0.095966
#
#
# Mechanical properties :
#
#
# Convention : Reuss Voigt Hill
#
# Bulk Modulus (GPa) = 27.14468 31.05884 29.10176
# Shear Modulus (GPa) = 85.10959 22.72286 53.91622
#
# Velocity S-wave (km/s) = 6.11571 3.16002 4.86763
# Velocity P-wave (km/s) = 7.86118 5.19262 6.66188
#
# Compressibility (1/GPa) = 0.03683963
#
# Stress axis : x y z
#
# Youngs Moduli (GPa) = 35.84314 48.64924 62.68036
#
# Poissons Ratio (x) = 0.04785 0.54135
# Poissons Ratio (y) = 0.03526 0.26101
# Poissons Ratio (z) = 0.30957 0.20258
#
# Static dielectric constant tensor:
#      x y z
#    x 1.913600 0.000000 0.000030 
#    y 0.000000 1.926990 0.000000 
#    z 0.000030 0.000000 1.855190 
# 
# From -- ./inp_files/72031.got.cif
#   From: 2010.05.17/outbox.cif.g08.bks.cpg/sg5_37_cif.got.tgz:72031.got - 2010.06.03 18:56:24.
