data_PCOD9124541
_publ_section_title
;
Structure prediction by ZEFSAII (Michael W. Deem and Ramdas Pophale) SiO2 
 PCOD9124541
Probable space group: C 2
;
_chemical_formula_sum "Si O2"
_cell_formula_units_Z 32
_cell_length_a 12.411702
_cell_length_b 5.296624
_cell_length_c 25.568185
_cell_angle_alpha 90.000000
_cell_angle_beta 118.354367
_cell_angle_gamma 90.000000
_cell_volume 1479.198411
_symmetry_space_group_name_H-M "C 2"
_symmetry_group_IT_number 5
_symmetry_cell_setting 'monoclinic'
loop_
_space_group_symop_operation_xyz
x,y,z
-x,y,-z
1/2+x,1/2+y,z
1/2-x,1/2+y,-z
loop_
_atom_site_type_symbol
_atom_site_label
_atom_site_fract_x
_atom_site_fract_y
_atom_site_fract_z
Si Si1 0.934201 0.899390 0.103346
Si Si2 0.221216 0.954684 0.335254
Si Si3 0.736851 0.397530 0.834685
Si Si4 0.878048 0.587195 0.498413
Si Si5 0.639233 0.458086 0.596679
Si Si6 0.515152 0.899318 0.941456
Si Si7 0.287159 0.397569 0.789816
Si Si8 0.391206 0.392573 0.591507
O O1 0.918342 0.647159 0.065532
O O2 0.074355 0.898052 0.156124
O O3 0.847734 0.904616 0.133817
O O4 0.919531 0.147620 0.064498
O O5 0.296851 0.213477 0.361201
O O6 0.102638 0.954121 0.345733
O O7 0.285582 0.707652 0.374598
O O8 0.203728 0.912582 0.270330
O O9 0.877646 0.398286 0.886549
O O10 0.722651 0.644216 0.795480
O O11 0.719944 0.142245 0.797851
O O12 0.744686 0.476033 0.457545
O O13 0.000000 0.467458 0.500000
O O14 0.870253 0.855690 0.464845
O O15 0.899388 0.617680 0.565321
O O16 0.507286 0.514258 0.590612
O O17 0.500000 0.903401 0.000000
#
# Coordination Sequence:
#
# PCOD9124541 Si02
#       8
#     4   4   4   4   4   4   4   4
#     4  10  21  38  59  84 115 158 195 228 286 339
#     4  11  23  39  58  84 114 146 190 241 288 335
#     4  10  21  39  59  82 116 155 195 237 282 336
#     4   9  19  36  58  85 114 149 185 227 283 352
#     4  10  23  39  58  86 115 145 187 234 287 348
#     4  10  21  36  58  91 123 149 190 239 280 336
#     4  10  22  38  57  82 112 149 197 243 280 333
#     4  10  21  37  60  86 115 149 186 231 288 345
#
# _framework density 21.633337000000001
#
# number of rings (size 3 to 8) (size 9 to 14) (size 15 to 20)
#    0.000    2.000    0.000    2.625    0.000    8.000 
#    0.000    3.125    0.000    0.000    0.000    0.000 
#    0.000    0.000    0.000    0.000    0.000    0.000 
#
# Total GULP energy -89299.721575 kJ/mol
# GULP energy per Si atom -5581.232598 kJ/mol
# Density = 2.158410 g / cm^3
# Si number density = 21.633337 Si / 1000 Ang^3
#
#
#
# Elastic Constant Matrix: (Units=GPa)
#
#
# Indices 1 2 3 4 5 6 
#
# 1 114.4448 46.8934 14.9362 0.0000 -44.3710 0.0000
# 2 46.8934 158.3899 45.8796 0.0000 -25.4851 0.0000
# 3 14.9362 45.8796 100.9971 0.0000 -50.8669 0.0000
# 4 0.0000 0.0000 0.0000 25.3634 0.0000 -14.1331
# 5 -44.3710 -25.4851 -50.8669 0.0000 47.4124 0.0000
# 6 0.0000 0.0000 0.0000 -14.1331 0.0000 16.6123
#
#
#
# Elastic Compliance Matrix: (Units=1/GPa)
#
#
# Indices 1 2 3 4 5 6 
#
# 1 0.024724 -0.006499 0.019993 0.000000 0.041094 0.000000
# 2 -0.006499 0.008992 -0.008164 0.000000 -0.010007 0.000000
# 3 0.019993 -0.008164 0.038869 0.000000 0.056023 0.000000
# 4 0.000000 0.000000 0.000000 0.074966 0.000000 0.063778
# 5 0.041094 -0.010007 0.056023 0.000000 0.114275 0.000000
# 6 0.000000 0.000000 0.000000 0.063778 0.000000 0.114456
#
#
# Mechanical properties :
#
#
# Convention : Reuss Voigt Hill
#
# Bulk Modulus (GPa) = 12.01273 65.47227 38.74250
# Shear Modulus (GPa) = 12.71068 35.61914 24.16491
#
# Velocity S-wave (km/s) = 2.42657 4.06210 3.34581
# Velocity P-wave (km/s) = 3.66278 7.23403 5.73354
#
# Compressibility (1/GPa) = 0.08324502
#
# Stress axis : x y z
#
# Youngs Moduli (GPa) = 40.44664 111.20727 25.72752
#
# Poissons Ratio (x) = 0.72273 -0.51436
# Poissons Ratio (y) = 0.26286 0.21004
# Poissons Ratio (z) = -0.80864 0.90788
#
# Static dielectric constant tensor:
#      x y z
#    x 1.787150 0.000000 0.005220 
#    y 0.000000 1.842330 0.000000 
#    z 0.005220 0.000000 1.786600 
# 
# From -- ./inp_files/68181.got.cif
#   From: 2010.05.17/outbox.cif.g08.bks.cpg/sg5_35_cif.got.tgz:68181.got - 2010.06.03 18:56:24.
