data_PCOD9124018
_publ_section_title
;
Structure prediction by ZEFSAII (Michael W. Deem and Ramdas Pophale) SiO2 
 PCOD9124018
Probable space group: C 2
;
_chemical_formula_sum "Si O2"
_cell_formula_units_Z 30
_cell_length_a 19.470698
_cell_length_b 13.775381
_cell_length_c 14.136112
_cell_angle_alpha 90.000000
_cell_angle_beta 160.361672
_cell_angle_gamma 90.000000
_cell_volume 1274.265608
_symmetry_space_group_name_H-M "C 2"
_symmetry_group_IT_number 5
_symmetry_cell_setting 'monoclinic'
loop_
_space_group_symop_operation_xyz
x,y,z
-x,y,-z
1/2+x,1/2+y,z
1/2-x,1/2+y,-z
loop_
_atom_site_type_symbol
_atom_site_label
_atom_site_fract_x
_atom_site_fract_y
_atom_site_fract_z
Si Si1 0.641868 0.327320 0.512214
Si Si2 0.192717 0.216886 0.626441
Si Si3 0.873917 0.158819 0.921032
Si Si4 0.000000 0.532157 0.500000
Si Si5 0.865140 0.495011 0.125372
Si Si6 0.204155 0.712512 0.027669
Si Si7 0.899286 0.324098 0.667492
Si Si8 0.918496 0.018657 0.497851
O O1 0.752827 0.236093 0.700816
O O2 0.754857 0.360423 0.563899
O O3 0.672740 0.412729 0.626953
O O4 0.419564 0.289019 0.195132
O O5 0.297028 0.236183 0.862282
O O6 0.233974 0.288853 0.594963
O O7 0.943559 0.217852 0.311961
O O8 0.224995 0.102166 0.648544
O O9 0.705540 0.095411 0.755457
O O10 0.000000 0.104990 0.000000
O O11 0.997393 0.225110 0.156440
O O12 0.972216 0.478214 0.365018
O O13 0.948309 0.409801 0.166393
O O14 0.893083 0.605454 0.120467
O O15 0.620484 0.497551 0.820815
O O16 0.000000 0.048962 0.500000
#
# Coordination Sequence:
#
# PCOD9124018 Si02
#       8
#     4   4   4   2   4   4   4   4
#     4  11  24  39  65  95 129 167 210 266 338 373
#     4  10  21  41  67  89 127 159 215 264 311 382
#     4  10  23  42  67  96 130 169 224 268 324 385
#     4  12  24  44  70  94 126 184 210 274 334 380
#     4  11  23  40  64  97 126 163 224 256 324 393
#     4  10  20  41  65  94 120 165 213 263 314 385
#     4  11  25  42  59  96 135 168 206 269 318 396
#     4  11  21  39  67  97 118 162 219 268 310 384
#
# _framework density 23.542971999999999
#
# number of rings (size 3 to 8) (size 9 to 14) (size 15 to 20)
#    0.000    1.333    4.000    3.200    2.800    3.733 
#    2.400    0.000    0.000    0.000    0.000    0.000 
#    0.000    0.000    0.000    0.000    0.000    0.000 
#
# Total GULP energy -83773.685135 kJ/mol
# GULP energy per Si atom -5584.912342 kJ/mol
# Density = 2.348939 g / cm^3
# Si number density = 23.542972 Si / 1000 Ang^3
#
#
#
# Elastic Constant Matrix: (Units=GPa)
#
#
# Indices 1 2 3 4 5 6 
#
# 1 91.1236 22.2042 18.8884 0.0001 -15.3227 0.0001
# 2 22.2042 59.0220 -7.0881 0.0001 2.0084 0.0001
# 3 18.8884 -7.0881 46.5905 0.0003 -18.6208 0.0002
# 4 0.0001 0.0001 0.0003 -10.4567 0.0001 -21.1457
# 5 -15.3227 2.0084 -18.6208 0.0001 47.7860 0.0001
# 6 0.0001 0.0001 0.0002 -21.1457 0.0001 22.6858
#
#
#
# Elastic Compliance Matrix: (Units=1/GPa)
#
#
# Indices 1 2 3 4 5 6 
#
# 1 0.014035 -0.006038 -0.005577 0.000000 0.002581 0.000000
# 2 -0.006038 0.019860 0.005167 0.000000 -0.000757 0.000000
# 3 -0.005577 0.005167 0.028083 0.000001 0.008938 0.000000
# 4 0.000000 0.000000 0.000001 -0.033149 0.000000 -0.030899
# 5 0.002581 -0.000757 0.008938 0.000000 0.025269 0.000000
# 6 0.000000 0.000000 0.000000 -0.030899 0.000000 0.015280
#
#
# Mechanical properties :
#
#
# Convention : Reuss Voigt Hill
#
# Bulk Modulus (GPa) = 20.37411 29.41613 24.89512
# Shear Modulus (GPa) = 50.69176 22.85178 36.77177
#
# Velocity S-wave (km/s) = 4.64525 3.11889 3.95638
# Velocity P-wave (km/s) = 6.11914 5.04894 5.60962
#
# Compressibility (1/GPa) = 0.04908190
#
# Stress axis : x y z
#
# Youngs Moduli (GPa) = 71.24851 50.35125 35.60905
#
# Poissons Ratio (x) = 0.30401 0.19860
# Poissons Ratio (y) = 0.43018 -0.18398
# Poissons Ratio (z) = 0.39736 -0.26014
#
# Static dielectric constant tensor:
#      x y z
#    x 1.970890 0.000000 0.054320 
#    y 0.000000 1.952990 0.000000 
#    z 0.054320 0.000000 1.961920 
# 
# From -- ./inp_files/57161.got.cif
#   From: 2010.05.17/outbox.cif.g08.bks.cpg/sg5_29_cif.got.tgz:57161.got - 2010.06.03 18:56:24.
