data_PCOD9124289
_publ_section_title
;
Structure prediction by ZEFSAII (Michael W. Deem and Ramdas Pophale) SiO2 
 PCOD9124289
Probable space group: C 2
;
_chemical_formula_sum "Si O2"
_cell_formula_units_Z 28
_cell_length_a 17.591226
_cell_length_b 5.178268
_cell_length_c 14.240138
_cell_angle_alpha 90.000000
_cell_angle_beta 110.740603
_cell_angle_gamma 90.000000
_cell_volume 1213.098926
_symmetry_space_group_name_H-M "C 2"
_symmetry_group_IT_number 5
_symmetry_cell_setting 'monoclinic'
loop_
_space_group_symop_operation_xyz
x,y,z
-x,y,-z
1/2+x,1/2+y,z
1/2-x,1/2+y,-z
loop_
_atom_site_type_symbol
_atom_site_label
_atom_site_fract_x
_atom_site_fract_y
_atom_site_fract_z
Si Si1 0.957901 0.733440 0.891682
Si Si2 0.652657 0.906444 0.898532
Si Si3 0.627967 0.922889 0.301585
Si Si4 0.827614 0.914570 0.961186
Si Si5 0.780952 0.998937 0.462278
Si Si6 0.987656 0.078723 0.243652
Si Si7 0.546375 0.272470 0.429666
O O1 0.905267 0.542088 0.807880
O O2 0.016083 0.883355 0.845353
O O3 0.896554 0.929533 0.913600
O O4 0.000000 0.602087 0.000000
O O5 0.665069 0.667034 0.973312
O O6 0.572340 0.819992 0.804274
O O7 0.657743 0.160418 0.966864
O O8 0.737033 0.908753 0.877775
O O9 0.724492 0.935393 0.348462
O O10 0.583626 0.650174 0.288067
O O11 0.587173 0.075542 0.372523
O O12 0.740890 0.791104 0.517777
O O13 0.876304 0.940698 0.500291
O O14 0.980351 0.935746 0.339785
O O15 0.500000 0.159363 0.500000
#
# Coordination Sequence:
#
# PCOD9124289 Si02
#       7
#     4   4   4   4   4   4   4
#     4  11  22  37  63  95 132 169 223 261 320 381
#     4  10  22  40  64  87 137 167 221 258 327 375
#     4  10  23  39  64  94 128 175 221 267 331 399
#     4  10  22  41  60  93 126 186 207 266 315 384
#     4  10  20  43  66  91 130 169 209 274 329 388
#     4  11  22  39  63  95 126 172 219 274 322 396
#     4  10  23  42  65  94 130 167 220 277 341 388
#
# _framework density 23.081384
#
# number of rings (size 3 to 8) (size 9 to 14) (size 15 to 20)
#    0.000    1.714    2.857    0.857    4.000    2.286 
#    0.000    1.429    0.000    0.000    0.000    0.000 
#    0.000    0.000    0.000    0.000    0.000    0.000 
#
# Total GULP energy -78055.300944 kJ/mol
# GULP energy per Si atom -5575.378639 kJ/mol
# Density = 2.302885 g / cm^3
# Si number density = 23.081384 Si / 1000 Ang^3
#
#
#
# Elastic Constant Matrix: (Units=GPa)
#
#
# Indices 1 2 3 4 5 6 
#
# 1 77.2416 -4.1192 42.4554 0.0000 24.6089 0.0000
# 2 -4.1192 83.3880 18.7708 0.0000 6.2170 0.0000
# 3 42.4554 18.7708 129.1998 0.0000 17.0049 0.0000
# 4 0.0000 0.0000 0.0000 56.6539 0.0000 25.6179
# 5 24.6089 6.2170 17.0049 0.0000 35.5297 0.0000
# 6 0.0000 0.0000 0.0000 25.6179 0.0000 28.4742
#
#
#
# Elastic Compliance Matrix: (Units=1/GPa)
#
#
# Indices 1 2 3 4 5 6 
#
# 1 0.019803 0.003067 -0.005418 0.000000 -0.011659 0.000000
# 2 0.003067 0.012938 -0.002465 0.000000 -0.003208 0.000000
# 3 -0.005418 -0.002465 0.009955 0.000000 -0.000580 0.000000
# 4 0.000000 0.000000 0.000000 0.029757 0.000000 -0.026772
# 5 -0.011659 -0.003208 -0.000580 0.000000 0.037060 0.000000
# 6 0.000000 0.000000 0.000000 -0.026772 0.000000 0.059206
#
#
# Mechanical properties :
#
#
# Convention : Reuss Voigt Hill
#
# Bulk Modulus (GPa) = 30.24558 44.89370 37.56964
# Shear Modulus (GPa) = 26.40303 39.64638 33.02471
#
# Velocity S-wave (km/s) = 3.38584 4.14898 3.78669
# Velocity P-wave (km/s) = 5.33081 6.51494 5.95240
#
# Compressibility (1/GPa) = 0.03306268
#
# Stress axis : x y z
#
# Youngs Moduli (GPa) = 50.49815 77.29299 100.45258
#
# Poissons Ratio (x) = -0.23707 0.54428
# Poissons Ratio (y) = -0.15488 0.24764
# Poissons Ratio (z) = 0.27361 0.19055
#
# Static dielectric constant tensor:
#      x y z
#    x 1.955130 0.000000 0.059160 
#    y 0.000000 1.910130 0.000000 
#    z 0.059160 0.000000 1.920070 
# 
# From -- ./inp_files/55269.got.cif
#   From: 2010.05.17/outbox.cif.g08.bks.cpg/sg5_28_cif.got.tgz:55269.got - 2010.06.03 18:56:24.
