data_PCOD9124864
_publ_section_title
;
Structure prediction by ZEFSAII (Michael W. Deem and Ramdas Pophale) SiO2 
 PCOD9124864
Probable space group: C 2
;
_chemical_formula_sum "Si O2"
_cell_formula_units_Z 28
_cell_length_a 12.420644
_cell_length_b 15.369125
_cell_length_c 8.899969
_cell_angle_alpha 90.000000
_cell_angle_beta 53.288354
_cell_angle_gamma 90.000000
_cell_volume 1361.973941
_symmetry_space_group_name_H-M "C 2"
_symmetry_group_IT_number 5
_symmetry_cell_setting 'monoclinic'
loop_
_space_group_symop_operation_xyz
x,y,z
-x,y,-z
1/2+x,1/2+y,z
1/2-x,1/2+y,-z
loop_
_atom_site_type_symbol
_atom_site_label
_atom_site_fract_x
_atom_site_fract_y
_atom_site_fract_z
Si Si1 0.562044 0.727880 0.614808
Si Si2 0.328229 0.603953 0.870521
Si Si3 0.007889 0.830022 0.322979
Si Si4 0.760230 0.575092 0.381987
Si Si5 0.274292 0.896805 0.555591
Si Si6 0.143924 0.932650 0.963619
Si Si7 0.970457 0.672867 0.868550
O O1 0.500000 0.730811 0.500000
O O2 0.442027 0.677411 0.800634
O O3 0.686783 0.659798 0.514668
O O4 0.615374 0.826572 0.593735
O O5 0.324818 0.563714 0.702616
O O6 0.339714 0.527968 0.980964
O O7 0.181624 0.644371 0.001498
O O8 0.867405 0.855504 0.368465
O O9 0.000000 0.858538 0.500000
O O10 0.014199 0.727460 0.294577
O O11 0.126495 0.869729 0.122064
O O12 0.769090 0.490553 0.479128
O O13 0.914546 0.600355 0.220727
O O14 0.261356 0.908400 0.747519
O O15 0.000000 0.932346 0.000000
O O16 0.000000 0.725697 0.000000
#
# Coordination Sequence:
#
# PCOD9124864 Si02
#       7
#     4   4   4   4   4   4   4
#     4  10  21  38  66  97 126 175 219 266 330 403
#     4  10  22  41  64  93 132 172 218 265 334 398
#     4  11  22  38  63  91 123 169 216 263 323 399
#     4  10  21  40  68  91 129 175 219 266 337 398
#     4  11  22  39  68  95 132 169 224 281 330 397
#     4  10  22  38  64  94 130 168 217 267 332 395
#     4  10  21  40  64  88 125 169 213 262 324 394
#
# _framework density 20.558396999999999
#
# number of rings (size 3 to 8) (size 9 to 14) (size 15 to 20)
#    0.000    1.714    1.429    3.857    4.000    3.429 
#    2.571    0.000    0.000    0.000    0.000    0.000 
#    0.000    0.000    0.000    0.000    0.000    0.000 
#
# Total GULP energy -77987.214682 kJ/mol
# GULP energy per Si atom -5570.515334 kJ/mol
# Density = 2.051160 g / cm^3
# Si number density = 20.558397 Si / 1000 Ang^3
#
#
#
# Elastic Constant Matrix: (Units=GPa)
#
#
# Indices 1 2 3 4 5 6 
#
# 1 53.6890 34.1270 36.5948 0.0000 -11.4287 0.0000
# 2 34.1270 106.6977 42.9197 0.0000 2.7147 0.0000
# 3 36.5948 42.9197 88.5295 0.0000 -1.0055 0.0000
# 4 0.0000 0.0000 0.0000 112.4283 0.0000 9.0693
# 5 -11.4287 2.7147 -1.0055 0.0000 29.9981 0.0000
# 6 0.0000 0.0000 0.0000 9.0693 0.0000 11.9259
#
#
#
# Elastic Compliance Matrix: (Units=1/GPa)
#
#
# Indices 1 2 3 4 5 6 
#
# 1 0.032350 -0.006641 -0.010010 0.000000 0.012590 0.000000
# 2 -0.006641 0.013053 -0.003626 0.000000 -0.003833 0.000000
# 3 -0.010010 -0.003626 0.017158 0.000000 -0.002910 0.000000
# 4 0.000000 0.000000 0.000000 0.009476 0.000000 -0.007206
# 5 0.012590 -0.003833 -0.002910 0.000000 0.038381 0.000000
# 6 0.000000 0.000000 0.000000 -0.007206 0.000000 0.089331
#
#
# Mechanical properties :
#
#
# Convention : Reuss Voigt Hill
#
# Bulk Modulus (GPa) = 45.44053 52.91100 49.17577
# Shear Modulus (GPa) = 20.19073 39.88878 30.03975
#
# Velocity S-wave (km/s) = 3.13727 4.40962 3.82670
# Velocity P-wave (km/s) = 5.93923 7.19161 6.59521
#
# Compressibility (1/GPa) = 0.02200678
#
# Stress axis : x y z
#
# Youngs Moduli (GPa) = 30.91223 76.61299 58.28073
#
# Poissons Ratio (x) = 0.50878 0.58337
# Poissons Ratio (y) = 0.20528 0.21135
# Poissons Ratio (z) = 0.30942 0.27783
#
# Static dielectric constant tensor:
#      x y z
#    x 1.242630 0.000000 -0.444460 
#    y 0.000000 1.846630 0.000000 
#    z -0.444460 0.000000 1.358570 
# 
# From -- ./inp_files/20527.got.cif
#   From: 2010.05.17/outbox.cif.g08.bks.cpg/sg5_11_cif.got.tgz:20527.got - 2010.06.03 18:56:24.
