data_PCOD9124063
_publ_section_title
;
Structure prediction by ZEFSAII (Michael W. Deem and Ramdas Pophale) SiO2 
 PCOD9124063
Probable space group: C 2
;
_chemical_formula_sum "Si O2"
_cell_formula_units_Z 28
_cell_length_a 16.668712
_cell_length_b 9.150551
_cell_length_c 19.944816
_cell_angle_alpha 90.000000
_cell_angle_beta 153.532550
_cell_angle_gamma 90.000000
_cell_volume 1355.849717
_symmetry_space_group_name_H-M "C 2"
_symmetry_group_IT_number 5
_symmetry_cell_setting 'monoclinic'
loop_
_space_group_symop_operation_xyz
x,y,z
-x,y,-z
1/2+x,1/2+y,z
1/2-x,1/2+y,-z
loop_
_atom_site_type_symbol
_atom_site_label
_atom_site_fract_x
_atom_site_fract_y
_atom_site_fract_z
Si Si1 0.500000 0.448090 0.000000
Si Si2 0.181980 0.990596 0.503722
Si Si3 0.000000 0.071928 0.500000
Si Si4 0.171081 0.524803 0.826089
Si Si5 0.464574 0.758584 0.684292
Si Si6 0.994847 0.798840 0.258169
Si Si7 0.891645 0.715309 0.806123
Si Si8 0.236226 0.537145 0.034315
O O1 0.654345 0.549550 0.086292
O O2 0.565768 0.341150 0.108834
O O3 0.152802 0.158831 0.454682
O O4 0.058941 0.984205 0.477613
O O5 0.354766 0.882442 0.645773
O O6 0.112587 0.910473 0.386388
O O7 0.814021 0.159143 0.344094
O O8 0.027768 0.653044 0.715507
O O9 0.095009 0.370746 0.743474
O O10 0.216624 0.524025 0.939419
O O11 0.603323 0.653208 0.828323
O O12 0.070991 0.770881 0.241503
O O13 0.802015 0.878813 0.107364
O O14 0.050622 0.592476 0.929196
#
# Coordination Sequence:
#
# PCOD9124063 Si02
#       8
#     2   4   2   4   4   4   4   4
#     4  12  22  38  64 102 130 166 216 282 332 388
#     4  11  24  43  66  96 130 178 224 266 338 390
#     4  12  26  40  62 100 140 168 212 286 338 388
#     4  11  20  38  61  96 127 163 217 273 328 382
#     4  11  21  41  70  90 128 178 226 266 315 420
#     4  10  22  42  66  94 128 178 224 267 324 412
#     4  11  23  42  67  95 134 175 226 267 336 404
#     4  10  20  41  69  92 122 180 228 266 320 406
#
# _framework density 20.651256
#
# number of rings (size 3 to 8) (size 9 to 14) (size 15 to 20)
#    0.000    1.143    2.857    5.143    2.000    0.000 
#    5.143    0.000    0.000    0.857    0.000    0.000 
#    0.000    0.000    0.000    0.000    0.000    0.000 
#
# Total GULP energy -77939.756047 kJ/mol
# GULP energy per Si atom -5567.125432 kJ/mol
# Density = 2.060425 g / cm^3
# Si number density = 20.651256 Si / 1000 Ang^3
#
#
#
# Elastic Constant Matrix: (Units=GPa)
#
#
# Indices 1 2 3 4 5 6 
#
# 1 86.5815 21.1373 25.8775 0.0007 26.2884 -0.0012
# 2 21.1373 91.9585 25.1111 0.0001 5.8401 0.0006
# 3 25.8775 25.1111 105.1066 0.0000 19.1486 0.0009
# 4 0.0007 0.0001 0.0000 25.1135 -0.0007 25.8300
# 5 26.2884 5.8401 19.1486 -0.0007 24.0870 0.0011
# 6 -0.0012 0.0006 0.0009 25.8300 0.0011 7.6425
#
#
#
# Elastic Compliance Matrix: (Units=1/GPa)
#
#
# Indices 1 2 3 4 5 6 
#
# 1 0.018034 -0.002862 -0.000347 0.000003 -0.018712 -0.000004
# 2 -0.002862 0.012098 -0.002596 -0.000001 0.002254 0.000001
# 3 -0.000347 -0.002596 0.011736 0.000000 -0.008321 0.000000
# 4 0.000003 -0.000001 0.000000 -0.016081 -0.000006 0.054349
# 5 -0.018712 0.002254 -0.008321 -0.000006 0.068007 0.000008
# 6 -0.000004 0.000001 0.000000 0.054349 0.000008 -0.052841
#
#
# Mechanical properties :
#
#
# Convention : Reuss Voigt Hill
#
# Bulk Modulus (GPa) = 33.05068 47.54429 40.29748
# Shear Modulus (GPa) = 79.80876 25.46998 52.63937
#
# Velocity S-wave (km/s) = 6.22333 3.51570 5.05421
# Velocity P-wave (km/s) = 8.22671 6.28909 7.32227
#
# Compressibility (1/GPa) = 0.03025656
#
# Stress axis : x y z
#
# Youngs Moduli (GPa) = 55.45162 82.65721 85.20819
#
# Poissons Ratio (x) = 0.23656 0.02958
# Poissons Ratio (y) = 0.15870 0.22124
# Poissons Ratio (z) = 0.01925 0.21462
#
# Static dielectric constant tensor:
#      x y z
#    x 1.716270 0.000000 0.023670 
#    y 0.000000 1.827400 0.000000 
#    z 0.023670 0.000000 1.894690 
# 
# From -- ./inp_files/66014.got.cif
#   From: 2010.05.17/outbox.cif.g08.bks.cpg/sg5_34_cif.got.tgz:66014.got - 2010.06.03 18:56:24.
