data_PCOD9124916
_publ_section_title
;
Structure prediction by ZEFSAII (Michael W. Deem and Ramdas Pophale) SiO2 
 PCOD9124916
Probable space group: C 2
;
_chemical_formula_sum "Si O2"
_cell_formula_units_Z 30
_cell_length_a 25.170915
_cell_length_b 9.062226
_cell_length_c 7.508143
_cell_angle_alpha 90.000000
_cell_angle_beta 41.232729
_cell_angle_gamma 90.000000
_cell_volume 1128.834722
_symmetry_space_group_name_H-M "C 2"
_symmetry_group_IT_number 5
_symmetry_cell_setting 'monoclinic'
loop_
_space_group_symop_operation_xyz
x,y,z
-x,y,-z
1/2+x,1/2+y,z
1/2-x,1/2+y,-z
loop_
_atom_site_type_symbol
_atom_site_label
_atom_site_fract_x
_atom_site_fract_y
_atom_site_fract_z
Si Si1 0.667996 0.801400 0.041714
Si Si2 0.759849 0.872570 0.454953
Si Si3 0.589262 0.217551 0.750138
Si Si4 0.525219 0.676770 0.192988
Si Si5 0.500000 0.928741 0.000000
Si Si6 0.671503 0.627831 0.566500
Si Si7 0.274866 0.512225 0.945156
Si Si8 0.930141 0.878712 0.551485
O O1 0.698303 0.852475 0.773806
O O2 0.580487 0.733394 0.219946
O O3 0.690355 0.934980 0.117333
O O4 0.724841 0.669824 0.965884
O O5 0.844047 0.794748 0.296696
O O6 0.713029 0.783796 0.423598
O O7 0.776845 0.044709 0.410453
O O8 0.598759 0.260084 0.520625
O O9 0.500000 0.286098 0.000000
O O10 0.574199 0.044968 0.830878
O O11 0.585533 0.635169 0.876376
O O12 0.485601 0.824283 0.208074
O O13 0.473645 0.530960 0.369084
O O14 0.683491 0.537062 0.356076
O O15 0.346979 0.422569 0.860981
O O16 0.000000 0.813179 0.500000
#
# Coordination Sequence:
#
# PCOD9124916 Si02
#       8
#     4   4   4   4   2   4   4   4
#     4  10  23  43  62  90 136 166 221 265 335 402
#     4  10  21  39  60  95 120 169 213 271 327 398
#     4  10  23  42  64  94 132 171 225 280 332 390
#     4  11  23  45  68 102 129 173 225 283 334 405
#     4  10  26  38  68  96 134 168 216 286 336 382
#     4  10  22  38  70  90 130 161 223 274 331 391
#     4  11  23  43  62  98 124 182 214 278 325 410
#     4  12  23  44  71  94 133 179 231 265 341 413
#
# _framework density 26.576079
#
# number of rings (size 3 to 8) (size 9 to 14) (size 15 to 20)
#    0.400    1.067    4.000    1.600    6.533    2.133 
#    7.200    0.667    0.000    0.000    0.000    0.000 
#    0.000    0.000    0.000    0.000    0.000    0.000 
#
# Total GULP energy -83775.192449 kJ/mol
# GULP energy per Si atom -5585.012830 kJ/mol
# Density = 2.651559 g / cm^3
# Si number density = 26.576079 Si / 1000 Ang^3
#
#
#
# Elastic Constant Matrix: (Units=GPa)
#
#
# Indices 1 2 3 4 5 6 
#
# 1 115.0485 41.4596 17.9573 0.0000 -11.7136 0.0000
# 2 41.4596 94.2237 13.4270 0.0000 1.0945 0.0000
# 3 17.9573 13.4270 74.0984 0.0000 -18.8093 0.0000
# 4 0.0000 0.0000 0.0000 41.9320 0.0000 -7.3075
# 5 -11.7136 1.0945 -18.8093 0.0000 40.8079 0.0000
# 6 0.0000 0.0000 0.0000 -7.3075 0.0000 49.0247
#
#
#
# Elastic Compliance Matrix: (Units=1/GPa)
#
#
# Indices 1 2 3 4 5 6 
#
# 1 0.010809 -0.004633 -0.001088 0.000000 0.002725 0.000000
# 2 -0.004633 0.012947 -0.001868 0.000000 -0.002538 0.000000
# 3 -0.001088 -0.001868 0.015890 0.000000 0.007062 0.000000
# 4 0.000000 0.000000 0.000000 0.024484 0.000000 0.003650
# 5 0.002725 -0.002538 0.007062 0.000000 0.028610 0.000000
# 6 0.000000 0.000000 0.000000 0.003650 0.000000 0.020942
#
#
# Mechanical properties :
#
#
# Convention : Reuss Voigt Hill
#
# Bulk Modulus (GPa) = 40.86741 47.67314 44.27028
# Shear Modulus (GPa) = 36.49218 40.38804 38.44011
#
# Velocity S-wave (km/s) = 3.70959 3.90258 3.80731
# Velocity P-wave (km/s) = 5.81024 6.18742 6.00179
#
# Compressibility (1/GPa) = 0.02446937
#
# Stress axis : x y z
#
# Youngs Moduli (GPa) = 92.51779 77.23771 62.93137
#
# Poissons Ratio (x) = 0.35781 0.06848
# Poissons Ratio (y) = 0.42859 0.11753
# Poissons Ratio (z) = 0.10068 0.14425
#
# Static dielectric constant tensor:
#      x y z
#    x 2.219170 0.000000 0.077330 
#    y 0.000000 2.077870 0.000000 
#    z 0.077330 0.000000 2.165410 
# 
# From -- ./inp_files/31650.got.cif
#   From: 2010.05.17/outbox.cif.g08.bks.cpg/sg5_16_cif.got.tgz:31650.got - 2010.06.03 18:56:24.
