data_PCOD9124254
_publ_section_title
;
Structure prediction by ZEFSAII (Michael W. Deem and Ramdas Pophale) SiO2 
 PCOD9124254
Probable space group: C 2
;
_chemical_formula_sum "Si O2"
_cell_formula_units_Z 20
_cell_length_a 11.879852
_cell_length_b 7.958576
_cell_length_c 9.068599
_cell_angle_alpha 90.000000
_cell_angle_beta 59.239579
_cell_angle_gamma 90.000000
_cell_volume 736.780600
_symmetry_space_group_name_H-M "C 2"
_symmetry_group_IT_number 5
_symmetry_cell_setting 'monoclinic'
loop_
_space_group_symop_operation_xyz
x,y,z
-x,y,-z
1/2+x,1/2+y,z
1/2-x,1/2+y,-z
loop_
_atom_site_type_symbol
_atom_site_label
_atom_site_fract_x
_atom_site_fract_y
_atom_site_fract_z
Si Si1 0.555294 0.623770 0.819346
Si Si2 0.287227 0.343619 0.104062
Si Si3 0.385176 0.584707 0.654630
Si Si4 0.673368 0.230918 0.460436
Si Si5 0.426387 0.103169 0.780284
O O1 0.627342 0.471107 0.856381
O O2 0.669416 0.714199 0.648036
O O3 0.868574 0.632113 0.657304
O O4 0.500000 0.723388 0.000000
O O5 0.237958 0.199379 0.245587
O O6 0.154219 0.431855 0.127021
O O7 0.368138 0.241934 0.928452
O O8 0.500000 0.687760 0.500000
O O9 0.442233 0.562610 0.782914
O O10 0.362307 0.422471 0.565669
O O11 0.579425 0.147031 0.647190
#
# Coordination Sequence:
#
# PCOD9124254 Si02
#       5
#     4   4   4   4   4
#     4  11  26  47  77 108 147 199 251 301 371 446
#     4  11  25  45  75 108 151 198 248 305 371 446
#     4  12  26  47  77 107 150 195 244 309 373 433
#     4  10  22  45  73 104 153 187 245 313 355 440
#     4  10  20  42  73 105 152 193 238 315 364 426
#
# _framework density 27.145122000000001
#
# number of rings (size 3 to 8) (size 9 to 14) (size 15 to 20)
#    0.000    1.200    2.000    4.800    5.600    1.600 
#    0.000    3.000    0.000    4.800    0.000    0.000 
#    0.000    0.000    0.000    0.000    0.000    0.000 
#
# Total GULP energy -55842.331281 kJ/mol
# GULP energy per Si atom -5584.233128 kJ/mol
# Density = 2.708334 g / cm^3
# Si number density = 27.145122 Si / 1000 Ang^3
#
#
#
# Elastic Constant Matrix: (Units=GPa)
#
#
# Indices 1 2 3 4 5 6 
#
# 1 144.8851 33.2053 17.0137 0.0000 -9.9523 0.0000
# 2 33.2053 96.5980 42.6506 0.0000 -7.3054 0.0000
# 3 17.0137 42.6506 182.0445 0.0000 -11.0820 0.0000
# 4 0.0000 0.0000 0.0000 30.9238 0.0000 -14.6808
# 5 -9.9523 -7.3054 -11.0820 0.0000 36.7790 0.0000
# 6 0.0000 0.0000 0.0000 -14.6808 0.0000 20.9898
#
#
#
# Elastic Compliance Matrix: (Units=1/GPa)
#
#
# Indices 1 2 3 4 5 6 
#
# 1 0.007579 -0.002473 -0.000035 0.000000 0.001549 0.000000
# 2 -0.002473 0.012436 -0.002621 0.000000 0.001011 0.000000
# 3 -0.000035 -0.002621 0.006192 0.000000 0.001336 0.000000
# 4 0.000000 0.000000 0.000000 0.048413 0.000000 0.033861
# 5 0.001549 0.001011 0.001336 0.000000 0.028212 0.000000
# 6 0.000000 0.000000 0.000000 0.033861 0.000000 0.071326
#
#
# Mechanical properties :
#
#
# Convention : Reuss Voigt Hill
#
# Bulk Modulus (GPa) = 62.69580 67.69631 65.19605
# Shear Modulus (GPa) = 26.35311 39.78239 33.06775
#
# Velocity S-wave (km/s) = 3.11918 3.83240 3.49404
# Velocity P-wave (km/s) = 6.00991 6.67651 6.35196
#
# Compressibility (1/GPa) = 0.01595003
#
# Stress axis : x y z
#
# Youngs Moduli (GPa) = 131.93899 80.41234 161.50515
#
# Poissons Ratio (x) = 0.19885 0.00560
# Poissons Ratio (y) = 0.32627 0.42329
# Poissons Ratio (z) = 0.00457 0.21075
#
# Static dielectric constant tensor:
#      x y z
#    x 2.219210 0.000000 -0.048430 
#    y 0.000000 2.221470 0.000000 
#    z -0.048430 0.000000 2.264650 
# 
# From -- ./inp_files/55541.got.cif
#   From: 2010.05.17/outbox.cif.g08.bks.cpg/sg5_28_cif.got.tgz:55541.got - 2010.06.03 18:56:24.
