data_PCOD9124014
_publ_section_title
;
Structure prediction by ZEFSAII (Michael W. Deem and Ramdas Pophale) SiO2 
 PCOD9124014
Probable space group: C 2
;
_chemical_formula_sum "Si O2"
_cell_formula_units_Z 28
_cell_length_a 18.389619
_cell_length_b 9.153223
_cell_length_c 13.395349
_cell_angle_alpha 90.000000
_cell_angle_beta 146.057532
_cell_angle_gamma 90.000000
_cell_volume 1258.969577
_symmetry_space_group_name_H-M "C 2"
_symmetry_group_IT_number 5
_symmetry_cell_setting 'monoclinic'
loop_
_space_group_symop_operation_xyz
x,y,z
-x,y,-z
1/2+x,1/2+y,z
1/2-x,1/2+y,-z
loop_
_atom_site_type_symbol
_atom_site_label
_atom_site_fract_x
_atom_site_fract_y
_atom_site_fract_z
Si Si1 0.212837 0.250000 0.002368
Si Si2 0.356004 0.054679 0.014715
Si Si3 0.122543 0.559579 0.406391
Si Si4 0.618921 0.370255 0.334953
Si Si5 0.028155 0.308171 0.417236
Si Si6 0.799922 0.744687 0.767458
Si Si7 0.904188 0.025397 0.986560
O O1 0.324903 0.175525 0.064280
O O2 0.176588 0.157967 0.059460
O O3 0.088920 0.258829 0.785844
O O4 0.231796 0.416325 0.057228
O O5 0.326166 0.115514 0.872223
O O6 0.508433 0.018253 0.198088
O O7 0.256379 0.476697 0.530747
O O8 0.135422 0.734708 0.428903
O O9 0.066010 0.476443 0.438565
O O10 0.603825 0.279803 0.212875
O O11 0.491727 0.469270 0.179734
O O12 0.163367 0.223582 0.555425
O O13 0.000000 0.285481 0.500000
O O14 0.809670 0.894031 0.843659
O O15 0.000000 0.059950 0.000000
#
# Coordination Sequence:
#
# PCOD9124014 Si02
#       7
#     4   4   4   4   4   4   4
#     4  11  24  40  68  94 130 171 220 273 325 388
#     4  11  22  40  64  95 126 172 220 268 323 385
#     4  10  23  38  65  92 125 173 216 267 319 394
#     4  10  22  40  65  92 130 169 218 266 333 383
#     4  10  21  40  65  92 128 171 213 259 332 387
#     4  10  20  41  65  91 125 172 211 268 327 386
#     4  10  22  42  67  93 129 171 218 271 329 385
#
# _framework density 22.240411999999999
#
# number of rings (size 3 to 8) (size 9 to 14) (size 15 to 20)
#    0.000    1.714    2.857    0.857    8.000    0.000 
#    5.143    0.000    0.000    7.714    0.000    0.000 
#    0.000    0.000    0.000    0.000    0.000    0.000 
#
# Total GULP energy -78099.619920 kJ/mol
# GULP energy per Si atom -5578.544280 kJ/mol
# Density = 2.218979 g / cm^3
# Si number density = 22.240412 Si / 1000 Ang^3
#
#
#
# Elastic Constant Matrix: (Units=GPa)
#
#
# Indices 1 2 3 4 5 6 
#
# 1 38.4442 15.4903 -3.5861 0.0000 -9.4188 0.0000
# 2 15.4903 71.8907 4.3018 0.0000 -2.6663 0.0000
# 3 -3.5861 4.3018 77.6037 0.0000 1.6462 0.0000
# 4 0.0000 0.0000 0.0000 28.7626 0.0000 -7.5113
# 5 -9.4188 -2.6663 1.6462 0.0000 24.2685 0.0000
# 6 0.0000 0.0000 0.0000 -7.5113 0.0000 44.8845
#
#
#
# Elastic Compliance Matrix: (Units=1/GPa)
#
#
# Indices 1 2 3 4 5 6 
#
# 1 0.031568 -0.006472 0.001575 0.000000 0.011434 0.000000
# 2 -0.006472 0.015345 -0.001134 0.000000 -0.000749 0.000000
# 3 0.001575 -0.001134 0.013030 0.000000 -0.000397 0.000000
# 4 0.000000 0.000000 0.000000 0.036356 0.000000 0.006084
# 5 0.011434 -0.000749 -0.000397 0.000000 0.045588 0.000000
# 6 0.000000 0.000000 0.000000 0.006084 0.000000 0.023298
#
#
# Mechanical properties :
#
#
# Convention : Reuss Voigt Hill
#
# Bulk Modulus (GPa) = 20.88529 24.48339 22.68434
# Shear Modulus (GPa) = 25.87911 31.03196 28.45553
#
# Velocity S-wave (km/s) = 3.41487 3.73942 3.58082
# Velocity P-wave (km/s) = 4.99595 5.44764 5.22668
#
# Compressibility (1/GPa) = 0.04788058
#
# Stress axis : x y z
#
# Youngs Moduli (GPa) = 31.67795 65.16947 76.74577
#
# Poissons Ratio (x) = 0.42178 -0.12087
# Poissons Ratio (y) = 0.20502 0.08701
# Poissons Ratio (z) = -0.04989 0.07389
#
# Static dielectric constant tensor:
#      x y z
#    x 1.854900 0.000000 0.038650 
#    y 0.000000 1.886610 0.000000 
#    z 0.038650 0.000000 1.894530 
# 
# From -- ./inp_files/41709.got.cif
#   From: 2010.05.17/outbox.cif.g08.bks.cpg/sg5_21_cif.got.tgz:41709.got - 2010.06.03 18:56:24.
