data_PCOD9124452
_publ_section_title
;
Structure prediction by ZEFSAII (Michael W. Deem and Ramdas Pophale) SiO2 
 PCOD9124452
Probable space group: C 2
;
_chemical_formula_sum "Si O2"
_cell_formula_units_Z 24
_cell_length_a 10.820453
_cell_length_b 9.388377
_cell_length_c 20.847093
_cell_angle_alpha 90.000000
_cell_angle_beta 32.814655
_cell_angle_gamma 90.000000
_cell_volume 1147.675747
_symmetry_space_group_name_H-M "C 2"
_symmetry_group_IT_number 5
_symmetry_cell_setting 'monoclinic'
loop_
_space_group_symop_operation_xyz
x,y,z
-x,y,-z
1/2+x,1/2+y,z
1/2-x,1/2+y,-z
loop_
_atom_site_type_symbol
_atom_site_label
_atom_site_fract_x
_atom_site_fract_y
_atom_site_fract_z
Si Si1 0.133399 0.024420 0.374432
Si Si2 0.010541 0.718326 0.713584
Si Si3 0.833889 0.946948 0.269561
Si Si4 0.373065 0.768130 0.443690
Si Si5 0.816684 0.960326 0.135077
Si Si6 0.880652 0.270371 0.295271
O O1 0.345794 0.124506 0.297826
O O2 0.000000 0.025892 0.500000
O O3 0.983402 0.110511 0.390070
O O4 0.230541 0.872050 0.315436
O O5 0.996266 0.866412 0.756273
O O6 0.172104 0.749178 0.582183
O O7 0.802533 0.611663 0.794610
O O8 0.571560 0.878523 0.382212
O O9 0.913465 0.917382 0.162177
O O10 0.844111 0.110533 0.287786
O O11 0.295148 0.799665 0.405821
O O12 0.633058 0.841006 0.191304
O O13 0.000000 0.979861 0.000000
#
# Coordination Sequence:
#
# PCOD9124452 Si02
#       6
#     4   4   4   4   4   4
#     4   8  16  31  49  73 109 145 174 213 270 332
#     4   9  19  36  56  81 113 148 182 227 284 336
#     4  10  21  36  57  84 110 144 189 238 285 333
#     4   9  19  35  53  81 119 144 174 228 285 343
#     4  10  23  42  58  78 113 155 198 236 272 325
#     4  10  21  34  56  85 110 146 186 228 282 335
#
# _framework density 20.911829999999998
#
# number of rings (size 3 to 8) (size 9 to 14) (size 15 to 20)
#    0.000    2.667    0.000    1.500    0.000   12.000 
#    0.000    0.833    0.000    0.000    0.000    0.000 
#    0.000    0.000    0.000    0.000    0.000    0.000 
#
# Total GULP energy -66848.869429 kJ/mol
# GULP energy per Si atom -5570.739119 kJ/mol
# Density = 2.086423 g / cm^3
# Si number density = 20.911830 Si / 1000 Ang^3
#
#
#
# Elastic Constant Matrix: (Units=GPa)
#
#
# Indices 1 2 3 4 5 6 
#
# 1 68.3756 20.1168 20.8573 0.0003 6.8465 0.0001
# 2 20.1168 143.3685 17.9774 0.0006 -2.7641 0.0001
# 3 20.8573 17.9774 81.1408 0.0008 29.9630 0.0004
# 4 0.0003 0.0006 0.0008 20.3294 -0.0003 -9.2021
# 5 6.8465 -2.7641 29.9630 -0.0003 19.7906 -0.0001
# 6 0.0001 0.0001 0.0004 -9.2021 -0.0001 34.3504
#
#
#
# Elastic Compliance Matrix: (Units=1/GPa)
#
#
# Indices 1 2 3 4 5 6 
#
# 1 0.016317 -0.001840 -0.003645 0.000000 -0.000383 0.000000
# 2 -0.001840 0.007944 -0.004382 0.000000 0.008380 0.000000
# 3 -0.003645 -0.004382 0.031734 -0.000002 -0.047397 -0.000001
# 4 0.000000 0.000000 -0.000002 0.055978 0.000004 0.014996
# 5 -0.000383 0.008380 -0.047397 0.000004 0.123591 0.000002
# 6 0.000000 0.000000 -0.000001 0.014996 0.000002 0.033129
#
#
# Mechanical properties :
#
#
# Convention : Reuss Voigt Hill
#
# Bulk Modulus (GPa) = 27.57708 45.64312 36.61010
# Shear Modulus (GPa) = 16.63818 30.48962 23.56390
#
# Velocity S-wave (km/s) = 2.82376 3.82253 3.36046
# Velocity P-wave (km/s) = 4.88338 6.43087 5.70980
#
# Compressibility (1/GPa) = 0.03626199
#
# Stress axis : x y z
#
# Youngs Moduli (GPa) = 61.28704 125.87866 31.51150
#
# Poissons Ratio (x) = 0.23159 0.11487
# Poissons Ratio (y) = 0.11275 0.13807
# Poissons Ratio (z) = 0.22341 0.55155
#
# Static dielectric constant tensor:
#      x y z
#    x 1.781990 0.000000 -0.052060 
#    y 0.000000 1.869680 0.000000 
#    z -0.052060 0.000000 1.765140 
# 
# From -- ./inp_files/38428.got.cif
#   From: 2010.05.17/outbox.cif.g08.bks.cpg/sg5_20_cif.got.tgz:38428.got - 2010.06.03 18:56:24.
