data_PCOD9124945
_publ_section_title
;
Structure prediction by ZEFSAII (Michael W. Deem and Ramdas Pophale) SiO2 
 PCOD9124945
Probable space group: C 2
;
_chemical_formula_sum "Si O2"
_cell_formula_units_Z 30
_cell_length_a 17.476302
_cell_length_b 5.277170
_cell_length_c 27.002388
_cell_angle_alpha 90.000000
_cell_angle_beta 147.871032
_cell_angle_gamma 90.000000
_cell_volume 1324.411741
_symmetry_space_group_name_H-M "C 2"
_symmetry_group_IT_number 5
_symmetry_cell_setting 'monoclinic'
loop_
_space_group_symop_operation_xyz
x,y,z
-x,y,-z
1/2+x,1/2+y,z
1/2-x,1/2+y,-z
loop_
_atom_site_type_symbol
_atom_site_label
_atom_site_fract_x
_atom_site_fract_y
_atom_site_fract_z
Si Si1 0.127388 0.587920 0.170916
Si Si2 0.771335 0.569032 0.289772
Si Si3 0.062975 0.732553 0.414076
Si Si4 0.456301 0.501764 0.759497
Si Si5 0.000000 0.416920 0.000000
Si Si6 0.378155 0.865748 0.086252
Si Si7 0.895277 0.237550 0.623608
Si Si8 0.766256 0.699327 0.093620
O O1 0.206355 0.324508 0.228478
O O2 0.994359 0.584290 0.137196
O O3 0.229321 0.828986 0.232555
O O4 0.054560 0.572739 0.077255
O O5 0.704411 0.475529 0.305927
O O6 0.938397 0.644551 0.383080
O O7 0.059803 0.513027 0.370689
O O8 0.221789 0.724302 0.524514
O O9 0.046465 0.008811 0.379580
O O10 0.441521 0.687286 0.704856
O O11 0.575186 0.299271 0.806335
O O12 0.527772 0.629210 0.846801
O O13 0.861087 0.250821 0.938755
O O14 0.284938 0.915955 0.084055
O O15 0.288037 0.825264 0.987804
#
# Coordination Sequence:
#
# PCOD9124945 Si02
#       8
#     4   4   4   4   2   4   4   4
#     4  10  23  42  59  94 125 165 210 261 312 368
#     4  11  23  40  67  91 126 167 208 259 315 374
#     4  10  23  45  66  93 134 163 202 269 322 373
#     4  11  24  38  65  92 121 168 215 258 306 390
#     4  10  26  38  58  92 126 162 220 262 308 368
#     4  10  21  39  62  84 128 169 212 256 324 359
#     4  10  24  43  67  97 127 166 209 259 323 375
#     4  11  21  41  57  87 126 169 208 267 307 374
#
# _framework density 22.651565000000002
#
# number of rings (size 3 to 8) (size 9 to 14) (size 15 to 20)
#    0.000    1.600    2.667    0.800    5.600    1.067 
#    0.000    0.000    0.000    6.400    0.000    0.000 
#    0.000    0.000    0.000    0.000    0.000    0.000 
#
# Total GULP energy -83637.207037 kJ/mol
# GULP energy per Si atom -5575.813802 kJ/mol
# Density = 2.260001 g / cm^3
# Si number density = 22.651565 Si / 1000 Ang^3
#
#
#
# Elastic Constant Matrix: (Units=GPa)
#
#
# Indices 1 2 3 4 5 6 
#
# 1 74.4331 -0.6186 19.5926 -0.0045 21.9700 0.0040
# 2 -0.6186 99.1410 14.6871 -0.0070 5.6685 0.0028
# 3 19.5926 14.6871 41.5308 -0.0033 10.5136 -0.0011
# 4 -0.0045 -0.0070 -0.0033 29.0394 -0.0019 2.9938
# 5 21.9700 5.6685 10.5136 -0.0019 38.7263 -0.0006
# 6 0.0040 0.0028 -0.0011 2.9938 -0.0006 22.4294
#
#
#
# Elastic Compliance Matrix: (Units=1/GPa)
#
#
# Indices 1 2 3 4 5 6 
#
# 1 0.017729 0.001600 -0.006791 0.000002 -0.008449 -0.000004
# 2 0.001600 0.010801 -0.004235 0.000002 -0.001339 -0.000002
# 3 -0.006791 -0.004235 0.029688 0.000001 -0.003587 0.000003
# 4 0.000002 0.000002 0.000001 0.034916 0.000000 -0.004660
# 5 -0.008449 -0.001339 -0.003587 0.000000 0.031785 0.000002
# 6 -0.000004 -0.000002 0.000003 -0.004660 0.000002 0.045206
#
#
# Mechanical properties :
#
#
# Convention : Reuss Voigt Hill
#
# Bulk Modulus (GPa) = 25.40330 31.38081 28.39205
# Shear Modulus (GPa) = 24.74007 30.13528 27.43767
#
# Velocity S-wave (km/s) = 3.30843 3.65140 3.48414
# Velocity P-wave (km/s) = 5.08266 5.62679 5.36163
#
# Compressibility (1/GPa) = 0.03936497
#
# Stress axis : x y z
#
# Youngs Moduli (GPa) = 56.40320 92.58740 33.68336
#
# Poissons Ratio (x) = -0.14812 0.22874
# Poissons Ratio (y) = -0.09023 0.14266
# Poissons Ratio (z) = 0.38304 0.39214
#
# Static dielectric constant tensor:
#      x y z
#    x 1.913880 0.000000 0.090820 
#    y 0.000000 1.913160 0.000000 
#    z 0.090820 0.000000 1.869620 
# 
# From -- ./inp_files/55344.got.cif
#   From: 2010.05.17/outbox.cif.g08.bks.cpg/sg5_28_cif.got.tgz:55344.got - 2010.06.03 18:56:24.
