data_PCOD9124961
_publ_section_title
;
Structure prediction by ZEFSAII (Michael W. Deem and Ramdas Pophale) SiO2 
 PCOD9124961
Probable space group: C 2
;
_chemical_formula_sum "Si O2"
_cell_formula_units_Z 20
_cell_length_a 7.441038
_cell_length_b 14.515224
_cell_length_c 12.610511
_cell_angle_alpha 90.000000
_cell_angle_beta 135.467578
_cell_angle_gamma 90.000000
_cell_volume 955.216225
_symmetry_space_group_name_H-M "C 2"
_symmetry_group_IT_number 5
_symmetry_cell_setting 'monoclinic'
loop_
_space_group_symop_operation_xyz
x,y,z
-x,y,-z
1/2+x,1/2+y,z
1/2-x,1/2+y,-z
loop_
_atom_site_type_symbol
_atom_site_label
_atom_site_fract_x
_atom_site_fract_y
_atom_site_fract_z
Si Si1 0.355934 0.968270 0.038314
Si Si2 0.885518 0.912028 0.262187
Si Si3 0.255255 0.631813 0.851106
Si Si4 0.782543 0.738898 0.574705
Si Si5 0.279895 0.580129 0.619792
O O1 0.592861 0.906631 0.179385
O O2 0.271118 0.039780 0.089719
O O3 0.500000 0.020470 0.000000
O O4 0.146597 0.912121 0.881456
O O5 0.066833 0.833224 0.381528
O O6 0.011140 0.010911 0.338533
O O7 0.984016 0.683714 0.734739
O O8 0.326110 0.605705 0.760768
O O9 0.500000 0.686342 0.000000
O O10 0.500000 0.755869 0.500000
O O11 0.746134 0.672256 0.459234
O O12 0.000000 0.532701 0.500000
#
# Coordination Sequence:
#
# PCOD9124961 Si02
#       5
#     4   4   4   4   4
#     4   8  19  36  70  92 118 168 221 268 321 372
#     4   9  19  40  63  90 132 164 228 262 324 389
#     4  11  20  39  68  92 130 172 222 265 328 385
#     4  11  24  38  64  96 137 174 215 273 322 393
#     4  10  21  39  62  92 131 170 217 264 333 386
#
# _framework density 20.937666
#
# number of rings (size 3 to 8) (size 9 to 14) (size 15 to 20)
#    1.200    0.800    2.000    1.800    2.800    0.000 
#    0.000   21.000    8.800    0.000    0.000    0.000 
#    0.000    0.000    0.000    0.000    0.000    0.000 
#
# Total GULP energy -55676.832779 kJ/mol
# GULP energy per Si atom -5567.683278 kJ/mol
# Density = 2.089001 g / cm^3
# Si number density = 20.937666 Si / 1000 Ang^3
#
#
#
# Elastic Constant Matrix: (Units=GPa)
#
#
# Indices 1 2 3 4 5 6 
#
# 1 46.8072 28.4679 28.7616 0.0006 -0.2289 0.0001
# 2 28.4679 98.0009 47.4442 0.0005 0.3656 0.0002
# 3 28.7616 47.4442 132.0561 0.0018 3.9005 0.0006
# 4 0.0006 0.0005 0.0018 25.9993 0.0007 -0.1813
# 5 -0.2289 0.3656 3.9005 0.0007 30.1654 0.0001
# 6 0.0001 0.0002 0.0006 -0.1813 0.0001 21.3652
#
#
#
# Elastic Compliance Matrix: (Units=1/GPa)
#
#
# Indices 1 2 3 4 5 6 
#
# 1 0.027430 -0.006135 -0.003793 0.000000 0.000773 0.000000
# 2 -0.006135 0.013730 -0.003604 0.000000 0.000253 0.000000
# 3 -0.003793 -0.003604 0.009730 0.000000 -0.001243 0.000000
# 4 0.000000 0.000000 0.000000 0.038465 -0.000001 0.000326
# 5 0.000773 0.000253 -0.001243 -0.000001 0.033314 0.000000
# 6 0.000000 0.000000 0.000000 0.000326 0.000000 0.046808
#
#
# Mechanical properties :
#
#
# Convention : Reuss Voigt Hill
#
# Bulk Modulus (GPa) = 41.97022 54.02350 47.99686
# Shear Modulus (GPa) = 24.45199 26.98534 25.71866
#
# Velocity S-wave (km/s) = 3.42108 3.59394 3.50858
# Velocity P-wave (km/s) = 5.97444 6.56353 6.27590
#
# Compressibility (1/GPa) = 0.02382642
#
# Stress axis : x y z
#
# Youngs Moduli (GPa) = 36.45680 72.83373 102.77236
#
# Poissons Ratio (x) = 0.44680 0.38981
# Poissons Ratio (y) = 0.22365 0.37041
# Poissons Ratio (z) = 0.13828 0.26250
#
# Static dielectric constant tensor:
#      x y z
#    x 1.752910 0.000000 0.010090 
#    y 0.000000 1.751690 0.000000 
#    z 0.010090 0.000000 1.851810 
# 
# From -- ./inp_files/18720.got.cif
#   From: 2010.05.17/outbox.cif.g08.bks.cpg/sg5_10_cif.got.tgz:18720.got - 2010.06.03 18:56:24.
