data_PCOD9124719
_publ_section_title
;
Structure prediction by ZEFSAII (Michael W. Deem and Ramdas Pophale) SiO2 
 PCOD9124719
Probable space group: C 2
;
_chemical_formula_sum "Si O2"
_cell_formula_units_Z 28
_cell_length_a 11.247854
_cell_length_b 23.135620
_cell_length_c 11.412686
_cell_angle_alpha 90.000000
_cell_angle_beta 28.099233
_cell_angle_gamma 90.000000
_cell_volume 1398.812986
_symmetry_space_group_name_H-M "C 2"
_symmetry_group_IT_number 5
_symmetry_cell_setting 'monoclinic'
loop_
_space_group_symop_operation_xyz
x,y,z
-x,y,-z
1/2+x,1/2+y,z
1/2-x,1/2+y,-z
loop_
_atom_site_type_symbol
_atom_site_label
_atom_site_fract_x
_atom_site_fract_y
_atom_site_fract_z
Si Si1 0.937671 0.803500 0.415389
Si Si2 0.500000 0.559716 0.500000
Si Si3 0.694931 0.690504 0.590810
Si Si4 0.922155 0.600431 0.777334
Si Si5 0.241110 0.665084 0.850079
Si Si6 0.500000 0.655001 0.000000
Si Si7 0.051292 0.495126 0.814664
Si Si8 0.938232 0.362272 0.914913
O O1 0.916796 0.737103 0.394830
O O2 0.652624 0.828215 0.656591
O O3 0.000000 0.806245 0.500000
O O4 0.153630 0.837672 0.156783
O O5 0.306749 0.606170 0.723003
O O6 0.342883 0.516742 0.553316
O O7 0.498954 0.698422 0.654813
O O8 0.800489 0.624975 0.493314
O O9 0.574848 0.694573 0.824539
O O10 0.914822 0.537856 0.842562
O O11 0.840920 0.642445 0.952816
O O12 0.732632 0.614654 0.837325
O O13 0.000000 0.694198 0.000000
O O14 0.979683 0.429602 0.849682
O O15 0.000000 0.501737 0.000000
O O16 0.000000 0.356978 0.000000
#
# Coordination Sequence:
#
# PCOD9124719 Si02
#       8
#     4   2   4   4   4   2   4   4
#     4  10  21  38  56  81 118 160 202 248 295 359
#     4  12  18  34  56  86 126 156 188 238 308 374
#     4  11  23  36  59  80 124 160 200 250 298 365
#     4  11  20  36  53  87 115 156 191 243 306 357
#     4  11  20  34  53  88 121 155 195 240 309 368
#     4  10  24  34  54  86 116 154 206 240 298 366
#     4  11  21  34  58  86 124 152 187 247 306 369
#     4   9  22  35  55  84 116 155 201 243 304 360
#
# _framework density 20.016971000000002
#
# number of rings (size 3 to 8) (size 9 to 14) (size 15 to 20)
#    0.000    1.429    4.286    1.286   12.000    0.000 
#    0.000    0.000    0.000    0.000    1.857    0.000 
#    0.000    0.000    0.000    0.000    0.000    0.000 
#
# Total GULP energy -78034.448253 kJ/mol
# GULP energy per Si atom -5573.889161 kJ/mol
# Density = 1.997141 g / cm^3
# Si number density = 20.016971 Si / 1000 Ang^3
#
#
#
# Elastic Constant Matrix: (Units=GPa)
#
#
# Indices 1 2 3 4 5 6 
#
# 1 80.6826 19.7491 19.2995 0.0001 -26.2385 0.0000
# 2 19.7491 104.0480 41.4837 0.0001 -3.6107 -0.0001
# 3 19.2995 41.4837 82.6450 -0.0001 -16.8426 -0.0004
# 4 0.0001 0.0001 -0.0001 22.5388 0.0000 -1.0499
# 5 -26.2385 -3.6107 -16.8426 0.0000 27.3502 0.0001
# 6 0.0000 -0.0001 -0.0004 -1.0499 0.0001 24.4914
#
#
#
# Elastic Compliance Matrix: (Units=1/GPa)
#
#
# Indices 1 2 3 4 5 6 
#
# 1 0.018943 -0.003358 0.001001 0.000000 0.018346 0.000000
# 2 -0.003358 0.012754 -0.006782 0.000000 -0.005714 0.000000
# 3 0.001001 -0.006782 0.017477 0.000000 0.010827 0.000000
# 4 0.000000 0.000000 0.000000 0.044457 0.000000 0.001906
# 5 0.018346 -0.005714 0.010827 0.000000 0.060076 0.000000
# 6 0.000000 0.000000 0.000000 0.001906 0.000000 0.040912
#
#
# Mechanical properties :
#
#
# Convention : Reuss Voigt Hill
#
# Bulk Modulus (GPa) = 32.36740 47.60446 39.98593
# Shear Modulus (GPa) = 22.40173 27.33230 24.86701
#
# Velocity S-wave (km/s) = 3.34898 3.69922 3.52845
# Velocity P-wave (km/s) = 5.58205 6.48685 6.05139
#
# Compressibility (1/GPa) = 0.03089528
#
# Stress axis : x y z
#
# Youngs Moduli (GPa) = 52.78990 78.40630 57.21745
#
# Poissons Ratio (x) = 0.26328 -0.05725
# Poissons Ratio (y) = 0.17726 0.38807
# Poissons Ratio (z) = -0.05282 0.53178
#
# Static dielectric constant tensor:
#      x y z
#    x 1.720450 0.000000 -0.061840 
#    y 0.000000 1.699830 0.000000 
#    z -0.061840 0.000000 1.874050 
# 
# From -- ./inp_files/40670.got.cif
#   From: 2010.05.17/outbox.cif.g08.bks.cpg/sg5_21_cif.got.tgz:40670.got - 2010.06.03 18:56:24.
