data_PCOD9124324
_publ_section_title
;
Structure prediction by ZEFSAII (Michael W. Deem and Ramdas Pophale) SiO2 
 PCOD9124324
Probable space group: C 2
;
_chemical_formula_sum "Si O2"
_cell_formula_units_Z 22
_cell_length_a 10.713626
_cell_length_b 8.419641
_cell_length_c 12.137657
_cell_angle_alpha 90.000000
_cell_angle_beta 118.493463
_cell_angle_gamma 90.000000
_cell_volume 962.255320
_symmetry_space_group_name_H-M "C 2"
_symmetry_group_IT_number 5
_symmetry_cell_setting 'monoclinic'
loop_
_space_group_symop_operation_xyz
x,y,z
-x,y,-z
1/2+x,1/2+y,z
1/2-x,1/2+y,-z
loop_
_atom_site_type_symbol
_atom_site_label
_atom_site_fract_x
_atom_site_fract_y
_atom_site_fract_z
Si Si1 0.354410 0.376910 0.799718
Si Si2 0.912828 0.888162 0.257808
Si Si3 0.062658 0.591439 0.410428
Si Si4 0.155223 0.562652 0.863040
Si Si5 0.000000 0.605611 0.000000
Si Si6 0.335122 0.638300 0.400224
O O1 0.475213 0.464787 0.780011
O O2 0.290698 0.477083 0.871230
O O3 0.232275 0.302977 0.671133
O O4 0.424936 0.220775 0.881188
O O5 0.011522 0.775361 0.376833
O O6 0.828076 0.751438 0.155215
O O7 0.830215 0.010227 0.298596
O O8 0.229497 0.583417 0.454327
O O9 0.000000 0.537453 0.500000
O O10 0.977162 0.513307 0.272301
O O11 0.115236 0.522246 0.971098
O O12 0.500000 0.651945 0.500000
#
# Coordination Sequence:
#
# PCOD9124324 Si02
#       6
#     4   4   4   4   2   4
#     4  10  22  43  62  95 122 165 213 264 315 368
#     4   8  20  40  60  88 128 162 200 256 311 365
#     4   9  20  41  60  90 128 167 199 259 320 366
#     4   9  21  42  65  84 125 167 203 261 316 367
#     4  10  20  44  64  86 128 162 212 270 310 362
#     4  11  22  39  65  97 130 169 209 255 310 387
#
# _framework density 22.862954999999999
#
# number of rings (size 3 to 8) (size 9 to 14) (size 15 to 20)
#    1.091    1.455    1.818    0.545    2.545    3.636 
#    9.818    0.000    0.000    0.000    0.000    0.000 
#    0.000    0.000    0.000    0.000    0.000    0.000 
#
# Total GULP energy -61312.794655 kJ/mol
# GULP energy per Si atom -5573.890423 kJ/mol
# Density = 2.281092 g / cm^3
# Si number density = 22.862955 Si / 1000 Ang^3
#
#
#
# Elastic Constant Matrix: (Units=GPa)
#
#
# Indices 1 2 3 4 5 6 
#
# 1 150.6653 39.5768 27.4732 0.0000 -46.8679 0.0000
# 2 39.5768 46.9736 -2.5334 0.0000 -17.6090 0.0000
# 3 27.4732 -2.5334 61.0974 0.0000 -25.5702 0.0000
# 4 0.0000 0.0000 0.0000 19.9096 0.0000 -7.6932
# 5 -46.8679 -17.6090 -25.5702 0.0000 58.1009 0.0000
# 6 0.0000 0.0000 0.0000 -7.6932 0.0000 35.9138
#
#
#
# Elastic Compliance Matrix: (Units=1/GPa)
#
#
# Indices 1 2 3 4 5 6 
#
# 1 0.010665 -0.007229 -0.002956 0.000000 0.005111 0.000000
# 2 -0.007229 0.030207 0.007225 0.000000 0.006503 0.000000
# 3 -0.002956 0.007225 0.021959 0.000000 0.009469 0.000000
# 4 0.000000 0.000000 0.000000 0.054760 0.000000 0.011730
# 5 0.005111 0.006503 0.009469 0.000000 0.027473 0.000000
# 6 0.000000 0.000000 0.000000 0.011730 0.000000 0.030357
#
#
# Mechanical properties :
#
#
# Convention : Reuss Voigt Hill
#
# Bulk Modulus (GPa) = 17.57167 43.08550 30.32858
# Shear Modulus (GPa) = 24.96098 35.73283 30.34691
#
# Velocity S-wave (km/s) = 3.30777 3.95766 3.64722
# Velocity P-wave (km/s) = 4.72131 6.30636 5.57050
#
# Compressibility (1/GPa) = 0.05690980
#
# Stress axis : x y z
#
# Youngs Moduli (GPa) = 93.76266 33.10502 45.53893
#
# Poissons Ratio (x) = 0.23932 0.13463
# Poissons Ratio (y) = 0.67783 -0.32901
# Poissons Ratio (z) = 0.27720 -0.23918
#
# Static dielectric constant tensor:
#      x y z
#    x 1.869250 0.000000 0.009840 
#    y 0.000000 1.852010 0.000000 
#    z 0.009840 0.000000 1.929010 
# 
# From -- ./inp_files/35182.got.cif
#   From: 2010.05.17/outbox.cif.g08.bks.cpg/sg5_18_cif.got.tgz:35182.got - 2010.06.03 18:56:24.
