data_PCOD9124654
_publ_section_title
;
Structure prediction by ZEFSAII (Michael W. Deem and Ramdas Pophale) SiO2 
 PCOD9124654
Probable space group: C 2
;
_chemical_formula_sum "Si O2"
_cell_formula_units_Z 26
_cell_length_a 11.276953
_cell_length_b 9.768606
_cell_length_c 12.124453
_cell_angle_alpha 90.000000
_cell_angle_beta 113.575172
_cell_angle_gamma 90.000000
_cell_volume 1224.154142
_symmetry_space_group_name_H-M "C 2"
_symmetry_group_IT_number 5
_symmetry_cell_setting 'monoclinic'
loop_
_space_group_symop_operation_xyz
x,y,z
-x,y,-z
1/2+x,1/2+y,z
1/2-x,1/2+y,-z
loop_
_atom_site_type_symbol
_atom_site_label
_atom_site_fract_x
_atom_site_fract_y
_atom_site_fract_z
Si Si1 0.468675 0.400820 0.100437
Si Si2 0.504227 0.689560 0.819317
Si Si3 0.261163 0.081017 0.968896
Si Si4 0.500000 0.921725 0.000000
Si Si5 0.105981 0.696959 0.765585
Si Si6 0.266219 0.760007 0.604251
Si Si7 0.904996 0.524294 0.566743
O O1 0.538024 0.548330 0.134736
O O2 0.482397 0.316710 0.216096
O O3 0.500000 0.324204 0.000000
O O4 0.320398 0.445588 0.032398
O O5 0.494852 0.820340 0.894027
O O6 0.409639 0.701412 0.681999
O O7 0.657205 0.666228 0.859518
O O8 0.305390 0.151720 0.098317
O O9 0.379963 0.022424 0.947793
O O10 0.190525 0.753736 0.694670
O O11 0.011179 0.574124 0.695524
O O12 0.178135 0.658713 0.498754
O O13 0.303847 0.908024 0.568258
O O14 0.000000 0.481722 0.500000
#
# Coordination Sequence:
#
# PCOD9124654 Si02
#       7
#     4   4   4   2   4   4   4
#     4  10  21  37  61 101 137 177 221 263 335 409
#     4  10  21  38  65  93 133 178 214 276 338 397
#     4  10  23  36  65  97 130 188 219 259 341 406
#     4  12  20  42  62  94 146 176 226 270 334 408
#     4  11  23  42  66  99 141 178 224 284 339 401
#     4  11  23  48  72  94 138 178 230 292 347 396
#     4  10  26  48  70  99 130 178 234 290 343 404
#
# _framework density 21.239155
#
# number of rings (size 3 to 8) (size 9 to 14) (size 15 to 20)
#    0.923    0.615    0.769    4.615    3.231    0.000 
#    2.769    0.000    0.000    0.000    0.000    0.000 
#    0.000    0.000    0.000    0.000    0.000    0.000 
#
# Total GULP energy -72430.042396 kJ/mol
# GULP energy per Si atom -5571.541723 kJ/mol
# Density = 2.119081 g / cm^3
# Si number density = 21.239155 Si / 1000 Ang^3
#
#
#
# Elastic Constant Matrix: (Units=GPa)
#
#
# Indices 1 2 3 4 5 6 
#
# 1 96.1072 41.5674 10.3892 0.0000 4.1613 0.0000
# 2 41.5674 105.6823 27.8720 0.0000 -16.6659 0.0000
# 3 10.3892 27.8720 48.0462 0.0000 14.4406 0.0000
# 4 0.0000 0.0000 0.0000 156.5306 0.0000 149.9965
# 5 4.1613 -16.6659 14.4406 0.0000 29.0776 0.0000
# 6 0.0000 0.0000 0.0000 149.9965 0.0000 198.3111
#
#
#
# Elastic Compliance Matrix: (Units=1/GPa)
#
#
# Indices 1 2 3 4 5 6 
#
# 1 0.013708 -0.007818 0.004123 0.000000 -0.008490 0.000000
# 2 -0.007818 0.020045 -0.016135 0.000000 0.020620 0.000000
# 3 0.004123 -0.016135 0.037895 0.000000 -0.028657 0.000000
# 4 0.000000 0.000000 0.000000 0.023214 0.000000 -0.017558
# 5 -0.008490 0.020620 -0.028657 0.000000 0.061656 0.000000
# 6 0.000000 0.000000 0.000000 -0.017558 0.000000 0.018323
#
#
# Mechanical properties :
#
#
# Convention : Reuss Voigt Hill
#
# Bulk Modulus (GPa) = 31.26219 45.49922 38.38070
# Shear Modulus (GPa) = 22.20603 88.11767 55.16185
#
# Velocity S-wave (km/s) = 3.23696 6.44813 5.10178
# Velocity P-wave (km/s) = 5.35926 8.76965 7.26734
#
# Compressibility (1/GPa) = 0.03198752
#
# Stress axis : x y z
#
# Youngs Moduli (GPa) = 72.94805 49.88893 26.38867
#
# Poissons Ratio (x) = 0.39004 -0.10880
# Poissons Ratio (y) = 0.57032 0.42578
# Poissons Ratio (z) = -0.30076 0.80496
#
# Static dielectric constant tensor:
#      x y z
#    x 1.355110 0.000000 -0.075120 
#    y 0.000000 1.826930 0.000000 
#    z -0.075120 0.000000 1.763480 
# 
# From -- ./inp_files/38883.got.cif
#   From: 2010.05.17/outbox.cif.g08.bks.cpg/sg5_20_cif.got.tgz:38883.got - 2010.06.03 18:56:24.
