data_PCOD9124126
_publ_section_title
;
Structure prediction by ZEFSAII (Michael W. Deem and Ramdas Pophale) SiO2 
 PCOD9124126
Probable space group: C 2
;
_chemical_formula_sum "Si O2"
_cell_formula_units_Z 28
_cell_length_a 27.510833
_cell_length_b 6.444498
_cell_length_c 8.595318
_cell_angle_alpha 90.000000
_cell_angle_beta 116.119679
_cell_angle_gamma 90.000000
_cell_volume 1368.268563
_symmetry_space_group_name_H-M "C 2"
_symmetry_group_IT_number 5
_symmetry_cell_setting 'monoclinic'
loop_
_space_group_symop_operation_xyz
x,y,z
-x,y,-z
1/2+x,1/2+y,z
1/2-x,1/2+y,-z
loop_
_atom_site_type_symbol
_atom_site_label
_atom_site_fract_x
_atom_site_fract_y
_atom_site_fract_z
Si Si1 0.298555 0.751210 0.716652
Si Si2 0.500000 0.878589 0.500000
Si Si3 0.808963 0.961490 0.443758
Si Si4 0.373808 0.135215 0.748249
Si Si5 0.500000 0.508829 0.000000
Si Si6 0.410744 0.532211 0.384902
Si Si7 0.893644 0.001442 0.994818
Si Si8 0.969491 0.697942 0.682581
O O1 0.241724 0.838055 0.699193
O O2 0.288569 0.633400 0.538357
O O3 0.335598 0.604294 0.875682
O O4 0.335932 0.947942 0.736694
O O5 0.449147 0.731225 0.461795
O O6 0.508419 0.031964 0.657865
O O7 0.842160 0.798296 0.594914
O O8 0.852189 0.052456 0.383432
O O9 0.391685 0.269405 0.922207
O O10 0.425310 0.071350 0.719301
O O11 0.442576 0.612762 0.964892
O O12 0.491019 0.365250 0.835817
O O13 0.440514 0.336509 0.508326
O O14 0.404918 0.503517 0.192669
#
# Coordination Sequence:
#
# PCOD9124126 Si02
#       8
#     4   2   4   4   2   4   4   4
#     4  11  20  39  64  89 116 163 214 254 300 362
#     4  12  22  38  64  90 122 170 198 238 318 376
#     4  10  21  39  64  87 120 162 206 261 302 351
#     4   9  20  39  61  87 115 157 211 251 296 360
#     4  10  20  42  64  88 128 162 200 256 296 360
#     4  11  24  42  59  94 134 158 198 255 311 365
#     4  10  23  38  59  91 127 161 200 249 311 364
#     4  10  22  38  62  89 121 165 201 246 306 362
#
# _framework density 20.463820999999999
#
# number of rings (size 3 to 8) (size 9 to 14) (size 15 to 20)
#    0.000    1.714    1.429    3.857    0.000    4.571 
#    2.571    1.429    0.000    0.000    0.000    0.000 
#    0.000    0.000    0.000    0.000    0.000    0.000 
#
# Total GULP energy -78147.193856 kJ/mol
# GULP energy per Si atom -5581.942418 kJ/mol
# Density = 2.041724 g / cm^3
# Si number density = 20.463821 Si / 1000 Ang^3
#
#
#
# Elastic Constant Matrix: (Units=GPa)
#
#
# Indices 1 2 3 4 5 6 
#
# 1 124.9795 28.3914 32.6559 0.0000 4.2696 0.0000
# 2 28.3914 50.4061 22.3358 0.0000 -12.8417 0.0000
# 3 32.6559 22.3358 109.1175 0.0000 -7.8774 0.0000
# 4 0.0000 0.0000 0.0000 17.2690 0.0000 2.3792
# 5 4.2696 -12.8417 -7.8774 0.0000 26.8741 0.0000
# 6 0.0000 0.0000 0.0000 2.3792 0.0000 33.6423
#
#
#
# Elastic Compliance Matrix: (Units=1/GPa)
#
#
# Indices 1 2 3 4 5 6 
#
# 1 0.010114 -0.006047 -0.002160 0.000000 -0.005129 0.000000
# 2 -0.006047 0.027981 -0.002946 0.000000 0.013468 0.000000
# 3 -0.002160 -0.002946 0.010560 0.000000 0.002031 0.000000
# 4 0.000000 0.000000 0.000000 0.058477 0.000000 -0.004135
# 5 -0.005129 0.013468 0.002031 0.000000 0.045056 0.000000
# 6 0.000000 0.000000 0.000000 -0.004135 0.000000 0.030017
#
#
# Mechanical properties :
#
#
# Convention : Reuss Voigt Hill
#
# Bulk Modulus (GPa) = 37.94798 50.14106 44.04452
# Shear Modulus (GPa) = 23.44177 28.96508 26.20342
#
# Velocity S-wave (km/s) = 3.38823 3.76630 3.58226
# Velocity P-wave (km/s) = 5.82160 6.59309 6.21932
#
# Compressibility (1/GPa) = 0.02635187
#
# Stress axis : x y z
#
# Youngs Moduli (GPa) = 98.86820 35.73816 94.69424
#
# Poissons Ratio (x) = 0.21611 0.20449
# Poissons Ratio (y) = 0.59785 0.27894
# Poissons Ratio (z) = 0.21351 0.10527
#
# Static dielectric constant tensor:
#      x y z
#    x 1.781430 0.000000 0.032360 
#    y 0.000000 1.728620 0.000000 
#    z 0.032360 0.000000 1.742680 
# 
# From -- ./inp_files/31437.got.cif
#   From: 2010.05.17/outbox.cif.g08.bks.cpg/sg5_16_cif.got.tgz:31437.got - 2010.06.03 18:56:24.
