data_PCOD9124637
_publ_section_title
;
Structure prediction by ZEFSAII (Michael W. Deem and Ramdas Pophale) SiO2 
 PCOD9124637
Probable space group: C 2
;
_chemical_formula_sum "Si O2"
_cell_formula_units_Z 24
_cell_length_a 23.097868
_cell_length_b 5.421585
_cell_length_c 8.718371
_cell_angle_alpha 90.000000
_cell_angle_beta 80.914996
_cell_angle_gamma 90.000000
_cell_volume 1078.079776
_symmetry_space_group_name_H-M "C 2"
_symmetry_group_IT_number 5
_symmetry_cell_setting 'monoclinic'
loop_
_space_group_symop_operation_xyz
x,y,z
-x,y,-z
1/2+x,1/2+y,z
1/2-x,1/2+y,-z
loop_
_atom_site_type_symbol
_atom_site_label
_atom_site_fract_x
_atom_site_fract_y
_atom_site_fract_z
Si Si1 0.624577 0.662210 0.120187
Si Si2 0.540154 0.278620 0.097396
Si Si3 0.401312 0.926275 0.162284
Si Si4 0.504776 0.885754 0.317930
Si Si5 0.673703 0.219414 0.570543
Si Si6 0.689967 0.721851 0.392339
O O1 0.603311 0.383847 0.112368
O O2 0.564846 0.769885 0.226693
O O3 0.675969 0.695244 0.219113
O O4 0.634951 0.761409 0.943255
O O5 0.509979 0.172638 0.261674
O O6 0.500000 0.445955 0.000000
O O7 0.556166 0.065644 0.971492
O O8 0.445139 0.791163 0.262249
O O9 0.365254 0.130443 0.270595
O O10 0.500000 0.858186 0.500000
O O11 0.666567 0.988230 0.457110
O O12 0.741127 0.220082 0.598502
O O13 0.663147 0.485401 0.495786
#
# Coordination Sequence:
#
# PCOD9124637 Si02
#       6
#     4   4   4   4   4   4
#     4  11  22  38  61  93 126 174 208 279 323 399
#     4   9  20  37  55  86 126 165 208 263 326 388
#     4  10  22  38  63  89 133 165 218 266 331 390
#     4  10  21  37  59  90 125 170 217 268 323 398
#     4  10  23  47  65  98 124 178 217 275 321 394
#     4  10  24  43  71  90 134 168 224 270 330 380
#
# _framework density 22.261804000000001
#
# number of rings (size 3 to 8) (size 9 to 14) (size 15 to 20)
#    0.000    2.000    0.000    3.500    9.333    0.667 
#    6.000    0.000    0.000    0.000    0.000    0.000 
#    0.000    0.000    0.000    0.000    0.000    0.000 
#
# Total GULP energy -66862.029153 kJ/mol
# GULP energy per Si atom -5571.835763 kJ/mol
# Density = 2.221114 g / cm^3
# Si number density = 22.261804 Si / 1000 Ang^3
#
#
#
# Elastic Constant Matrix: (Units=GPa)
#
#
# Indices 1 2 3 4 5 6 
#
# 1 16.1991 10.0868 11.9672 0.0000 10.0792 0.0000
# 2 10.0868 57.1093 18.2178 0.0000 7.7665 0.0000
# 3 11.9672 18.2178 121.0396 0.0000 26.8017 0.0000
# 4 0.0000 0.0000 0.0000 25.7160 0.0000 -4.7536
# 5 10.0792 7.7665 26.8017 0.0000 48.3820 0.0000
# 6 0.0000 0.0000 0.0000 -4.7536 0.0000 21.8824
#
#
#
# Elastic Compliance Matrix: (Units=1/GPa)
#
#
# Indices 1 2 3 4 5 6 
#
# 1 0.079129 -0.011176 -0.003292 0.000000 -0.012867 0.000000
# 2 -0.011176 0.020084 -0.001960 0.000000 0.000190 0.000000
# 3 -0.003292 -0.001960 0.009872 0.000000 -0.004468 0.000000
# 4 0.000000 0.000000 0.000000 0.040513 0.000000 0.008801
# 5 -0.012867 0.000190 -0.004468 0.000000 0.025794 0.000000
# 6 0.000000 0.000000 0.000000 0.008801 0.000000 0.047611
#
#
# Mechanical properties :
#
#
# Convention : Reuss Voigt Hill
#
# Bulk Modulus (GPa) = 13.11856 30.54348 21.83102
# Shear Modulus (GPa) = 17.77670 29.46783 23.62227
#
# Velocity S-wave (km/s) = 2.82889 3.64221 3.26101
# Velocity P-wave (km/s) = 4.07134 5.60691 4.89966
#
# Compressibility (1/GPa) = 0.07622786
#
# Stress axis : x y z
#
# Youngs Moduli (GPa) = 12.63763 49.79198 101.30065
#
# Poissons Ratio (x) = 0.55647 0.33351
# Poissons Ratio (y) = 0.14124 0.19854
# Poissons Ratio (z) = 0.04161 0.09759
#
# Static dielectric constant tensor:
#      x y z
#    x 1.913360 0.000000 0.074910 
#    y 0.000000 1.999490 0.000000 
#    z 0.074910 0.000000 1.844430 
# 
# From -- ./inp_files/30294.got.cif
#   From: 2010.05.17/outbox.cif.g08.bks.cpg/sg5_16_cif.got.tgz:30294.got - 2010.06.03 18:56:24.
