data_PCOD9124074
_publ_section_title
;
Structure prediction by ZEFSAII (Michael W. Deem and Ramdas Pophale) SiO2 
 PCOD9124074
Probable space group: C 2
;
_chemical_formula_sum "Si O2"
_cell_formula_units_Z 26
_cell_length_a 9.091041
_cell_length_b 15.339656
_cell_length_c 14.599468
_cell_angle_alpha 90.000000
_cell_angle_beta 144.583752
_cell_angle_gamma 90.000000
_cell_volume 1179.855791
_symmetry_space_group_name_H-M "C 2"
_symmetry_group_IT_number 5
_symmetry_cell_setting 'monoclinic'
loop_
_space_group_symop_operation_xyz
x,y,z
-x,y,-z
1/2+x,1/2+y,z
1/2-x,1/2+y,-z
loop_
_atom_site_type_symbol
_atom_site_label
_atom_site_fract_x
_atom_site_fract_y
_atom_site_fract_z
Si Si1 0.414183 0.719000 0.060951
Si Si2 0.456478 0.736143 0.679248
Si Si3 0.911391 0.426854 0.273968
Si Si4 0.936377 0.648637 0.846044
Si Si5 0.635757 0.396375 0.939779
Si Si6 0.500000 0.996947 0.000000
Si Si7 0.253666 0.595627 0.434726
O O1 0.602922 0.731927 0.241956
O O2 0.500000 0.714733 0.000000
O O3 0.200664 0.794253 0.963274
O O4 0.242091 0.638436 0.003588
O O5 0.429349 0.836897 0.635590
O O6 0.757174 0.715035 0.811540
O O7 0.321813 0.660842 0.552093
O O8 0.659233 0.420018 0.208086
O O9 0.079177 0.513243 0.371227
O O10 0.782856 0.425275 0.107220
O O11 0.866856 0.556516 0.855933
O O12 0.881138 0.654659 0.710990
O O13 0.782560 0.438578 0.931408
O O14 0.500000 0.566099 0.500000
#
# Coordination Sequence:
#
# PCOD9124074 Si02
#       7
#     4   4   4   4   4   2   4
#     4  11  21  38  68 104 133 171 228 285 341 406
#     4  10  21  42  69  97 138 179 224 280 347 407
#     4  10  20  41  71 101 136 183 235 282 341 410
#     4  11  21  40  66  94 135 182 220 272 347 406
#     4  10  21  36  68 108 135 169 233 293 337 398
#     4  12  20  36  66 106 138 168 218 294 346 390
#     4  10  23  42  71  98 138 187 227 274 348 414
#
# _framework density 22.03659
#
# number of rings (size 3 to 8) (size 9 to 14) (size 15 to 20)
#    0.000    1.538    5.385    0.000    0.000    1.231 
#    0.000    6.923    6.769    0.000    0.000    0.000 
#    0.000    0.000    0.000    0.000    0.000    0.000 
#
# Total GULP energy -72427.744310 kJ/mol
# GULP energy per Si atom -5571.364947 kJ/mol
# Density = 2.198643 g / cm^3
# Si number density = 22.036590 Si / 1000 Ang^3
#
#
#
# Elastic Constant Matrix: (Units=GPa)
#
#
# Indices 1 2 3 4 5 6 
#
# 1 138.3624 51.6108 39.7773 0.0001 -18.8031 -0.0001
# 2 51.6108 83.9962 32.4761 0.0003 0.2530 0.0000
# 3 39.7773 32.4761 68.5843 0.0022 -10.3724 0.0009
# 4 0.0001 0.0003 0.0022 40.9462 0.0008 0.2380
# 5 -18.8031 0.2530 -10.3724 0.0008 26.1256 0.0003
# 6 -0.0001 0.0000 0.0009 0.2380 0.0003 30.4166
#
#
#
# Elastic Compliance Matrix: (Units=1/GPa)
#
#
# Indices 1 2 3 4 5 6 
#
# 1 0.011110 -0.005834 -0.002620 0.000000 0.007012 0.000000
# 2 -0.005834 0.017872 -0.006107 0.000000 -0.006797 0.000000
# 3 -0.002620 -0.006107 0.019911 -0.000001 0.006078 -0.000001
# 4 0.000000 0.000000 -0.000001 0.024423 -0.000001 -0.000191
# 5 0.007012 -0.006797 0.006078 -0.000001 0.045803 -0.000001
# 6 0.000000 0.000000 -0.000001 -0.000191 -0.000001 0.032878
#
#
# Mechanical properties :
#
#
# Convention : Reuss Voigt Hill
#
# Bulk Modulus (GPa) = 50.58149 59.85237 55.21693
# Shear Modulus (GPa) = 26.63680 30.63625 28.63652
#
# Velocity S-wave (km/s) = 3.48048 3.73264 3.60877
# Velocity P-wave (km/s) = 6.25739 6.76729 6.51733
#
# Compressibility (1/GPa) = 0.01977008
#
# Stress axis : x y z
#
# Youngs Moduli (GPa) = 90.00939 55.95409 50.22286
#
# Poissons Ratio (x) = 0.32646 0.13160
# Poissons Ratio (y) = 0.52515 0.30670
# Poissons Ratio (z) = 0.23585 0.34170
#
# Static dielectric constant tensor:
#      x y z
#    x 1.841480 0.000000 0.018190 
#    y 0.000000 1.867710 0.000000 
#    z 0.018190 0.000000 1.927130 
# 
# From -- ./inp_files/51118.got.cif
#   From: 2010.05.17/outbox.cif.g08.bks.cpg/sg5_26_cif.got.tgz:51118.got - 2010.06.03 18:56:24.
