data_PCOD9124283
_publ_section_title
;
Structure prediction by ZEFSAII (Michael W. Deem and Ramdas Pophale) SiO2 
 PCOD9124283
Probable space group: C 2
;
_chemical_formula_sum "Si O2"
_cell_formula_units_Z 26
_cell_length_a 19.425460
_cell_length_b 10.901375
_cell_length_c 12.143081
_cell_angle_alpha 90.000000
_cell_angle_beta 148.050195
_cell_angle_gamma 90.000000
_cell_volume 1360.760566
_symmetry_space_group_name_H-M "C 2"
_symmetry_group_IT_number 5
_symmetry_cell_setting 'monoclinic'
loop_
_space_group_symop_operation_xyz
x,y,z
-x,y,-z
1/2+x,1/2+y,z
1/2-x,1/2+y,-z
loop_
_atom_site_type_symbol
_atom_site_label
_atom_site_fract_x
_atom_site_fract_y
_atom_site_fract_z
Si Si1 0.347710 0.134680 0.444632
Si Si2 0.890088 0.586278 0.744083
Si Si3 0.157188 0.419202 0.727702
Si Si4 0.370986 0.831430 0.852694
Si Si5 0.312124 0.185047 0.849288
Si Si6 0.000000 0.791983 0.500000
Si Si7 0.740852 0.943491 0.094109
O O1 0.358452 0.067641 0.574466
O O2 0.250441 0.246531 0.332995
O O3 0.474382 0.202867 0.568906
O O4 0.309368 0.040403 0.297367
O O5 0.879377 0.454127 0.789825
O O6 0.795789 0.666799 0.694851
O O7 0.031721 0.654881 0.930805
O O8 0.247598 0.309694 0.803512
O O9 0.000000 0.397123 0.500000
O O10 0.193814 0.440093 0.905147
O O11 0.362206 0.874002 0.967087
O O12 0.500000 0.757766 0.000000
O O13 0.249841 0.078097 0.839725
O O14 0.876576 0.874153 0.300549
#
# Coordination Sequence:
#
# PCOD9124283 Si02
#       7
#     4   4   4   4   4   2   4
#     4  11  24  38  63  92 124 164 205 257 315 363
#     4  10  20  43  65  84 123 162 214 254 308 368
#     4  12  26  39  63  97 131 162 202 262 315 365
#     4  10  21  41  64  87 116 170 204 255 308 370
#     4  10  22  40  66  89 121 169 206 257 311 361
#     4  10  22  42  64  92 122 174 206 252 312 372
#     4  10  22  41  66  89 124 164 214 251 312 370
#
# _framework density 19.106961999999999
#
# number of rings (size 3 to 8) (size 9 to 14) (size 15 to 20)
#    0.000    1.538    3.846    1.846    7.538    0.000 
#    2.769    4.615    0.000    0.000    0.000    0.000 
#    0.000    0.000    0.000    0.000    0.000    0.000 
#
# Total GULP energy -72390.630365 kJ/mol
# GULP energy per Si atom -5568.510028 kJ/mol
# Density = 1.906347 g / cm^3
# Si number density = 19.106962 Si / 1000 Ang^3
#
#
#
# Elastic Constant Matrix: (Units=GPa)
#
#
# Indices 1 2 3 4 5 6 
#
# 1 159.6945 60.7267 66.1755 0.0000 -22.2863 0.0000
# 2 60.7267 98.2832 27.8414 0.0000 5.5736 0.0000
# 3 66.1755 27.8414 67.6331 0.0000 -21.8715 0.0000
# 4 0.0000 0.0000 0.0000 8.6465 0.0000 6.0242
# 5 -22.2863 5.5736 -21.8715 0.0000 40.4757 0.0000
# 6 0.0000 0.0000 0.0000 6.0242 0.0000 38.2094
#
#
#
# Elastic Compliance Matrix: (Units=1/GPa)
#
#
# Indices 1 2 3 4 5 6 
#
# 1 0.012397 -0.005219 -0.009139 0.000000 0.002606 0.000000
# 2 -0.005219 0.014626 -0.003023 0.000000 -0.006521 0.000000
# 3 -0.009139 -0.003023 0.028451 0.000000 0.010758 0.000000
# 4 0.000000 0.000000 0.000000 0.129925 0.000000 -0.020484
# 5 0.002606 -0.006521 0.010758 0.000000 0.032853 0.000000
# 6 0.000000 0.000000 0.000000 -0.020484 0.000000 0.029401
#
#
# Mechanical properties :
#
#
# Convention : Reuss Voigt Hill
#
# Bulk Modulus (GPa) = 48.28061 70.56646 59.42354
# Shear Modulus (GPa) = 17.28199 28.85748 23.06973
#
# Velocity S-wave (km/s) = 3.01073 3.89049 3.47853
# Velocity P-wave (km/s) = 6.11633 7.56265 6.87761
#
# Compressibility (1/GPa) = 0.02071225
#
# Stress axis : x y z
#
# Youngs Moduli (GPa) = 80.66232 68.37370 35.14819
#
# Poissons Ratio (x) = 0.35684 0.32121
# Poissons Ratio (y) = 0.42098 0.10625
# Poissons Ratio (z) = 0.73716 0.20669
#
# Static dielectric constant tensor:
#      x y z
#    x 1.697500 0.000000 0.002670 
#    y 0.000000 1.675090 0.000000 
#    z 0.002670 0.000000 1.712050 
# 
# From -- ./inp_files/44629.got.cif
#   From: 2010.05.17/outbox.cif.g08.bks.cpg/sg5_23_cif.got.tgz:44629.got - 2010.06.03 18:56:24.
