data_PCOD9124908
_publ_section_title
;
Structure prediction by ZEFSAII (Michael W. Deem and Ramdas Pophale) SiO2 
 PCOD9124908
Probable space group: C 2
;
_chemical_formula_sum "Si O2"
_cell_formula_units_Z 26
_cell_length_a 12.846712
_cell_length_b 6.839190
_cell_length_c 12.686251
_cell_angle_alpha 90.000000
_cell_angle_beta 88.626006
_cell_angle_gamma 90.000000
_cell_volume 1114.307540
_symmetry_space_group_name_H-M "C 2"
_symmetry_group_IT_number 5
_symmetry_cell_setting 'monoclinic'
loop_
_space_group_symop_operation_xyz
x,y,z
-x,y,-z
1/2+x,1/2+y,z
1/2-x,1/2+y,-z
loop_
_atom_site_type_symbol
_atom_site_label
_atom_site_fract_x
_atom_site_fract_y
_atom_site_fract_z
Si Si1 0.353309 0.071540 0.333032
Si Si2 0.500000 0.205847 0.500000
Si Si3 0.768603 0.421688 0.725903
Si Si4 0.145236 0.814544 0.322650
Si Si5 0.411207 0.770350 0.886884
Si Si6 0.497063 0.176128 0.857749
Si Si7 0.379380 0.541544 0.086944
O O1 0.426639 0.064469 0.432025
O O2 0.310649 0.293524 0.336601
O O3 0.426154 0.067615 0.227572
O O4 0.252847 0.933052 0.326852
O O5 0.563416 0.345902 0.417991
O O6 0.824460 0.587667 0.660935
O O7 0.849703 0.276289 0.779838
O O8 0.709114 0.527300 0.824239
O O9 0.083060 0.805618 0.212106
O O10 0.523235 0.670653 0.877747
O O11 0.432112 0.999711 0.911881
O O12 0.350532 0.647112 0.978099
O O13 0.572355 0.322688 0.920149
#
# Coordination Sequence:
#
# PCOD9124908 Si02
#       7
#     4   2   4   4   4   4   4
#     4  10  21  41  67  91 135 165 208 264 323 385
#     4  10  24  40  66 112 118 162 218 260 318 400
#     4  10  22  42  64  92 128 176 210 256 328 374
#     4  10  21  41  67  91 135 165 208 264 323 385
#     4  10  21  39  59  91 125 169 222 263 309 367
#     4   9  20  40  62  87 130 178 213 263 321 371
#     4  10  21  39  59  91 125 169 222 263 309 367
#
# _framework density 23.332877
#
# number of rings (size 3 to 8) (size 9 to 14) (size 15 to 20)
#    0.000    2.154    0.000    1.846    2.154    2.462 
#   24.923    1.538    0.000    0.000    0.000    0.000 
#    0.000    0.000    0.000    0.000    0.000    0.000 
#
# Total GULP energy -72584.027459 kJ/mol
# GULP energy per Si atom -5583.386728 kJ/mol
# Density = 2.327977 g / cm^3
# Si number density = 23.332877 Si / 1000 Ang^3
#
#
#
# Elastic Constant Matrix: (Units=GPa)
#
#
# Indices 1 2 3 4 5 6 
#
# 1 94.5479 18.8463 24.8530 0.0000 6.3799 0.0000
# 2 18.8463 93.3732 35.3951 0.0000 14.3379 0.0000
# 3 24.8530 35.3951 67.0072 0.0000 5.7609 0.0000
# 4 0.0000 0.0000 0.0000 8.8422 0.0000 0.4106
# 5 6.3799 14.3379 5.7609 0.0000 27.9618 0.0000
# 6 0.0000 0.0000 0.0000 0.4106 0.0000 47.8175
#
#
#
# Elastic Compliance Matrix: (Units=1/GPa)
#
#
# Indices 1 2 3 4 5 6 
#
# 1 0.011841 -0.000672 -0.003904 0.000000 -0.001553 0.000000
# 2 -0.000672 0.014317 -0.006816 0.000000 -0.005784 0.000000
# 3 -0.003904 -0.006816 0.019948 0.000000 0.000276 0.000000
# 4 0.000000 0.000000 0.000000 0.113139 0.000000 -0.000972
# 5 -0.001553 -0.005784 0.000276 0.000000 0.039026 0.000000
# 6 0.000000 0.000000 0.000000 -0.000972 0.000000 0.020921
#
#
# Mechanical properties :
#
#
# Convention : Reuss Voigt Hill
#
# Bulk Modulus (GPa) = 42.87489 45.90188 44.38838
# Shear Modulus (GPa) = 20.01984 28.64657 24.33320
#
# Velocity S-wave (km/s) = 2.93236 3.50770 3.23286
# Velocity P-wave (km/s) = 5.46628 6.01005 5.74460
#
# Compressibility (1/GPa) = 0.02332368
#
# Stress axis : x y z
#
# Youngs Moduli (GPa) = 84.44905 69.84540 50.12918
#
# Poissons Ratio (x) = 0.04693 0.19568
# Poissons Ratio (y) = 0.05674 0.34170
# Poissons Ratio (z) = 0.32965 0.47609
#
# Static dielectric constant tensor:
#      x y z
#    x 1.910530 0.000000 -0.022450 
#    y 0.000000 1.902490 0.000000 
#    z -0.022450 0.000000 1.988690 
# 
# From -- ./inp_files/53843.got.cif
#   From: 2010.05.17/outbox.cif.g08.bks.cpg/sg5_27_cif.got.tgz:53843.got - 2010.06.03 18:56:24.
