data_PCOD9124568
_publ_section_title
;
Structure prediction by ZEFSAII (Michael W. Deem and Ramdas Pophale) SiO2 
 PCOD9124568
Probable space group: C 2
;
_chemical_formula_sum "Si O2"
_cell_formula_units_Z 28
_cell_length_a 10.000953
_cell_length_b 26.621177
_cell_length_c 9.102897
_cell_angle_alpha 90.000000
_cell_angle_beta 31.893509
_cell_angle_gamma 90.000000
_cell_volume 1280.452666
_symmetry_space_group_name_H-M "C 2"
_symmetry_group_IT_number 5
_symmetry_cell_setting 'monoclinic'
loop_
_space_group_symop_operation_xyz
x,y,z
-x,y,-z
1/2+x,1/2+y,z
1/2-x,1/2+y,-z
loop_
_atom_site_type_symbol
_atom_site_label
_atom_site_fract_x
_atom_site_fract_y
_atom_site_fract_z
Si Si1 0.938496 0.065550 0.735027
Si Si2 0.905176 0.253889 0.939133
Si Si3 0.993151 0.699102 0.854804
Si Si4 0.719803 0.802854 0.412789
Si Si5 0.541722 0.108391 0.634959
Si Si6 0.234041 0.959005 0.167829
Si Si7 0.909200 0.853438 0.751430
O O1 0.000000 0.073302 0.500000
O O2 0.211348 0.076535 0.551714
O O3 0.842310 0.008435 0.850450
O O4 0.710246 0.096220 0.030468
O O5 0.784249 0.215568 0.938341
O O6 0.700574 0.297252 0.156805
O O7 0.000000 0.230115 0.000000
O O8 0.112441 0.288582 0.671497
O O9 0.148561 0.749777 0.745558
O O10 0.105794 0.666118 0.619662
O O11 0.000000 0.669109 0.000000
O O12 0.500000 0.813274 0.500000
O O13 0.907473 0.847835 0.277775
O O14 0.500000 0.104018 0.500000
O O15 0.253242 0.904198 0.073313
O O16 0.000000 0.957084 0.500000
O O17 0.500000 0.968520 0.000000
O O18 0.000000 0.860424 0.500000
#
# Coordination Sequence:
#
# PCOD9124568 Si02
#       7
#     4   4   4   4   4   4   4
#     4  11  23  47  74 103 135 180 232 289 349 418
#     4  11  22  37  63  89 132 174 221 277 336 401
#     4  11  25  41  62  93 125 179 232 282 338 412
#     4  11  23  40  60  90 135 177 222 276 339 401
#     4  12  28  45  71 102 142 178 229 292 359 419
#     4  10  21  39  71 105 132 169 228 283 336 408
#     4  10  21  36  62  98 128 171 223 279 333 396
#
# _framework density 21.867265
#
# number of rings (size 3 to 8) (size 9 to 14) (size 15 to 20)
#    0.000    1.143    2.857    3.857    6.000    0.571 
#    0.000    0.714    3.143    0.000    0.000    0.000 
#    0.000    0.000    0.000    0.000    0.000    0.000 
#
# Total GULP energy -77958.144957 kJ/mol
# GULP energy per Si atom -5568.438926 kJ/mol
# Density = 2.181749 g / cm^3
# Si number density = 21.867265 Si / 1000 Ang^3
#
#
#
# Elastic Constant Matrix: (Units=GPa)
#
#
# Indices 1 2 3 4 5 6 
#
# 1 192.0691 43.7268 48.3090 0.0000 -4.1158 0.0000
# 2 43.7268 84.1100 8.3122 0.0000 -6.6150 0.0000
# 3 48.3090 8.3122 79.1565 0.0000 -10.2937 0.0000
# 4 0.0000 0.0000 0.0000 8.4972 0.0000 -12.4398
# 5 -4.1158 -6.6150 -10.2937 0.0000 35.2202 0.0000
# 6 0.0000 0.0000 0.0000 -12.4398 0.0000 21.3969
#
#
#
# Elastic Compliance Matrix: (Units=1/GPa)
#
#
# Indices 1 2 3 4 5 6 
#
# 1 0.006946 -0.003291 -0.004021 0.000000 -0.000982 0.000000
# 2 -0.003291 0.013705 0.000888 0.000000 0.002449 0.000000
# 3 -0.004021 0.000888 0.015546 0.000000 0.004240 0.000000
# 4 0.000000 0.000000 0.000000 0.790558 0.000000 0.459615
# 5 -0.000982 0.002449 0.004240 0.000000 0.029977 0.000000
# 6 0.000000 0.000000 0.000000 0.459615 0.000000 0.313947
#
#
# Mechanical properties :
#
#
# Convention : Reuss Voigt Hill
#
# Bulk Modulus (GPa) = 42.83071 61.78129 52.30600
# Shear Modulus (GPa) = 4.19706 30.02204 17.10955
#
# Velocity S-wave (km/s) = 1.38690 3.70932 2.80023
# Velocity P-wave (km/s) = 4.71104 6.83078 5.86743
#
# Compressibility (1/GPa) = 0.02334773
#
# Stress axis : x y z
#
# Youngs Moduli (GPa) = 143.96666 72.96653 64.32713
#
# Poissons Ratio (x) = 0.24013 0.25867
# Poissons Ratio (y) = 0.47378 -0.05711
# Poissons Ratio (z) = 0.57892 -0.06478
#
# Static dielectric constant tensor:
#      x y z
#    x 1.824120 0.000000 -0.019080 
#    y 0.000000 1.862020 0.000000 
#    z -0.019080 0.000000 1.917910 
# 
# From -- ./inp_files/17517.got.cif
#   From: 2010.05.17/outbox.cif.g08.bks.cpg/sg5_9_cif.got.tgz:17517.got - 2010.06.03 18:56:24.
