data_PCOD9124392
_publ_section_title
;
Structure prediction by ZEFSAII (Michael W. Deem and Ramdas Pophale) SiO2 
 PCOD9124392
Probable space group: C 2
;
_chemical_formula_sum "Si O2"
_cell_formula_units_Z 26
_cell_length_a 9.583054
_cell_length_b 11.377554
_cell_length_c 14.553159
_cell_angle_alpha 90.000000
_cell_angle_beta 143.712089
_cell_angle_gamma 90.000000
_cell_volume 939.110549
_symmetry_space_group_name_H-M "C 2"
_symmetry_group_IT_number 5
_symmetry_cell_setting 'monoclinic'
loop_
_space_group_symop_operation_xyz
x,y,z
-x,y,-z
1/2+x,1/2+y,z
1/2-x,1/2+y,-z
loop_
_atom_site_type_symbol
_atom_site_label
_atom_site_fract_x
_atom_site_fract_y
_atom_site_fract_z
Si Si1 0.921265 0.988210 0.359337
Si Si2 0.975026 0.171841 0.253207
Si Si3 0.000000 0.681182 0.500000
Si Si4 0.365071 0.035136 0.050090
Si Si5 0.530615 0.236655 0.692585
Si Si6 0.000000 0.326016 0.000000
Si Si7 0.790820 0.334019 0.318802
Si Si8 0.500000 0.466337 0.000000
O O1 0.646294 0.025774 0.210297
O O2 0.996943 0.852326 0.388876
O O3 0.000000 0.030336 0.500000
O O4 0.021909 0.044222 0.320705
O O5 0.914434 0.250475 0.308893
O O6 0.218544 0.217418 0.342350
O O7 0.753182 0.144875 0.067683
O O8 0.977725 0.632710 0.593803
O O9 0.347500 0.914128 0.982337
O O10 0.225254 0.023446 0.069707
O O11 0.803594 0.242998 0.857433
O O12 0.375868 0.259446 0.699853
O O13 0.000000 0.380787 0.500000
O O14 0.624601 0.407765 0.158751
#
# Coordination Sequence:
#
# PCOD9124392 Si02
#       8
#     4   4   2   4   4   2   4   2
#     4  11  24  44  78 103 144 199 245 311 373 465
#     4  12  26  49  68 107 158 194 251 310 388 454
#     4  12  28  44  74 114 146 198 248 326 380 444
#     4  11  24  49  71 107 148 201 251 302 389 449
#     4  11  23  49  72 110 144 193 258 303 385 456
#     4  10  20  45  73  98 142 186 246 304 364 449
#     4  12  27  46  78 112 154 198 253 320 386 451
#     4  12  28  47  81 116 148 206 264 326 364 461
#
# _framework density 27.685770999999999
#
# number of rings (size 3 to 8) (size 9 to 14) (size 15 to 20)
#    0.000    0.615    6.923    0.462    8.615    1.231 
#    2.769    0.000    0.000    0.000    0.000    0.000 
#    0.000    0.000    0.000    0.000    0.000    0.000 
#
# Total GULP energy -72453.473058 kJ/mol
# GULP energy per Si atom -5573.344081 kJ/mol
# Density = 2.762276 g / cm^3
# Si number density = 27.685771 Si / 1000 Ang^3
#
#
#
# Elastic Constant Matrix: (Units=GPa)
#
#
# Indices 1 2 3 4 5 6 
#
# 1 234.8242 44.6843 67.9044 0.0002 -5.0244 0.0001
# 2 44.6843 61.5918 45.3223 0.0000 -4.6994 0.0000
# 3 67.9044 45.3223 232.6876 0.0003 -6.3437 0.0003
# 4 0.0002 0.0000 0.0003 29.2752 0.0003 -8.4285
# 5 -5.0244 -4.6994 -6.3437 0.0003 61.8339 0.0002
# 6 0.0001 0.0000 0.0003 -8.4285 0.0002 24.2621
#
#
#
# Elastic Compliance Matrix: (Units=1/GPa)
#
#
# Indices 1 2 3 4 5 6 
#
# 1 0.005096 -0.003032 -0.000894 0.000000 0.000092 0.000000
# 2 -0.003032 0.020827 -0.003144 0.000000 0.001014 0.000000
# 3 -0.000894 -0.003144 0.005177 0.000000 0.000220 0.000000
# 4 0.000000 0.000000 0.000000 0.037955 0.000000 0.013185
# 5 0.000092 0.001014 0.000220 0.000000 0.016279 0.000000
# 6 0.000000 0.000000 0.000000 0.013185 0.000000 0.045797
#
#
# Mechanical properties :
#
#
# Convention : Reuss Voigt Hill
#
# Bulk Modulus (GPa) = 58.96587 93.88064 76.42325
# Shear Modulus (GPa) = 33.12921 47.82042 40.47482
#
# Velocity S-wave (km/s) = 3.46297 4.16054 3.82767
# Velocity P-wave (km/s) = 6.11016 7.55401 6.87012
#
# Compressibility (1/GPa) = 0.01695896
#
# Stress axis : x y z
#
# Youngs Moduli (GPa) = 196.23258 48.01540 193.16647
#
# Poissons Ratio (x) = 0.14559 0.17270
# Poissons Ratio (y) = 0.59502 0.60732
# Poissons Ratio (z) = 0.17544 0.15096
#
# Static dielectric constant tensor:
#      x y z
#    x 2.146080 0.000000 -0.082080 
#    y 0.000000 2.743190 0.000000 
#    z -0.082080 0.000000 2.284860 
# 
# From -- ./inp_files/51138.got.cif
#   From: 2010.05.17/outbox.cif.g08.bks.cpg/sg5_26_cif.got.tgz:51138.got - 2010.06.03 18:56:24.
