data_PCOD9124590
_publ_section_title
;
Structure prediction by ZEFSAII (Michael W. Deem and Ramdas Pophale) SiO2 
 PCOD9124590
Probable space group: C 2
;
_chemical_formula_sum "Si O2"
_cell_formula_units_Z 20
_cell_length_a 18.449920
_cell_length_b 4.860598
_cell_length_c 8.218295
_cell_angle_alpha 90.000000
_cell_angle_beta 84.606226
_cell_angle_gamma 90.000000
_cell_volume 733.734047
_symmetry_space_group_name_H-M "C 2"
_symmetry_group_IT_number 5
_symmetry_cell_setting 'monoclinic'
loop_
_space_group_symop_operation_xyz
x,y,z
-x,y,-z
1/2+x,1/2+y,z
1/2-x,1/2+y,-z
loop_
_atom_site_type_symbol
_atom_site_label
_atom_site_fract_x
_atom_site_fract_y
_atom_site_fract_z
Si Si1 0.687928 0.706940 0.678514
Si Si2 0.408260 0.172104 0.265133
Si Si3 0.284965 0.422800 0.914760
Si Si4 0.899290 0.348792 0.582615
Si Si5 0.064301 0.841209 0.215639
O O1 0.651259 0.408695 0.692251
O O2 0.763325 0.786531 0.745943
O O3 0.634096 0.909373 0.796634
O O4 0.678537 0.796692 0.491363
O O5 0.434642 0.019429 0.426281
O O6 0.481421 0.302129 0.179678
O O7 0.371550 0.435784 0.917270
O O8 0.247494 0.223368 0.053084
O O9 0.931204 0.059268 0.635775
O O10 0.906892 0.544685 0.733401
#
# Coordination Sequence:
#
# PCOD9124590 Si02
#       5
#     4   4   4   4   4
#     4  10  22  41  66  93 136 161 206 270 331 368
#     4  10  21  38  65 104 132 157 199 265 335 392
#     4  12  28  49  64  86 131 182 229 268 303 371
#     4  10  21  36  68 102 133 154 202 268 331 397
#     4  12  23  39  69  99 129 171 210 251 333 387
#
# _framework density 27.257833000000002
#
# number of rings (size 3 to 8) (size 9 to 14) (size 15 to 20)
#    1.200    0.000    2.000    4.200    2.800    1.600 
#    0.000    6.000    0.000    0.000    0.000    0.000 
#    0.000    0.000    0.000    0.000    0.000    0.000 
#
# Total GULP energy -55850.159662 kJ/mol
# GULP energy per Si atom -5585.015966 kJ/mol
# Density = 2.719579 g / cm^3
# Si number density = 27.257833 Si / 1000 Ang^3
#
#
#
# Elastic Constant Matrix: (Units=GPa)
#
#
# Indices 1 2 3 4 5 6 
#
# 1 150.7272 20.1379 9.1485 0.0000 -11.1173 0.0000
# 2 20.1379 151.4935 18.4177 0.0000 -1.0880 0.0000
# 3 9.1485 18.4177 52.2008 0.0000 0.5389 0.0000
# 4 0.0000 0.0000 0.0000 41.2251 0.0000 6.8944
# 5 -11.1173 -1.0880 0.5389 0.0000 50.0378 0.0000
# 6 0.0000 0.0000 0.0000 6.8944 0.0000 26.3101
#
#
#
# Elastic Compliance Matrix: (Units=1/GPa)
#
#
# Indices 1 2 3 4 5 6 
#
# 1 0.006911 -0.000792 -0.000947 0.000000 0.001528 0.000000
# 2 -0.000792 0.006989 -0.002327 0.000000 0.000001 0.000000
# 3 -0.000947 -0.002327 0.020149 0.000000 -0.000478 0.000000
# 4 0.000000 0.000000 0.000000 0.025369 0.000000 -0.006648
# 5 0.001528 0.000001 -0.000478 0.000000 0.020330 0.000000
# 6 0.000000 0.000000 0.000000 -0.006648 0.000000 0.039750
#
#
# Mechanical properties :
#
#
# Convention : Reuss Voigt Hill
#
# Bulk Modulus (GPa) = 38.58783 49.98108 44.28445
# Shear Modulus (GPa) = 36.69205 43.96244 40.32725
#
# Velocity S-wave (km/s) = 3.67292 4.02037 3.85057
# Velocity P-wave (km/s) = 5.67225 6.31881 6.00424
#
# Compressibility (1/GPa) = 0.02591491
#
# Stress axis : x y z
#
# Youngs Moduli (GPa) = 144.70512 143.07771 49.63069
#
# Poissons Ratio (x) = 0.11339 0.04701
# Poissons Ratio (y) = 0.11468 0.11550
# Poissons Ratio (z) = 0.13708 0.33296
#
# Static dielectric constant tensor:
#      x y z
#    x 2.244610 0.000000 -0.016780 
#    y 0.000000 2.008630 0.000000 
#    z -0.016780 0.000000 2.247120 
# 
# From -- ./inp_files/25951.got.cif
#   From: 2010.05.17/outbox.cif.g08.bks.cpg/sg5_13_cif.got.tgz:25951.got - 2010.06.03 18:56:24.
