data_PCOD9124439
_publ_section_title
;
Structure prediction by ZEFSAII (Michael W. Deem and Ramdas Pophale) SiO2 
 PCOD9124439
Probable space group: C 2
;
_chemical_formula_sum "Si O2"
_cell_formula_units_Z 32
_cell_length_a 24.421930
_cell_length_b 10.283869
_cell_length_c 12.799171
_cell_angle_alpha 90.000000
_cell_angle_beta 154.434222
_cell_angle_gamma 90.000000
_cell_volume 1387.223638
_symmetry_space_group_name_H-M "C 2"
_symmetry_group_IT_number 5
_symmetry_cell_setting 'monoclinic'
loop_
_space_group_symop_operation_xyz
x,y,z
-x,y,-z
1/2+x,1/2+y,z
1/2-x,1/2+y,-z
loop_
_atom_site_type_symbol
_atom_site_label
_atom_site_fract_x
_atom_site_fract_y
_atom_site_fract_z
Si Si1 0.024774 0.026740 0.197118
Si Si2 0.397172 0.247223 0.133698
Si Si3 0.578550 0.803080 0.038984
Si Si4 0.825126 0.492306 0.939497
Si Si5 0.033877 0.967995 0.454846
Si Si6 0.215987 0.627225 0.351090
Si Si7 0.343142 0.162204 0.527714
Si Si8 0.723177 0.388996 0.258825
O O1 0.172717 0.025796 0.426108
O O2 0.010171 0.024776 0.298132
O O3 0.984833 0.165825 0.088134
O O4 0.924687 0.927503 0.976498
O O5 0.438885 0.344649 0.295799
O O6 0.533081 0.225274 0.309694
O O7 0.291778 0.321740 0.881574
O O8 0.354206 0.099122 0.077404
O O9 0.580788 0.878501 0.932225
O O10 0.724076 0.761828 0.315614
O O11 0.500000 0.865667 0.000000
O O12 0.683704 0.441157 0.712253
O O13 0.831032 0.573330 0.840180
O O14 0.000000 0.049504 0.500000
O O15 0.130455 0.637626 0.304985
O O16 0.263607 0.773089 0.405123
O O17 0.300758 0.023707 0.403082
#
# Coordination Sequence:
#
# PCOD9124439 Si02
#       8
#     4   4   4   4   4   4   4   4
#     4   9  20  37  57  81 115 152 195 249 289 349
#     4  10  22  41  58  85 120 152 197 257 297 355
#     4  11  21  36  56  91 129 164 198 235 296 367
#     4  10  23  38  58  89 123 154 206 246 296 367
#     4  10  21  45  67  83 113 159 205 262 312 351
#     4  10  21  33  53  81 114 161 198 232 287 350
#     4  11  22  33  57  84 116 169 197 233 297 351
#     4   9  22  36  50  78 116 153 193 239 288 342
#
# _framework density 23.067657000000001
#
# number of rings (size 3 to 8) (size 9 to 14) (size 15 to 20)
#    0.000    2.000    2.500    0.000    5.250    2.500 
#    2.250    0.000    0.000    0.750    0.000    0.000 
#    0.000    0.000    0.000    0.000    0.000    0.000 
#
# Total GULP energy -89208.826953 kJ/mol
# GULP energy per Si atom -5575.551685 kJ/mol
# Density = 2.301515 g / cm^3
# Si number density = 23.067657 Si / 1000 Ang^3
#
#
#
# Elastic Constant Matrix: (Units=GPa)
#
#
# Indices 1 2 3 4 5 6 
#
# 1 79.8200 -2.2647 10.6214 0.0000 -9.2643 0.0000
# 2 -2.2647 90.7753 19.6082 0.0000 -3.3001 0.0000
# 3 10.6214 19.6082 68.0776 0.0000 2.1089 0.0000
# 4 0.0000 0.0000 0.0000 41.7208 0.0000 3.7105
# 5 -9.2643 -3.3001 2.1089 0.0000 23.5181 0.0000
# 6 0.0000 0.0000 0.0000 3.7105 0.0000 13.2552
#
#
#
# Elastic Compliance Matrix: (Units=1/GPa)
#
#
# Indices 1 2 3 4 5 6 
#
# 1 0.013574 0.001112 -0.002616 0.000000 0.005738 0.000000
# 2 0.001112 0.011929 -0.003685 0.000000 0.002442 0.000000
# 3 -0.002616 -0.003685 0.016252 0.000000 -0.003005 0.000000
# 4 0.000000 0.000000 0.000000 0.024581 0.000000 -0.006881
# 5 0.005738 0.002442 -0.003005 0.000000 0.045393 0.000000
# 6 0.000000 0.000000 0.000000 -0.006881 0.000000 0.077368
#
#
# Mechanical properties :
#
#
# Convention : Reuss Voigt Hill
#
# Bulk Modulus (GPa) = 31.87044 32.73364 32.30204
# Shear Modulus (GPa) = 23.81723 29.74602 26.78163
#
# Velocity S-wave (km/s) = 3.21673 3.59487 3.41105
# Velocity P-wave (km/s) = 5.25762 5.60820 5.43574
#
# Compressibility (1/GPa) = 0.03137703
#
# Stress axis : x y z
#
# Youngs Moduli (GPa) = 73.67155 83.83108 61.53197
#
# Poissons Ratio (x) = -0.09324 0.16096
# Poissons Ratio (y) = -0.08194 0.22675
# Poissons Ratio (z) = 0.19272 0.30892
#
# Static dielectric constant tensor:
#      x y z
#    x 1.848130 0.000000 0.003520 
#    y 0.000000 1.980800 0.000000 
#    z 0.003520 0.000000 1.952820 
# 
# From -- ./inp_files/47516.got.cif
#   From: 2010.05.17/outbox.cif.g08.bks.cpg/sg5_24_cif.got.tgz:47516.got - 2010.06.03 18:56:24.
