data_PCOD9124275
_publ_section_title
;
Structure prediction by ZEFSAII (Michael W. Deem and Ramdas Pophale) SiO2 
 PCOD9124275
Probable space group: C 2
;
_chemical_formula_sum "Si O2"
_cell_formula_units_Z 30
_cell_length_a 11.982433
_cell_length_b 8.251236
_cell_length_c 14.345032
_cell_angle_alpha 90.000000
_cell_angle_beta 77.807074
_cell_angle_gamma 90.000000
_cell_volume 1386.297775
_symmetry_space_group_name_H-M "C 2"
_symmetry_group_IT_number 5
_symmetry_cell_setting 'monoclinic'
loop_
_space_group_symop_operation_xyz
x,y,z
-x,y,-z
1/2+x,1/2+y,z
1/2-x,1/2+y,-z
loop_
_atom_site_type_symbol
_atom_site_label
_atom_site_fract_x
_atom_site_fract_y
_atom_site_fract_z
Si Si1 0.500000 0.849140 0.000000
Si Si2 0.969640 0.840988 0.237434
Si Si3 0.153896 0.553370 0.837674
Si Si4 0.129614 0.120536 0.504886
Si Si5 0.083588 0.356648 0.681246
Si Si6 0.457714 0.146121 0.607385
Si Si7 0.247737 0.407076 0.392864
Si Si8 0.092198 0.164356 0.161795
O O1 0.563201 0.742974 0.067447
O O2 0.403890 0.957592 0.067341
O O3 0.043293 0.780771 0.313051
O O4 0.937928 0.688685 0.178756
O O5 0.031521 0.989626 0.178429
O O6 0.848631 0.895657 0.301413
O O7 0.274446 0.635824 0.840579
O O8 0.162789 0.425375 0.750004
O O9 0.188373 0.234136 0.418109
O O10 0.197355 0.959730 0.518064
O O11 0.000000 0.092100 0.500000
O O12 0.127956 0.222889 0.601816
O O13 0.048754 0.511728 0.626079
O O14 0.971762 0.280140 0.751678
O O15 0.500000 0.205592 0.500000
O O16 0.343384 0.043010 0.617076
#
# Coordination Sequence:
#
# PCOD9124275 Si02
#       8
#     2   4   4   4   4   4   4   4
#     4  10  26  48  72 102 124 162 212 266 348 426
#     4  11  26  40  63 102 129 170 226 265 315 391
#     4  10  25  44  73  97 131 166 207 271 345 402
#     4  12  25  39  61  92 136 183 235 272 308 373
#     4  10  20  43  63  94 134 175 220 266 322 380
#     4  11  21  41  58  87 135 179 224 267 306 365
#     4  12  24  38  61  88 131 183 222 270 315 356
#     4  11  24  46  70  99 133 163 213 276 333 405
#
# _framework density 21.640371999999999
#
# number of rings (size 3 to 8) (size 9 to 14) (size 15 to 20)
#    0.000    1.067    4.000    1.600    3.733    4.267 
#    0.000    0.000    0.000    0.000    0.000    0.000 
#    0.000    0.000    0.000    0.000    0.000    0.000 
#
# Total GULP energy -83970.817603 kJ/mol
# GULP energy per Si atom -5598.054507 kJ/mol
# Density = 2.159112 g / cm^3
# Si number density = 21.640372 Si / 1000 Ang^3
#
#
#
# Elastic Constant Matrix: (Units=GPa)
#
#
# Indices 1 2 3 4 5 6 
#
# 1 102.1804 27.8422 33.7317 0.0000 6.3661 0.0000
# 2 27.8422 91.1086 45.5996 0.0000 7.4721 0.0000
# 3 33.7317 45.5996 102.0754 0.0000 15.9787 0.0000
# 4 0.0000 0.0000 0.0000 43.2784 0.0000 5.5857
# 5 6.3661 7.4721 15.9787 0.0000 21.1076 0.0000
# 6 0.0000 0.0000 0.0000 5.5857 0.0000 35.8008
#
#
#
# Elastic Compliance Matrix: (Units=1/GPa)
#
#
# Indices 1 2 3 4 5 6 
#
# 1 0.011278 -0.002034 -0.002721 0.000000 -0.000622 0.000000
# 2 -0.002034 0.014505 -0.005785 0.000000 -0.000142 0.000000
# 3 -0.002721 -0.005785 0.014556 0.000000 -0.008150 0.000000
# 4 0.000000 0.000000 0.000000 0.023581 0.000000 -0.003679
# 5 -0.000622 -0.000142 -0.008150 0.000000 0.053784 0.000000
# 6 0.000000 0.000000 0.000000 -0.003679 0.000000 0.028506
#
#
# Mechanical properties :
#
#
# Convention : Reuss Voigt Hill
#
# Bulk Modulus (GPa) = 51.92505 56.63462 54.27983
# Shear Modulus (GPa) = 28.78375 32.58343 30.68359
#
# Velocity S-wave (km/s) = 3.65100 3.88452 3.76957
# Velocity P-wave (km/s) = 6.46682 6.80786 6.63953
#
# Compressibility (1/GPa) = 0.01925853
#
# Stress axis : x y z
#
# Youngs Moduli (GPa) = 88.67045 68.94406 68.69916
#
# Poissons Ratio (x) = 0.14020 0.18694
# Poissons Ratio (y) = 0.18031 0.39745
# Poissons Ratio (z) = 0.24128 0.39887
#
# Static dielectric constant tensor:
#      x y z
#    x 1.785560 0.000000 0.016250 
#    y 0.000000 1.801210 0.000000 
#    z 0.016250 0.000000 1.775860 
# 
# From -- ./inp_files/52415.got.cif
#   From: 2010.05.17/outbox.cif.g08.bks.cpg/sg5_27_cif.got.tgz:52415.got - 2010.06.03 18:56:24.
