data_PCOD9124025
_publ_section_title
;
Structure prediction by ZEFSAII (Michael W. Deem and Ramdas Pophale) SiO2 
 PCOD9124025
Probable space group: C 2
;
_chemical_formula_sum "Si O2"
_cell_formula_units_Z 22
_cell_length_a 5.981068
_cell_length_b 16.198686
_cell_length_c 11.263614
_cell_angle_alpha 90.000000
_cell_angle_beta 117.560854
_cell_angle_gamma 90.000000
_cell_volume 967.441646
_symmetry_space_group_name_H-M "C 2"
_symmetry_group_IT_number 5
_symmetry_cell_setting 'monoclinic'
loop_
_space_group_symop_operation_xyz
x,y,z
-x,y,-z
1/2+x,1/2+y,z
1/2-x,1/2+y,-z
loop_
_atom_site_type_symbol
_atom_site_label
_atom_site_fract_x
_atom_site_fract_y
_atom_site_fract_z
Si Si1 0.529369 0.104640 0.147059
Si Si2 0.735840 0.339713 0.624985
Si Si3 0.032690 0.978016 0.745580
Si Si4 0.000000 0.459300 0.500000
Si Si5 0.000000 0.138264 0.000000
Si Si6 0.186361 0.255573 0.838894
Si Si7 0.000000 0.908543 0.000000
O O1 0.242206 0.093848 0.119151
O O2 0.610991 0.200496 0.182222
O O3 0.500000 0.084980 0.000000
O O4 0.759677 0.046416 0.241992
O O5 0.500000 0.302182 0.500000
O O6 0.625004 0.392763 0.706704
O O7 0.877480 0.403583 0.573019
O O8 0.934824 0.271377 0.706732
O O9 0.751502 0.998621 0.624945
O O10 0.051448 0.959008 0.891688
O O11 0.880553 0.197439 0.068276
O O12 0.281012 0.344031 0.908157
#
# Coordination Sequence:
#
# PCOD9124025 Si02
#       7
#     4   4   4   2   2   4   2
#     4  10  24  39  62  98 136 173 216 278 343 396
#     4  10  23  40  68  96 133 183 226 268 333 403
#     4  11  25  42  68 103 134 180 226 273 338 403
#     4  10  22  46  68  90 146 174 224 278 330 396
#     4  10  20  41  66  91 144 166 214 286 341 388
#     4  11  21  41  65 100 131 172 219 281 337 393
#     4  12  22  41  74 107 134 168 228 284 335 400
#
# _framework density 22.740390000000001
#
# number of rings (size 3 to 8) (size 9 to 14) (size 15 to 20)
#    0.000    1.455    4.545    1.091    2.545    5.818 
#    1.636    0.000    6.000    0.000    0.000    0.000 
#    0.000    0.000    0.000    0.000    0.000    0.000 
#
# Total GULP energy -61368.303237 kJ/mol
# GULP energy per Si atom -5578.936658 kJ/mol
# Density = 2.268863 g / cm^3
# Si number density = 22.740390 Si / 1000 Ang^3
#
#
#
# Elastic Constant Matrix: (Units=GPa)
#
#
# Indices 1 2 3 4 5 6 
#
# 1 134.1428 51.2338 56.4758 0.0000 47.5963 0.0000
# 2 51.2338 75.9133 41.6757 0.0000 25.1448 0.0000
# 3 56.4758 41.6757 109.6436 0.0000 36.7709 0.0000
# 4 0.0000 0.0000 0.0000 30.1730 0.0000 15.5872
# 5 47.5963 25.1448 36.7709 0.0000 66.5383 0.0000
# 6 0.0000 0.0000 0.0000 15.5872 0.0000 40.9214
#
#
#
# Elastic Compliance Matrix: (Units=1/GPa)
#
#
# Indices 1 2 3 4 5 6 
#
# 1 0.012493 -0.005160 -0.002615 0.000000 -0.005541 0.000000
# 2 -0.005160 0.019441 -0.004303 0.000000 -0.001277 0.000000
# 3 -0.002615 -0.004303 0.013417 0.000000 -0.003918 0.000000
# 4 0.000000 0.000000 0.000000 0.041261 0.000000 -0.015717
# 5 -0.005541 -0.001277 -0.003918 0.000000 0.021640 0.000000
# 6 0.000000 0.000000 0.000000 -0.015717 0.000000 0.030424
#
#
# Mechanical properties :
#
#
# Convention : Reuss Voigt Hill
#
# Bulk Modulus (GPa) = 47.18374 68.71892 57.95133
# Shear Modulus (GPa) = 29.42944 38.88085 34.15515
#
# Velocity S-wave (km/s) = 3.60133 4.13942 3.87972
# Velocity P-wave (km/s) = 6.17144 7.28910 6.75343
#
# Compressibility (1/GPa) = 0.02119374
#
# Stress axis : x y z
#
# Youngs Moduli (GPa) = 80.04692 51.43735 74.53230
#
# Poissons Ratio (x) = 0.26543 0.19491
# Poissons Ratio (y) = 0.41306 0.32073
# Poissons Ratio (z) = 0.20933 0.22135
#
# Static dielectric constant tensor:
#      x y z
#    x 2.018380 0.000000 0.027890 
#    y 0.000000 1.862450 0.000000 
#    z 0.027890 0.000000 1.871740 
# 
# From -- ./inp_files/33568.got.cif
#   From: 2010.05.17/outbox.cif.g08.bks.cpg/sg5_17_cif.got.tgz:33568.got - 2010.06.03 18:56:24.
