data_PCOD9124574
_publ_section_title
;
Structure prediction by ZEFSAII (Michael W. Deem and Ramdas Pophale) SiO2 
 PCOD9124574
Probable space group: C 2
;
_chemical_formula_sum "Si O2"
_cell_formula_units_Z 30
_cell_length_a 14.306391
_cell_length_b 8.557805
_cell_length_c 12.207009
_cell_angle_alpha 90.000000
_cell_angle_beta 68.474654
_cell_angle_gamma 90.000000
_cell_volume 1390.285254
_symmetry_space_group_name_H-M "C 2"
_symmetry_group_IT_number 5
_symmetry_cell_setting 'monoclinic'
loop_
_space_group_symop_operation_xyz
x,y,z
-x,y,-z
1/2+x,1/2+y,z
1/2-x,1/2+y,-z
loop_
_atom_site_type_symbol
_atom_site_label
_atom_site_fract_x
_atom_site_fract_y
_atom_site_fract_z
Si Si1 0.887249 0.461280 0.066323
Si Si2 0.253629 0.058774 0.307515
Si Si3 0.500000 0.829389 0.500000
Si Si4 0.113284 0.237787 0.242723
Si Si5 0.814236 0.554339 0.880251
Si Si6 0.899853 0.101640 0.986168
Si Si7 0.613513 0.120613 0.545004
Si Si8 0.394326 0.279109 0.671390
O O1 0.845139 0.476153 0.205336
O O2 0.883211 0.280502 0.033361
O O3 0.826790 0.562786 0.004939
O O4 0.000000 0.513965 0.000000
O O5 0.221563 0.206651 0.249603
O O6 0.297931 0.108567 0.404907
O O7 0.154735 0.948070 0.333953
O O8 0.542315 0.732979 0.379721
O O9 0.575854 0.948047 0.528635
O O10 0.116473 0.414414 0.194866
O O11 0.091617 0.122449 0.149588
O O12 0.696863 0.515117 0.924695
O O13 0.847050 0.709267 0.802310
O O14 0.000000 0.041505 0.000000
O O15 0.514545 0.230184 0.619465
O O16 0.649405 0.185246 0.413391
#
# Coordination Sequence:
#
# PCOD9124574 Si02
#       8
#     4   4   2   4   4   4   4   4
#     4  10  21  36  63  92 121 166 217 271 327 411
#     4  12  24  40  66  99 126 172 230 271 345 416
#     4  10  22  42  66  90 132 170 216 280 332 406
#     4  11  24  42  64  98 130 169 223 280 337 407
#     4  11  19  41  64  88 132 167 210 275 336 399
#     4  10  22  39  63  95 128 169 218 267 342 403
#     4  10  23  43  65  94 128 180 224 274 349 397
#     4  10  22  42  67  90 132 173 219 282 333 409
#
# _framework density 21.578305
#
# number of rings (size 3 to 8) (size 9 to 14) (size 15 to 20)
#    0.000    1.600    5.333    0.800    5.600    1.067 
#    2.400    0.667    0.000    0.000    0.000    0.000 
#    0.000    0.000    0.000    0.000    0.000    0.000 
#
# Total GULP energy -83533.823089 kJ/mol
# GULP energy per Si atom -5568.921539 kJ/mol
# Density = 2.152919 g / cm^3
# Si number density = 21.578305 Si / 1000 Ang^3
#
#
#
# Elastic Constant Matrix: (Units=GPa)
#
#
# Indices 1 2 3 4 5 6 
#
# 1 64.6641 8.5792 3.1188 0.0000 15.1261 0.0000
# 2 8.5792 40.4910 4.3695 0.0000 1.0867 0.0000
# 3 3.1188 4.3695 66.8368 0.0000 -4.4114 0.0000
# 4 0.0000 0.0000 0.0000 17.1211 0.0000 -7.9047
# 5 15.1261 1.0867 -4.4114 0.0000 38.1650 0.0000
# 6 0.0000 0.0000 0.0000 -7.9047 0.0000 18.7379
#
#
#
# Elastic Compliance Matrix: (Units=1/GPa)
#
#
# Indices 1 2 3 4 5 6 
#
# 1 0.017609 -0.003429 -0.001060 0.000000 -0.007004 0.000000
# 2 -0.003429 0.025571 -0.001481 0.000000 0.000460 0.000000
# 3 -0.001060 -0.001481 0.015255 0.000000 0.002225 0.000000
# 4 0.000000 0.000000 0.000000 0.072535 0.000000 0.030599
# 5 -0.007004 0.000460 0.002225 0.000000 0.029222 0.000000
# 6 0.000000 0.000000 0.000000 0.030599 0.000000 0.066276
#
#
# Mechanical properties :
#
#
# Convention : Reuss Voigt Hill
#
# Bulk Modulus (GPa) = 21.50763 22.68074 22.09419
# Shear Modulus (GPa) = 19.69239 25.19979 22.44609
#
# Velocity S-wave (km/s) = 3.02421 3.42106 3.22874
# Velocity P-wave (km/s) = 4.70992 5.11259 4.91538
#
# Compressibility (1/GPa) = 0.04649513
#
# Stress axis : x y z
#
# Youngs Moduli (GPa) = 56.78961 39.10710 65.55223
#
# Poissons Ratio (x) = 0.13408 0.06947
# Poissons Ratio (y) = 0.19471 0.09711
# Poissons Ratio (z) = 0.06019 0.05793
#
# Static dielectric constant tensor:
#      x y z
#    x -1.935450 0.000000 1.762410 
#    y 0.000000 1.873380 0.000000 
#    z 1.762410 0.000000 0.946870 
# 
# From -- ./inp_files/41950.got.cif
#   From: 2010.05.17/outbox.cif.g08.bks.cpg/sg5_21_cif.got.tgz:41950.got - 2010.06.03 18:56:24.
