data_PCOD9124169
_publ_section_title
;
Structure prediction by ZEFSAII (Michael W. Deem and Ramdas Pophale) SiO2 
 PCOD9124169
Probable space group: C 2
;
_chemical_formula_sum "Si O2"
_cell_formula_units_Z 16
_cell_length_a 7.253008
_cell_length_b 12.079537
_cell_length_c 8.502687
_cell_angle_alpha 90.000000
_cell_angle_beta 59.134709
_cell_angle_gamma 90.000000
_cell_volume 639.443423
_symmetry_space_group_name_H-M "C 2"
_symmetry_group_IT_number 5
_symmetry_cell_setting 'monoclinic'
loop_
_space_group_symop_operation_xyz
x,y,z
-x,y,-z
1/2+x,1/2+y,z
1/2-x,1/2+y,-z
loop_
_atom_site_type_symbol
_atom_site_label
_atom_site_fract_x
_atom_site_fract_y
_atom_site_fract_z
Si Si1 0.800059 0.347390 0.314275
Si Si2 0.860325 0.179586 0.837051
Si Si3 0.590699 0.307315 0.728834
Si Si4 0.500000 0.548901 0.500000
Si Si5 0.000000 0.005684 0.000000
O O1 0.757838 0.316555 0.514131
O O2 0.633936 0.292642 0.263321
O O3 0.705851 0.472443 0.363952
O O4 0.031335 0.298627 0.168823
O O5 0.661417 0.211183 0.814628
O O6 0.028415 0.120185 0.644065
O O7 0.837011 0.091513 0.986736
O O8 0.584184 0.421047 0.830764
#
# Coordination Sequence:
#
# PCOD9124169 Si02
#       5
#     4   4   4   2   2
#     4  10  21  45  69  95 124 171 233 258 300 408
#     4  12  23  44  68  93 136 175 204 274 332 364
#     4  10  23  44  65  98 131 165 226 264 309 403
#     4  10  20  42  66  96 126 162 226 264 298 394
#     4  12  26  42  64 102 140 162 210 276 330 382
#
# _framework density 25.021761000000001
#
# number of rings (size 3 to 8) (size 9 to 14) (size 15 to 20)
#    0.000    1.500    7.500    0.000    3.500    0.000 
#    4.500    5.000    0.000    0.000    0.000    0.000 
#    0.000    0.000    0.000    0.000    0.000    0.000 
#
# Total GULP energy -44603.861945 kJ/mol
# GULP energy per Si atom -5575.482743 kJ/mol
# Density = 2.496481 g / cm^3
# Si number density = 25.021761 Si / 1000 Ang^3
#
#
#
# Elastic Constant Matrix: (Units=GPa)
#
#
# Indices 1 2 3 4 5 6 
#
# 1 91.5665 33.3005 36.0848 0.0000 43.2402 0.0000
# 2 33.3005 140.4355 54.3834 0.0000 15.5958 0.0000
# 3 36.0848 54.3834 117.0252 0.0000 26.1237 0.0000
# 4 0.0000 0.0000 0.0000 1.5390 0.0000 -3.8547
# 5 43.2402 15.5958 26.1237 0.0000 35.5979 0.0000
# 6 0.0000 0.0000 0.0000 -3.8547 0.0000 33.6893
#
#
#
# Elastic Compliance Matrix: (Units=1/GPa)
#
#
# Indices 1 2 3 4 5 6 
#
# 1 0.026667 -0.002892 0.000083 0.000000 -0.031186 0.000000
# 2 -0.002892 0.009027 -0.003833 0.000000 0.002371 0.000000
# 3 0.000083 -0.003833 0.011897 0.000000 -0.007153 0.000000
# 4 0.000000 0.000000 0.000000 0.910805 0.000000 0.104214
# 5 -0.031186 0.002371 -0.007153 0.000000 0.070182 0.000000
# 6 0.000000 0.000000 0.000000 0.104214 0.000000 0.041607
#
#
# Mechanical properties :
#
#
# Convention : Reuss Voigt Hill
#
# Bulk Modulus (GPa) = 29.14780 66.28492 47.71636
# Shear Modulus (GPa) = 4.56660 29.18247 16.87454
#
# Velocity S-wave (km/s) = 1.35241 3.41879 2.59973
# Velocity P-wave (km/s) = 3.75672 6.49096 5.30309
#
# Compressibility (1/GPa) = 0.03430791
#
# Stress axis : x y z
#
# Youngs Moduli (GPa) = 37.49974 110.77391 84.05242
#
# Poissons Ratio (x) = 0.32038 -0.00697
# Poissons Ratio (y) = 0.10846 0.32214
# Poissons Ratio (z) = -0.00311 0.42455
#
# Static dielectric constant tensor:
#      x y z
#    x 1.991310 0.000000 -0.021090 
#    y 0.000000 2.004510 0.000000 
#    z -0.021090 0.000000 2.027260 
# 
# From -- ./inp_files/13925.got.cif
#   From: 2010.05.17/outbox.cif.g08.bks.cpg/sg5_7_cif.got.tgz:13925.got - 2010.06.03 18:56:24.
