data_PCOD9124552
_publ_section_title
;
Structure prediction by ZEFSAII (Michael W. Deem and Ramdas Pophale) SiO2 
 PCOD9124552
Probable space group: C 2
;
_chemical_formula_sum "Si O2"
_cell_formula_units_Z 32
_cell_length_a 11.900461
_cell_length_b 14.687267
_cell_length_c 14.520133
_cell_angle_alpha 90.000000
_cell_angle_beta 42.680492
_cell_angle_gamma 90.000000
_cell_volume 1720.469709
_symmetry_space_group_name_H-M "C 2"
_symmetry_group_IT_number 5
_symmetry_cell_setting 'monoclinic'
loop_
_space_group_symop_operation_xyz
x,y,z
-x,y,-z
1/2+x,1/2+y,z
1/2-x,1/2+y,-z
loop_
_atom_site_type_symbol
_atom_site_label
_atom_site_fract_x
_atom_site_fract_y
_atom_site_fract_z
Si Si1 0.541084 0.149160 0.723281
Si Si2 0.126794 0.519021 0.302170
Si Si3 0.235431 0.469990 0.426157
Si Si4 0.193157 0.213693 0.182373
Si Si5 0.412218 0.602167 0.454421
Si Si6 0.268470 0.399438 0.055164
Si Si7 0.106054 0.542839 0.023122
Si Si8 0.905921 0.817025 0.210185
O O1 0.426901 0.113257 0.710676
O O2 0.733743 0.147541 0.580936
O O3 0.513007 0.079068 0.824010
O O4 0.493259 0.247462 0.787305
O O5 0.212767 0.531935 0.348396
O O6 0.233585 0.459986 0.166908
O O7 0.950150 0.466524 0.420882
O O8 0.362716 0.514198 0.421874
O O9 0.291495 0.376105 0.346184
O O10 0.176857 0.302174 0.126505
O O11 0.305116 0.255684 0.197931
O O12 0.030356 0.170011 0.326045
O O13 0.286452 0.130152 0.075348
O O14 0.500000 0.581778 0.500000
O O15 0.207579 0.460659 0.006706
O O16 0.459735 0.377367 0.922591
O O17 0.000000 0.512529 0.000000
#
# Coordination Sequence:
#
# PCOD9124552 Si02
#       8
#     4   4   4   4   4   4   4   4
#     4  10  21  36  60  83 116 156 197 238 298 342
#     4   9  21  39  56  85 118 157 188 248 294 354
#     4  10  22  37  61  87 118 149 200 243 302 345
#     4  12  22  37  61  89 117 153 206 245 291 351
#     4  11  22  38  61  88 117 157 195 247 297 360
#     4  11  23  35  60  89 119 150 204 243 299 345
#     4  11  20  40  60  84 120 160 191 249 299 353
#     4  12  21  36  60  92 113 152 201 252 279 355
#
# _framework density 18.599571000000001
#
# number of rings (size 3 to 8) (size 9 to 14) (size 15 to 20)
#    0.000    1.250    5.000    1.125    1.750    0.000 
#    0.000    1.250    5.500    0.000    0.000    0.000 
#    0.000    0.000    0.000    0.000    0.000    0.000 
#
# Total GULP energy -89256.652295 kJ/mol
# GULP energy per Si atom -5578.540768 kJ/mol
# Density = 1.855724 g / cm^3
# Si number density = 18.599571 Si / 1000 Ang^3
#
#
#
# Elastic Constant Matrix: (Units=GPa)
#
#
# Indices 1 2 3 4 5 6 
#
# 1 94.9021 52.3488 18.3882 0.0000 12.5535 0.0000
# 2 52.3488 97.8825 36.0425 0.0000 2.8461 0.0000
# 3 18.3882 36.0425 91.9356 0.0000 -4.1103 0.0000
# 4 0.0000 0.0000 0.0000 35.4038 0.0000 8.1272
# 5 12.5535 2.8461 -4.1103 0.0000 24.2215 0.0000
# 6 0.0000 0.0000 0.0000 8.1272 0.0000 33.8852
#
#
#
# Elastic Compliance Matrix: (Units=1/GPa)
#
#
# Indices 1 2 3 4 5 6 
#
# 1 0.016172 -0.008319 -0.000306 0.000000 -0.007456 0.000000
# 2 -0.008319 0.016339 -0.004670 0.000000 0.001599 0.000000
# 3 -0.000306 -0.004670 0.012899 0.000000 0.002896 0.000000
# 4 0.000000 0.000000 0.000000 0.029891 0.000000 -0.007169
# 5 -0.007456 0.001599 0.002896 0.000000 0.045453 0.000000
# 6 0.000000 0.000000 0.000000 -0.007169 0.000000 0.031231
#
#
# Mechanical properties :
#
#
# Convention : Reuss Voigt Hill
#
# Bulk Modulus (GPa) = 53.14070 55.36434 54.25252
# Shear Modulus (GPa) = 27.04913 30.56482 28.80698
#
# Velocity S-wave (km/s) = 3.81765 4.05817 3.93975
# Velocity P-wave (km/s) = 6.93293 7.19649 7.06594
#
# Compressibility (1/GPa) = 0.01881797
#
# Stress axis : x y z
#
# Youngs Moduli (GPa) = 61.83614 61.20460 77.52678
#
# Poissons Ratio (x) = 0.50918 0.02375
# Poissons Ratio (y) = 0.51443 0.36205
# Poissons Ratio (z) = 0.01895 0.28582
#
# Static dielectric constant tensor:
#      x y z
#    x 1.658250 0.000000 0.016730 
#    y 0.000000 1.647610 0.000000 
#    z 0.016730 0.000000 1.672170 
# 
# From -- ./inp_files/53178.got.cif
#   From: 2010.05.17/outbox.cif.g08.bks.cpg/sg5_27_cif.got.tgz:53178.got - 2010.06.03 18:56:24.
