data_PCOD9124581
_publ_section_title
;
Structure prediction by ZEFSAII (Michael W. Deem and Ramdas Pophale) SiO2 
 PCOD9124581
Probable space group: C 2
;
_chemical_formula_sum "Si O2"
_cell_formula_units_Z 26
_cell_length_a 18.417384
_cell_length_b 12.975520
_cell_length_c 5.441617
_cell_angle_alpha 90.000000
_cell_angle_beta 55.999034
_cell_angle_gamma 90.000000
_cell_volume 1078.077446
_symmetry_space_group_name_H-M "C 2"
_symmetry_group_IT_number 5
_symmetry_cell_setting 'monoclinic'
loop_
_space_group_symop_operation_xyz
x,y,z
-x,y,-z
1/2+x,1/2+y,z
1/2-x,1/2+y,-z
loop_
_atom_site_type_symbol
_atom_site_label
_atom_site_fract_x
_atom_site_fract_y
_atom_site_fract_z
Si Si1 0.811810 0.616800 0.640459
Si Si2 0.095019 0.303027 0.884181
Si Si3 0.397924 0.722796 0.627529
Si Si4 0.833262 0.862358 0.596164
Si Si5 0.367594 0.523845 0.890302
Si Si6 0.343113 0.004599 0.097082
Si Si7 0.500000 0.454873 0.000000
O O1 0.820744 0.740049 0.631109
O O2 0.852836 0.580784 0.306381
O O3 0.715482 0.564878 0.807374
O O4 0.845089 0.562987 0.832282
O O5 0.138197 0.287032 0.534180
O O6 0.083065 0.418471 0.002535
O O7 0.139736 0.251611 0.033827
O O8 0.000000 0.256540 0.000000
O O9 0.500000 0.740133 0.500000
O O10 0.375106 0.602784 0.646031
O O11 0.856766 0.908196 0.818847
O O12 0.745291 0.931504 0.707846
O O13 0.917742 0.891265 0.267916
O O14 0.455157 0.525999 0.880125
#
# Coordination Sequence:
#
# PCOD9124581 Si02
#       7
#     4   4   4   4   4   4   2
#     4  11  26  45  72 102 139 189 243 294 371 429
#     4  10  22  40  65  99 137 184 234 293 352 425
#     4  10  21  36  64  99 134 171 226 288 356 411
#     4  11  26  45  72 106 149 187 248 300 376 435
#     4  11  25  44  69 108 141 190 240 307 364 436
#     4  11  24  46  70 102 141 191 238 302 357 442
#     4  12  24  46  74 102 156 190 250 310 364 436
#
# _framework density 24.117004000000001
#
# number of rings (size 3 to 8) (size 9 to 14) (size 15 to 20)
#    0.000    1.231    1.538    3.231    7.538    3.692 
#    1.385    0.000    0.000    0.000    0.000    0.000 
#    0.000    0.000    0.000    0.000    0.000    0.000 
#
# Total GULP energy -72501.751570 kJ/mol
# GULP energy per Si atom -5577.057813 kJ/mol
# Density = 2.406211 g / cm^3
# Si number density = 24.117004 Si / 1000 Ang^3
#
#
#
# Elastic Constant Matrix: (Units=GPa)
#
#
# Indices 1 2 3 4 5 6 
#
# 1 54.9700 43.1402 38.4517 0.0000 23.5929 0.0000
# 2 43.1402 153.1134 34.2340 0.0000 37.0784 0.0000
# 3 38.4517 34.2340 79.8737 0.0000 37.2264 0.0000
# 4 0.0000 0.0000 0.0000 43.6016 0.0000 8.8368
# 5 23.5929 37.0784 37.2264 0.0000 51.2291 0.0000
# 6 0.0000 0.0000 0.0000 8.8368 0.0000 22.4256
#
#
#
# Elastic Compliance Matrix: (Units=1/GPa)
#
#
# Indices 1 2 3 4 5 6 
#
# 1 0.032009 -0.005908 -0.012096 0.000000 -0.001675 0.000000
# 2 -0.005908 0.009073 0.001131 0.000000 -0.004668 0.000000
# 3 -0.012096 0.001131 0.023655 0.000000 -0.012437 0.000000
# 4 0.000000 0.000000 0.000000 0.024926 0.000000 -0.009822
# 5 -0.001675 -0.004668 -0.012437 0.000000 0.032708 0.000000
# 6 0.000000 0.000000 0.000000 -0.009822 0.000000 0.048462
#
#
# Mechanical properties :
#
#
# Convention : Reuss Voigt Hill
#
# Bulk Modulus (GPa) = 32.26897 57.73433 45.00165
# Shear Modulus (GPa) = 23.26563 34.92665 29.09614
#
# Velocity S-wave (km/s) = 3.10933 3.80967 3.47718
# Velocity P-wave (km/s) = 5.12833 6.58352 5.90095
#
# Compressibility (1/GPa) = 0.03098952
#
# Stress axis : x y z
#
# Youngs Moduli (GPa) = 31.24132 110.21299 42.27513
#
# Poissons Ratio (x) = 0.65119 0.51137
# Poissons Ratio (y) = 0.18459 -0.04782
# Poissons Ratio (z) = 0.37790 -0.12466
#
# Static dielectric constant tensor:
#      x y z
#    x 2.007870 0.000000 -0.010110 
#    y 0.000000 1.993190 0.000000 
#    z -0.010110 0.000000 2.126660 
# 
# From -- ./inp_files/9517.got.cif
#   From: 2010.05.17/outbox.cif.g08.bks.cpg/sg5_5_cif.got.tgz:9517.got - 2010.06.03 18:56:24.
