data_PCOD9124564
_publ_section_title
;
Structure prediction by ZEFSAII (Michael W. Deem and Ramdas Pophale) SiO2 
 PCOD9124564
Probable space group: C 2
;
_chemical_formula_sum "Si O2"
_cell_formula_units_Z 24
_cell_length_a 20.607303
_cell_length_b 5.259291
_cell_length_c 15.637436
_cell_angle_alpha 90.000000
_cell_angle_beta 34.145973
_cell_angle_gamma 90.000000
_cell_volume 951.286749
_symmetry_space_group_name_H-M "C 2"
_symmetry_group_IT_number 5
_symmetry_cell_setting 'monoclinic'
loop_
_space_group_symop_operation_xyz
x,y,z
-x,y,-z
1/2+x,1/2+y,z
1/2-x,1/2+y,-z
loop_
_atom_site_type_symbol
_atom_site_label
_atom_site_fract_x
_atom_site_fract_y
_atom_site_fract_z
Si Si1 0.759090 0.382250 0.686427
Si Si2 0.568299 0.297959 0.228827
Si Si3 0.675986 0.246275 0.605840
Si Si4 0.106429 0.226699 0.940811
Si Si5 0.514666 0.813156 0.383344
Si Si6 0.665462 0.224901 0.956234
O O1 0.668979 0.267488 0.717002
O O2 0.880090 0.363748 0.507693
O O3 0.716377 0.664236 0.759779
O O4 0.761108 0.243190 0.776711
O O5 0.449221 0.254213 0.303953
O O6 0.558787 0.564525 0.287249
O O7 0.672706 0.289021 0.047278
O O8 0.579763 0.068212 0.283407
O O9 0.749086 0.494781 0.496584
O O10 0.124824 0.437119 0.991786
O O11 0.085496 0.952478 0.006221
O O12 0.000000 0.306203 0.000000
O O13 0.500000 0.782332 0.500000
#
# Coordination Sequence:
#
# PCOD9124564 Si02
#       6
#     4   4   4   4   4   4
#     4  10  25  42  66 101 135 177 220 269 344 400
#     4  12  24  46  66 104 132 176 226 284 337 406
#     4  12  23  37  65 102 140 168 217 280 337 412
#     4  10  21  36  61  95 136 178 209 257 335 407
#     4  12  27  48  71  94 134 183 236 282 339 389
#     4  10  24  39  65  94 138 171 222 266 332 412
#
# _framework density 25.228985000000002
#
# number of rings (size 3 to 8) (size 9 to 14) (size 15 to 20)
#    1.000    0.000    3.333    3.000    7.000    0.000 
#    0.000    1.667    0.000    0.000    0.000    0.000 
#    0.000    0.000    0.000    0.000    0.000    0.000 
#
# Total GULP energy -67044.520719 kJ/mol
# GULP energy per Si atom -5587.043393 kJ/mol
# Density = 2.517156 g / cm^3
# Si number density = 25.228985 Si / 1000 Ang^3
#
#
#
# Elastic Constant Matrix: (Units=GPa)
#
#
# Indices 1 2 3 4 5 6 
#
# 1 76.3044 19.4298 36.0544 -0.0237 17.7912 0.0188
# 2 19.4298 165.4919 78.5297 -0.0385 12.2502 0.0501
# 3 36.0544 78.5297 133.9821 -0.0464 38.4971 0.0489
# 4 -0.0237 -0.0385 -0.0464 37.6170 0.0277 17.4860
# 5 17.7912 12.2502 38.4971 0.0277 38.7623 -0.0318
# 6 0.0188 0.0501 0.0489 17.4860 -0.0318 32.4933
#
#
#
# Elastic Compliance Matrix: (Units=1/GPa)
#
#
# Indices 1 2 3 4 5 6 
#
# 1 0.015480 -0.000143 -0.002874 0.000018 -0.004206 -0.000018
# 2 -0.000143 0.008650 -0.005968 -0.000001 0.003259 -0.000001
# 3 -0.002874 -0.005968 0.015132 0.000040 -0.011824 -0.000045
# 4 0.000018 -0.000001 0.000040 0.035452 -0.000089 -0.019079
# 5 -0.004206 0.003259 -0.011824 -0.000089 0.038442 0.000101
# 6 -0.000018 -0.000001 -0.000045 -0.019079 0.000101 0.041043
#
#
# Mechanical properties :
#
#
# Convention : Reuss Voigt Hill
#
# Bulk Modulus (GPa) = 46.96084 71.53404 59.24744
# Shear Modulus (GPa) = 27.89152 37.89214 32.89183
#
# Velocity S-wave (km/s) = 3.32857 3.87968 3.61464
# Velocity P-wave (km/s) = 5.78158 6.96309 6.39966
#
# Compressibility (1/GPa) = 0.02129434
#
# Stress axis : x y z
#
# Youngs Moduli (GPa) = 64.59853 115.60640 66.08382
#
# Poissons Ratio (x) = 0.01648 0.18990
# Poissons Ratio (y) = 0.00921 0.39439
# Poissons Ratio (z) = 0.18563 0.68994
#
# Static dielectric constant tensor:
#      x y z
#    x 2.083930 -0.000010 -0.074080 
#    y -0.000010 1.922680 0.000000 
#    z -0.074080 0.000000 2.071240 
# 
# From -- ./inp_files/57374.got.cif
#   From: 2010.05.17/outbox.cif.g08.bks.cpg/sg5_29_cif.got.tgz:57374.got - 2010.06.03 18:56:24.
