data_PCOD9124437
_publ_section_title
;
Structure prediction by ZEFSAII (Michael W. Deem and Ramdas Pophale) SiO2 
 PCOD9124437
Probable space group: C 2
;
_chemical_formula_sum "Si O2"
_cell_formula_units_Z 28
_cell_length_a 31.780908
_cell_length_b 6.961039
_cell_length_c 5.201831
_cell_angle_alpha 90.000000
_cell_angle_beta 82.975230
_cell_angle_gamma 90.000000
_cell_volume 1142.152835
_symmetry_space_group_name_H-M "C 2"
_symmetry_group_IT_number 5
_symmetry_cell_setting 'monoclinic'
loop_
_space_group_symop_operation_xyz
x,y,z
-x,y,-z
1/2+x,1/2+y,z
1/2-x,1/2+y,-z
loop_
_atom_site_type_symbol
_atom_site_label
_atom_site_fract_x
_atom_site_fract_y
_atom_site_fract_z
Si Si1 0.216863 0.376170 0.166338
Si Si2 0.954678 0.397847 0.434262
Si Si3 0.599970 0.344961 0.993145
Si Si4 0.191609 0.736101 0.878054
Si Si5 0.323285 0.835036 0.302797
Si Si6 0.451638 0.361750 0.471409
Si Si7 0.409796 0.880889 0.972756
O O1 0.265308 0.348027 0.211367
O O2 0.188121 0.273424 0.403306
O O3 0.200806 0.592514 0.113448
O O4 0.210645 0.281373 0.889981
O O5 0.953762 0.629515 0.447800
O O6 0.946873 0.339883 0.147810
O O7 0.000000 0.335726 0.500000
O O8 0.919977 0.334328 0.671059
O O9 0.650533 0.368687 0.936775
O O10 0.571984 0.417261 0.774496
O O11 0.595984 0.111922 0.011196
O O12 0.578396 0.415259 0.269283
O O13 0.180835 0.569669 0.678784
O O14 0.368196 0.795523 0.137845
O O15 0.500000 0.420432 0.500000
#
# Coordination Sequence:
#
# PCOD9124437 Si02
#       7
#     4   4   4   4   4   4   4
#     4  10  21  33  52  69  98 127 177 210 247 299
#     4   9  15  21  34  53  80 114 152 187 221 278
#     4   9  17  25  43  59  91 122 160 187 237 293
#     4   9  22  33  52  73  99 135 172 206 254 292
#     4   9  20  30  49  66  92 128 167 204 243 288
#     4   9  16  25  38  60  88 124 156 185 231 295
#     4   9  15  25  36  54  82 114 156 187 223 283
#
# _framework density 24.515108000000001
#
# number of rings (size 3 to 8) (size 9 to 14) (size 15 to 20)
#    0.857    2.000    0.000    1.714    8.000    3.429 
#    0.000    0.000    0.000    0.000    0.000    0.000 
#    0.000    0.000    0.000   27.000    0.857    6.000 
#
# Total GULP energy -78104.434338 kJ/mol
# GULP energy per Si atom -5578.888167 kJ/mol
# Density = 2.445931 g / cm^3
# Si number density = 24.515108 Si / 1000 Ang^3
#
#
#
# Elastic Constant Matrix: (Units=GPa)
#
#
# Indices 1 2 3 4 5 6 
#
# 1 93.7563 -2.5134 -9.1495 0.0000 -14.6173 0.0000
# 2 -2.5134 85.9424 -14.3653 0.0000 6.4285 0.0000
# 3 -9.1495 -14.3653 109.3655 0.0000 2.5287 0.0000
# 4 0.0000 0.0000 0.0000 -22.4891 0.0000 -6.4092
# 5 -14.6173 6.4285 2.5287 0.0000 24.7334 0.0000
# 6 0.0000 0.0000 0.0000 -6.4092 0.0000 -17.8596
#
#
#
# Elastic Compliance Matrix: (Units=1/GPa)
#
#
# Indices 1 2 3 4 5 6 
#
# 1 0.011823 -0.000033 0.000825 0.000000 0.006912 0.000000
# 2 -0.000033 0.012165 0.001673 0.000000 -0.003353 0.000000
# 3 0.000825 0.001673 0.009453 0.000000 -0.000914 0.000000
# 4 0.000000 0.000000 0.000000 -0.049532 0.000000 0.017775
# 5 0.006912 -0.003353 -0.000914 0.000000 0.045481 0.000000
# 6 0.000000 0.000000 0.000000 0.017775 0.000000 -0.062371
#
#
# Mechanical properties :
#
#
# Convention : Reuss Voigt Hill
#
# Bulk Modulus (GPa) = 26.06194 26.33421 26.19807
# Shear Modulus (GPa) = -199.04906 17.88312 -90.58297
#
# Velocity S-wave (km/s) = -9.02057 2.70381 -6.08523
# Velocity P-wave (km/s) = 9.89142 4.52910 6.21802
#
# Compressibility (1/GPa) = 0.03837013
#
# Stress axis : x y z
#
# Youngs Moduli (GPa) = 84.57983 82.20257 105.78106
#
# Poissons Ratio (x) = 0.00274 -0.08726
# Poissons Ratio (y) = 0.00282 -0.17693
# Poissons Ratio (z) = -0.06977 -0.13749
#
# Static dielectric constant tensor:
#      x y z
#    x 1.942760 0.000000 -0.021180 
#    y 0.000000 2.038820 0.000000 
#    z -0.021180 0.000000 1.913020 
# 
# From -- ./inp_files/10847.got.cif
#   From: 2010.05.17/outbox.cif.g08.bks.cpg/sg5_6_cif.got.tgz:10847.got - 2010.06.03 18:56:24.
