data_PCOD9124349
_publ_section_title
;
Structure prediction by ZEFSAII (Michael W. Deem and Ramdas Pophale) SiO2 
 PCOD9124349
Probable space group: C 2
;
_chemical_formula_sum "Si O2"
_cell_formula_units_Z 28
_cell_length_a 17.275254
_cell_length_b 5.331512
_cell_length_c 13.044121
_cell_angle_alpha 90.000000
_cell_angle_beta 72.520555
_cell_angle_gamma 90.000000
_cell_volume 1145.930417
_symmetry_space_group_name_H-M "C 2"
_symmetry_group_IT_number 5
_symmetry_cell_setting 'monoclinic'
loop_
_space_group_symop_operation_xyz
x,y,z
-x,y,-z
1/2+x,1/2+y,z
1/2-x,1/2+y,-z
loop_
_atom_site_type_symbol
_atom_site_label
_atom_site_fract_x
_atom_site_fract_y
_atom_site_fract_z
Si Si1 0.691567 0.174860 0.406222
Si Si2 0.931795 0.071372 0.967486
Si Si3 0.451380 0.473914 0.620169
Si Si4 0.108786 0.369025 0.217100
Si Si5 0.760294 0.093012 0.060750
Si Si6 0.029534 0.741547 0.778436
Si Si7 0.703787 0.173704 0.643956
O O1 0.605588 0.236117 0.385650
O O2 0.676233 0.173826 0.535158
O O3 0.747925 0.415477 0.359738
O O4 0.741634 0.922104 0.364958
O O5 0.850828 0.039341 0.066619
O O6 0.985642 0.847304 0.897602
O O7 0.892820 0.192215 0.882474
O O8 0.000000 0.228956 0.000000
O O9 0.500000 0.546251 0.500000
O O10 0.393818 0.692899 0.684061
O O11 0.512741 0.430148 0.690076
O O12 0.024122 0.509958 0.237167
O O13 0.187170 0.542975 0.168896
O O14 0.749078 0.876005 0.977942
O O15 0.123795 0.683874 0.745628
#
# Coordination Sequence:
#
# PCOD9124349 Si02
#       7
#     4   4   4   4   4   4   4
#     4  10  23  43  62  97 133 185 224 281 344 402
#     4  10  23  43  67  98 135 173 227 288 356 411
#     4  11  24  42  68 100 139 186 239 283 343 415
#     4  10  24  41  69 101 137 186 235 287 348 426
#     4  10  20  44  69  95 136 179 220 284 345 412
#     4  11  23  43  66  99 134 181 234 286 348 416
#     4  10  23  41  68  91 139 175 229 284 341 407
#
# _framework density 24.434296
#
# number of rings (size 3 to 8) (size 9 to 14) (size 15 to 20)
#    0.000    1.714    2.857    0.000    6.000    3.429 
#    0.000    0.000    0.000    0.000    0.000    0.000 
#    0.000    0.000    0.000    0.000    0.000    0.000 
#
# Total GULP energy -78239.696960 kJ/mol
# GULP energy per Si atom -5588.549783 kJ/mol
# Density = 2.437868 g / cm^3
# Si number density = 24.434296 Si / 1000 Ang^3
#
#
#
# Elastic Constant Matrix: (Units=GPa)
#
#
# Indices 1 2 3 4 5 6 
#
# 1 100.2607 6.1809 33.8486 0.0000 -21.9519 0.0000
# 2 6.1809 90.1882 18.8916 0.0000 -6.8360 0.0000
# 3 33.8486 18.8916 88.0312 0.0000 -6.4542 0.0000
# 4 0.0000 0.0000 0.0000 21.3092 0.0000 -4.0078
# 5 -21.9519 -6.8360 -6.4542 0.0000 35.3430 0.0000
# 6 0.0000 0.0000 0.0000 -4.0078 0.0000 27.4642
#
#
#
# Elastic Compliance Matrix: (Units=1/GPa)
#
#
# Indices 1 2 3 4 5 6 
#
# 1 0.013128 0.000635 -0.004639 0.000000 0.007429 0.000000
# 2 0.000635 0.011757 -0.002606 0.000000 0.002193 0.000000
# 3 -0.004639 -0.002606 0.013637 0.000000 -0.000895 0.000000
# 4 0.000000 0.000000 0.000000 0.048252 0.000000 0.007041
# 5 0.007429 0.002193 -0.000895 0.000000 0.033169 0.000000
# 6 0.000000 0.000000 0.000000 0.007041 0.000000 0.037439
#
#
# Mechanical properties :
#
#
# Convention : Reuss Voigt Hill
#
# Bulk Modulus (GPa) = 39.52511 44.03579 41.78045
# Shear Modulus (GPa) = 27.92730 31.46055 29.69393
#
# Velocity S-wave (km/s) = 3.38443 3.59215 3.48983
# Velocity P-wave (km/s) = 5.61103 5.93851 5.77709
#
# Compressibility (1/GPa) = 0.02530037
#
# Stress axis : x y z
#
# Youngs Moduli (GPa) = 76.17433 85.05898 73.32901
#
# Poissons Ratio (x) = -0.05403 0.34020
# Poissons Ratio (y) = -0.04839 0.19113
# Poissons Ratio (z) = 0.35340 0.22170
#
# Static dielectric constant tensor:
#      x y z
#    x 1.974780 0.000000 0.057380 
#    y 0.000000 1.991560 0.000000 
#    z 0.057380 0.000000 2.032470 
# 
# From -- ./inp_files/55402.got.cif
#   From: 2010.05.17/outbox.cif.g08.bks.cpg/sg5_28_cif.got.tgz:55402.got - 2010.06.03 18:56:24.
