data_PCOD9124685
_publ_section_title
;
Structure prediction by ZEFSAII (Michael W. Deem and Ramdas Pophale) SiO2 
 PCOD9124685
Probable space group: C 2
;
_chemical_formula_sum "Si O2"
_cell_formula_units_Z 32
_cell_length_a 21.808251
_cell_length_b 9.437320
_cell_length_c 28.674764
_cell_angle_alpha 90.000000
_cell_angle_beta 16.605194
_cell_angle_gamma 90.000000
_cell_volume 1686.529606
_symmetry_space_group_name_H-M "C 2"
_symmetry_group_IT_number 5
_symmetry_cell_setting 'monoclinic'
loop_
_space_group_symop_operation_xyz
x,y,z
-x,y,-z
1/2+x,1/2+y,z
1/2-x,1/2+y,-z
loop_
_atom_site_type_symbol
_atom_site_label
_atom_site_fract_x
_atom_site_fract_y
_atom_site_fract_z
Si Si1 0.059196 0.407260 0.240886
Si Si2 0.521681 0.628425 0.213189
Si Si3 0.003898 0.681564 0.768728
Si Si4 0.855959 0.316122 0.651725
Si Si5 0.501686 0.527060 0.943198
Si Si6 0.042282 0.591406 0.841147
Si Si7 0.802976 0.385481 0.517931
Si Si8 0.961214 0.268522 0.897824
O O1 0.983374 0.259571 0.275545
O O2 0.053026 0.523741 0.204910
O O3 0.912635 0.442021 0.391750
O O4 0.304493 0.418882 0.078322
O O5 0.358467 0.501913 0.343212
O O6 0.473202 0.679616 0.195747
O O7 0.779958 0.604348 0.032642
O O8 0.103227 0.663670 0.747285
O O9 0.153556 0.748461 0.620551
O O10 0.794735 0.779947 0.924404
O O11 0.703779 0.450505 0.772488
O O12 0.694514 0.179652 0.765586
O O13 0.000000 0.325696 0.500000
O O14 0.017029 0.327468 0.577925
O O15 0.476888 0.673630 0.932899
O O16 0.500000 0.551554 0.000000
O O17 0.073105 0.421362 0.819911
#
# Coordination Sequence:
#
# PCOD9124685 Si02
#       8
#     4   4   4   4   4   4   4   4
#     4  11  22  40  66  93 132 171 217 272 334 395
#     4  11  22  39  66  99 127 168 228 278 324 388
#     4  10  21  37  63  94 124 159 219 278 321 373
#     4  12  24  40  67  96 131 173 221 268 328 403
#     4  11  23  44  65  94 132 180 216 264 341 409
#     4  11  21  40  65  95 124 170 223 273 324 389
#     4  12  23  39  62  97 133 168 213 275 331 392
#     4  10  22  39  67  90 124 172 222 271 319 398
#
# _framework density 18.973873999999999
#
# number of rings (size 3 to 8) (size 9 to 14) (size 15 to 20)
#    0.000    1.000    6.250    1.500    0.000    0.000 
#    0.000    5.000    0.000    0.000    0.000    0.000 
#    0.000    0.000    0.000    0.000    0.000    0.000 
#
# Total GULP energy -89108.668257 kJ/mol
# GULP energy per Si atom -5569.291766 kJ/mol
# Density = 1.893069 g / cm^3
# Si number density = 18.973874 Si / 1000 Ang^3
#
#
#
# Elastic Constant Matrix: (Units=GPa)
#
#
# Indices 1 2 3 4 5 6 
#
# 1 89.1827 37.2146 19.7931 -0.0046 0.6713 0.0052
# 2 37.2146 95.5132 26.9172 0.0089 -5.9382 -0.0018
# 3 19.7931 26.9172 80.3870 -0.0194 8.4532 0.0319
# 4 -0.0046 0.0089 -0.0194 30.7431 0.0020 6.2395
# 5 0.6713 -5.9382 8.4532 0.0020 20.0714 0.0017
# 6 0.0052 -0.0018 0.0319 6.2395 0.0017 19.1567
#
#
#
# Elastic Compliance Matrix: (Units=1/GPa)
#
#
# Indices 1 2 3 4 5 6 
#
# 1 0.013636 -0.004949 -0.001568 0.000003 -0.001260 -0.000002
# 2 -0.004949 0.013919 -0.004073 -0.000010 0.005999 0.000012
# 3 -0.001568 -0.004073 0.014974 0.000017 -0.007459 -0.000030
# 4 0.000003 -0.000010 0.000017 0.034830 -0.000013 -0.011344
# 5 -0.001260 0.005999 -0.007459 -0.000013 0.054780 0.000013
# 6 -0.000002 0.000012 -0.000030 -0.011344 0.000013 0.055896
#
#
# Mechanical properties :
#
#
# Convention : Reuss Voigt Hill
#
# Bulk Modulus (GPa) = 46.84104 48.10365 47.47234
# Shear Modulus (GPa) = 23.11272 26.07143 24.59208
#
# Velocity S-wave (km/s) = 3.49396 3.71087 3.60405
# Velocity P-wave (km/s) = 6.40451 6.61576 6.51099
#
# Compressibility (1/GPa) = 0.02134880
#
# Stress axis : x y z
#
# Youngs Moduli (GPa) = 73.33714 71.84452 66.78263
#
# Poissons Ratio (x) = 0.35559 0.10469
# Poissons Ratio (y) = 0.36297 0.27200
# Poissons Ratio (z) = 0.11496 0.29261
#
# Static dielectric constant tensor:
#      x y z
#    x 1.654640 -0.000010 -0.016970 
#    y -0.000010 1.660130 -0.000010 
#    z -0.016970 -0.000010 1.723930 
# 
# From -- ./inp_files/71090.got.cif
#   From: 2010.05.17/outbox.cif.g08.bks.cpg/sg5_36_cif.got.tgz:71090.got - 2010.06.03 18:56:24.
