data_PCOD9124630
_publ_section_title
;
Structure prediction by ZEFSAII (Michael W. Deem and Ramdas Pophale) SiO2 
 PCOD9124630
Probable space group: C 2
;
_chemical_formula_sum "Si O2"
_cell_formula_units_Z 28
_cell_length_a 9.281606
_cell_length_b 33.166322
_cell_length_c 5.133011
_cell_angle_alpha 90.000000
_cell_angle_beta 119.076704
_cell_angle_gamma 90.000000
_cell_volume 1380.985465
_symmetry_space_group_name_H-M "C 2"
_symmetry_group_IT_number 5
_symmetry_cell_setting 'monoclinic'
loop_
_space_group_symop_operation_xyz
x,y,z
-x,y,-z
1/2+x,1/2+y,z
1/2-x,1/2+y,-z
loop_
_atom_site_type_symbol
_atom_site_label
_atom_site_fract_x
_atom_site_fract_y
_atom_site_fract_z
Si Si1 0.700417 0.704060 0.664139
Si Si2 0.116329 0.920052 0.855661
Si Si3 0.302491 0.751230 0.840855
Si Si4 0.808943 0.068373 0.880735
Si Si5 0.388332 0.987656 0.153081
Si Si6 0.812711 0.614068 0.738848
Si Si7 0.885333 0.828709 0.147144
O O1 0.500000 0.701526 0.500000
O O2 0.752264 0.737085 0.493624
O O3 0.771939 0.660778 0.655504
O O4 0.753991 0.718324 0.996891
O O5 0.181891 0.874141 0.945723
O O6 0.000000 0.922508 0.500000
O O7 0.262676 0.951864 0.975801
O O8 0.000000 0.928601 0.000000
O O9 0.243328 0.793931 0.898725
O O10 0.500000 0.751491 0.000000
O O11 0.727629 0.088961 0.555851
O O12 0.712533 0.027704 0.863845
O O13 0.796264 0.098018 0.116715
O O14 0.000000 0.059502 0.000000
O O15 0.500000 0.976741 0.500000
O O16 0.500000 0.995941 0.000000
O O17 0.000000 0.609186 0.000000
O O18 0.000000 0.830482 0.500000
O O19 0.000000 0.819256 0.000000
#
# Coordination Sequence:
#
# PCOD9124630 Si02
#       7
#     4   4   4   4   4   4   4
#     4  10  21  38  59  86 120 161 204 248 303 366
#     4  10  22  42  65  91 125 166 205 245 302 372
#     4  10  21  37  59  86 120 159 203 251 299 358
#     4  12  25  43  66  89 122 167 204 244 305 374
#     4  12  25  42  65  95 127 158 201 258 305 354
#     4  12  25  42  64  93 124 157 205 262 306 353
#     4  10  21  38  61  88 121 158 201 250 299 357
#
# _framework density 20.275376999999999
#
# number of rings (size 3 to 8) (size 9 to 14) (size 15 to 20)
#    0.000    1.143    0.000    6.857    0.000    4.571 
#    0.000    2.143    0.000    0.000    0.000    0.000 
#    0.000    0.000    0.000    0.000    0.000    0.000 
#
# Total GULP energy -78312.509413 kJ/mol
# GULP energy per Si atom -5593.750672 kJ/mol
# Density = 2.022923 g / cm^3
# Si number density = 20.275377 Si / 1000 Ang^3
#
#
#
# Elastic Constant Matrix: (Units=GPa)
#
#
# Indices 1 2 3 4 5 6 
#
# 1 125.3092 79.2000 51.4874 0.0000 -23.6966 0.0000
# 2 79.2000 136.5801 43.4646 0.0000 1.0328 0.0000
# 3 51.4874 43.4646 87.9656 0.0000 -26.8556 0.0000
# 4 0.0000 0.0000 0.0000 31.8749 0.0000 -8.6335
# 5 -23.6966 1.0328 -26.8556 0.0000 32.4732 0.0000
# 6 0.0000 0.0000 0.0000 -8.6335 0.0000 39.3545
#
#
#
# Elastic Compliance Matrix: (Units=1/GPa)
#
#
# Indices 1 2 3 4 5 6 
#
# 1 0.016525 -0.009056 -0.001911 0.000000 0.010767 0.000000
# 2 -0.009056 0.014337 -0.005271 0.000000 -0.011423 0.000000
# 3 -0.001911 -0.005271 0.019687 0.000000 0.015055 0.000000
# 4 0.000000 0.000000 0.000000 0.033355 0.000000 0.007317
# 5 0.010767 -0.011423 0.015055 0.000000 0.051465 0.000000
# 6 0.000000 0.000000 0.000000 0.007317 0.000000 0.027015
#
#
# Mechanical properties :
#
#
# Convention : Reuss Voigt Hill
#
# Bulk Modulus (GPa) = 55.32884 77.57321 66.45103
# Shear Modulus (GPa) = 24.89006 32.45405 28.67205
#
# Velocity S-wave (km/s) = 3.50751 4.00517 3.76457
# Velocity P-wave (km/s) = 6.61449 7.72861 7.19315
#
# Compressibility (1/GPa) = 0.01807376
#
# Stress axis : x y z
#
# Youngs Moduli (GPa) = 60.51440 69.75049 50.79488
#
# Poissons Ratio (x) = 0.63165 0.09705
# Poissons Ratio (y) = 0.54801 0.26774
# Poissons Ratio (z) = 0.11562 0.36765
#
# Static dielectric constant tensor:
#      x y z
#    x 1.701810 0.000000 -0.000410 
#    y 0.000000 1.715410 0.000000 
#    z -0.000410 0.000000 1.699940 
# 
# From -- ./inp_files/3998.got.cif
#   From: 2010.05.17/outbox.cif.g08.bks.cpg/sg5_2_cif.got.tgz:3998.got - 2010.06.03 18:56:24.
