data_PCOD9124771
_publ_section_title
;
Structure prediction by ZEFSAII (Michael W. Deem and Ramdas Pophale) SiO2 
 PCOD9124771
Probable space group: C 2
;
_chemical_formula_sum "Si O2"
_cell_formula_units_Z 20
_cell_length_a 28.654836
_cell_length_b 5.679711
_cell_length_c 4.972215
_cell_angle_alpha 90.000000
_cell_angle_beta 103.381447
_cell_angle_gamma 90.000000
_cell_volume 787.263898
_symmetry_space_group_name_H-M "C 2"
_symmetry_group_IT_number 5
_symmetry_cell_setting 'monoclinic'
loop_
_space_group_symop_operation_xyz
x,y,z
-x,y,-z
1/2+x,1/2+y,z
1/2-x,1/2+y,-z
loop_
_atom_site_type_symbol
_atom_site_label
_atom_site_fract_x
_atom_site_fract_y
_atom_site_fract_z
Si Si1 0.753366 0.485220 0.155579
Si Si2 0.155940 0.916977 0.300055
Si Si3 0.449403 0.622375 0.857494
Si Si4 0.548620 0.933482 0.640738
Si Si5 0.850010 0.646463 0.220336
O O1 0.708415 0.518671 0.295070
O O2 0.809818 0.481621 0.302140
O O3 0.753421 0.731822 0.991807
O O4 0.156493 0.885946 0.620859
O O5 0.103774 0.022660 0.160069
O O6 0.154929 0.684466 0.104809
O O7 0.451466 0.704689 0.552681
O O8 0.500000 0.493199 0.000000
O O9 0.451497 0.850754 0.053576
O O10 0.500000 0.066944 0.500000
O O11 0.596876 0.067087 0.644414
#
# Coordination Sequence:
#
# PCOD9124771 Si02
#       5
#     4   4   4   4   4
#     4  10  24  46  70 100 136 178 224 276 334 398
#     4  11  24  40  63  94 128 171 220 274 333 395
#     4  10  21  38  61  89 125 171 220 273 332 395
#     4  10  21  38  61  89 125 171 220 273 332 395
#     4  11  24  40  63  94 128 171 220 274 333 395
#
# _framework density 25.404439
#
# number of rings (size 3 to 8) (size 9 to 14) (size 15 to 20)
#    0.000    1.600    0.000    3.600    0.000   12.800 
#    0.000    0.000    0.000    0.000    0.000    0.000 
#    0.000    0.000    0.000    0.000    0.000    0.000 
#
# Total GULP energy -55763.000630 kJ/mol
# GULP energy per Si atom -5576.300063 kJ/mol
# Density = 2.534662 g / cm^3
# Si number density = 25.404439 Si / 1000 Ang^3
#
#
#
# Elastic Constant Matrix: (Units=GPa)
#
#
# Indices 1 2 3 4 5 6 
#
# 1 252.9686 25.1923 12.2017 0.0000 -7.8543 0.0000
# 2 25.1923 52.5076 10.1835 0.0000 -10.9000 0.0000
# 3 12.2017 10.1835 69.9502 0.0000 -16.1597 0.0000
# 4 0.0000 0.0000 0.0000 20.8782 0.0000 1.6728
# 5 -7.8543 -10.9000 -16.1597 0.0000 30.6626 0.0000
# 6 0.0000 0.0000 0.0000 1.6728 0.0000 40.7722
#
#
#
# Elastic Compliance Matrix: (Units=1/GPa)
#
#
# Indices 1 2 3 4 5 6 
#
# 1 0.004166 -0.001881 -0.000411 0.000000 0.000182 0.000000
# 2 -0.001881 0.021548 -0.001310 0.000000 0.006488 0.000000
# 3 -0.000411 -0.001310 0.016426 0.000000 0.008086 0.000000
# 4 0.000000 0.000000 0.000000 0.048055 0.000000 -0.001972
# 5 0.000182 0.006488 0.008086 0.000000 0.039227 0.000000
# 6 0.000000 0.000000 0.000000 -0.001972 0.000000 0.024607
#
#
# Mechanical properties :
#
#
# Convention : Reuss Voigt Hill
#
# Bulk Modulus (GPa) = 28.62367 52.28681 40.45524
# Shear Modulus (GPa) = 28.92184 40.31919 34.62051
#
# Velocity S-wave (km/s) = 3.37776 3.98815 3.69558
# Velocity P-wave (km/s) = 5.14821 6.46789 5.84541
#
# Compressibility (1/GPa) = 0.03493612
#
# Stress axis : x y z
#
# Youngs Moduli (GPa) = 240.04573 46.40722 60.87808
#
# Poissons Ratio (x) = 0.08731 0.02501
# Poissons Ratio (y) = 0.45160 0.07976
# Poissons Ratio (z) = 0.09861 0.06080
#
# Static dielectric constant tensor:
#      x y z
#    x 2.131520 0.000000 0.080520 
#    y 0.000000 2.026000 0.000000 
#    z 0.080520 0.000000 1.994660 
# 
# From -- ./inp_files/3567.got.cif
#   From: 2010.05.17/outbox.cif.g08.bks.cpg/sg5_2_cif.got.tgz:3567.got - 2010.06.03 18:56:24.
