data_PCOD9124633
_publ_section_title
;
Structure prediction by ZEFSAII (Michael W. Deem and Ramdas Pophale) SiO2 
 PCOD9124633
Probable space group: C 2
;
_chemical_formula_sum "Si O2"
_cell_formula_units_Z 30
_cell_length_a 7.193164
_cell_length_b 33.501387
_cell_length_c 5.541770
_cell_angle_alpha 90.000000
_cell_angle_beta 104.354396
_cell_angle_gamma 90.000000
_cell_volume 1293.769083
_symmetry_space_group_name_H-M "C 2"
_symmetry_group_IT_number 5
_symmetry_cell_setting 'monoclinic'
loop_
_space_group_symop_operation_xyz
x,y,z
-x,y,-z
1/2+x,1/2+y,z
1/2-x,1/2+y,-z
loop_
_atom_site_type_symbol
_atom_site_label
_atom_site_fract_x
_atom_site_fract_y
_atom_site_fract_z
Si Si1 0.381413 0.136720 0.708615
Si Si2 0.298878 0.931238 0.061942
Si Si3 0.717618 0.520473 0.080691
Si Si4 0.263281 0.766959 0.929811
Si Si5 0.730129 0.725358 0.572168
Si Si6 0.720614 0.853293 0.171762
Si Si7 0.000000 0.376137 0.500000
Si Si8 0.722949 0.552331 0.585580
O O1 0.500000 0.131015 0.500000
O O2 0.285798 0.179722 0.641720
O O3 0.240638 0.098859 0.656352
O O4 0.500000 0.136000 0.000000
O O5 0.365485 0.906304 0.311835
O O6 0.206728 0.972746 0.102127
O O7 0.500000 0.942256 0.000000
O O8 0.195173 0.896940 0.864225
O O9 0.803884 0.540512 0.348247
O O10 0.500000 0.536911 0.000000
O O11 0.804546 0.529851 0.846122
O O12 0.206908 0.741546 0.672414
O O13 0.191880 0.812566 0.887433
O O14 0.500000 0.768287 0.000000
O O15 0.204461 0.749450 0.169311
O O16 0.500000 0.728269 0.500000
O O17 0.661908 0.848895 0.430120
O O18 0.500000 0.856307 0.000000
O O19 0.500000 0.540017 0.500000
#
# Coordination Sequence:
#
# PCOD9124633 Si02
#       8
#     4   4   4   4   4   4   2   4
#     4  12  25  42  63  90 118 152 188 235 297 355
#     4   9  19  31  50  81 116 154 189 234 291 335
#     4  10  22  39  60  84 113 151 193 237 285 338
#     4   9  18  30  54  85 113 148 194 241 279 330
#     4  10  21  37  59  87 116 150 192 238 287 343
#     4   8  16  27  47  78 116 147 189 238 290 319
#     4   8  16  28  46  78 114 156 174 244 286 334
#     4  10  23  43  63  85 114 152 193 240 288 344
#
# _framework density 23.188061000000001
#
# number of rings (size 3 to 8) (size 9 to 14) (size 15 to 20)
#    0.000    2.667    0.000    2.000   10.267    1.600 
#    0.000    5.333    0.000    2.400    0.000    0.000 
#    0.000    0.000    0.000    0.000    0.000    0.000 
#
# Total GULP energy -83603.171129 kJ/mol
# GULP energy per Si atom -5573.544742 kJ/mol
# Density = 2.313528 g / cm^3
# Si number density = 23.188061 Si / 1000 Ang^3
#
#
#
# Elastic Constant Matrix: (Units=GPa)
#
#
# Indices 1 2 3 4 5 6 
#
# 1 33.9638 -1.6275 36.1933 0.0000 5.0566 0.0000
# 2 -1.6275 166.6459 64.2786 0.0000 -7.4483 0.0000
# 3 36.1933 64.2786 171.9679 0.0000 -16.1903 0.0000
# 4 0.0000 0.0000 0.0000 44.7870 0.0000 -11.0220
# 5 5.0566 -7.4483 -16.1903 0.0000 30.0767 0.0000
# 6 0.0000 0.0000 0.0000 -11.0220 0.0000 30.0370
#
#
#
# Elastic Compliance Matrix: (Units=1/GPa)
#
#
# Indices 1 2 3 4 5 6 
#
# 1 0.044817 0.004635 -0.012394 0.000000 -0.013059 0.000000
# 2 0.004635 0.007494 -0.003872 0.000000 -0.001007 0.000000
# 3 -0.012394 -0.003872 0.010509 0.000000 0.006782 0.000000
# 4 0.000000 0.000000 0.000000 0.024544 0.000000 0.009006
# 5 -0.013059 -0.001007 0.006782 0.000000 0.038845 0.000000
# 6 0.000000 0.000000 0.000000 0.009006 0.000000 0.036597
#
#
# Mechanical properties :
#
#
# Convention : Reuss Voigt Hill
#
# Bulk Modulus (GPa) = 25.27890 63.36293 44.32091
# Shear Modulus (GPa) = 25.09331 39.22902 32.16117
#
# Velocity S-wave (km/s) = 3.29320 4.11758 3.72825
# Velocity P-wave (km/s) = 5.03841 7.07043 6.13908
#
# Compressibility (1/GPa) = 0.03955868
#
# Stress axis : x y z
#
# Youngs Moduli (GPa) = 22.31277 133.43439 95.15413
#
# Poissons Ratio (x) = -0.61844 1.17938
# Poissons Ratio (y) = -0.10341 0.36839
# Poissons Ratio (z) = 0.27655 0.51660
#
# Static dielectric constant tensor:
#      x y z
#    x 1.890280 0.000000 -0.047740 
#    y 0.000000 1.833130 0.000000 
#    z -0.047740 0.000000 2.125680 
# 
# From -- ./inp_files/3966.got.cif
#   From: 2010.05.17/outbox.cif.g08.bks.cpg/sg5_2_cif.got.tgz:3966.got - 2010.06.03 18:56:24.
