data_PCOD9124608
_publ_section_title
;
Structure prediction by ZEFSAII (Michael W. Deem and Ramdas Pophale) SiO2 
 PCOD9124608
Probable space group: C 2
;
_chemical_formula_sum "Si O2"
_cell_formula_units_Z 24
_cell_length_a 8.404743
_cell_length_b 16.394128
_cell_length_c 12.558872
_cell_angle_alpha 90.000000
_cell_angle_beta 34.956971
_cell_angle_gamma 90.000000
_cell_volume 991.490429
_symmetry_space_group_name_H-M "C 2"
_symmetry_group_IT_number 5
_symmetry_cell_setting 'monoclinic'
loop_
_space_group_symop_operation_xyz
x,y,z
-x,y,-z
1/2+x,1/2+y,z
1/2-x,1/2+y,-z
loop_
_atom_site_type_symbol
_atom_site_label
_atom_site_fract_x
_atom_site_fract_y
_atom_site_fract_z
Si Si1 0.810816 0.206300 0.875276
Si Si2 0.349835 0.156906 0.468935
Si Si3 0.173390 0.989447 0.514207
Si Si4 0.788933 0.821884 0.400271
Si Si5 0.799153 0.875570 0.010735
Si Si6 0.759651 0.038418 0.932641
O O1 0.822046 0.127757 0.946875
O O2 0.023337 0.178037 0.667953
O O3 0.500000 0.217958 0.000000
O O4 0.892575 0.295969 0.870269
O O5 0.500000 0.151667 0.500000
O O6 0.373982 0.068871 0.400009
O O7 0.432414 0.240174 0.366031
O O8 0.000000 0.989221 0.500000
O O9 0.000516 0.011101 0.717846
O O10 0.272032 0.896992 0.484694
O O11 0.500000 0.803002 0.500000
O O12 0.003050 0.853328 0.195476
O O13 0.674995 0.963577 0.053462
O O14 0.000000 0.887667 0.000000
O O15 0.500000 0.053723 0.000000
#
# Coordination Sequence:
#
# PCOD9124608 Si02
#       6
#     4   4   4   4   4   4
#     4   9  19  39  60  81 114 155 194 239 293 354
#     4  11  23  40  62  92 123 156 200 251 302 360
#     4  10  22  39  60  86 120 159 199 247 302 357
#     4  11  22  38  60  89 121 160 203 247 300 360
#     4  10  21  37  57  83 114 152 195 241 291 348
#     4   9  20  37  57  81 111 148 195 239 289 351
#
# _framework density 24.205983
#
# number of rings (size 3 to 8) (size 9 to 14) (size 15 to 20)
#    0.000    2.000    0.000    3.500    0.000    9.333 
#    0.000    5.833    0.000    0.000    0.000    0.000 
#    0.000    0.000    0.000    0.000    0.000    0.000 
#
# Total GULP energy -66948.487039 kJ/mol
# GULP energy per Si atom -5579.040587 kJ/mol
# Density = 2.415089 g / cm^3
# Si number density = 24.205983 Si / 1000 Ang^3
#
#
#
# Elastic Constant Matrix: (Units=GPa)
#
#
# Indices 1 2 3 4 5 6 
#
# 1 108.2639 77.4338 -17.6894 -0.0003 13.4159 0.0011
# 2 77.4338 248.5916 11.9671 -0.0330 35.2659 0.0119
# 3 -17.6894 11.9671 42.7589 -0.0438 0.9613 0.0327
# 4 -0.0003 -0.0330 -0.0438 45.2534 0.0174 5.3219
# 5 13.4159 35.2659 0.9613 0.0174 21.1220 -0.0089
# 6 0.0011 0.0119 0.0327 5.3219 -0.0089 50.7770
#
#
#
# Elastic Compliance Matrix: (Units=1/GPa)
#
#
# Indices 1 2 3 4 5 6 
#
# 1 0.013697 -0.004352 0.006924 0.000005 -0.001749 -0.000005
# 2 -0.004352 0.006725 -0.003496 0.000005 -0.008304 -0.000001
# 3 0.006924 -0.003496 0.027225 0.000026 0.000200 -0.000020
# 4 0.000005 0.000005 0.000026 0.022374 -0.000032 -0.002345
# 5 -0.001749 -0.008304 0.000200 -0.000032 0.062311 0.000016
# 6 -0.000005 -0.000001 -0.000020 -0.002345 0.000016 0.019940
#
#
# Mechanical properties :
#
#
# Convention : Reuss Voigt Hill
#
# Bulk Modulus (GPa) = 21.83409 60.33749 41.08579
# Shear Modulus (GPa) = 29.51851 45.29067 37.40459
#
# Velocity S-wave (km/s) = 3.49588 4.33026 3.93525
# Velocity P-wave (km/s) = 5.03335 7.06982 6.13665
#
# Compressibility (1/GPa) = 0.04579993
#
# Stress axis : x y z
#
# Youngs Moduli (GPa) = 73.00755 148.70940 36.73071
#
# Poissons Ratio (x) = 0.64714 -0.25432
# Poissons Ratio (y) = 0.31771 0.12840
# Poissons Ratio (z) = -0.50549 0.51983
#
# Static dielectric constant tensor:
#      x y z
#    x 1.843320 0.000000 0.024750 
#    y 0.000000 2.086410 0.000010 
#    z 0.024750 0.000010 2.028360 
# 
# From -- ./inp_files/15061.got.cif
#   From: 2010.05.17/outbox.cif.g08.bks.cpg/sg5_8_cif.got.tgz:15061.got - 2010.06.03 18:56:24.
