data_PCOD9124088
_publ_section_title
;
Structure prediction by ZEFSAII (Michael W. Deem and Ramdas Pophale) SiO2 
 PCOD9124088
Probable space group: C 2
;
_chemical_formula_sum "Si O2"
_cell_formula_units_Z 20
_cell_length_a 13.599346
_cell_length_b 7.175110
_cell_length_c 18.024408
_cell_angle_alpha 90.000000
_cell_angle_beta 148.694819
_cell_angle_gamma 90.000000
_cell_volume 913.847459
_symmetry_space_group_name_H-M "C 2"
_symmetry_group_IT_number 5
_symmetry_cell_setting 'monoclinic'
loop_
_space_group_symop_operation_xyz
x,y,z
-x,y,-z
1/2+x,1/2+y,z
1/2-x,1/2+y,-z
loop_
_atom_site_type_symbol
_atom_site_label
_atom_site_fract_x
_atom_site_fract_y
_atom_site_fract_z
Si Si1 0.967198 0.544340 0.062948
Si Si2 0.014603 0.428887 0.684470
Si Si3 0.883622 0.041655 0.635275
Si Si4 0.648363 0.255969 0.875845
Si Si5 0.622236 0.621036 0.651992
O O1 0.853388 0.686986 0.040998
O O2 0.175716 0.530254 0.231795
O O3 0.841574 0.359652 0.980760
O O4 0.000000 0.606678 0.000000
O O5 0.931297 0.257715 0.680042
O O6 0.834675 0.510619 0.523896
O O7 0.110458 0.582603 0.796989
O O8 0.143168 0.321078 0.706936
O O9 0.001922 0.005632 0.635119
O O10 0.974091 0.899778 0.751528
O O11 0.500000 0.642117 0.500000
#
# Coordination Sequence:
#
# PCOD9124088 Si02
#       5
#     4   4   4   4   4
#     4  12  27  51  73 109 155 202 257 315 375 456
#     4  10  21  42  78 110 150 198 246 313 385 440
#     4  10  20  41  76 109 153 188 250 316 373 451
#     4  12  26  48  74 111 155 205 249 321 379 444
#     4  10  22  45  74 110 157 185 253 325 358 461
#
# _framework density 21.885490999999998
#
# number of rings (size 3 to 8) (size 9 to 14) (size 15 to 20)
#    1.200    0.000    4.000    2.400    5.600    0.000 
#    3.600    3.000    0.000    0.000    0.000    0.000 
#    0.000    0.000    0.000    0.000    0.000    0.000 
#
# Total GULP energy -55858.955788 kJ/mol
# GULP energy per Si atom -5585.895579 kJ/mol
# Density = 2.183568 g / cm^3
# Si number density = 21.885491 Si / 1000 Ang^3
#
#
#
# Elastic Constant Matrix: (Units=GPa)
#
#
# Indices 1 2 3 4 5 6 
#
# 1 70.1972 28.2108 56.1920 0.0000 -3.8231 0.0000
# 2 28.2108 131.4618 83.1851 0.0000 -7.8504 0.0000
# 3 56.1920 83.1851 131.1495 0.0002 6.2466 0.0001
# 4 0.0000 0.0000 0.0002 58.4496 0.0000 0.5625
# 5 -3.8231 -7.8504 6.2466 0.0000 35.6586 0.0000
# 6 0.0000 0.0000 0.0001 0.5625 0.0000 24.0298
#
#
#
# Elastic Compliance Matrix: (Units=1/GPa)
#
#
# Indices 1 2 3 4 5 6 
#
# 1 0.022887 0.002940 -0.011918 0.000000 0.005189 0.000000
# 2 0.002940 0.013755 -0.010229 0.000000 0.005135 0.000000
# 3 -0.011918 -0.010229 0.019550 0.000000 -0.006954 0.000000
# 4 0.000000 0.000000 0.000000 0.017113 0.000000 -0.000401
# 5 0.005189 0.005135 -0.006954 0.000000 0.030949 0.000000
# 6 0.000000 0.000000 0.000000 -0.000401 0.000000 0.041624
#
#
# Mechanical properties :
#
#
# Convention : Reuss Voigt Hill
#
# Bulk Modulus (GPa) = 56.24736 74.22047 65.23392
# Shear Modulus (GPa) = 26.28578 34.64230 30.46404
#
# Velocity S-wave (km/s) = 3.46939 3.98287 3.73496
# Velocity P-wave (km/s) = 6.46571 7.42548 6.96215
#
# Compressibility (1/GPa) = 0.01777861
#
# Stress axis : x y z
#
# Youngs Moduli (GPa) = 43.69336 72.70139 51.15069
#
# Poissons Ratio (x) = -0.21372 0.60960
# Poissons Ratio (y) = -0.12844 0.52320
# Poissons Ratio (z) = 0.52073 0.74363
#
# Static dielectric constant tensor:
#      x y z
#    x 1.791130 0.000000 -0.013280 
#    y 0.000000 1.813740 0.000000 
#    z -0.013280 0.000000 1.812110 
# 
# From -- ./inp_files/61340.got.cif
#   From: 2010.05.17/outbox.cif.g08.bks.cpg/sg5_31_cif.got.tgz:61340.got - 2010.06.03 18:56:24.
