data_PCOD9124248
_publ_section_title
;
Structure prediction by ZEFSAII (Michael W. Deem and Ramdas Pophale) SiO2 
 PCOD9124248
Probable space group: C 2
;
_chemical_formula_sum "Si O2"
_cell_formula_units_Z 28
_cell_length_a 15.724994
_cell_length_b 6.172339
_cell_length_c 14.679638
_cell_angle_alpha 90.000000
_cell_angle_beta 115.720808
_cell_angle_gamma 90.000000
_cell_volume 1283.635082
_symmetry_space_group_name_H-M "C 2"
_symmetry_group_IT_number 5
_symmetry_cell_setting 'monoclinic'
loop_
_space_group_symop_operation_xyz
x,y,z
-x,y,-z
1/2+x,1/2+y,z
1/2-x,1/2+y,-z
loop_
_atom_site_type_symbol
_atom_site_label
_atom_site_fract_x
_atom_site_fract_y
_atom_site_fract_z
Si Si1 0.634558 0.764480 0.149712
Si Si2 0.479204 0.135323 0.823121
Si Si3 0.031861 0.689728 0.651831
Si Si4 0.000000 0.952836 0.000000
Si Si5 0.500000 0.820827 0.500000
Si Si6 0.204589 0.900688 0.315789
Si Si7 0.146348 0.967658 0.485917
Si Si8 0.201801 0.009599 0.705557
O O1 0.591678 0.605988 0.054441
O O2 0.673669 0.608637 0.245923
O O3 0.723011 0.927698 0.184124
O O4 0.547361 0.908187 0.144292
O O5 0.539595 0.116850 0.760297
O O6 0.382675 0.235323 0.737896
O O7 0.511047 0.300324 0.916647
O O8 0.102487 0.894438 0.678052
O O9 0.046683 0.485147 0.594005
O O10 0.930839 0.782048 0.570182
O O11 0.578151 0.671867 0.483202
O O12 0.284895 0.766222 0.300463
O O13 0.209492 0.966665 0.423847
O O14 0.213431 0.937687 0.604279
#
# Coordination Sequence:
#
# PCOD9124248 Si02
#       8
#     4   4   4   2   2   4   4   4
#     4  10  21  39  64  94 120 164 220 276 340 386
#     4   9  20  40  66  89 122 164 219 276 332 404
#     4  11  22  40  61  94 133 183 224 263 330 400
#     4  10  20  42  72  90 118 162 220 288 346 396
#     4  12  20  36  62  86 136 194 226 258 312 404
#     4   9  22  36  56  88 127 168 216 266 317 390
#     4  11  22  38  55  91 133 185 221 257 319 389
#     4  11  22  37  57  92 133 171 214 275 319 393
#
# _framework density 21.813051000000002
#
# number of rings (size 3 to 8) (size 9 to 14) (size 15 to 20)
#    0.000    1.714    2.857    1.286    4.000    0.000 
#    0.000    0.000   12.571    0.000    0.000    0.000 
#    0.000    0.000    0.000    0.000    0.000    0.000 
#
# Total GULP energy -77968.297575 kJ/mol
# GULP energy per Si atom -5569.164112 kJ/mol
# Density = 2.176340 g / cm^3
# Si number density = 21.813051 Si / 1000 Ang^3
#
#
#
# Elastic Constant Matrix: (Units=GPa)
#
#
# Indices 1 2 3 4 5 6 
#
# 1 44.2673 46.8035 27.4850 0.0000 2.4227 0.0000
# 2 46.8035 118.8976 47.2124 0.0000 -0.4439 0.0000
# 3 27.4850 47.2124 130.4480 0.0000 4.9068 0.0000
# 4 0.0000 0.0000 0.0000 39.1439 0.0000 15.7764
# 5 2.4227 -0.4439 4.9068 0.0000 28.1304 0.0000
# 6 0.0000 0.0000 0.0000 15.7764 0.0000 19.6521
#
#
#
# Elastic Compliance Matrix: (Units=1/GPa)
#
#
# Indices 1 2 3 4 5 6 
#
# 1 0.040061 -0.014571 -0.003049 0.000000 -0.003148 0.000000
# 2 -0.014571 0.015139 -0.002482 0.000000 0.001927 0.000000
# 3 -0.003049 -0.002482 0.009259 0.000000 -0.001392 0.000000
# 4 0.000000 0.000000 0.000000 0.037766 0.000000 -0.030318
# 5 -0.003148 0.001927 -0.001392 0.000000 0.036093 0.000000
# 6 0.000000 0.000000 0.000000 -0.030318 0.000000 0.075224
#
#
# Mechanical properties :
#
#
# Convention : Reuss Voigt Hill
#
# Bulk Modulus (GPa) = 41.22655 59.62385 50.42520
# Shear Modulus (GPa) = 19.09635 28.85941 23.97788
#
# Velocity S-wave (km/s) = 2.96202 3.64130 3.31908
# Velocity P-wave (km/s) = 5.53526 6.71358 6.15269
#
# Compressibility (1/GPa) = 0.02425621
#
# Stress axis : x y z
#
# Youngs Moduli (GPa) = 24.96183 66.05453 108.00607
#
# Poissons Ratio (x) = 0.96248 0.32928
# Poissons Ratio (y) = 0.36372 0.26802
# Poissons Ratio (z) = 0.07610 0.16392
#
# Static dielectric constant tensor:
#      x y z
#    x 1.879070 0.000000 0.018040 
#    y 0.000000 1.923730 0.000000 
#    z 0.018040 0.000000 1.790470 
# 
# From -- ./inp_files/55421.got.cif
#   From: 2010.05.17/outbox.cif.g08.bks.cpg/sg5_28_cif.got.tgz:55421.got - 2010.06.03 18:56:24.
