data_PCOD9124980
_publ_section_title
;
Structure prediction by ZEFSAII (Michael W. Deem and Ramdas Pophale) SiO2 
 PCOD9124980
Probable space group: C 2
;
_chemical_formula_sum "Si O2"
_cell_formula_units_Z 30
_cell_length_a 24.778349
_cell_length_b 9.162243
_cell_length_c 8.280332
_cell_angle_alpha 90.000000
_cell_angle_beta 48.446875
_cell_angle_gamma 90.000000
_cell_volume 1406.764724
_symmetry_space_group_name_H-M "C 2"
_symmetry_group_IT_number 5
_symmetry_cell_setting 'monoclinic'
loop_
_space_group_symop_operation_xyz
x,y,z
-x,y,-z
1/2+x,1/2+y,z
1/2-x,1/2+y,-z
loop_
_atom_site_type_symbol
_atom_site_label
_atom_site_fract_x
_atom_site_fract_y
_atom_site_fract_z
Si Si1 0.757498 0.782690 0.775678
Si Si2 0.818397 0.870276 0.337567
Si Si3 0.475820 0.365218 0.885337
Si Si4 0.605074 0.835333 0.890952
Si Si5 0.500000 0.087330 0.000000
Si Si6 0.689345 0.680114 0.477203
Si Si7 0.304994 0.547635 0.887498
Si Si8 0.041619 0.121065 0.272092
O O1 0.816949 0.790852 0.516166
O O2 0.682331 0.836502 0.835859
O O3 0.777422 0.892411 0.880653
O O4 0.746520 0.627317 0.881361
O O5 0.890251 0.853956 0.089078
O O6 0.754996 0.791363 0.368330
O O7 0.802829 0.037511 0.421398
O O8 0.510320 0.205176 0.833705
O O9 0.500000 0.446682 0.000000
O O10 0.498790 0.472801 0.700019
O O11 0.620845 0.760433 0.688110
O O12 0.565904 0.986478 0.926867
O O13 0.555753 0.731922 0.099170
O O14 0.686500 0.633497 0.298695
O O15 0.381955 0.560255 0.819101
O O16 0.000000 0.195763 0.500000
#
# Coordination Sequence:
#
# PCOD9124980 Si02
#       8
#     4   4   4   4   2   4   4   4
#     4   9  22  39  60  91 128 155 208 256 320 379
#     4  10  21  39  63  92 122 162 214 260 307 376
#     4  10  25  42  63  93 122 169 222 255 323 376
#     4  10  22  44  61  96 122 165 224 263 312 378
#     4  10  26  38  70  86 124 166 212 270 310 362
#     4  10  22  37  69  91 123 167 210 266 312 378
#     4  10  23  38  60  95 124 166 198 256 334 370
#     4  11  25  41  67  91 130 168 213 265 323 391
#
# _framework density 21.325530000000001
#
# number of rings (size 3 to 8) (size 9 to 14) (size 15 to 20)
#    0.400    1.600    1.333    0.000   14.000    0.000 
#    0.000    0.667    0.000    0.000    0.000    0.000 
#    0.000    0.000    0.000    0.000    0.000    0.000 
#
# Total GULP energy -83615.534100 kJ/mol
# GULP energy per Si atom -5574.368940 kJ/mol
# Density = 2.127699 g / cm^3
# Si number density = 21.325530 Si / 1000 Ang^3
#
#
#
# Elastic Constant Matrix: (Units=GPa)
#
#
# Indices 1 2 3 4 5 6 
#
# 1 46.9587 21.9430 -3.5872 0.0000 2.6734 0.0000
# 2 21.9430 68.0206 12.5239 0.0000 2.7897 0.0000
# 3 -3.5872 12.5239 78.8043 0.0000 -0.6740 0.0000
# 4 0.0000 0.0000 0.0000 -230.1755 0.0000 2.7978
# 5 2.6734 2.7897 -0.6740 0.0000 25.2011 0.0000
# 6 0.0000 0.0000 0.0000 2.7978 0.0000 36.6317
#
#
#
# Elastic Compliance Matrix: (Units=1/GPa)
#
#
# Indices 1 2 3 4 5 6 
#
# 1 0.025634 -0.008666 0.002530 0.000000 -0.001692 0.000000
# 2 -0.008666 0.018151 -0.003289 0.000000 -0.001178 0.000000
# 3 0.002530 -0.003289 0.013331 0.000000 0.000452 0.000000
# 4 0.000000 0.000000 0.000000 -0.004340 0.000000 0.000332
# 5 -0.001692 -0.001178 0.000452 0.000000 0.040003 0.000000
# 6 0.000000 0.000000 0.000000 0.000332 0.000000 0.027273
#
#
# Mechanical properties :
#
#
# Convention : Reuss Voigt Hill
#
# Bulk Modulus (GPa) = 26.13295 28.39366 27.26330
# Shear Modulus (GPa) = 32.96886 -22.80828 5.08029
#
# Velocity S-wave (km/s) = 3.93616 -3.27391 1.54513
# Velocity P-wave (km/s) = 5.73923 0.97367 3.99942
#
# Compressibility (1/GPa) = 0.03826587
#
# Stress axis : x y z
#
# Youngs Moduli (GPa) = 39.01030 55.09379 75.01089
#
# Poissons Ratio (x) = 0.47743 -0.18975
# Poissons Ratio (y) = 0.33805 0.24672
# Poissons Ratio (z) = -0.09868 0.18121
#
# Static dielectric constant tensor:
#      x y z
#    x 2.233270 0.000000 -0.638530 
#    y 0.000000 1.771420 0.000000 
#    z -0.638530 0.000000 2.729370 
# 
# From -- ./inp_files/28951.got.cif
#   From: 2010.05.17/outbox.cif.g08.bks.cpg/sg5_15_cif.got.tgz:28951.got - 2010.06.03 18:56:24.
