data_PCOD9124495
_publ_section_title
;
Structure prediction by ZEFSAII (Michael W. Deem and Ramdas Pophale) SiO2 
 PCOD9124495
Probable space group: C 2
;
_chemical_formula_sum "Si O2"
_cell_formula_units_Z 24
_cell_length_a 16.317913
_cell_length_b 8.531580
_cell_length_c 11.264467
_cell_angle_alpha 90.000000
_cell_angle_beta 136.014223
_cell_angle_gamma 90.000000
_cell_volume 1089.091414
_symmetry_space_group_name_H-M "C 2"
_symmetry_group_IT_number 5
_symmetry_cell_setting 'monoclinic'
loop_
_space_group_symop_operation_xyz
x,y,z
-x,y,-z
1/2+x,1/2+y,z
1/2-x,1/2+y,-z
loop_
_atom_site_type_symbol
_atom_site_label
_atom_site_fract_x
_atom_site_fract_y
_atom_site_fract_z
Si Si1 0.548255 0.405980 0.379147
Si Si2 0.881116 0.384738 0.100494
Si Si3 0.955871 0.071965 0.072253
Si Si4 0.065632 0.541595 0.439340
Si Si5 0.242243 0.388173 0.778994
Si Si6 0.190750 0.024572 0.733515
O O1 0.545855 0.218521 0.375949
O O2 0.659804 0.449102 0.575542
O O3 0.424719 0.468799 0.310230
O O4 0.550288 0.494622 0.257139
O O5 0.811303 0.429051 0.147372
O O6 0.011982 0.434687 0.278731
O O7 0.883032 0.201666 0.070051
O O8 0.809979 0.469134 0.921617
O O9 0.877448 0.929210 0.940913
O O10 0.000000 0.157441 0.000000
O O11 0.193593 0.488844 0.618084
O O12 0.000000 0.523485 0.500000
O O13 0.201528 0.209508 0.723347
#
# Coordination Sequence:
#
# PCOD9124495 Si02
#       6
#     4   4   4   4   4   4
#     4  11  21  38  61  99 130 165 211 271 323 374
#     4  11  21  38  64  97 125 169 216 266 313 381
#     4  12  26  43  64  96 137 173 211 267 331 388
#     4  10  21  35  65  98 130 158 215 276 319 370
#     4  11  21  39  64  96 126 172 217 261 320 381
#     4  11  21  35  66  97 124 162 219 274 311 370
#
# _framework density 22.036718
#
# number of rings (size 3 to 8) (size 9 to 14) (size 15 to 20)
#    0.000    1.000    5.000    3.000    7.000    0.000 
#    0.000   10.000    0.000    0.000    0.000    0.000 
#    0.000    0.000    0.000    0.000    0.000    0.000 
#
# Total GULP energy -66919.305840 kJ/mol
# GULP energy per Si atom -5576.608820 kJ/mol
# Density = 2.198656 g / cm^3
# Si number density = 22.036718 Si / 1000 Ang^3
#
#
#
# Elastic Constant Matrix: (Units=GPa)
#
#
# Indices 1 2 3 4 5 6 
#
# 1 27.9695 5.1424 28.4152 0.0000 -5.1560 0.0000
# 2 5.1424 99.9117 26.4386 0.0000 0.1514 0.0000
# 3 28.4152 26.4386 157.2238 0.0000 -14.5208 0.0000
# 4 0.0000 0.0000 0.0000 44.6054 0.0000 2.4078
# 5 -5.1560 0.1514 -14.5208 0.0000 15.3299 0.0000
# 6 0.0000 0.0000 0.0000 2.4078 0.0000 -7.6361
#
#
#
# Elastic Compliance Matrix: (Units=1/GPa)
#
#
# Indices 1 2 3 4 5 6 
#
# 1 0.044706 -0.000392 -0.007260 0.000000 0.008163 0.000000
# 2 -0.000392 0.010531 -0.001887 0.000000 -0.002023 0.000000
# 3 -0.007260 -0.001887 0.008510 0.000000 0.005638 0.000000
# 4 0.000000 0.000000 0.000000 0.022044 0.000000 0.006951
# 5 0.008163 -0.002023 0.005638 0.000000 0.073338 0.000000
# 6 0.000000 0.000000 0.000000 0.006951 0.000000 -0.128766
#
#
# Mechanical properties :
#
#
# Convention : Reuss Voigt Hill
#
# Bulk Modulus (GPa) = 22.38657 45.01083 33.69870
# Shear Modulus (GPa) = 77.72244 25.46711 51.59477
#
# Velocity S-wave (km/s) = 5.94526 3.40320 4.84396
# Velocity P-wave (km/s) = 7.57027 5.99267 6.82719
#
# Compressibility (1/GPa) = 0.04466963
#
# Stress axis : x y z
#
# Youngs Moduli (GPa) = 22.36849 94.95404 117.50244
#
# Poissons Ratio (x) = 0.03725 0.85304
# Poissons Ratio (y) = 0.00877 0.22172
# Poissons Ratio (z) = 0.16239 0.17917
#
# Static dielectric constant tensor:
#      x y z
#    x 1.904000 0.000000 0.013340 
#    y 0.000000 1.772580 0.000000 
#    z 0.013340 0.000000 1.808320 
# 
# From -- ./inp_files/46075.got.cif
#   From: 2010.05.17/outbox.cif.g08.bks.cpg/sg5_24_cif.got.tgz:46075.got - 2010.06.03 18:56:24.
