data_PCOD9124131
_publ_section_title
;
Structure prediction by ZEFSAII (Michael W. Deem and Ramdas Pophale) SiO2 
 PCOD9124131
Probable space group: C 2
;
_chemical_formula_sum "Si O2"
_cell_formula_units_Z 26
_cell_length_a 21.271449
_cell_length_b 7.953615
_cell_length_c 12.809194
_cell_angle_alpha 90.000000
_cell_angle_beta 151.087774
_cell_angle_gamma 90.000000
_cell_volume 1047.736899
_symmetry_space_group_name_H-M "C 2"
_symmetry_group_IT_number 5
_symmetry_cell_setting 'monoclinic'
loop_
_space_group_symop_operation_xyz
x,y,z
-x,y,-z
1/2+x,1/2+y,z
1/2-x,1/2+y,-z
loop_
_atom_site_type_symbol
_atom_site_label
_atom_site_fract_x
_atom_site_fract_y
_atom_site_fract_z
Si Si1 0.283163 0.225380 0.690434
Si Si2 0.309899 0.628067 0.080506
Si Si3 0.978280 0.341879 0.699529
Si Si4 0.500000 0.406661 0.500000
Si Si5 0.168651 0.362766 0.324456
Si Si6 0.373852 0.333051 0.042084
Si Si7 0.623912 0.211743 0.502164
O O1 0.130695 0.211099 0.501499
O O2 0.267607 0.346273 0.567824
O O3 0.357571 0.292735 0.897686
O O4 0.333918 0.047836 0.725312
O O5 0.384433 0.792168 0.146093
O O6 0.407597 0.523445 0.296375
O O7 0.190997 0.690523 0.977683
O O8 0.299342 0.503225 0.966384
O O9 0.925954 0.522874 0.587403
O O10 0.964476 0.328243 0.805673
O O11 0.595973 0.284490 0.575219
O O12 0.231504 0.239908 0.331058
O O13 0.525115 0.327775 0.290242
#
# Coordination Sequence:
#
# PCOD9124131 Si02
#       7
#     4   4   4   2   4   4   4
#     4  10  21  40  65  91 122 169 216 257 318 367
#     4  11  22  41  61  96 133 163 219 254 327 373
#     4  10  21  40  65  86 122 173 207 262 302 388
#     4  10  24  38  66  94 122 180 208 264 306 394
#     4  10  20  42  64  91 121 168 215 258 306 384
#     4  11  24  38  63  94 129 170 200 279 318 372
#     4  11  22  40  63  92 130 160 219 257 322 374
#
# _framework density 24.815390000000001
#
# number of rings (size 3 to 8) (size 9 to 14) (size 15 to 20)
#    0.923    0.615    1.538    4.615    0.000    4.923 
#    0.000    3.077    3.385    0.000    0.000    0.000 
#    0.000    0.000    0.000    0.000    0.000    0.000 
#
# Total GULP energy -72665.520812 kJ/mol
# GULP energy per Si atom -5589.655447 kJ/mol
# Density = 2.475891 g / cm^3
# Si number density = 24.815390 Si / 1000 Ang^3
#
#
#
# Elastic Constant Matrix: (Units=GPa)
#
#
# Indices 1 2 3 4 5 6 
#
# 1 141.7534 42.0157 17.4682 0.0000 -9.0932 0.0000
# 2 42.0157 115.2295 16.8788 0.0000 -11.9506 0.0000
# 3 17.4682 16.8788 49.4946 0.0000 -4.6677 0.0000
# 4 0.0000 0.0000 0.0000 21.9930 0.0000 -10.6974
# 5 -9.0932 -11.9506 -4.6677 0.0000 31.2179 0.0000
# 6 0.0000 0.0000 0.0000 -10.6974 0.0000 40.9054
#
#
#
# Elastic Compliance Matrix: (Units=1/GPa)
#
#
# Indices 1 2 3 4 5 6 
#
# 1 0.008119 -0.002570 -0.001885 0.000000 0.001099 0.000000
# 2 -0.002570 0.010249 -0.002321 0.000000 0.002828 0.000000
# 3 -0.001885 -0.002321 0.021833 0.000000 0.001827 0.000000
# 4 0.000000 0.000000 0.000000 0.052096 0.000000 0.013624
# 5 0.001099 0.002828 0.001827 0.000000 0.033709 0.000000
# 6 0.000000 0.000000 0.000000 0.013624 0.000000 0.028009
#
#
# Mechanical properties :
#
#
# Convention : Reuss Voigt Hill
#
# Bulk Modulus (GPa) = 37.52672 51.02254 44.27463
# Shear Modulus (GPa) = 28.33637 34.16426 31.25031
#
# Velocity S-wave (km/s) = 3.38285 3.71447 3.55253
# Velocity P-wave (km/s) = 5.51483 6.24514 5.89132
#
# Compressibility (1/GPa) = 0.02664768
#
# Stress axis : x y z
#
# Youngs Moduli (GPa) = 123.16522 97.57228 45.80120
#
# Poissons Ratio (x) = 0.25079 0.08635
# Poissons Ratio (y) = 0.31657 0.10632
# Poissons Ratio (z) = 0.23220 0.22649
#
# Static dielectric constant tensor:
#      x y z
#    x 2.015860 0.000000 -0.023660 
#    y 0.000000 1.965260 0.000000 
#    z -0.023660 0.000000 1.966190 
# 
# From -- ./inp_files/46173.got.cif
#   From: 2010.05.17/outbox.cif.g08.bks.cpg/sg5_24_cif.got.tgz:46173.got - 2010.06.03 18:56:24.
