data_PCOD9124176
_publ_section_title
;
Structure prediction by ZEFSAII (Michael W. Deem and Ramdas Pophale) SiO2 
 PCOD9124176
Probable space group: C 2
;
_chemical_formula_sum "Si O2"
_cell_formula_units_Z 26
_cell_length_a 7.540719
_cell_length_b 24.962187
_cell_length_c 5.854638
_cell_angle_alpha 90.000000
_cell_angle_beta 89.926714
_cell_angle_gamma 90.000000
_cell_volume 1102.034223
_symmetry_space_group_name_H-M "C 2"
_symmetry_group_IT_number 5
_symmetry_cell_setting 'monoclinic'
loop_
_space_group_symop_operation_xyz
x,y,z
-x,y,-z
1/2+x,1/2+y,z
1/2-x,1/2+y,-z
loop_
_atom_site_type_symbol
_atom_site_label
_atom_site_fract_x
_atom_site_fract_y
_atom_site_fract_z
Si Si1 0.694659 0.474660 0.890364
Si Si2 0.000000 0.174547 0.000000
Si Si3 0.713126 0.824762 0.488977
Si Si4 0.798834 0.361498 0.009181
Si Si5 0.759580 0.076735 0.841496
Si Si6 0.500000 0.509254 0.500000
Si Si7 0.500000 0.123193 0.500000
Si Si8 0.188366 0.204780 0.598021
O O1 0.802920 0.425911 0.990095
O O2 0.651777 0.474590 0.622121
O O3 0.500000 0.467461 0.000000
O O4 0.762846 0.533444 0.958267
O O5 0.852633 0.132185 0.909830
O O6 0.124991 0.213505 0.854771
O O7 0.500000 0.835971 0.500000
O O8 0.781452 0.845110 0.240634
O O9 0.737982 0.760557 0.485824
O O10 0.778759 0.845449 0.740183
O O11 0.000000 0.340293 0.000000
O O12 0.582317 0.088859 0.703427
O O13 0.900283 0.047438 0.676424
O O14 0.339946 0.161140 0.581414
O O15 0.000000 0.183794 0.500000
#
# Coordination Sequence:
#
# PCOD9124176 Si02
#       8
#     4   2   4   4   4   2   2   4
#     4  10  23  40  66  97 136 187 234 288 368 436
#     4  12  22  44  74  92 144 196 234 290 378 426
#     4   9  22  42  71  96 136 182 237 294 375 435
#     4  10  22  43  68 101 132 180 236 300 366 436
#     4  11  23  41  64 102 138 186 237 295 354 448
#     4  10  20  42  67  86 140 189 236 282 368 432
#     4  12  26  44  69 110 144 187 250 300 362 438
#     4  11  25  45  72 100 143 192 239 304 368 439
#
# _framework density 23.592732999999999
#
# number of rings (size 3 to 8) (size 9 to 14) (size 15 to 20)
#    0.000    1.538    3.846    0.923    9.692    1.846 
#    4.154    0.000    0.000    0.000    0.000    0.000 
#    0.000    0.000    0.000    0.000    0.000    0.000 
#
# Total GULP energy -72518.156318 kJ/mol
# GULP energy per Si atom -5578.319717 kJ/mol
# Density = 2.353903 g / cm^3
# Si number density = 23.592733 Si / 1000 Ang^3
#
#
#
# Elastic Constant Matrix: (Units=GPa)
#
#
# Indices 1 2 3 4 5 6 
#
# 1 88.7252 25.0436 26.3667 0.0000 19.0887 0.0000
# 2 25.0436 68.6693 32.0224 0.0000 13.4353 0.0000
# 3 26.3667 32.0224 127.6544 0.0000 11.5487 0.0000
# 4 0.0000 0.0000 0.0000 32.1223 0.0000 -2.1511
# 5 19.0887 13.4353 11.5487 0.0000 32.5062 0.0000
# 6 0.0000 0.0000 0.0000 -2.1511 0.0000 -17.8835
#
#
#
# Elastic Compliance Matrix: (Units=1/GPa)
#
#
# Indices 1 2 3 4 5 6 
#
# 1 0.013981 -0.003142 -0.001523 0.000000 -0.006370 0.000000
# 2 -0.003142 0.018217 -0.003520 0.000000 -0.004434 0.000000
# 3 -0.001523 -0.003520 0.009112 0.000000 -0.000888 0.000000
# 4 0.000000 0.000000 0.000000 0.030882 0.000000 -0.003715
# 5 -0.006370 -0.004434 -0.000888 0.000000 0.036652 0.000000
# 6 0.000000 0.000000 0.000000 -0.003715 0.000000 -0.055471
#
#
# Mechanical properties :
#
#
# Convention : Reuss Voigt Hill
#
# Bulk Modulus (GPa) = 40.09699 50.21267 45.15483
# Shear Modulus (GPa) = 64.05606 22.79009 43.42308
#
# Velocity S-wave (km/s) = 5.21629 3.11139 4.29479
# Velocity P-wave (km/s) = 7.30151 5.85124 6.61623
#
# Compressibility (1/GPa) = 0.02493953
#
# Stress axis : x y z
#
# Youngs Moduli (GPa) = 71.52667 54.89281 109.75118
#
# Poissons Ratio (x) = 0.17248 0.16717
# Poissons Ratio (y) = 0.22475 0.38629
# Poissons Ratio (z) = 0.10895 0.19321
#
# Static dielectric constant tensor:
#      x y z
#    x 1.860970 0.000000 0.025610 
#    y 0.000000 1.844280 0.000000 
#    z 0.025610 0.000000 2.303580 
# 
# From -- ./inp_files/3663.got.cif
#   From: 2010.05.17/outbox.cif.g08.bks.cpg/sg5_2_cif.got.tgz:3663.got - 2010.06.03 18:56:24.
