data_PCOD9124497
_publ_section_title
;
Structure prediction by ZEFSAII (Michael W. Deem and Ramdas Pophale) SiO2 
 PCOD9124497
Probable space group: C 2
;
_chemical_formula_sum "Si O2"
_cell_formula_units_Z 28
_cell_length_a 18.745805
_cell_length_b 5.127519
_cell_length_c 12.403418
_cell_angle_alpha 90.000000
_cell_angle_beta 64.977355
_cell_angle_gamma 90.000000
_cell_volume 1080.309968
_symmetry_space_group_name_H-M "C 2"
_symmetry_group_IT_number 5
_symmetry_cell_setting 'monoclinic'
loop_
_space_group_symop_operation_xyz
x,y,z
-x,y,-z
1/2+x,1/2+y,z
1/2-x,1/2+y,-z
loop_
_atom_site_type_symbol
_atom_site_label
_atom_site_fract_x
_atom_site_fract_y
_atom_site_fract_z
Si Si1 0.626119 0.834510 0.477724
Si Si2 0.264064 0.470244 0.864600
Si Si3 0.510310 0.503262 0.829399
Si Si4 0.406432 0.816294 0.741256
Si Si5 0.779832 0.819439 0.625856
Si Si6 0.374194 0.197444 0.952984
Si Si7 0.900491 0.484436 0.274566
O O1 0.582404 0.875458 0.391559
O O2 0.659198 0.538871 0.456037
O O3 0.577990 0.910548 0.614863
O O4 0.699227 0.038212 0.433525
O O5 0.315086 0.724824 0.805494
O O6 0.286897 0.290855 0.750062
O O7 0.301203 0.355769 0.949004
O O8 0.171299 0.516767 0.933950
O O9 0.457815 0.575432 0.755634
O O10 0.441613 0.389989 0.949976
O O11 0.554384 0.771093 0.826922
O O12 0.573621 0.276812 0.767626
O O13 0.412411 0.032974 0.830835
O O14 0.692096 0.926664 0.669020
#
# Coordination Sequence:
#
# PCOD9124497 Si02
#       7
#     4   4   4   4   4   4   4
#     4  11  23  41  67  98 122 166 215 273 317 366
#     4  10  21  35  70  95 120 160 206 274 329 353
#     4  11  25  42  61  91 132 175 209 251 319 398
#     4  10  21  40  61  95 126 151 211 263 312 380
#     4  11  23  42  67  97 126 159 224 268 311 385
#     4  11  19  40  64  93 125 159 207 270 319 373
#     4  12  24  44  64  89 135 177 207 254 321 386
#
# _framework density 25.918486999999999
#
# number of rings (size 3 to 8) (size 9 to 14) (size 15 to 20)
#    0.000    1.143    4.286    2.571    0.000    0.571 
#    2.571    0.714    3.143    0.000    0.000    0.000 
#    0.000    0.000    0.000    0.000    0.000    0.000 
#
# Total GULP energy -78317.704089 kJ/mol
# GULP energy per Si atom -5594.121721 kJ/mol
# Density = 2.585950 g / cm^3
# Si number density = 25.918487 Si / 1000 Ang^3
#
#
#
# Elastic Constant Matrix: (Units=GPa)
#
#
# Indices 1 2 3 4 5 6 
#
# 1 88.1632 20.4135 -2.0263 -0.0001 -7.5136 0.0000
# 2 20.4135 122.1515 21.2191 -0.0004 -11.6736 0.0005
# 3 -2.0263 21.2191 73.5498 0.0000 -7.9439 0.0001
# 4 -0.0001 -0.0004 0.0000 25.9354 -0.0001 -11.0326
# 5 -7.5136 -11.6736 -7.9439 -0.0001 32.8001 -0.0001
# 6 0.0000 0.0005 0.0001 -11.0326 -0.0001 38.9356
#
#
#
# Elastic Compliance Matrix: (Units=1/GPa)
#
#
# Indices 1 2 3 4 5 6 
#
# 1 0.012028 -0.001989 0.001156 0.000000 0.002328 0.000000
# 2 -0.001989 0.009157 -0.002458 0.000000 0.002208 0.000000
# 3 0.001156 -0.002458 0.014655 0.000000 0.002939 0.000000
# 4 0.000000 0.000000 0.000000 0.043842 0.000000 0.012423
# 5 0.002328 0.002208 0.002939 0.000000 0.032519 0.000000
# 6 0.000000 0.000000 0.000000 0.012423 0.000000 0.029203
#
#
# Mechanical properties :
#
#
# Convention : Reuss Voigt Hill
#
# Bulk Modulus (GPa) = 34.17711 40.34190 37.25950
# Shear Modulus (GPa) = 31.69837 35.81811 33.75824
#
# Velocity S-wave (km/s) = 3.50094 3.72149 3.61290
# Velocity P-wave (km/s) = 5.43664 5.83650 5.64012
#
# Compressibility (1/GPa) = 0.02925935
#
# Stress axis : x y z
#
# Youngs Moduli (GPa) = 83.13949 109.20753 68.23746
#
# Poissons Ratio (x) = 0.21716 -0.07891
# Poissons Ratio (y) = 0.16532 0.16773
# Poissons Ratio (z) = -0.09615 0.26844
#
# Static dielectric constant tensor:
#      x y z
#    x 2.132810 0.000000 0.014920 
#    y 0.000000 2.007400 0.000000 
#    z 0.014920 0.000000 2.100910 
# 
# From -- ./inp_files/55415.got.cif
#   From: 2010.05.17/outbox.cif.g08.bks.cpg/sg5_28_cif.got.tgz:55415.got - 2010.06.03 18:56:24.
