data_PCOD9124164
_publ_section_title
;
Structure prediction by ZEFSAII (Michael W. Deem and Ramdas Pophale) SiO2 
 PCOD9124164
Probable space group: C 2
;
_chemical_formula_sum "Si O2"
_cell_formula_units_Z 30
_cell_length_a 20.614241
_cell_length_b 7.867961
_cell_length_c 9.351286
_cell_angle_alpha 90.000000
_cell_angle_beta 56.776872
_cell_angle_gamma 90.000000
_cell_volume 1268.788603
_symmetry_space_group_name_H-M "C 2"
_symmetry_group_IT_number 5
_symmetry_cell_setting 'monoclinic'
loop_
_space_group_symop_operation_xyz
x,y,z
-x,y,-z
1/2+x,1/2+y,z
1/2-x,1/2+y,-z
loop_
_atom_site_type_symbol
_atom_site_label
_atom_site_fract_x
_atom_site_fract_y
_atom_site_fract_z
Si Si1 0.772701 0.909680 0.302838
Si Si2 0.000000 0.349626 0.500000
Si Si3 0.607343 0.928265 0.951256
Si Si4 0.115958 0.787081 0.066980
Si Si5 0.667764 0.582489 0.489080
Si Si6 0.545618 0.845946 0.737532
Si Si7 0.611477 0.554064 0.261869
Si Si8 0.742487 0.699569 0.894204
O O1 0.722491 0.738403 0.370518
O O2 0.791012 0.972956 0.439516
O O3 0.735513 0.062387 0.253933
O O4 0.850297 0.869182 0.118556
O O5 0.965185 0.438026 0.402635
O O6 0.935718 0.222273 0.641002
O O7 0.538418 0.808582 0.092599
O O8 0.588416 0.103274 0.053266
O O9 0.594199 0.946156 0.798308
O O10 0.690595 0.850573 0.888253
O O11 0.065467 0.917590 0.221044
O O12 0.186508 0.753841 0.093117
O O13 0.594010 0.676320 0.648504
O O14 0.640457 0.485754 0.380067
O O15 0.682998 0.611520 0.077179
#
# Coordination Sequence:
#
# PCOD9124164 Si02
#       8
#     4   2   4   4   4   4   4   4
#     4  11  25  39  65  94 138 174 223 280 336 396
#     4  10  20  42  66  94 126 176 224 268 338 404
#     4  11  22  43  68  99 130 182 228 272 334 409
#     4  11  25  40  66  98 133 178 227 278 326 402
#     4  11  24  42  64 100 134 178 219 286 341 397
#     4  10  23  41  70  95 135 174 225 274 339 414
#     4  10  22  41  63  92 127 174 222 270 332 392
#     4  11  21  42  66  94 128 180 224 272 328 403
#
# _framework density 23.644601999999999
#
# number of rings (size 3 to 8) (size 9 to 14) (size 15 to 20)
#    0.000    1.333    4.000    1.600    3.733    0.000 
#    0.000    8.667    0.000    0.000    0.000    0.000 
#    0.000    0.000    0.000    0.000    0.000    0.000 
#
# Total GULP energy -83834.230534 kJ/mol
# GULP energy per Si atom -5588.948702 kJ/mol
# Density = 2.359079 g / cm^3
# Si number density = 23.644602 Si / 1000 Ang^3
#
#
#
# Elastic Constant Matrix: (Units=GPa)
#
#
# Indices 1 2 3 4 5 6 
#
# 1 67.3631 7.3699 41.4477 0.0000 35.7068 0.0000
# 2 7.3699 67.9752 38.8919 0.0000 20.7262 0.0000
# 3 41.4477 38.8919 117.9522 0.0000 38.6111 0.0000
# 4 0.0000 0.0000 0.0000 42.7569 0.0000 16.2957
# 5 35.7068 20.7262 38.6111 0.0000 54.1848 0.0000
# 6 0.0000 0.0000 0.0000 16.2957 0.0000 22.6966
#
#
#
# Elastic Compliance Matrix: (Units=1/GPa)
#
#
# Indices 1 2 3 4 5 6 
#
# 1 0.025692 0.005059 -0.005896 0.000000 -0.014665 0.000000
# 2 0.005059 0.019648 -0.006136 0.000000 -0.006477 0.000000
# 3 -0.005896 -0.006136 0.013737 0.000000 -0.003557 0.000000
# 4 0.000000 0.000000 0.000000 0.032199 0.000000 -0.023118
# 5 -0.014665 -0.006477 -0.003557 0.000000 0.033131 0.000000
# 6 0.000000 0.000000 0.000000 -0.023118 0.000000 0.060658
#
#
# Mechanical properties :
#
#
# Convention : Reuss Voigt Hill
#
# Bulk Modulus (GPa) = 22.15710 47.63439 34.89575
# Shear Modulus (GPa) = 23.35844 34.96639 29.16241
#
# Velocity S-wave (km/s) = 3.14649 3.84973 3.51574
# Velocity P-wave (km/s) = 4.75308 6.32062 5.59205
#
# Compressibility (1/GPa) = 0.04513225
#
# Stress axis : x y z
#
# Youngs Moduli (GPa) = 38.92220 50.89474 72.79500
#
# Poissons Ratio (x) = -0.25748 0.42919
# Poissons Ratio (y) = -0.19691 0.44668
# Poissons Ratio (z) = 0.22948 0.31229
#
# Static dielectric constant tensor:
#      x y z
#    x 1.946740 0.000000 0.004040 
#    y 0.000000 1.994430 0.000000 
#    z 0.004040 0.000000 1.906280 
# 
# From -- ./inp_files/30668.got.cif
#   From: 2010.05.17/outbox.cif.g08.bks.cpg/sg5_16_cif.got.tgz:30668.got - 2010.06.03 18:56:24.
