data_PCOD9124053
_publ_section_title
;
Structure prediction by ZEFSAII (Michael W. Deem and Ramdas Pophale) SiO2 
 PCOD9124053
Probable space group: C 2
;
_chemical_formula_sum "Si O2"
_cell_formula_units_Z 30
_cell_length_a 11.682030
_cell_length_b 8.780329
_cell_length_c 13.580892
_cell_angle_alpha 90.000000
_cell_angle_beta 87.953408
_cell_angle_gamma 90.000000
_cell_volume 1392.131577
_symmetry_space_group_name_H-M "C 2"
_symmetry_group_IT_number 5
_symmetry_cell_setting 'monoclinic'
loop_
_space_group_symop_operation_xyz
x,y,z
-x,y,-z
1/2+x,1/2+y,z
1/2-x,1/2+y,-z
loop_
_atom_site_type_symbol
_atom_site_label
_atom_site_fract_x
_atom_site_fract_y
_atom_site_fract_z
Si Si1 0.112314 0.517820 0.050794
Si Si2 0.721211 0.528929 0.264198
Si Si3 0.038145 0.252559 0.185371
Si Si4 0.867342 0.089491 0.532522
Si Si5 0.000000 0.043438 0.000000
Si Si6 0.949445 0.458147 0.338483
Si Si7 0.667509 0.938618 0.442830
Si Si8 0.707155 0.341323 0.074881
O O1 0.071330 0.418495 0.143623
O O2 0.190260 0.662342 0.068195
O O3 0.177300 0.399632 0.978723
O O4 0.000000 0.577239 0.000000
O O5 0.653019 0.668066 0.217201
O O6 0.657719 0.491692 0.368656
O O7 0.856664 0.554589 0.279530
O O8 0.708226 0.393525 0.187300
O O9 0.959661 0.295136 0.281748
O O10 0.987857 0.150219 0.097993
O O11 0.787875 0.023444 0.448506
O O12 0.000000 0.095831 0.500000
O O13 0.822861 0.256475 0.566474
O O14 0.892956 0.934068 0.978821
O O15 0.891358 0.452132 0.447722
O O16 0.079931 0.500693 0.363057
#
# Coordination Sequence:
#
# PCOD9124053 Si02
#       8
#     4   4   4   4   2   4   4   4
#     4  12  25  43  68  95 130 178 222 273 341 395
#     4  10  22  39  68  94 131 175 222 275 330 394
#     4  11  21  40  64  98 132 176 221 271 336 392
#     4  11  21  45  65  98 132 173 217 269 334 393
#     4  10  22  40  70  94 132 182 220 272 334 384
#     4  10  20  41  68  94 132 173 217 267 330 393
#     4  10  21  42  70  94 132 176 211 272 335 386
#     4  11  24  45  65  97 136 173 230 279 326 399
#
# _framework density 21.549686000000001
#
# number of rings (size 3 to 8) (size 9 to 14) (size 15 to 20)
#    0.000    1.333    4.000    2.400    1.867    0.000 
#    9.600    4.000    0.000    0.000    0.000    0.000 
#    0.000    0.000    0.000    0.000    0.000    0.000 
#
# Total GULP energy -83716.371817 kJ/mol
# GULP energy per Si atom -5581.091454 kJ/mol
# Density = 2.150064 g / cm^3
# Si number density = 21.549686 Si / 1000 Ang^3
#
#
#
# Elastic Constant Matrix: (Units=GPa)
#
#
# Indices 1 2 3 4 5 6 
#
# 1 121.3781 47.3386 22.7565 0.0000 31.7075 0.0000
# 2 47.3386 72.1866 23.8386 0.0000 15.3773 0.0000
# 3 22.7565 23.8386 64.0410 0.0000 28.2910 0.0000
# 4 0.0000 0.0000 0.0000 12.6556 0.0000 -1.2364
# 5 31.7075 15.3773 28.2910 0.0000 35.8453 0.0000
# 6 0.0000 0.0000 0.0000 -1.2364 0.0000 30.2645
#
#
#
# Elastic Compliance Matrix: (Units=1/GPa)
#
#
# Indices 1 2 3 4 5 6 
#
# 1 0.013469 -0.007430 0.002817 0.000000 -0.010950 0.000000
# 2 -0.007430 0.020149 -0.006057 0.000000 0.002709 0.000000
# 3 0.002817 -0.006057 0.025826 0.000000 -0.020277 0.000000
# 4 0.000000 0.000000 0.000000 0.079333 0.000000 0.003241
# 5 -0.010950 0.002709 -0.020277 0.000000 0.052425 0.000000
# 6 0.000000 0.000000 0.000000 0.003241 0.000000 0.033174
#
#
# Mechanical properties :
#
#
# Convention : Reuss Voigt Hill
#
# Bulk Modulus (GPa) = 26.24411 49.49699 37.87055
# Shear Modulus (GPa) = 19.34854 26.66456 23.00655
#
# Velocity S-wave (km/s) = 2.99968 3.52142 3.27097
# Velocity P-wave (km/s) = 4.91958 6.28908 5.64601
#
# Compressibility (1/GPa) = 0.03810378
#
# Stress axis : x y z
#
# Youngs Moduli (GPa) = 74.24496 49.63101 38.72051
#
# Poissons Ratio (x) = 0.36878 -0.10908
# Poissons Ratio (y) = 0.55167 0.23452
# Poissons Ratio (z) = -0.20916 0.30060
#
# Static dielectric constant tensor:
#      x y z
#    x 1.816850 0.000000 -0.002730 
#    y 0.000000 1.772350 0.000000 
#    z -0.002730 0.000000 1.858580 
# 
# From -- ./inp_files/52272.got.cif
#   From: 2010.05.17/outbox.cif.g08.bks.cpg/sg5_27_cif.got.tgz:52272.got - 2010.06.03 18:56:24.
