data_PCOD9124910
_publ_section_title
;
Structure prediction by ZEFSAII (Michael W. Deem and Ramdas Pophale) SiO2 
 PCOD9124910
Probable space group: C 2
;
_chemical_formula_sum "Si O2"
_cell_formula_units_Z 26
_cell_length_a 12.742157
_cell_length_b 4.881058
_cell_length_c 20.378761
_cell_angle_alpha 90.000000
_cell_angle_beta 120.435126
_cell_angle_gamma 90.000000
_cell_volume 1092.809256
_symmetry_space_group_name_H-M "C 2"
_symmetry_group_IT_number 5
_symmetry_cell_setting 'monoclinic'
loop_
_space_group_symop_operation_xyz
x,y,z
-x,y,-z
1/2+x,1/2+y,z
1/2-x,1/2+y,-z
loop_
_atom_site_type_symbol
_atom_site_label
_atom_site_fract_x
_atom_site_fract_y
_atom_site_fract_z
Si Si1 0.735698 0.357390 0.229037
Si Si2 0.000000 0.668650 0.000000
Si Si3 0.811091 0.394091 0.489431
Si Si4 0.824730 0.959560 0.042788
Si Si5 0.218599 0.355407 0.138981
Si Si6 0.006884 0.523268 0.350139
Si Si7 0.631600 0.523906 0.327465
O O1 0.709129 0.541410 0.156433
O O2 0.641374 0.435020 0.255750
O O3 0.868490 0.448229 0.295062
O O4 0.736725 0.041747 0.208807
O O5 0.064046 0.855286 0.965020
O O6 0.900473 0.477657 0.933392
O O7 0.721617 0.578894 0.507425
O O8 0.942350 0.462410 0.560653
O O9 0.763927 0.475275 0.403103
O O10 0.826896 0.900061 0.120877
O O11 0.711652 0.772858 0.980562
O O12 0.039775 0.829353 0.338845
O O13 0.087276 0.329223 0.327512
#
# Coordination Sequence:
#
# PCOD9124910 Si02
#       7
#     4   2   4   4   4   4   4
#     4  12  25  40  60  92 126 159 200 240 301 368
#     4  10  24  46  70  86 116 158 196 250 304 346
#     4   8  16  33  58  85 115 156 206 247 286 341
#     4  10  22  42  66  92 116 145 194 246 295 358
#     4  11  25  42  63  92 121 154 200 247 296 365
#     4  10  21  39  60  86 125 162 198 257 300 333
#     4  10  21  39  62  89 121 163 206 241 292 358
#
# _framework density 23.791893000000002
#
# number of rings (size 3 to 8) (size 9 to 14) (size 15 to 20)
#    0.000    1.846    0.000    3.692    0.000    9.846 
#    0.000    4.615    0.000   12.923    0.000    0.000 
#    0.000    0.000    0.000    0.000    0.000    0.000 
#
# Total GULP energy -72743.434622 kJ/mol
# GULP energy per Si atom -5595.648817 kJ/mol
# Density = 2.373774 g / cm^3
# Si number density = 23.791893 Si / 1000 Ang^3
#
#
#
# Elastic Constant Matrix: (Units=GPa)
#
#
# Indices 1 2 3 4 5 6 
#
# 1 83.8760 -4.2524 29.1705 0.0000 0.1173 0.0000
# 2 -4.2524 74.0304 -2.5874 0.0000 2.3859 0.0001
# 3 29.1705 -2.5874 62.8866 0.0000 9.5175 0.0000
# 4 0.0000 0.0000 0.0000 39.6116 0.0000 -1.6298
# 5 0.1173 2.3859 9.5175 0.0000 50.6916 0.0000
# 6 0.0000 0.0001 0.0000 -1.6298 0.0000 21.1385
#
#
#
# Elastic Compliance Matrix: (Units=1/GPa)
#
#
# Indices 1 2 3 4 5 6 
#
# 1 0.014314 0.000545 -0.006801 0.000000 0.001218 0.000000
# 2 0.000545 0.013577 0.000414 0.000000 -0.000718 0.000000
# 3 -0.006801 0.000414 0.019632 0.000000 -0.003690 0.000000
# 4 0.000000 0.000000 0.000000 0.025325 0.000000 0.001953
# 5 0.001218 -0.000718 -0.003690 0.000000 0.020451 0.000000
# 6 0.000000 0.000000 0.000000 0.001953 0.000000 0.047458
#
#
# Mechanical properties :
#
#
# Convention : Reuss Voigt Hill
#
# Bulk Modulus (GPa) = 27.90263 29.49494 28.69879
# Shear Modulus (GPa) = 30.41608 35.51914 32.96761
#
# Velocity S-wave (km/s) = 3.57938 3.86801 3.72649
# Velocity P-wave (km/s) = 5.36991 5.68970 5.53211
#
# Compressibility (1/GPa) = 0.03583891
#
# Stress axis : x y z
#
# Youngs Moduli (GPa) = 69.86300 73.65443 50.93714
#
# Poissons Ratio (x) = -0.04016 0.34645
# Poissons Ratio (y) = -0.03809 -0.02111
# Poissons Ratio (z) = 0.47517 -0.03052
#
# Static dielectric constant tensor:
#      x y z
#    x 1.884220 0.000000 0.009570 
#    y 0.000000 1.809430 0.000000 
#    z 0.009570 0.000000 1.951090 
# 
# From -- ./inp_files/64864.got.cif
#   From: 2010.05.17/outbox.cif.g08.bks.cpg/sg5_33_cif.got.tgz:64864.got - 2010.06.03 18:56:24.
