data_PCOD9124960
_publ_section_title
;
Structure prediction by ZEFSAII (Michael W. Deem and Ramdas Pophale) SiO2 
 PCOD9124960
Probable space group: C 2
;
_chemical_formula_sum "Si O2"
_cell_formula_units_Z 20
_cell_length_a 22.562688
_cell_length_b 8.654235
_cell_length_c 8.222813
_cell_angle_alpha 90.000000
_cell_angle_beta 30.039613
_cell_angle_gamma 90.000000
_cell_volume 803.765930
_symmetry_space_group_name_H-M "C 2"
_symmetry_group_IT_number 5
_symmetry_cell_setting 'monoclinic'
loop_
_space_group_symop_operation_xyz
x,y,z
-x,y,-z
1/2+x,1/2+y,z
1/2-x,1/2+y,-z
loop_
_atom_site_type_symbol
_atom_site_label
_atom_site_fract_x
_atom_site_fract_y
_atom_site_fract_z
Si Si1 0.905899 0.648130 0.372223
Si Si2 0.863999 0.725098 0.064497
Si Si3 0.202299 0.377613 0.204578
Si Si4 0.093972 0.072829 0.417371
Si Si5 0.182605 0.947531 0.525248
O O1 0.858386 0.480473 0.513306
O O2 0.805719 0.778601 0.592010
O O3 0.000000 0.653921 0.000000
O O4 0.998739 0.691020 0.291204
O O5 0.801133 0.774261 0.051973
O O6 0.851030 0.872334 0.219448
O O7 0.789146 0.570383 0.295609
O O8 0.108253 0.256784 0.361932
O O9 0.277651 0.496780 0.921539
O O10 0.000000 0.023744 0.500000
O O11 0.086607 0.030977 0.630360
#
# Coordination Sequence:
#
# PCOD9124960 Si02
#       5
#     4   4   4   4   4
#     4  10  21  39  62  92 128 167 210 264 324 379
#     4  10  21  40  64  93 129 166 214 273 318 378
#     4  11  24  41  65  95 129 171 219 264 322 388
#     4  11  25  44  66  96 134 175 216 268 326 391
#     4  10  21  40  66  94 126 169 215 263 324 382
#
# _framework density 24.882864999999999
#
# number of rings (size 3 to 8) (size 9 to 14) (size 15 to 20)
#    0.000    1.600    0.000    4.800    0.000    4.800 
#    0.000   29.000    0.000    0.000    0.000    0.000 
#    0.000    0.000    0.000    0.000    0.000    0.000 
#
# Total GULP energy -55668.041080 kJ/mol
# GULP energy per Si atom -5566.804108 kJ/mol
# Density = 2.482623 g / cm^3
# Si number density = 24.882865 Si / 1000 Ang^3
#
#
#
# Elastic Constant Matrix: (Units=GPa)
#
#
# Indices 1 2 3 4 5 6 
#
# 1 134.6985 26.5341 19.1429 0.0000 -14.3005 0.0000
# 2 26.5341 151.9760 44.0848 0.0000 0.1702 0.0000
# 3 19.1429 44.0848 51.3107 0.0000 2.7461 0.0000
# 4 0.0000 0.0000 0.0000 26.9849 0.0000 -6.0159
# 5 -14.3005 0.1702 2.7461 0.0000 26.6107 0.0000
# 6 0.0000 0.0000 0.0000 -6.0159 0.0000 57.5282
#
#
#
# Elastic Compliance Matrix: (Units=1/GPa)
#
#
# Indices 1 2 3 4 5 6 
#
# 1 0.008475 -0.000656 -0.002858 0.000000 0.004853 0.000000
# 2 -0.000656 0.008829 -0.007360 0.000000 0.000350 0.000000
# 3 -0.002858 -0.007360 0.027108 0.000000 -0.004286 0.000000
# 4 0.000000 0.000000 0.000000 0.037942 0.000000 0.003968
# 5 0.004853 0.000350 -0.004286 0.000000 0.040627 0.000000
# 6 0.000000 0.000000 0.000000 0.003968 0.000000 0.017798
#
#
# Mechanical properties :
#
#
# Convention : Reuss Voigt Hill
#
# Bulk Modulus (GPa) = 44.12176 57.50099 50.81137
# Shear Modulus (GPa) = 29.39786 38.77300 34.08543
#
# Velocity S-wave (km/s) = 3.44095 3.95171 3.70514
# Velocity P-wave (km/s) = 5.79285 6.63176 6.22645
#
# Compressibility (1/GPa) = 0.02266456
#
# Stress axis : x y z
#
# Youngs Moduli (GPa) = 117.99925 113.26297 36.88962
#
# Poissons Ratio (x) = 0.07431 0.10542
# Poissons Ratio (y) = 0.07742 0.27149
# Poissons Ratio (z) = 0.33721 0.83358
#
# Static dielectric constant tensor:
#      x y z
#    x 2.251540 0.000000 0.084150 
#    y 0.000000 1.980860 0.000000 
#    z 0.084150 0.000000 2.063910 
# 
# From -- ./inp_files/28834.got.cif
#   From: 2010.05.17/outbox.cif.g08.bks.cpg/sg5_15_cif.got.tgz:28834.got - 2010.06.03 18:56:24.
