data_PCOD9124393
_publ_section_title
;
Structure prediction by ZEFSAII (Michael W. Deem and Ramdas Pophale) SiO2 
 PCOD9124393
Probable space group: C 2
;
_chemical_formula_sum "Si O2"
_cell_formula_units_Z 20
_cell_length_a 4.953804
_cell_length_b 30.272107
_cell_length_c 5.299404
_cell_angle_alpha 90.000000
_cell_angle_beta 95.540666
_cell_angle_gamma 90.000000
_cell_volume 790.996725
_symmetry_space_group_name_H-M "C 2"
_symmetry_group_IT_number 5
_symmetry_cell_setting 'monoclinic'
loop_
_space_group_symop_operation_xyz
x,y,z
-x,y,-z
1/2+x,1/2+y,z
1/2-x,1/2+y,-z
loop_
_atom_site_type_symbol
_atom_site_label
_atom_site_fract_x
_atom_site_fract_y
_atom_site_fract_z
Si Si1 0.318777 0.046870 0.739895
Si Si2 0.788440 0.768802 0.675164
Si Si3 0.500000 0.624366 0.500000
Si Si4 0.709679 0.909189 0.834566
Si Si5 0.000000 0.325621 0.000000
Si Si6 0.500000 0.470658 0.500000
Si Si7 0.500000 0.183862 0.500000
O O1 0.500000 0.045666 0.500000
O O2 0.861106 0.090989 0.290752
O O3 0.500000 0.047154 0.000000
O O4 0.127480 0.004107 0.712174
O O5 0.500000 0.767691 0.500000
O O6 0.000000 0.791964 0.500000
O O7 0.897387 0.718787 0.700596
O O8 0.729970 0.791701 0.935225
O O9 0.257907 0.654044 0.588560
O O10 0.783888 0.938417 0.605707
O O11 0.500000 0.933852 0.000000
O O12 0.550746 0.862679 0.787022
O O13 0.000000 0.899897 0.000000
#
# Coordination Sequence:
#
# PCOD9124393 Si02
#       7
#     4   4   2   4   2   2   2
#     4  11  28  50  87 117 164 214 268 339 413 496
#     4  10  23  40  72 105 155 201 265 322 399 465
#     4  11  22  50  80 113 164 199 274 322 414 485
#     4  10  27  44  70 107 156 207 273 327 403 465
#     4  10  26  42  74 108 154 206 270 320 402 468
#     4  11  28  45  78 116 164 212 276 333 408 481
#     4  10  20  45  74 113 158 209 256 337 394 484
#
# _framework density 25.284554
#
# number of rings (size 3 to 8) (size 9 to 14) (size 15 to 20)
#    1.200    0.400    2.000    0.000    9.800    2.400 
#    0.000    4.000    0.000    0.000    0.000    0.000 
#    0.000    0.000    0.000    0.000    0.000    0.000 
#
# Total GULP energy -55849.001478 kJ/mol
# GULP energy per Si atom -5584.900148 kJ/mol
# Density = 2.522701 g / cm^3
# Si number density = 25.284554 Si / 1000 Ang^3
#
#
#
# Elastic Constant Matrix: (Units=GPa)
#
#
# Indices 1 2 3 4 5 6 
#
# 1 197.3868 82.1166 80.4848 0.0000 -23.1068 0.0000
# 2 82.1166 194.6539 57.3538 0.0000 -15.9983 0.0000
# 3 80.4848 57.3538 131.1098 0.0000 -7.6917 0.0000
# 4 0.0000 0.0000 0.0000 10.8091 0.0000 -20.0985
# 5 -23.1068 -15.9983 -7.6917 0.0000 59.6731 0.0000
# 6 0.0000 0.0000 0.0000 -20.0985 0.0000 -11.0143
#
#
#
# Elastic Compliance Matrix: (Units=1/GPa)
#
#
# Indices 1 2 3 4 5 6 
#
# 1 0.007622 -0.001963 -0.003706 0.000000 0.001947 0.000000
# 2 -0.001963 0.006499 -0.001592 0.000000 0.000777 0.000000
# 3 -0.003706 -0.001592 0.010569 0.000000 -0.000499 0.000000
# 4 0.000000 0.000000 0.000000 0.021060 0.000000 -0.038429
# 5 0.001947 0.000777 -0.000499 0.000000 0.017656 0.000000
# 6 0.000000 0.000000 0.000000 -0.038429 0.000000 -0.020667
#
#
# Mechanical properties :
#
#
# Convention : Reuss Voigt Hill
#
# Bulk Modulus (GPa) = 98.35353 107.00675 102.68014
# Shear Modulus (GPa) = 82.44109 32.10660 57.27385
#
# Velocity S-wave (km/s) = 5.71630 3.56731 4.76454
# Velocity P-wave (km/s) = 9.08577 7.70587 8.42412
#
# Compressibility (1/GPa) = 0.01016740
#
# Stress axis : x y z
#
# Youngs Moduli (GPa) = 131.19815 153.88140 94.61501
#
# Poissons Ratio (x) = 0.30214 0.35063
# Poissons Ratio (y) = 0.25761 0.15061
# Poissons Ratio (z) = 0.48620 0.24496
#
# Static dielectric constant tensor:
#      x y z
#    x 2.056060 0.000000 0.080580 
#    y 0.000000 1.991650 0.000000 
#    z 0.080580 0.000000 2.179580 
# 
# From -- ./inp_files/1270.got.cif
#   From: 2010.05.17/outbox.cif.g08.bks.cpg/sg5_1_cif.got.tgz:1270.got - 2010.06.03 18:56:24.
