data_PCOD9124597
_publ_section_title
;
Structure prediction by ZEFSAII (Michael W. Deem and Ramdas Pophale) SiO2 
 PCOD9124597
Probable space group: C 2
;
_chemical_formula_sum "Si O2"
_cell_formula_units_Z 32
_cell_length_a 15.174289
_cell_length_b 22.047976
_cell_length_c 7.873441
_cell_angle_alpha 90.000000
_cell_angle_beta 145.513904
_cell_angle_gamma 90.000000
_cell_volume 1491.476102
_symmetry_space_group_name_H-M "C 2"
_symmetry_group_IT_number 5
_symmetry_cell_setting 'monoclinic'
loop_
_space_group_symop_operation_xyz
x,y,z
-x,y,-z
1/2+x,1/2+y,z
1/2-x,1/2+y,-z
loop_
_atom_site_type_symbol
_atom_site_label
_atom_site_fract_x
_atom_site_fract_y
_atom_site_fract_z
Si Si1 0.697032 0.849840 0.954420
Si Si2 0.462932 0.029138 0.744425
Si Si3 0.586249 0.248986 0.823133
Si Si4 0.641715 0.576509 0.099030
Si Si5 0.845629 0.620420 0.139700
Si Si6 0.413095 0.451489 0.182293
Si Si7 0.083386 0.389826 0.318315
Si Si8 0.870515 0.845705 0.595884
O O1 0.768987 0.794318 0.966771
O O2 0.755964 0.914267 0.974711
O O3 0.780041 0.845177 0.271853
O O4 0.516836 0.851176 0.710645
O O5 0.305046 0.066595 0.457303
O O6 0.615136 0.058038 0.895802
O O7 0.424739 0.959737 0.638133
O O8 0.500000 0.030750 0.000000
O O9 0.500000 0.247774 0.500000
O O10 0.642946 0.181268 0.953275
O O11 0.463669 0.282799 0.749765
O O12 0.695427 0.617969 0.023528
O O13 0.500000 0.594587 0.000000
O O14 0.601053 0.512074 0.948194
O O15 0.000000 0.623731 0.500000
O O16 0.500000 0.463733 0.500000
O O17 0.514845 0.402337 0.242720
O O18 0.250884 0.361439 0.552999
O O19 0.000000 0.388992 0.000000
#
# Coordination Sequence:
#
# PCOD9124597 Si02
#       8
#     4   4   4   4   4   4   4   4
#     4   8  14  25  46  74 101 134 172 209 260 319
#     4  10  21  37  56  78 110 149 184 221 272 333
#     4   8  14  28  47  68  97 137 179 213 254 316
#     4  11  22  34  52  83 112 141 186 232 270 317
#     4   9  19  35  52  72 104 145 184 222 270 325
#     4   9  17  31  51  76 108 141 170 211 272 331
#     4   9  15  25  44  74 103 127 167 219 268 315
#     4   8  14  25  46  75 104 134 169 213 265 324
#
# _framework density 21.455255999999999
#
# number of rings (size 3 to 8) (size 9 to 14) (size 15 to 20)
#    0.000    3.000    0.000    3.000    0.000    3.000 
#    0.000    5.625    0.000    6.000    0.000    7.000 
#    0.000    0.000    0.000    0.000    0.000    0.000 
#
# Total GULP energy -89252.357709 kJ/mol
# GULP energy per Si atom -5578.272357 kJ/mol
# Density = 2.140642 g / cm^3
# Si number density = 21.455256 Si / 1000 Ang^3
#
#
#
# Elastic Constant Matrix: (Units=GPa)
#
#
# Indices 1 2 3 4 5 6 
#
# 1 127.6919 54.1177 46.6149 0.0000 42.2679 0.0000
# 2 54.1177 107.5134 13.9247 0.0000 21.0473 0.0000
# 3 46.6149 13.9247 53.1621 0.0000 10.4283 0.0000
# 4 0.0000 0.0000 0.0000 9.8160 0.0000 -3.2447
# 5 42.2679 21.0473 10.4283 0.0000 52.3271 0.0000
# 6 0.0000 0.0000 0.0000 -3.2447 0.0000 9.8948
#
#
#
# Elastic Compliance Matrix: (Units=1/GPa)
#
#
# Indices 1 2 3 4 5 6 
#
# 1 0.017910 -0.005499 -0.012343 0.000000 -0.009796 0.000000
# 2 -0.005499 0.011977 0.001830 0.000000 -0.000740 0.000000
# 3 -0.012343 0.001830 0.028455 0.000000 0.003563 0.000000
# 4 0.000000 0.000000 0.000000 0.114259 0.000000 0.037468
# 5 -0.009796 -0.000740 0.003563 0.000000 0.026611 0.000000
# 6 0.000000 0.000000 0.000000 0.037468 0.000000 0.113349
#
#
# Mechanical properties :
#
#
# Convention : Reuss Voigt Hill
#
# Bulk Modulus (GPa) = 37.99621 57.52022 47.75821
# Shear Modulus (GPa) = 14.15000 25.98827 20.06914
#
# Velocity S-wave (km/s) = 2.57088 3.48412 3.06174
# Velocity P-wave (km/s) = 5.15369 6.56148 5.89973
#
# Compressibility (1/GPa) = 0.02631842
#
# Stress axis : x y z
#
# Youngs Moduli (GPa) = 55.83426 83.49296 35.14358
#
# Poissons Ratio (x) = 0.45913 0.43376
# Poissons Ratio (y) = 0.30703 -0.06431
# Poissons Ratio (z) = 0.68914 -0.15278
#
# Static dielectric constant tensor:
#      x y z
#    x 1.832510 0.000000 -0.027130 
#    y 0.000000 1.787480 0.000000 
#    z -0.027130 0.000000 1.817180 
# 
# From -- ./inp_files/25676.got.cif
#   From: 2010.05.17/outbox.cif.g08.bks.cpg/sg5_13_cif.got.tgz:25676.got - 2010.06.03 18:56:24.
