data_PCOD9124752
_publ_section_title
;
Structure prediction by ZEFSAII (Michael W. Deem and Ramdas Pophale) SiO2 
 PCOD9124752
Probable space group: C 2
;
_chemical_formula_sum "Si O2"
_cell_formula_units_Z 28
_cell_length_a 10.850321
_cell_length_b 8.520335
_cell_length_c 13.419406
_cell_angle_alpha 90.000000
_cell_angle_beta 116.818947
_cell_angle_gamma 90.000000
_cell_volume 1107.158903
_symmetry_space_group_name_H-M "C 2"
_symmetry_group_IT_number 5
_symmetry_cell_setting 'monoclinic'
loop_
_space_group_symop_operation_xyz
x,y,z
-x,y,-z
1/2+x,1/2+y,z
1/2-x,1/2+y,-z
loop_
_atom_site_type_symbol
_atom_site_label
_atom_site_fract_x
_atom_site_fract_y
_atom_site_fract_z
Si Si1 0.354887 0.258580 0.998385
Si Si2 0.181546 0.547718 0.271496
Si Si3 0.436430 0.334885 0.369055
Si Si4 0.654551 0.737474 0.514561
Si Si5 0.251741 0.068902 0.359457
Si Si6 0.571239 0.904401 0.925018
Si Si7 0.556376 0.362126 0.207750
O O1 0.399236 0.338379 0.119496
O O2 0.368637 0.072421 0.015435
O O3 0.500000 0.320321 0.000000
O O4 0.198398 0.309613 0.924883
O O5 0.311827 0.445808 0.290226
O O6 0.237568 0.614905 0.396121
O O7 0.146168 0.712116 0.202545
O O8 0.044790 0.447436 0.199671
O O9 0.500000 0.372673 0.500000
O O10 0.378788 0.160249 0.357348
O O11 0.547113 0.351824 0.324147
O O12 0.500000 0.708248 0.500000
O O13 0.676591 0.692868 0.406746
O O14 0.688095 0.914678 0.562624
O O15 0.147379 0.016799 0.232575
O O16 0.500000 0.835189 0.000000
#
# Coordination Sequence:
#
# PCOD9124752 Si02
#       7
#     4   4   4   4   4   4   4
#     4  10  23  43  67  96 130 168 217 272 327 385
#     4  10  21  38  60  86 120 161 207 257 313 371
#     4  12  23  38  61  89 124 166 210 261 316 378
#     4  11  22  39  60  87 125 168 211 258 311 374
#     4  11  24  38  59  91 123 161 213 257 311 379
#     4  10  22  41  64  93 128 167 214 271 328 386
#     4  10  23  41  61  90 126 163 210 266 316 375
#
# _framework density 25.289956
#
# number of rings (size 3 to 8) (size 9 to 14) (size 15 to 20)
#    0.000    1.429    0.000    6.000    0.000    5.143 
#    0.000    7.143    0.000    0.000    0.000    0.000 
#    0.000    0.000    0.000    0.000    0.000    0.000 
#
# Total GULP energy -78082.420087 kJ/mol
# GULP energy per Si atom -5577.315720 kJ/mol
# Density = 2.523240 g / cm^3
# Si number density = 25.289956 Si / 1000 Ang^3
#
#
#
# Elastic Constant Matrix: (Units=GPa)
#
#
# Indices 1 2 3 4 5 6 
#
# 1 120.7284 24.0563 39.1822 0.0000 35.4965 0.0000
# 2 24.0563 75.7485 -1.2023 0.0000 17.3401 0.0000
# 3 39.1822 -1.2023 14.3826 0.0000 25.6917 0.0000
# 4 0.0000 0.0000 0.0000 33.9926 0.0000 11.4848
# 5 35.4965 17.3401 25.6917 0.0000 41.0515 0.0000
# 6 0.0000 0.0000 0.0000 11.4848 0.0000 41.1280
#
#
#
# Elastic Compliance Matrix: (Units=1/GPa)
#
#
# Indices 1 2 3 4 5 6 
#
# 1 0.005585 0.004042 0.027142 0.000000 -0.023523 0.000000
# 2 0.004042 0.009415 -0.026477 0.000000 0.009098 0.000000
# 3 0.027142 -0.026477 -0.129884 0.000000 0.069002 0.000000
# 4 0.000000 0.000000 0.000000 0.032483 0.000000 -0.009071
# 5 -0.023523 0.009098 0.069002 0.000000 -0.002328 0.000000
# 6 0.000000 0.000000 0.000000 -0.009071 0.000000 0.026847
#
#
# Mechanical properties :
#
#
# Convention : Reuss Voigt Hill
#
# Bulk Modulus (GPa) = -9.48131 37.21467 13.86668
# Shear Modulus (GPa) = -48.80340 33.15596 -7.82372
#
# Velocity S-wave (km/s) = -4.39766 3.62475 -1.76077
# Velocity P-wave (km/s) = 5.43536 5.68028 1.16671
#
# Compressibility (1/GPa) = -0.10547068
#
# Stress axis : x y z
#
# Youngs Moduli (GPa) = 179.04653 106.21403 -7.69917
#
# Poissons Ratio (x) = -0.42930 0.20897
# Poissons Ratio (y) = -0.72368 -0.20385
# Poissons Ratio (z) = -4.85961 2.81220
#
# Static dielectric constant tensor:
#      x y z
#    x 1.980320 0.000000 -0.165590 
#    y 0.000000 2.004540 0.000000 
#    z -0.165590 0.000000 2.590200 
# 
# From -- ./inp_files/52511.got.cif
#   From: 2010.05.17/outbox.cif.g08.bks.cpg/sg5_27_cif.got.tgz:52511.got - 2010.06.03 18:56:24.
