data_PCOD9124650
_publ_section_title
;
Structure prediction by ZEFSAII (Michael W. Deem and Ramdas Pophale) SiO2 
 PCOD9124650
Probable space group: C 2
;
_chemical_formula_sum "Si O2"
_cell_formula_units_Z 24
_cell_length_a 10.815394
_cell_length_b 8.825338
_cell_length_c 23.566978
_cell_angle_alpha 90.000000
_cell_angle_beta 156.023988
_cell_angle_gamma 90.000000
_cell_volume 914.075926
_symmetry_space_group_name_H-M "C 2"
_symmetry_group_IT_number 5
_symmetry_cell_setting 'monoclinic'
loop_
_space_group_symop_operation_xyz
x,y,z
-x,y,-z
1/2+x,1/2+y,z
1/2-x,1/2+y,-z
loop_
_atom_site_type_symbol
_atom_site_label
_atom_site_fract_x
_atom_site_fract_y
_atom_site_fract_z
Si Si1 0.361838 0.183130 0.164627
Si Si2 0.078351 0.467147 0.911510
Si Si3 0.329872 0.041159 0.605237
Si Si4 0.936904 0.972101 0.699596
Si Si5 0.328416 0.650684 0.108277
Si Si6 0.675296 0.209692 0.513691
O O1 0.470988 0.100983 0.153661
O O2 0.414683 0.068632 0.239170
O O3 0.593806 0.318166 0.278484
O O4 0.000000 0.216249 0.000000
O O5 0.138383 0.313754 0.904318
O O6 0.778590 0.445211 0.821853
O O7 0.329211 0.521828 0.061011
O O8 0.376593 0.168195 0.575056
O O9 0.000000 0.061002 0.500000
O O10 0.354656 0.871495 0.589482
O O11 0.931955 0.106987 0.743632
O O12 0.782145 0.041067 0.579744
O O13 0.000000 0.648648 0.000000
O O14 0.500000 0.247254 0.500000
#
# Coordination Sequence:
#
# PCOD9124650 Si02
#       6
#     4   4   4   4   4   4
#     4  12  25  43  70 105 144 186 232 289 356 423
#     4  11  22  39  61  90 135 181 223 280 346 414
#     4  11  26  50  76 106 144 188 243 299 357 429
#     4  11  24  42  64  98 136 179 233 287 347 419
#     4  10  21  37  60  90 129 177 225 274 340 415
#     4  11  26  47  75 105 137 187 246 301 355 424
#
# _framework density 26.256025000000001
#
# number of rings (size 3 to 8) (size 9 to 14) (size 15 to 20)
#    0.000    1.000    0.000    7.000    0.000   10.667 
#    0.000    2.500    0.000    0.000    0.000    0.000 
#    0.000    0.000    0.000    0.000    0.000    0.000 
#
# Total GULP energy -66930.811407 kJ/mol
# GULP energy per Si atom -5577.567617 kJ/mol
# Density = 2.619626 g / cm^3
# Si number density = 26.256025 Si / 1000 Ang^3
#
#
#
# Elastic Constant Matrix: (Units=GPa)
#
#
# Indices 1 2 3 4 5 6 
#
# 1 124.3154 28.0717 36.6280 0.0048 -7.6023 0.0013
# 2 28.0717 132.0345 16.8785 -0.0002 -18.8319 -0.0011
# 3 36.6280 16.8785 83.7233 0.0178 -40.9528 0.0024
# 4 0.0048 -0.0002 0.0178 40.8522 0.0049 -22.3698
# 5 -7.6023 -18.8319 -40.9528 0.0049 53.9742 0.0012
# 6 0.0013 -0.0011 0.0024 -22.3698 0.0012 53.7594
#
#
#
# Elastic Compliance Matrix: (Units=1/GPa)
#
#
# Indices 1 2 3 4 5 6 
#
# 1 0.009940 -0.001896 -0.005733 0.000002 -0.003611 0.000001
# 2 -0.001896 0.008340 0.000701 0.000000 0.003175 0.000000
# 3 -0.005733 0.000701 0.022319 -0.000015 0.016372 -0.000007
# 4 0.000002 0.000000 -0.000015 0.031702 -0.000015 0.013191
# 5 -0.003611 0.003175 0.016372 -0.000015 0.031548 -0.000007
# 6 0.000001 0.000000 -0.000007 0.013191 -0.000007 0.024090
#
#
# Mechanical properties :
#
#
# Convention : Reuss Voigt Hill
#
# Bulk Modulus (GPa) = 37.39197 55.91442 46.65320
# Shear Modulus (GPa) = 33.17621 46.95014 40.06317
#
# Velocity S-wave (km/s) = 3.55852 4.23326 3.91047
# Velocity P-wave (km/s) = 5.58178 6.72578 6.18031
#
# Compressibility (1/GPa) = 0.02674371
#
# Stress axis : x y z
#
# Youngs Moduli (GPa) = 100.59894 119.90398 44.80478
#
# Poissons Ratio (x) = 0.22729 0.25687
# Poissons Ratio (y) = 0.19070 -0.03140
# Poissons Ratio (z) = 0.57675 -0.08403
#
# Static dielectric constant tensor:
#      x y z
#    x 1.995690 -0.000010 0.015330 
#    y -0.000010 2.167640 -0.000020 
#    z 0.015330 -0.000020 1.981220 
# 
# From -- ./inp_files/68309.got.cif
#   From: 2010.05.17/outbox.cif.g08.bks.cpg/sg5_35_cif.got.tgz:68309.got - 2010.06.03 18:56:24.
