data_PCOD9124446
_publ_section_title
;
Structure prediction by ZEFSAII (Michael W. Deem and Ramdas Pophale) SiO2 
 PCOD9124446
Probable space group: C 2
;
_chemical_formula_sum "Si O2"
_cell_formula_units_Z 28
_cell_length_a 14.313293
_cell_length_b 17.273923
_cell_length_c 9.624507
_cell_angle_alpha 90.000000
_cell_angle_beta 40.326941
_cell_angle_gamma 90.000000
_cell_volume 1539.972136
_symmetry_space_group_name_H-M "C 2"
_symmetry_group_IT_number 5
_symmetry_cell_setting 'monoclinic'
loop_
_space_group_symop_operation_xyz
x,y,z
-x,y,-z
1/2+x,1/2+y,z
1/2-x,1/2+y,-z
loop_
_atom_site_type_symbol
_atom_site_label
_atom_site_fract_x
_atom_site_fract_y
_atom_site_fract_z
Si Si1 0.373660 0.675330 0.545162
Si Si2 0.238356 0.900348 0.502077
Si Si3 0.560797 0.170458 0.586196
Si Si4 0.871521 0.556816 0.252423
Si Si5 0.623208 0.740801 0.747710
Si Si6 0.044446 0.815185 0.116062
Si Si7 0.330146 0.851378 0.685323
O O1 0.500000 0.645157 0.500000
O O2 0.236609 0.620679 0.688099
O O3 0.430318 0.694537 0.327206
O O4 0.326113 0.759941 0.651914
O O5 0.336226 0.829075 0.336714
O O6 0.271919 0.904174 0.627601
O O7 0.073109 0.872738 0.683240
O O8 0.281534 0.979380 0.381923
O O9 0.500000 0.161066 0.500000
O O10 0.568669 0.093458 0.671555
O O11 0.724777 0.201754 0.385121
O O12 0.476500 0.234879 0.776052
O O13 0.000000 0.542284 0.000000
O O14 0.500000 0.738307 0.000000
O O15 0.205194 0.851318 0.943355
O O16 0.000000 0.805380 0.000000
O O17 0.500000 0.869331 0.500000
#
# Coordination Sequence:
#
# PCOD9124446 Si02
#       7
#     4   4   4   4   4   4   4
#     4   9  19  35  55  79 103 133 182 224 261 315
#     4   9  19  33  51  77 106 141 179 215 263 317
#     4  10  21  34  54  83 111 140 178 221 269 318
#     4  11  21  36  55  76 110 149 181 215 263 323
#     4   9  18  34  53  75 104 136 177 229 271 306
#     4   9  17  36  59  77 104 141 178 220 268 316
#     4   9  17  32  58  83 100 130 180 226 262 311
#
# _framework density 18.182145999999999
#
# number of rings (size 3 to 8) (size 9 to 14) (size 15 to 20)
#    0.000    2.571    0.000    4.286    0.000    5.143 
#    0.000   12.857    0.000    0.000    0.000    0.000 
#    0.000    0.000    0.000    0.000    0.000    0.000 
#
# Total GULP energy -77975.656319 kJ/mol
# GULP energy per Si atom -5569.689737 kJ/mol
# Density = 1.814076 g / cm^3
# Si number density = 18.182146 Si / 1000 Ang^3
#
#
#
# Elastic Constant Matrix: (Units=GPa)
#
#
# Indices 1 2 3 4 5 6 
#
# 1 84.0181 9.7299 26.3200 -0.0001 2.0431 -0.0001
# 2 9.7299 39.3259 18.2972 -0.0001 1.5385 0.0000
# 3 26.3200 18.2972 137.4669 -0.0001 -13.2480 0.0000
# 4 -0.0001 -0.0001 -0.0001 8.2605 0.0001 -5.3435
# 5 2.0431 1.5385 -13.2480 0.0001 22.9539 0.0000
# 6 -0.0001 0.0000 0.0000 -5.3435 0.0000 4.2808
#
#
#
# Elastic Compliance Matrix: (Units=1/GPa)
#
#
# Indices 1 2 3 4 5 6 
#
# 1 0.012958 -0.001969 -0.002454 0.000001 -0.002438 0.000001
# 2 -0.001969 0.027781 -0.003688 0.000001 -0.003816 0.000001
# 3 -0.002454 -0.003688 0.008768 0.000000 0.005526 0.000000
# 4 0.000001 0.000001 0.000000 0.628726 -0.000003 0.784798
# 5 -0.002438 -0.003816 0.005526 -0.000003 0.047228 -0.000004
# 6 0.000001 0.000001 0.000000 0.784798 -0.000004 1.213211
#
#
# Mechanical properties :
#
#
# Convention : Reuss Voigt Hill
#
# Bulk Modulus (GPa) = 30.04407 41.05613 35.55010
# Shear Modulus (GPa) = 2.54325 20.86331 11.70328
#
# Velocity S-wave (km/s) = 1.18398 3.39109 2.53981
# Velocity P-wave (km/s) = 4.29289 6.16135 5.30995
#
# Compressibility (1/GPa) = 0.03328443
#
# Stress axis : x y z
#
# Youngs Moduli (GPa) = 77.17112 35.99569 114.05370
#
# Poissons Ratio (x) = 0.07088 0.27987
# Poissons Ratio (y) = 0.15195 0.42068
# Poissons Ratio (z) = 0.18937 0.13277
#
# Static dielectric constant tensor:
#      x y z
#    x 1.669910 0.000000 -0.007680 
#    y 0.000000 1.610900 0.000000 
#    z -0.007680 0.000000 1.668830 
# 
# From -- ./inp_files/25170.got.cif
#   From: 2010.05.17/outbox.cif.g08.bks.cpg/sg5_13_cif.got.tgz:25170.got - 2010.06.03 18:56:24.
