data_PCOD9124419
_publ_section_title
;
Structure prediction by ZEFSAII (Michael W. Deem and Ramdas Pophale) SiO2 
 PCOD9124419
Probable space group: C 2
;
_chemical_formula_sum "Si O2"
_cell_formula_units_Z 30
_cell_length_a 11.797127
_cell_length_b 11.510843
_cell_length_c 20.601761
_cell_angle_alpha 90.000000
_cell_angle_beta 26.767134
_cell_angle_gamma 90.000000
_cell_volume 1259.948538
_symmetry_space_group_name_H-M "C 2"
_symmetry_group_IT_number 5
_symmetry_cell_setting 'monoclinic'
loop_
_space_group_symop_operation_xyz
x,y,z
-x,y,-z
1/2+x,1/2+y,z
1/2-x,1/2+y,-z
loop_
_atom_site_type_symbol
_atom_site_label
_atom_site_fract_x
_atom_site_fract_y
_atom_site_fract_z
Si Si1 0.758564 0.342810 0.669141
Si Si2 0.000000 0.408366 0.000000
Si Si3 0.329399 0.957195 0.273397
Si Si4 0.775838 0.210793 0.350452
Si Si5 0.691596 0.490869 0.045567
Si Si6 0.009791 0.136886 0.361152
Si Si7 0.938504 0.187474 0.120740
Si Si8 0.551607 0.151545 0.688297
O O1 0.580389 0.431987 0.800419
O O2 0.854355 0.245315 0.671604
O O3 0.579244 0.277168 0.708362
O O4 0.000000 0.379763 0.500000
O O5 0.185195 0.491010 0.945936
O O6 0.062467 0.312122 0.912510
O O7 0.257943 0.850203 0.356011
O O8 0.151171 0.014874 0.307547
O O9 0.334910 0.063478 0.319350
O O10 0.607236 0.926482 0.103647
O O11 0.500000 0.159246 0.500000
O O12 0.840999 0.189099 0.243153
O O13 0.964756 0.164154 0.308455
O O14 0.683836 0.612521 0.009782
O O15 0.729309 0.141484 0.535006
O O16 0.733308 0.121102 0.182696
#
# Coordination Sequence:
#
# PCOD9124419 Si02
#       8
#     4   2   4   4   4   4   4   4
#     4   9  21  45  75 104 138 190 246 299 372 435
#     4  12  26  54  70 100 162 194 242 304 368 438
#     4  11  25  45  72 105 143 192 245 298 370 437
#     4  12  25  44  69 111 147 186 245 304 366 432
#     4  12  27  44  72 107 139 199 241 295 375 435
#     4  10  23  44  73 103 146 189 237 312 358 433
#     4  12  26  44  72 101 144 193 243 300 362 446
#     4  10  20  47  73  99 141 192 243 302 364 431
#
# _framework density 23.810497000000002
#
# number of rings (size 3 to 8) (size 9 to 14) (size 15 to 20)
#    0.000    1.067    4.000    2.800    5.600    0.533 
#    0.000    1.333    0.000    0.000    0.000    0.000 
#    0.000    0.000    0.000    0.000    0.000    0.000 
#
# Total GULP energy -83537.041183 kJ/mol
# GULP energy per Si atom -5569.136079 kJ/mol
# Density = 2.375630 g / cm^3
# Si number density = 23.810497 Si / 1000 Ang^3
#
#
#
# Elastic Constant Matrix: (Units=GPa)
#
#
# Indices 1 2 3 4 5 6 
#
# 1 165.4225 39.5827 16.4234 -0.0263 4.0851 -0.0796
# 2 39.5827 70.4559 0.0460 -0.0005 -7.2457 0.0265
# 3 16.4234 0.0460 71.6885 -0.1307 13.1218 -0.3104
# 4 -0.0263 -0.0005 -0.1307 24.0305 0.0369 -18.9349
# 5 4.0851 -7.2457 13.1218 0.0369 40.8643 0.1116
# 6 -0.0796 0.0265 -0.3104 -18.9349 0.1116 -35.9076
#
#
#
# Elastic Compliance Matrix: (Units=1/GPa)
#
#
# Indices 1 2 3 4 5 6 
#
# 1 0.007208 -0.004150 -0.001468 -0.000004 -0.000985 -0.000007
# 2 -0.004150 0.016864 0.000337 0.000011 0.003297 0.000023
# 3 -0.001468 0.000337 0.015137 -0.000017 -0.004654 -0.000133
# 4 -0.000004 0.000011 -0.000017 0.029399 0.000024 -0.015502
# 5 -0.000985 0.003297 -0.004654 0.000024 0.026648 0.000115
# 6 -0.000007 0.000023 -0.000133 -0.015502 0.000115 -0.019673
#
#
# Mechanical properties :
#
#
# Convention : Reuss Voigt Hill
#
# Bulk Modulus (GPa) = 34.91043 46.63012 40.77028
# Shear Modulus (GPa) = 52.24979 22.56511 37.40745
#
# Velocity S-wave (km/s) = 4.68953 3.08181 3.96795
# Velocity P-wave (km/s) = 6.63444 5.68241 6.17679
#
# Compressibility (1/GPa) = 0.02864474
#
# Stress axis : x y z
#
# Youngs Moduli (GPa) = 138.72991 59.29944 66.06488
#
# Poissons Ratio (x) = 0.24609 0.09701
# Poissons Ratio (y) = 0.57572 -0.02224
# Poissons Ratio (z) = 0.20372 -0.01996
#
# Static dielectric constant tensor:
#      x y z
#    x 1.936280 0.000130 -0.113860 
#    y 0.000130 2.230770 -0.000170 
#    z -0.113860 -0.000170 2.186420 
# 
# From -- ./inp_files/65354.got.cif
#   From: 2010.05.17/outbox.cif.g08.bks.cpg/sg5_33_cif.got.tgz:65354.got - 2010.06.03 18:56:24.
