data_PCOD9124701
_publ_section_title
;
Structure prediction by ZEFSAII (Michael W. Deem and Ramdas Pophale) SiO2 
 PCOD9124701
Probable space group: C 2
;
_chemical_formula_sum "Si O2"
_cell_formula_units_Z 24
_cell_length_a 10.318713
_cell_length_b 12.083187
_cell_length_c 8.763017
_cell_angle_alpha 90.000000
_cell_angle_beta 57.696050
_cell_angle_gamma 90.000000
_cell_volume 923.491738
_symmetry_space_group_name_H-M "C 2"
_symmetry_group_IT_number 5
_symmetry_cell_setting 'monoclinic'
loop_
_space_group_symop_operation_xyz
x,y,z
-x,y,-z
1/2+x,1/2+y,z
1/2-x,1/2+y,-z
loop_
_atom_site_type_symbol
_atom_site_label
_atom_site_fract_x
_atom_site_fract_y
_atom_site_fract_z
Si Si1 0.663463 0.419240 0.825706
Si Si2 0.012853 0.349631 0.315017
Si Si3 0.887950 0.588514 0.317427
Si Si4 0.504877 0.303471 0.316352
Si Si5 0.125942 0.146278 0.724752
Si Si6 0.127749 0.019940 0.281611
O O1 0.804736 0.360198 0.815572
O O2 0.639897 0.370876 0.667040
O O3 0.681401 0.552879 0.809869
O O4 0.500000 0.391898 0.000000
O O5 0.000000 0.307024 0.500000
O O6 0.951481 0.474605 0.342879
O O7 0.921083 0.274832 0.250991
O O8 0.757743 0.634948 0.514455
O O9 0.790522 0.564542 0.228273
O O10 0.010198 0.686441 0.229979
O O11 0.500000 0.278493 0.500000
O O12 0.637844 0.394030 0.220221
O O13 0.961824 0.094734 0.780273
O O14 0.000000 0.016079 0.500000
#
# Coordination Sequence:
#
# PCOD9124701 Si02
#       6
#     4   4   4   4   4   4
#     4  11  25  48  68  98 143 187 230 281 354 422
#     4  12  23  39  69 104 137 179 239 285 346 409
#     4  11  21  35  64 106 135 165 235 294 333 403
#     4  10  21  37  65  96 128 174 227 284 337 398
#     4  10  21  38  64  92 134 177 223 288 343 396
#     4   8  17  32  52  86 124 164 207 266 339 377
#
# _framework density 25.988322
#
# number of rings (size 3 to 8) (size 9 to 14) (size 15 to 20)
#    0.000    1.667    1.667    5.000    7.000    0.667 
#    3.000    0.000    0.000    0.000    0.000    0.000 
#    0.000    0.000    0.000    0.000    0.000    0.000 
#
# Total GULP energy -67014.299971 kJ/mol
# GULP energy per Si atom -5584.524998 kJ/mol
# Density = 2.592917 g / cm^3
# Si number density = 25.988322 Si / 1000 Ang^3
#
#
#
# Elastic Constant Matrix: (Units=GPa)
#
#
# Indices 1 2 3 4 5 6 
#
# 1 67.5680 35.2226 13.0390 0.0000 -17.1254 0.0000
# 2 35.2226 184.5688 18.3480 0.0000 -13.5861 0.0000
# 3 13.0390 18.3480 63.1464 0.0000 -9.4202 0.0000
# 4 0.0000 0.0000 0.0000 -3.2653 0.0000 -2.2647
# 5 -17.1254 -13.5861 -9.4202 0.0000 27.3342 0.0000
# 6 0.0000 0.0000 0.0000 -2.2647 0.0000 49.9883
#
#
#
# Elastic Compliance Matrix: (Units=1/GPa)
#
#
# Indices 1 2 3 4 5 6 
#
# 1 0.019089 -0.002741 -0.001649 0.000000 0.010029 0.000000
# 2 -0.002741 0.006118 -0.001069 0.000000 0.000955 0.000000
# 3 -0.001649 -0.001069 0.017135 0.000000 0.004341 0.000000
# 4 0.000000 0.000000 0.000000 -0.296924 0.000000 -0.013452
# 5 0.010029 0.000955 0.004341 0.000000 0.044838 0.000000
# 6 0.000000 0.000000 0.000000 -0.013452 0.000000 0.019395
#
#
# Mechanical properties :
#
#
# Convention : Reuss Voigt Hill
#
# Bulk Modulus (GPa) = 31.82346 49.83360 40.82853
# Shear Modulus (GPa) = -29.59332 31.38969 0.89818
#
# Velocity S-wave (km/s) = -3.37815 3.47917 0.58852
# Velocity P-wave (km/s) = 1.71580 5.94613 4.02570
#
# Compressibility (1/GPa) = 0.03142336
#
# Stress axis : x y z
#
# Youngs Moduli (GPa) = 52.38706 163.46151 58.36028
#
# Poissons Ratio (x) = 0.44799 0.09624
# Poissons Ratio (y) = 0.14358 0.06240
# Poissons Ratio (z) = 0.08639 0.17477
#
# Static dielectric constant tensor:
#      x y z
#    x 2.041610 0.000000 0.083170 
#    y 0.000000 2.091580 0.000000 
#    z 0.083170 0.000000 2.106050 
# 
# From -- ./inp_files/39086.got.cif
#   From: 2010.05.17/outbox.cif.g08.bks.cpg/sg5_20_cif.got.tgz:39086.got - 2010.06.03 18:56:24.
