data_PCOD9124634
_publ_section_title
;
Structure prediction by ZEFSAII (Michael W. Deem and Ramdas Pophale) SiO2 
 PCOD9124634
Probable space group: C 2
;
_chemical_formula_sum "Si O2"
_cell_formula_units_Z 26
_cell_length_a 27.932077
_cell_length_b 5.202564
_cell_length_c 7.768424
_cell_angle_alpha 90.000000
_cell_angle_beta 70.080393
_cell_angle_gamma 90.000000
_cell_volume 1061.355092
_symmetry_space_group_name_H-M "C 2"
_symmetry_group_IT_number 5
_symmetry_cell_setting 'monoclinic'
loop_
_space_group_symop_operation_xyz
x,y,z
-x,y,-z
1/2+x,1/2+y,z
1/2-x,1/2+y,-z
loop_
_atom_site_type_symbol
_atom_site_label
_atom_site_fract_x
_atom_site_fract_y
_atom_site_fract_z
Si Si1 0.000000 0.892540 0.000000
Si Si2 0.251238 0.797872 0.263661
Si Si3 0.056149 0.956481 0.602085
Si Si4 0.147950 0.397752 0.987744
Si Si5 0.805029 0.300402 0.571228
Si Si6 0.889189 0.873874 0.140631
Si Si7 0.589842 0.944239 0.410029
O O1 0.985303 0.025176 0.199179
O O2 0.946032 0.758926 0.031127
O O3 0.225679 0.522596 0.293357
O O4 0.284406 0.798337 0.401012
O O5 0.210079 0.025683 0.328497
O O6 0.292891 0.830171 0.064071
O O7 0.106530 0.930498 0.662494
O O8 0.055289 0.680467 0.513058
O O9 0.059854 0.177650 0.459092
O O10 0.116959 0.477092 0.194583
O O11 0.148149 0.651078 0.867881
O O12 0.121392 0.142467 0.941108
O O13 0.863010 0.393036 0.518118
#
# Coordination Sequence:
#
# PCOD9124634 Si02
#       7
#     2   4   4   4   4   4   4
#     4   8  24  42  74  90 112 162 222 250 308 362
#     4  10  21  37  59  87 121 164 215 251 287 355
#     4  10  22  42  67  88 121 160 218 250 301 376
#     4  12  24  39  62  97 131 164 198 256 324 363
#     4  10  21  37  59  87 121 164 215 251 287 355
#     4  10  22  42  67  88 121 160 218 250 301 376
#     4  12  24  39  62  97 131 164 198 256 324 363
#
# _framework density 24.496984999999999
#
# number of rings (size 3 to 8) (size 9 to 14) (size 15 to 20)
#    0.923    0.615    0.000    5.538    0.000    6.154 
#    0.000    4.615    0.000    0.000    0.000    0.000 
#    0.000    0.000    0.000    0.000    0.000    0.000 
#
# Total GULP energy -72583.146153 kJ/mol
# GULP energy per Si atom -5583.318935 kJ/mol
# Density = 2.444123 g / cm^3
# Si number density = 24.496985 Si / 1000 Ang^3
#
#
#
# Elastic Constant Matrix: (Units=GPa)
#
#
# Indices 1 2 3 4 5 6 
#
# 1 61.1975 11.5837 3.5299 0.0000 -6.3644 0.0000
# 2 11.5837 112.1254 29.3917 0.0000 17.0156 0.0000
# 3 3.5299 29.3917 111.6470 0.0000 -3.7198 0.0000
# 4 0.0000 0.0000 0.0000 28.5655 0.0000 1.9481
# 5 -6.3644 17.0156 -3.7198 0.0000 32.1578 0.0000
# 6 0.0000 0.0000 0.0000 1.9481 0.0000 -32.8448
#
#
#
# Elastic Compliance Matrix: (Units=1/GPa)
#
#
# Indices 1 2 3 4 5 6 
#
# 1 0.017319 -0.002602 0.000299 0.000000 0.004839 0.000000
# 2 -0.002602 0.010998 -0.003036 0.000000 -0.006685 0.000000
# 3 0.000299 -0.003036 0.009840 0.000000 0.002804 0.000000
# 4 0.000000 0.000000 0.000000 0.034866 0.000000 0.002068
# 5 0.004839 -0.006685 0.002804 0.000000 0.035916 0.000000
# 6 0.000000 0.000000 0.000000 0.002068 0.000000 -0.030324
#
#
# Mechanical properties :
#
#
# Convention : Reuss Voigt Hill
#
# Bulk Modulus (GPa) = 36.39169 41.55340 38.97255
# Shear Modulus (GPa) = 50.78587 21.60669 36.19628
#
# Velocity S-wave (km/s) = 4.55812 2.97309 3.84810
# Velocity P-wave (km/s) = 6.52609 5.36518 5.97390
#
# Compressibility (1/GPa) = 0.02747880
#
# Stress axis : x y z
#
# Youngs Moduli (GPa) = 57.73994 90.92856 101.62685
#
# Poissons Ratio (x) = 0.23658 -0.03035
# Poissons Ratio (y) = 0.15023 0.30850
# Poissons Ratio (z) = -0.01724 0.27603
#
# Static dielectric constant tensor:
#      x y z
#    x 2.041570 0.000000 -0.009650 
#    y 0.000000 1.885700 0.000000 
#    z -0.009650 0.000000 1.991440 
# 
# From -- ./inp_files/32111.got.cif
#   From: 2010.05.17/outbox.cif.g08.bks.cpg/sg5_17_cif.got.tgz:32111.got - 2010.06.03 18:56:24.
