data_PCOD9124333
_publ_section_title
;
Structure prediction by ZEFSAII (Michael W. Deem and Ramdas Pophale) SiO2 
 PCOD9124333
Probable space group: C 2
;
_chemical_formula_sum "Si O2"
_cell_formula_units_Z 28
_cell_length_a 15.815964
_cell_length_b 8.281185
_cell_length_c 13.859429
_cell_angle_alpha 90.000000
_cell_angle_beta 50.524719
_cell_angle_gamma 90.000000
_cell_volume 1401.180012
_symmetry_space_group_name_H-M "C 2"
_symmetry_group_IT_number 5
_symmetry_cell_setting 'monoclinic'
loop_
_space_group_symop_operation_xyz
x,y,z
-x,y,-z
1/2+x,1/2+y,z
1/2-x,1/2+y,-z
loop_
_atom_site_type_symbol
_atom_site_label
_atom_site_fract_x
_atom_site_fract_y
_atom_site_fract_z
Si Si1 0.823317 0.240890 0.504481
Si Si2 0.945981 0.389663 0.909813
Si Si3 0.437513 0.883868 0.687095
Si Si4 0.332540 0.749177 0.160070
Si Si5 0.000000 0.664595 0.500000
Si Si6 0.000000 0.686775 0.000000
Si Si7 0.711575 0.373856 0.768837
Si Si8 0.802634 0.872603 0.581828
O O1 0.744429 0.341307 0.633959
O O2 0.780468 0.279788 0.428858
O O3 0.950110 0.292291 0.422115
O O4 0.812212 0.054299 0.539205
O O5 0.938813 0.402420 0.801035
O O6 0.054886 0.294463 0.865783
O O7 0.849738 0.295971 0.036171
O O8 0.955490 0.566676 0.949667
O O9 0.320644 0.808529 0.743606
O O10 0.444127 0.048068 0.619581
O O11 0.304185 0.562982 0.197098
O O12 0.244023 0.861634 0.276308
O O13 0.084819 0.775528 0.495657
O O14 0.899461 0.787742 0.116631
#
# Coordination Sequence:
#
# PCOD9124333 Si02
#       8
#     4   4   4   4   2   2   4   4
#     4  12  25  44  72 103 134 184 224 276 350 409
#     4  10  23  42  69  93 131 179 227 285 331 414
#     4  12  24  44  67 102 142 173 224 282 342 399
#     4  10  20  44  65  93 131 180 228 269 340 393
#     4  12  26  44  66 104 140 172 222 294 334 410
#     4  10  24  44  66  96 128 180 240 272 342 400
#     4  12  24  43  69  98 139 177 227 289 325 415
#     4  12  25  44  71  99 138 177 227 281 341 409
#
# _framework density 19.983158
#
# number of rings (size 3 to 8) (size 9 to 14) (size 15 to 20)
#    0.000    0.857    4.286    4.286    4.000    1.143 
#    0.000    0.000    0.000    0.000    0.000    0.000 
#    0.000    0.000    0.000    0.000    0.000    0.000 
#
# Total GULP energy -78210.074515 kJ/mol
# GULP energy per Si atom -5586.433894 kJ/mol
# Density = 1.993767 g / cm^3
# Si number density = 19.983158 Si / 1000 Ang^3
#
#
#
# Elastic Constant Matrix: (Units=GPa)
#
#
# Indices 1 2 3 4 5 6 
#
# 1 55.0059 17.2298 25.8151 0.0000 -3.5457 0.0000
# 2 17.2298 126.4989 53.4576 0.0000 -4.5062 0.0000
# 3 25.8151 53.4576 151.3681 0.0000 4.7719 0.0000
# 4 0.0000 0.0000 0.0000 19.5976 0.0000 -11.1104
# 5 -3.5457 -4.5062 4.7719 0.0000 43.7271 0.0000
# 6 0.0000 0.0000 0.0000 -11.1104 0.0000 17.5360
#
#
#
# Elastic Compliance Matrix: (Units=1/GPa)
#
#
# Indices 1 2 3 4 5 6 
#
# 1 0.020145 -0.001414 -0.002993 0.000000 0.001814 0.000000
# 2 -0.001414 0.009468 -0.003140 0.000000 0.001204 0.000000
# 3 -0.002993 -0.003140 0.008272 0.000000 -0.001469 0.000000
# 4 0.000000 0.000000 0.000000 0.079629 0.000000 0.050451
# 5 0.001814 0.001204 -0.001469 0.000000 0.023301 0.000000
# 6 0.000000 0.000000 0.000000 0.050451 0.000000 0.088990
#
#
# Mechanical properties :
#
#
# Convention : Reuss Voigt Hill
#
# Bulk Modulus (GPa) = 43.88119 58.43086 51.15603
# Shear Modulus (GPa) = 19.80223 31.93016 25.86620
#
# Velocity S-wave (km/s) = 3.15134 4.00165 3.60168
# Velocity P-wave (km/s) = 5.93701 7.11720 6.55372
#
# Compressibility (1/GPa) = 0.02278881
#
# Stress axis : x y z
#
# Youngs Moduli (GPa) = 49.64109 105.62063 120.88517
#
# Poissons Ratio (x) = 0.14937 0.36185
# Poissons Ratio (y) = 0.07020 0.37963
# Poissons Ratio (z) = 0.14859 0.33170
#
# Static dielectric constant tensor:
#      x y z
#    x 1.772480 0.000000 -0.013770 
#    y 0.000000 1.686930 0.000000 
#    z -0.013770 0.000000 1.746850 
# 
# From -- ./inp_files/54148.got.cif
#   From: 2010.05.17/outbox.cif.g08.bks.cpg/sg5_28_cif.got.tgz:54148.got - 2010.06.03 18:56:24.
