data_PCOD9124705
_publ_section_title
;
Structure prediction by ZEFSAII (Michael W. Deem and Ramdas Pophale) SiO2 
 PCOD9124705
Probable space group: C 2
;
_chemical_formula_sum "Si O2"
_cell_formula_units_Z 28
_cell_length_a 13.925233
_cell_length_b 15.108747
_cell_length_c 6.579450
_cell_angle_alpha 90.000000
_cell_angle_beta 115.278900
_cell_angle_gamma 90.000000
_cell_volume 1251.711269
_symmetry_space_group_name_H-M "C 2"
_symmetry_group_IT_number 5
_symmetry_cell_setting 'monoclinic'
loop_
_space_group_symop_operation_xyz
x,y,z
-x,y,-z
1/2+x,1/2+y,z
1/2-x,1/2+y,-z
loop_
_atom_site_type_symbol
_atom_site_label
_atom_site_fract_x
_atom_site_fract_y
_atom_site_fract_z
Si Si1 0.730038 0.077700 0.173189
Si Si2 0.500000 0.147733 0.000000
Si Si3 0.688222 0.443761 0.084078
Si Si4 0.390731 0.660912 0.610093
Si Si5 0.295797 0.733523 0.928232
Si Si6 0.886156 0.343797 0.356164
Si Si7 0.000000 0.070111 0.000000
Si Si8 0.574066 0.291962 0.744679
O O1 0.808141 0.094748 0.432177
O O2 0.606355 0.088998 0.118794
O O3 0.755930 0.162336 0.054938
O O4 0.758798 0.992977 0.062763
O O5 0.519164 0.211889 0.821005
O O6 0.784772 0.405726 0.306878
O O7 0.605169 0.510098 0.108305
O O8 0.615836 0.362407 0.944944
O O9 0.360114 0.688961 0.809568
O O10 0.391712 0.753145 0.491094
O O11 0.501904 0.615464 0.773363
O O12 0.184578 0.765925 0.736127
O O13 0.362101 0.808651 0.105781
O O14 0.000000 0.388029 0.500000
O O15 0.500000 0.327409 0.500000
#
# Coordination Sequence:
#
# PCOD9124705 Si02
#       8
#     4   2   4   4   4   4   2   4
#     4  10  22  41  64  96 137 170 222 284 340 387
#     4  10  21  44  68  93 130 186 230 272 321 430
#     4  11  25  44  60 106 143 166 222 296 338 395
#     4  11  22  40  72  95 127 181 230 269 333 411
#     4   9  19  40  63  99 124 166 235 271 314 420
#     4  10  23  44  68  91 137 184 222 275 343 406
#     4  12  25  40  72 103 136 170 238 284 333 404
#     4  10  21  37  66  91 134 179 218 267 343 407
#
# _framework density 22.369375999999999
#
# number of rings (size 3 to 8) (size 9 to 14) (size 15 to 20)
#    0.000    1.714    1.429    3.000    4.000    1.143 
#    5.143    0.714    0.000    0.000    0.000    0.000 
#    0.000    0.000    0.000    0.000    0.000    0.000 
#
# Total GULP energy -78109.994120 kJ/mol
# GULP energy per Si atom -5579.285294 kJ/mol
# Density = 2.231846 g / cm^3
# Si number density = 22.369376 Si / 1000 Ang^3
#
#
#
# Elastic Constant Matrix: (Units=GPa)
#
#
# Indices 1 2 3 4 5 6 
#
# 1 83.7896 12.8475 45.0264 0.0000 34.2227 0.0000
# 2 12.8475 55.8115 19.5682 0.0000 22.3123 0.0000
# 3 45.0264 19.5682 111.0821 0.0000 48.5713 0.0000
# 4 0.0000 0.0000 0.0000 8.9001 0.0000 6.7195
# 5 34.2227 22.3123 48.5713 0.0000 37.7098 0.0000
# 6 0.0000 0.0000 0.0000 6.7195 0.0000 37.8023
#
#
#
# Elastic Compliance Matrix: (Units=1/GPa)
#
#
# Indices 1 2 3 4 5 6 
#
# 1 0.019441 0.003435 0.000270 0.000000 -0.020024 0.000000
# 2 0.003435 0.025071 0.004672 0.000000 -0.023969 0.000000
# 3 0.000270 0.004672 0.021487 0.000000 -0.030685 0.000000
# 4 0.000000 0.000000 0.000000 0.129774 0.000000 -0.023068
# 5 -0.020024 -0.023969 -0.030685 0.000000 0.098396 0.000000
# 6 0.000000 0.000000 0.000000 -0.023068 0.000000 0.030554
#
#
# Mechanical properties :
#
#
# Convention : Reuss Voigt Hill
#
# Bulk Modulus (GPa) = 12.08415 45.06304 28.57360
# Shear Modulus (GPa) = 14.90071 28.43185 21.66628
#
# Velocity S-wave (km/s) = 2.58373 3.56900 3.11556
# Velocity P-wave (km/s) = 3.78348 6.09692 5.07381
#
# Compressibility (1/GPa) = 0.08275304
#
# Stress axis : x y z
#
# Youngs Moduli (GPa) = 51.43679 39.88681 46.53893
#
# Poissons Ratio (x) = -0.13702 -0.01257
# Poissons Ratio (y) = -0.17669 -0.21741
# Poissons Ratio (z) = -0.01389 -0.18633
#
# Static dielectric constant tensor:
#      x y z
#    x 1.923720 0.000000 0.021800 
#    y 0.000000 1.965750 0.000000 
#    z 0.021800 0.000000 1.848510 
# 
# From -- ./inp_files/7365.got.cif
#   From: 2010.05.17/outbox.cif.g08.bks.cpg/sg5_4_cif.got.tgz:7365.got - 2010.06.03 18:56:24.
