data_PCOD9124723
_publ_section_title
;
Structure prediction by ZEFSAII (Michael W. Deem and Ramdas Pophale) SiO2 
 PCOD9124723
Probable space group: C 2
;
_chemical_formula_sum "Si O2"
_cell_formula_units_Z 32
_cell_length_a 21.329643
_cell_length_b 12.893760
_cell_length_c 15.491814
_cell_angle_alpha 90.000000
_cell_angle_beta 160.587057
_cell_angle_gamma 90.000000
_cell_volume 1416.096150
_symmetry_space_group_name_H-M "C 2"
_symmetry_group_IT_number 5
_symmetry_cell_setting 'monoclinic'
loop_
_space_group_symop_operation_xyz
x,y,z
-x,y,-z
1/2+x,1/2+y,z
1/2-x,1/2+y,-z
loop_
_atom_site_type_symbol
_atom_site_label
_atom_site_fract_x
_atom_site_fract_y
_atom_site_fract_z
Si Si1 0.602399 0.392410 0.767393
Si Si2 0.772407 0.392414 0.607411
Si Si3 0.832707 0.448924 0.226781
Si Si4 0.545224 0.111369 0.155089
Si Si5 0.674508 0.611364 0.784373
Si Si6 0.892361 0.174893 0.722636
Si Si7 0.455441 0.448928 0.849515
Si Si8 0.768192 0.674888 0.098468
O O1 0.404613 0.413382 0.559224
O O2 0.648074 0.487343 0.763935
O O3 0.767628 0.394800 0.054480
O O4 0.607686 0.277854 0.736055
O O5 0.916342 0.487349 0.800480
O O6 0.850953 0.277859 0.722584
O O7 0.693925 0.394804 0.407073
O O8 0.000000 0.402837 0.500000
O O9 0.648330 0.450412 0.046660
O O10 0.877415 0.568165 0.259914
O O11 0.732242 0.158051 0.441396
O O12 0.500000 0.147899 0.000000
O O13 0.368948 0.133338 0.987896
O O14 0.500000 0.647894 0.500000
O O15 0.686064 0.658044 0.895219
O O16 0.887583 0.068169 0.770080
O O17 0.092930 0.184156 0.935860
O O18 0.500000 0.402845 0.000000
#
# Coordination Sequence:
#
# PCOD9124723 Si02
#       8
#     4   4   4   4   4   4   4   4
#     4  10  21  38  57  82 113 146 185 230 277 332
#     4  10  21  38  57  82 113 146 185 230 277 332
#     4   9  20  36  55  79 109 141 179 223 268 320
#     4  11  22  38  59  83 111 147 187 233 284 336
#     4  11  22  38  59  83 111 147 187 233 284 336
#     4  10  21  38  57  82 113 146 185 230 277 332
#     4   9  20  36  55  79 109 141 179 223 268 320
#     4  10  21  38  57  82 113 146 185 230 277 332
#
# _framework density 22.597335000000001
#
# number of rings (size 3 to 8) (size 9 to 14) (size 15 to 20)
#    0.000    2.000    0.000    5.250    0.000    8.000 
#    0.000    5.000    0.000    0.000    0.000    0.000 
#    0.000    0.000    0.000    0.000    0.000    0.000 
#
# Total GULP energy -89489.915784 kJ/mol
# GULP energy per Si atom -5593.119737 kJ/mol
# Density = 2.254590 g / cm^3
# Si number density = 22.597335 Si / 1000 Ang^3
#
#
#
# Elastic Constant Matrix: (Units=GPa)
#
#
# Indices 1 2 3 4 5 6 
#
# 1 48.3301 -10.2533 3.7354 0.0003 -11.7761 0.0003
# 2 -10.2533 94.8779 -12.5123 0.0001 3.4115 0.0002
# 3 3.7354 -12.5123 68.1357 0.0010 -18.1222 0.0010
# 4 0.0003 0.0001 0.0010 30.6273 0.0009 63.8417
# 5 -11.7761 3.4115 -18.1222 0.0009 35.7802 0.0008
# 6 0.0003 0.0002 0.0010 63.8417 0.0008 72.9049
#
#
#
# Elastic Compliance Matrix: (Units=1/GPa)
#
#
# Indices 1 2 3 4 5 6 
#
# 1 0.023048 0.002375 0.001306 0.000000 0.008021 0.000000
# 2 0.002375 0.011046 0.002110 0.000000 0.000797 0.000000
# 3 0.001306 0.002110 0.017397 0.000000 0.009040 0.000000
# 4 0.000000 0.000000 0.000000 -0.039560 0.000000 0.034642
# 5 0.008021 0.000797 0.009040 0.000000 0.035091 -0.000001
# 6 0.000000 0.000000 0.000000 0.034642 -0.000001 -0.016619
#
#
# Mechanical properties :
#
#
# Convention : Reuss Voigt Hill
#
# Bulk Modulus (GPa) = 15.85476 19.25372 17.55424
# Shear Modulus (GPa) = 125.48512 43.22074 84.35293
#
# Velocity S-wave (km/s) = 7.45999 4.37813 6.11635
# Velocity P-wave (km/s) = 9.01296 5.83919 7.59373
#
# Compressibility (1/GPa) = 0.06307256
#
# Stress axis : x y z
#
# Youngs Moduli (GPa) = 43.38736 90.52955 57.48147
#
# Poissons Ratio (x) = -0.21497 -0.07506
# Poissons Ratio (y) = -0.10303 -0.12130
# Poissons Ratio (z) = -0.05665 -0.19105
#
# Static dielectric constant tensor:
#      x y z
#    x 1.782770 0.000000 -0.054180 
#    y 0.000000 1.855840 0.000000 
#    z -0.054180 0.000000 1.818650 
# 
# From -- ./inp_files/57201.got.cif
#   From: 2010.05.17/outbox.cif.g08.bks.cpg/sg5_29_cif.got.tgz:57201.got - 2010.06.03 18:56:24.
