data_PCOD9124159
_publ_section_title
;
Structure prediction by ZEFSAII (Michael W. Deem and Ramdas Pophale) SiO2 
 PCOD9124159
Probable space group: C 2
;
_chemical_formula_sum "Si O2"
_cell_formula_units_Z 32
_cell_length_a 11.664148
_cell_length_b 8.166612
_cell_length_c 15.775514
_cell_angle_alpha 90.000000
_cell_angle_beta 122.726367
_cell_angle_gamma 90.000000
_cell_volume 1264.182504
_symmetry_space_group_name_H-M "C 2"
_symmetry_group_IT_number 5
_symmetry_cell_setting 'monoclinic'
loop_
_space_group_symop_operation_xyz
x,y,z
-x,y,-z
1/2+x,1/2+y,z
1/2-x,1/2+y,-z
loop_
_atom_site_type_symbol
_atom_site_label
_atom_site_fract_x
_atom_site_fract_y
_atom_site_fract_z
Si Si1 0.905338 0.508300 0.708195
Si Si2 0.448704 0.948927 0.070894
Si Si3 0.816266 0.705744 0.216441
Si Si4 0.351833 0.092093 0.409949
Si Si5 0.694451 0.734306 0.681894
Si Si6 0.179285 0.805510 0.962775
Si Si7 0.587729 0.467099 0.157911
Si Si8 0.071766 0.144281 0.335038
O O1 0.773462 0.619453 0.647900
O O2 0.912437 0.339925 0.662491
O O3 0.926566 0.456751 0.814946
O O4 0.039786 0.613456 0.741048
O O5 0.376087 0.125856 0.038402
O O6 0.500000 0.899309 0.000000
O O7 0.328799 0.834009 0.058607
O O8 0.816339 0.718161 0.318484
O O9 0.809740 0.828659 0.135378
O O10 0.686599 0.589241 0.148864
O O11 0.500000 0.138093 0.500000
O O12 0.224253 0.089787 0.423427
O O13 0.358639 0.905866 0.377433
O O14 0.571150 0.630706 0.673064
O O15 0.818388 0.803776 0.791419
O O16 0.057502 0.925533 0.938687
O O17 0.562360 0.549372 0.240802
#
# Coordination Sequence:
#
# PCOD9124159 Si02
#       8
#     4   4   4   4   4   4   4   4
#     4  11  21  42  65  91 127 174 218 262 327 377
#     4  11  28  39  61  93 131 169 227 280 307 383
#     4   9  20  41  68  86 130 171 207 267 322 394
#     4  10  23  46  67 100 132 165 214 270 329 398
#     4  10  20  42  66  92 125 171 216 261 325 391
#     4  11  25  43  59  96 127 181 219 273 328 372
#     4  10  21  37  67  89 123 174 217 256 332 386
#     4  10  22  38  69  96 121 174 205 267 325 393
#
# _framework density 25.312802000000001
#
# number of rings (size 3 to 8) (size 9 to 14) (size 15 to 20)
#    0.000    2.000    5.000    0.000    7.000    2.000 
#    2.250    0.625    0.000    0.000    0.000    0.000 
#    0.000    0.000    0.000    0.000    0.000    0.000 
#
# Total GULP energy -89388.037690 kJ/mol
# GULP energy per Si atom -5586.752356 kJ/mol
# Density = 2.525519 g / cm^3
# Si number density = 25.312802 Si / 1000 Ang^3
#
#
#
# Elastic Constant Matrix: (Units=GPa)
#
#
# Indices 1 2 3 4 5 6 
#
# 1 167.8178 29.9646 34.1046 0.0000 30.9901 0.0000
# 2 29.9646 46.0922 14.6915 0.0000 17.4815 0.0000
# 3 34.1046 14.6915 70.3895 0.0000 13.7337 0.0000
# 4 0.0000 0.0000 0.0000 19.5042 0.0000 13.4341
# 5 30.9901 17.4815 13.7337 0.0000 32.6151 0.0000
# 6 0.0000 0.0000 0.0000 13.4341 0.0000 43.6365
#
#
#
# Elastic Compliance Matrix: (Units=1/GPa)
#
#
# Indices 1 2 3 4 5 6 
#
# 1 0.007803 -0.002384 -0.002272 0.000000 -0.005179 0.000000
# 2 -0.002384 0.028591 -0.002467 0.000000 -0.012021 0.000000
# 3 -0.002272 -0.002467 0.016499 0.000000 -0.003466 0.000000
# 4 0.000000 0.000000 0.000000 0.065069 0.000000 -0.020032
# 5 -0.005179 -0.012021 -0.003466 0.000000 0.043484 0.000000
# 6 0.000000 0.000000 0.000000 -0.020032 0.000000 0.029084
#
#
# Mechanical properties :
#
#
# Convention : Reuss Voigt Hill
#
# Bulk Modulus (GPa) = 25.87606 49.09121 37.48363
# Shear Modulus (GPa) = 22.97178 32.85374 27.91276
#
# Velocity S-wave (km/s) = 3.01577 3.60656 3.32432
# Velocity P-wave (km/s) = 4.72982 6.06457 5.43830
#
# Compressibility (1/GPa) = 0.03864576
#
# Stress axis : x y z
#
# Youngs Moduli (GPa) = 128.15985 34.97622 60.61034
#
# Poissons Ratio (x) = 0.08338 0.13773
# Poissons Ratio (y) = 0.30552 0.14953
# Poissons Ratio (z) = 0.29123 0.08629
#
# Static dielectric constant tensor:
#      x y z
#    x 2.048440 0.000000 -0.034060 
#    y 0.000000 1.993480 0.000000 
#    z -0.034060 0.000000 2.051040 
# 
# From -- ./inp_files/65138.got.cif
#   From: 2010.05.17/outbox.cif.g08.bks.cpg/sg5_33_cif.got.tgz:65138.got - 2010.06.03 18:56:24.
