data_PCOD9124694
_publ_section_title
;
Structure prediction by ZEFSAII (Michael W. Deem and Ramdas Pophale) SiO2 
 PCOD9124694
Probable space group: C 2
;
_chemical_formula_sum "Si O2"
_cell_formula_units_Z 28
_cell_length_a 8.336146
_cell_length_b 31.064258
_cell_length_c 5.194266
_cell_angle_alpha 90.000000
_cell_angle_beta 61.811331
_cell_angle_gamma 90.000000
_cell_volume 1185.555790
_symmetry_space_group_name_H-M "C 2"
_symmetry_group_IT_number 5
_symmetry_cell_setting 'monoclinic'
loop_
_space_group_symop_operation_xyz
x,y,z
-x,y,-z
1/2+x,1/2+y,z
1/2-x,1/2+y,-z
loop_
_atom_site_type_symbol
_atom_site_label
_atom_site_fract_x
_atom_site_fract_y
_atom_site_fract_z
Si Si1 0.500000 0.481611 0.000000
Si Si2 0.220917 0.831774 0.318177
Si Si3 0.696168 0.041661 0.247715
Si Si4 0.223025 0.784024 0.816448
Si Si5 0.713339 0.640102 0.866260
Si Si6 0.806126 0.689216 0.286743
Si Si7 0.294260 0.430017 0.764743
Si Si8 0.000000 0.493606 0.000000
O O1 0.632107 0.516930 0.761518
O O2 0.343963 0.450032 0.005433
O O3 0.283573 0.817447 0.551789
O O4 0.261105 0.880471 0.206739
O O5 0.000000 0.829348 0.500000
O O6 0.284717 0.798798 0.050588
O O7 0.500000 0.027805 0.500000
O O8 0.713674 0.092593 0.245410
O O9 0.658280 0.025461 0.986241
O O10 0.279794 0.736310 0.685670
O O11 0.000000 0.785501 0.000000
O O12 0.796019 0.672869 0.588412
O O13 0.500000 0.639897 0.000000
O O14 0.732254 0.653135 0.150254
O O15 0.000000 0.695009 0.000000
O O16 0.500000 0.434323 0.500000
O O17 0.134689 0.458480 0.761714
#
# Coordination Sequence:
#
# PCOD9124694 Si02
#       8
#     2   4   4   4   4   4   4   2
#     4  10  22  40  60  96 124 174 222 270 336 396
#     4   9  18  31  61  94 131 165 217 266 326 384
#     4  11  23  42  64  92 132 172 225 275 337 397
#     4   9  18  35  61  98 125 167 216 273 320 397
#     4  12  26  44  67  99 137 178 224 281 342 413
#     4  11  23  43  71 101 133 175 228 279 340 405
#     4  10  21  37  64  92 129 172 217 270 332 390
#     4  10  24  42  62  92 128 170 224 278 324 404
#
# _framework density 23.617615000000001
#
# number of rings (size 3 to 8) (size 9 to 14) (size 15 to 20)
#    0.000    1.714    0.714    3.429    8.000    2.286 
#    0.000    0.000    9.429    0.000    0.000    0.000 
#    0.000    0.000    0.000    0.000    0.000    0.000 
#
# Total GULP energy -77956.633935 kJ/mol
# GULP energy per Si atom -5568.330995 kJ/mol
# Density = 2.356386 g / cm^3
# Si number density = 23.617615 Si / 1000 Ang^3
#
#
#
# Elastic Constant Matrix: (Units=GPa)
#
#
# Indices 1 2 3 4 5 6 
#
# 1 48.9669 -1.7107 18.8880 0.0000 -18.8271 0.0000
# 2 -1.7107 139.5033 38.0918 0.0000 -0.3873 0.0000
# 3 18.8880 38.0918 71.9212 0.0000 0.4804 0.0000
# 4 0.0000 0.0000 0.0000 -6.8967 0.0000 69.4033
# 5 -18.8271 -0.3873 0.4804 0.0000 36.0767 0.0000
# 6 0.0000 0.0000 0.0000 69.4033 0.0000 -97.7691
#
#
#
# Elastic Compliance Matrix: (Units=1/GPa)
#
#
# Indices 1 2 3 4 5 6 
#
# 1 0.030459 0.003076 -0.009736 0.000000 0.016058 0.000000
# 2 0.003076 0.008692 -0.005423 0.000000 0.001771 0.000000
# 3 -0.009736 -0.005423 0.019369 0.000000 -0.005397 0.000000
# 4 0.000000 0.000000 0.000000 0.023601 0.000000 0.016754
# 5 0.016058 0.001771 -0.005397 0.000000 0.036190 0.000000
# 6 0.000000 0.000000 0.000000 0.016754 0.000000 0.001665
#
#
# Mechanical properties :
#
#
# Convention : Reuss Voigt Hill
#
# Bulk Modulus (GPa) = 29.10789 41.21438 35.16113
# Shear Modulus (GPa) = 32.13521 -0.04299 16.04611
#
# Velocity S-wave (km/s) = 3.69269 -0.13507 2.60938
# Velocity P-wave (km/s) = 5.52564 4.17903 4.89883
#
# Compressibility (1/GPa) = 0.03435495
#
# Stress axis : x y z
#
# Youngs Moduli (GPa) = 32.83105 115.05156 51.62813
#
# Poissons Ratio (x) = -0.35396 0.50264
# Poissons Ratio (y) = -0.10100 0.27999
# Poissons Ratio (z) = 0.31964 0.62395
#
# Static dielectric constant tensor:
#      x y z
#    x 3.895890 0.000000 2.309460 
#    y 0.000000 1.891920 0.000000 
#    z 2.309460 0.000000 4.628000 
# 
# From -- ./inp_files/3906.got.cif
#   From: 2010.05.17/outbox.cif.g08.bks.cpg/sg5_2_cif.got.tgz:3906.got - 2010.06.03 18:56:24.
