data_PCOD9124242
_publ_section_title
;
Structure prediction by ZEFSAII (Michael W. Deem and Ramdas Pophale) SiO2 
 PCOD9124242
Probable space group: C 2
;
_chemical_formula_sum "Si O2"
_cell_formula_units_Z 28
_cell_length_a 13.714775
_cell_length_b 8.612537
_cell_length_c 12.452897
_cell_angle_alpha 90.000000
_cell_angle_beta 43.041312
_cell_angle_gamma 90.000000
_cell_volume 1003.943038
_symmetry_space_group_name_H-M "C 2"
_symmetry_group_IT_number 5
_symmetry_cell_setting 'monoclinic'
loop_
_space_group_symop_operation_xyz
x,y,z
-x,y,-z
1/2+x,1/2+y,z
1/2-x,1/2+y,-z
loop_
_atom_site_type_symbol
_atom_site_label
_atom_site_fract_x
_atom_site_fract_y
_atom_site_fract_z
Si Si1 0.668694 0.704770 0.202717
Si Si2 0.377990 0.448258 0.409747
Si Si3 0.463950 0.145632 0.645200
Si Si4 0.720047 0.750877 0.386445
Si Si5 0.278031 0.881511 0.181648
Si Si6 0.504442 0.905676 0.807676
Si Si7 0.475077 0.341726 0.905443
O O1 0.650121 0.794356 0.330492
O O2 0.675923 0.530318 0.243537
O O3 0.549497 0.758792 0.217102
O O4 0.821333 0.761480 0.031057
O O5 0.430751 0.295860 0.430421
O O6 0.344831 0.601105 0.503446
O O7 0.150254 0.383655 0.758078
O O8 0.494549 0.451550 0.218663
O O9 0.500000 0.079190 0.500000
O O10 0.306457 0.222476 0.769779
O O11 0.481272 0.041216 0.737295
O O12 0.737844 0.891440 0.455686
O O13 0.887969 0.724817 0.213865
O O14 0.392988 0.912387 0.996189
O O15 0.500000 0.422271 0.000000
#
# Coordination Sequence:
#
# PCOD9124242 Si02
#       7
#     4   4   4   4   4   4   4
#     4  11  21  46  78 111 153 210 261 326 404 464
#     4  10  20  42  71 112 158 218 258 323 398 477
#     4  12  27  50  74 113 171 208 257 338 406 473
#     4   9  21  37  75 111 155 210 263 316 396 478
#     4  11  25  49  84 117 156 207 275 332 392 476
#     4  11  26  47  86 117 154 212 270 332 398 478
#     4   8  18  36  75 107 151 205 258 326 393 461
#
# _framework density 27.890029999999999
#
# number of rings (size 3 to 8) (size 9 to 14) (size 15 to 20)
#    0.857    0.857    0.000    4.286    6.000    1.143 
#    0.000   13.571   15.714    2.571    0.000    0.000 
#    0.000    0.000    0.000    0.000    0.000    0.000 
#
# Total GULP energy -78376.847014 kJ/mol
# GULP energy per Si atom -5598.346215 kJ/mol
# Density = 2.782655 g / cm^3
# Si number density = 27.890030 Si / 1000 Ang^3
#
#
#
# Elastic Constant Matrix: (Units=GPa)
#
#
# Indices 1 2 3 4 5 6 
#
# 1 236.2434 86.3154 78.1883 0.0000 48.7800 0.0000
# 2 86.3154 135.6044 80.1077 0.0000 11.5807 0.0000
# 3 78.1883 80.1077 196.8626 0.0000 20.8462 0.0000
# 4 0.0000 0.0000 0.0000 42.6861 0.0000 -0.8791
# 5 48.7800 11.5807 20.8462 0.0000 66.4602 0.0000
# 6 0.0000 0.0000 0.0000 -0.8791 0.0000 38.7668
#
#
#
# Elastic Compliance Matrix: (Units=1/GPa)
#
#
# Indices 1 2 3 4 5 6 
#
# 1 0.006544 -0.003343 -0.000819 0.000000 -0.003964 0.000000
# 2 -0.003343 0.011430 -0.003488 0.000000 0.001556 0.000000
# 3 -0.000819 -0.003488 0.006926 0.000000 -0.000964 0.000000
# 4 0.000000 0.000000 0.000000 0.023438 0.000000 0.000532
# 5 -0.003964 0.001556 -0.000964 0.000000 0.017987 0.000000
# 6 0.000000 0.000000 0.000000 0.000532 0.000000 0.025807
#
#
# Mechanical properties :
#
#
# Convention : Reuss Voigt Hill
#
# Bulk Modulus (GPa) = 104.16687 117.54814 110.85750
# Shear Modulus (GPa) = 45.19473 51.18923 48.19198
#
# Velocity S-wave (km/s) = 4.02986 4.28880 4.16135
# Velocity P-wave (km/s) = 7.68657 8.17090 7.93243
#
# Compressibility (1/GPa) = 0.00959998
#
# Stress axis : x y z
#
# Youngs Moduli (GPa) = 152.81656 87.48899 144.37501
#
# Poissons Ratio (x) = 0.29247 0.11824
# Poissons Ratio (y) = 0.51086 0.50360
# Poissons Ratio (z) = 0.12515 0.30518
#
# Static dielectric constant tensor:
#      x y z
#    x 2.255120 0.000000 -0.106930 
#    y 0.000000 2.197490 0.000000 
#    z -0.106930 0.000000 2.252520 
# 
# From -- ./inp_files/56896.got.cif
#   From: 2010.05.17/outbox.cif.g08.bks.cpg/sg5_29_cif.got.tgz:56896.got - 2010.06.03 18:56:24.
