data_PCOD9124863
_publ_section_title
;
Structure prediction by ZEFSAII (Michael W. Deem and Ramdas Pophale) SiO2 
 PCOD9124863
Probable space group: C 2
;
_chemical_formula_sum "Si O2"
_cell_formula_units_Z 32
_cell_length_a 25.925222
_cell_length_b 9.254001
_cell_length_c 5.523212
_cell_angle_alpha 90.000000
_cell_angle_beta 98.991922
_cell_angle_gamma 90.000000
_cell_volume 1308.800222
_symmetry_space_group_name_H-M "C 2"
_symmetry_group_IT_number 5
_symmetry_cell_setting 'monoclinic'
loop_
_space_group_symop_operation_xyz
x,y,z
-x,y,-z
1/2+x,1/2+y,z
1/2-x,1/2+y,-z
loop_
_atom_site_type_symbol
_atom_site_label
_atom_site_fract_x
_atom_site_fract_y
_atom_site_fract_z
Si Si1 0.530560 0.012560 0.784873
Si Si2 0.787090 0.670729 0.401213
Si Si3 0.639229 0.929260 0.676225
Si Si4 0.793093 0.988728 0.398008
Si Si5 0.310983 0.678506 0.018230
Si Si6 0.384949 0.690779 0.679174
Si Si7 0.559829 0.442810 0.479768
Si Si8 0.057036 0.837849 0.975388
O O1 0.500000 0.012814 0.500000
O O2 0.545310 0.176165 0.876376
O O3 0.585774 0.936058 0.785019
O O4 0.500000 0.952693 0.000000
O O5 0.835626 0.586750 0.323677
O O6 0.800428 0.829520 0.500801
O O7 0.762215 0.558170 0.571250
O O8 0.738483 0.704582 0.188361
O O9 0.683143 0.819262 0.808250
O O10 0.622089 0.854000 0.411864
O O11 0.798991 0.021741 0.120111
O O12 0.838598 0.091928 0.531550
O O13 0.368450 0.676370 0.942151
O O14 0.434379 0.607853 0.608222
O O15 0.500000 0.406031 0.500000
O O16 0.584236 0.412070 0.763245
O O17 0.580695 0.350013 0.264422
O O18 0.000000 0.906529 0.000000
#
# Coordination Sequence:
#
# PCOD9124863 Si02
#       8
#     4   4   4   4   4   4   4   4
#     4  11  25  47  72 109 154 203 253 317 373 445
#     4  11  22  43  69 102 136 184 236 300 381 450
#     4  11  26  43  70 104 145 197 249 306 379 454
#     4  10  22  40  65  96 135 174 228 294 369 448
#     4  10  22  43  65  96 140 179 235 303 369 446
#     4  10  24  41  61  96 139 181 236 305 356 451
#     4  10  21  38  66  95 134 186 235 300 367 427
#     4   9  19  39  64  97 134 179 233 298 363 424
#
# _framework density 24.449876
#
# number of rings (size 3 to 8) (size 9 to 14) (size 15 to 20)
#    0.000    1.750    0.000    4.875    7.000    1.500 
#    0.000    0.000    0.000    0.000    0.000    0.000 
#    0.000    0.000    0.000    0.000    0.000    0.000 
#
# Total GULP energy -89180.618791 kJ/mol
# GULP energy per Si atom -5573.788674 kJ/mol
# Density = 2.439423 g / cm^3
# Si number density = 24.449876 Si / 1000 Ang^3
#
#
#
# Elastic Constant Matrix: (Units=GPa)
#
#
# Indices 1 2 3 4 5 6 
#
# 1 96.3073 32.8287 36.8574 0.0000 -12.2800 0.0000
# 2 32.8287 110.6300 29.4276 0.0000 -8.0101 0.0000
# 3 36.8574 29.4276 121.6499 0.0000 -19.1124 0.0000
# 4 0.0000 0.0000 0.0000 30.5917 0.0000 -6.4648
# 5 -12.2800 -8.0101 -19.1124 0.0000 31.8173 0.0000
# 6 0.0000 0.0000 0.0000 -6.4648 0.0000 38.3133
#
#
#
# Elastic Compliance Matrix: (Units=1/GPa)
#
#
# Indices 1 2 3 4 5 6 
#
# 1 0.012742 -0.002861 -0.002770 0.000000 0.002533 0.000000
# 2 -0.002861 0.010340 -0.001545 0.000000 0.000571 0.000000
# 3 -0.002770 -0.001545 0.010164 0.000000 0.004647 0.000000
# 4 0.000000 0.000000 0.000000 0.033897 0.000000 0.005720
# 5 0.002533 0.000571 0.004647 0.000000 0.035342 0.000000
# 6 0.000000 0.000000 0.000000 0.005720 0.000000 0.027066
#
#
# Mechanical properties :
#
#
# Convention : Reuss Voigt Hill
#
# Bulk Modulus (GPa) = 52.92818 58.53494 55.73156
# Shear Modulus (GPa) = 33.28871 35.44270 34.36571
#
# Velocity S-wave (km/s) = 3.69387 3.81150 3.75314
# Velocity P-wave (km/s) = 6.31565 6.58504 6.45176
#
# Compressibility (1/GPa) = 0.01889353
#
# Stress axis : x y z
#
# Youngs Moduli (GPa) = 78.48141 96.70872 98.39120
#
# Poissons Ratio (x) = 0.27665 0.27259
# Poissons Ratio (y) = 0.22451 0.15201
# Poissons Ratio (z) = 0.21743 0.14941
#
# Static dielectric constant tensor:
#      x y z
#    x 1.986760 0.000000 -0.004020 
#    y 0.000000 1.966200 0.000000 
#    z -0.004020 0.000000 2.230470 
# 
# From -- ./inp_files/11231.got.cif
#   From: 2010.05.17/outbox.cif.g08.bks.cpg/sg5_6_cif.got.tgz:11231.got - 2010.06.03 18:56:24.
