data_PCOD9124690
_publ_section_title
;
Structure prediction by ZEFSAII (Michael W. Deem and Ramdas Pophale) SiO2 
 PCOD9124690
Probable space group: C 2
;
_chemical_formula_sum "Si O2"
_cell_formula_units_Z 24
_cell_length_a 15.915666
_cell_length_b 8.593389
_cell_length_c 7.650488
_cell_angle_alpha 90.000000
_cell_angle_beta 63.587373
_cell_angle_gamma 90.000000
_cell_volume 937.128570
_symmetry_space_group_name_H-M "C 2"
_symmetry_group_IT_number 5
_symmetry_cell_setting 'monoclinic'
loop_
_space_group_symop_operation_xyz
x,y,z
-x,y,-z
1/2+x,1/2+y,z
1/2-x,1/2+y,-z
loop_
_atom_site_type_symbol
_atom_site_label
_atom_site_fract_x
_atom_site_fract_y
_atom_site_fract_z
Si Si1 0.774955 0.670540 0.039120
Si Si2 0.958457 0.594209 0.723645
Si Si3 0.836980 0.319239 0.404170
Si Si4 0.093043 0.091878 0.346750
Si Si5 0.358608 0.188065 0.331466
Si Si6 0.100541 0.294297 0.038751
O O1 0.698990 0.545549 0.191147
O O2 0.840036 0.709634 0.143017
O O3 0.849545 0.641223 0.816869
O O4 0.701543 0.798620 0.042724
O O5 0.952707 0.451462 0.864767
O O6 0.846291 0.506031 0.395369
O O7 0.000000 0.542462 0.500000
O O8 0.880892 0.225836 0.530208
O O9 0.725768 0.282765 0.504707
O O10 0.881649 0.265498 0.179054
O O11 0.000000 0.004013 0.500000
O O12 0.057096 0.158126 0.193744
O O13 0.466240 0.219726 0.279514
#
# Coordination Sequence:
#
# PCOD9124690 Si02
#       6
#     4   4   4   4   4   4
#     4   9  22  39  58  98 141 167 228 297 336 405
#     4  12  22  38  70 101 130 187 241 286 344 423
#     4  11  22  41  66 102 140 185 227 296 346 421
#     4   9  20  37  60  96 133 174 223 283 342 410
#     4  11  23  40  69 102 143 179 238 287 357 412
#     4  10  21  37  63  97 135 174 229 287 338 408
#
# _framework density 25.610147999999999
#
# number of rings (size 3 to 8) (size 9 to 14) (size 15 to 20)
#    1.000    0.667    1.667    4.000    0.000    2.000 
#    0.000    0.000    7.333    0.000   26.000    0.000 
#    0.000    0.000    0.000    0.000    0.000    0.000 
#
# Total GULP energy -66843.337215 kJ/mol
# GULP energy per Si atom -5570.278101 kJ/mol
# Density = 2.555186 g / cm^3
# Si number density = 25.610148 Si / 1000 Ang^3
#
#
#
# Elastic Constant Matrix: (Units=GPa)
#
#
# Indices 1 2 3 4 5 6 
#
# 1 164.7300 24.9042 54.8495 0.0000 -35.8311 0.0000
# 2 24.9042 40.6552 28.2642 0.0000 -1.5498 0.0000
# 3 54.8495 28.2642 193.0308 0.0000 -26.6633 0.0000
# 4 0.0000 0.0000 0.0000 23.1933 0.0000 -11.2154
# 5 -35.8311 -1.5498 -26.6633 0.0000 69.4985 0.0000
# 6 0.0000 0.0000 0.0000 -11.2154 0.0000 25.9719
#
#
#
# Elastic Compliance Matrix: (Units=1/GPa)
#
#
# Indices 1 2 3 4 5 6 
#
# 1 0.007798 -0.003828 -0.001174 0.000000 0.003485 0.000000
# 2 -0.003828 0.029327 -0.003578 0.000000 -0.002692 0.000000
# 3 -0.001174 -0.003578 0.006276 0.000000 0.001723 0.000000
# 4 0.000000 0.000000 0.000000 0.054496 0.000000 0.023533
# 5 0.003485 -0.002692 0.001723 0.000000 0.016786 0.000000
# 6 0.000000 0.000000 0.000000 0.023533 0.000000 0.048665
#
#
# Mechanical properties :
#
#
# Convention : Reuss Voigt Hill
#
# Bulk Modulus (GPa) = 38.10875 68.27242 53.19058
# Shear Modulus (GPa) = 26.41928 43.09262 34.75595
#
# Velocity S-wave (km/s) = 3.21533 4.10645 3.68790
# Velocity P-wave (km/s) = 5.35697 7.01428 6.24088
#
# Compressibility (1/GPa) = 0.02624069
#
# Stress axis : x y z
#
# Youngs Moduli (GPa) = 128.23614 34.09823 159.33637
#
# Poissons Ratio (x) = 0.13052 0.18706
# Poissons Ratio (y) = 0.49087 0.57017
# Poissons Ratio (z) = 0.15055 0.12202
#
# Static dielectric constant tensor:
#      x y z
#    x 2.132000 0.000000 -0.037930 
#    y 0.000000 2.053890 0.000000 
#    z -0.037930 0.000000 2.015440 
# 
# From -- ./inp_files/6835.got.cif
#   From: 2010.05.17/outbox.cif.g08.bks.cpg/sg5_4_cif.got.tgz:6835.got - 2010.06.03 18:56:24.
