data_PCOD9124546
_publ_section_title
;
Structure prediction by ZEFSAII (Michael W. Deem and Ramdas Pophale) SiO2 
 PCOD9124546
Probable space group: C 2
;
_chemical_formula_sum "Si O2"
_cell_formula_units_Z 24
_cell_length_a 22.794196
_cell_length_b 9.735137
_cell_length_c 16.247442
_cell_angle_alpha 90.000000
_cell_angle_beta 163.792102
_cell_angle_gamma 90.000000
_cell_volume 1006.346884
_symmetry_space_group_name_H-M "C 2"
_symmetry_group_IT_number 5
_symmetry_cell_setting 'monoclinic'
loop_
_space_group_symop_operation_xyz
x,y,z
-x,y,-z
1/2+x,1/2+y,z
1/2-x,1/2+y,-z
loop_
_atom_site_type_symbol
_atom_site_label
_atom_site_fract_x
_atom_site_fract_y
_atom_site_fract_z
Si Si1 0.463603 0.080710 0.250029
Si Si2 0.237524 0.576688 0.852007
Si Si3 0.258961 0.814009 0.646624
Si Si4 0.250719 0.782694 0.175727
Si Si5 0.674152 0.519841 0.660702
Si Si6 0.971535 0.340382 0.774222
O O1 0.305419 0.046859 0.109789
O O2 0.654446 0.174925 0.536556
O O3 0.556955 0.937794 0.342460
O O4 0.347453 0.186963 0.029496
O O5 0.323954 0.439013 0.924808
O O6 0.000000 0.613990 0.500000
O O7 0.401991 0.700425 0.068673
O O8 0.136407 0.938749 0.525411
O O9 0.273742 0.818040 0.567448
O O10 0.500000 0.813496 0.000000
O O11 0.500000 0.804493 0.500000
O O12 0.250810 0.676105 0.251760
O O13 0.500000 0.512859 0.500000
O O14 0.867530 0.437948 0.959648
#
# Coordination Sequence:
#
# PCOD9124546 Si02
#       6
#     4   4   4   4   4   4
#     4  11  22  39  62  91 123 167 212 254 311 375
#     4  11  21  38  63  92 124 161 207 265 314 368
#     4  10  21  38  61  87 123 169 212 258 309 367
#     4   9  21  37  59  93 125 156 207 256 306 370
#     4   9  17  36  63  87 114 157 205 251 305 368
#     4  10  21  36  59  90 120 158 207 254 310 368
#
# _framework density 23.848634000000001
#
# number of rings (size 3 to 8) (size 9 to 14) (size 15 to 20)
#    0.000    2.000    0.000    4.500    0.000    4.667 
#    0.000    5.000    0.000   31.000    0.000    0.000 
#    0.000    0.000    0.000    0.000    0.000    0.000 
#
# Total GULP energy -66911.230851 kJ/mol
# GULP energy per Si atom -5575.935904 kJ/mol
# Density = 2.379435 g / cm^3
# Si number density = 23.848634 Si / 1000 Ang^3
#
#
#
# Elastic Constant Matrix: (Units=GPa)
#
#
# Indices 1 2 3 4 5 6 
#
# 1 98.0262 72.6703 14.6902 0.0000 24.1155 0.0000
# 2 72.6703 227.5265 16.4862 0.0000 15.7820 0.0001
# 3 14.6902 16.4862 67.6863 0.0000 12.6157 -0.0001
# 4 0.0000 0.0000 0.0000 13.7526 0.0000 -20.3620
# 5 24.1155 15.7820 12.6157 0.0000 19.2117 0.0000
# 6 0.0000 0.0001 -0.0001 -20.3620 0.0000 -33.0683
#
#
#
# Elastic Compliance Matrix: (Units=1/GPa)
#
#
# Indices 1 2 3 4 5 6 
#
# 1 0.018310 -0.004534 0.000821 0.000000 -0.019798 0.000000
# 2 -0.004534 0.005797 -0.000685 0.000000 0.001379 0.000000
# 3 0.000821 -0.000685 0.016921 0.000000 -0.011579 0.000000
# 4 0.000000 0.000000 0.000000 0.038036 0.000000 -0.023421
# 5 -0.019798 0.001379 -0.011579 0.000000 0.083373 0.000000
# 6 0.000000 0.000000 0.000000 -0.023421 0.000000 -0.015819
#
#
# Mechanical properties :
#
#
# Convention : Reuss Voigt Hill
#
# Bulk Modulus (GPa) = 31.02617 66.77028 48.89823
# Shear Modulus (GPa) = 30.09132 19.27203 24.68167
#
# Velocity S-wave (km/s) = 3.55598 2.84579 3.22052
# Velocity P-wave (km/s) = 5.46790 6.23349 5.86320
#
# Compressibility (1/GPa) = 0.03223085
#
# Stress axis : x y z
#
# Youngs Moduli (GPa) = 54.61369 172.49370 59.09859
#
# Poissons Ratio (x) = 0.78216 -0.04849
# Poissons Ratio (y) = 0.24764 0.04048
# Poissons Ratio (z) = -0.04481 0.11816
#
# Static dielectric constant tensor:
#      x y z
#    x 2.193910 0.000000 -0.127440 
#    y 0.000000 1.933230 0.000000 
#    z -0.127440 0.000000 2.079100 
# 
# From -- ./inp_files/63311.got.cif
#   From: 2010.05.17/outbox.cif.g08.bks.cpg/sg5_32_cif.got.tgz:63311.got - 2010.06.03 18:56:24.
