data_PCOD9124404
_publ_section_title
;
Structure prediction by ZEFSAII (Michael W. Deem and Ramdas Pophale) SiO2 
 PCOD9124404
Probable space group: C 2
;
_chemical_formula_sum "Si O2"
_cell_formula_units_Z 20
_cell_length_a 7.049713
_cell_length_b 12.828070
_cell_length_c 11.456252
_cell_angle_alpha 90.000000
_cell_angle_beta 53.785318
_cell_angle_gamma 90.000000
_cell_volume 835.884014
_symmetry_space_group_name_H-M "C 2"
_symmetry_group_IT_number 5
_symmetry_cell_setting 'monoclinic'
loop_
_space_group_symop_operation_xyz
x,y,z
-x,y,-z
1/2+x,1/2+y,z
1/2-x,1/2+y,-z
loop_
_atom_site_type_symbol
_atom_site_label
_atom_site_fract_x
_atom_site_fract_y
_atom_site_fract_z
Si Si1 0.500000 0.000000 0.500000
Si Si2 0.308049 0.186410 0.716549
Si Si3 0.005018 0.500436 0.872572
Si Si4 0.611178 0.236793 0.832361
Si Si5 0.888716 0.348166 0.366054
Si Si6 0.500000 0.591007 0.000000
O O1 0.407528 0.075525 0.635272
O O2 0.325491 0.918970 0.499680
O O3 0.453277 0.238812 0.770348
O O4 0.266928 0.251756 0.615002
O O5 0.056915 0.162242 0.867881
O O6 0.120507 0.425336 0.739253
O O7 0.140039 0.610916 0.832576
O O8 0.735619 0.526607 0.936751
O O9 0.000000 0.448579 0.000000
O O10 0.846594 0.301836 0.723070
O O11 0.500000 0.268280 0.000000
#
# Coordination Sequence:
#
# PCOD9124404 Si02
#       6
#     2   4   4   4   4   2
#     4  12  28  50  62 106 144 180 238 274 330 432
#     4  11  25  48  70 101 145 174 228 293 336 401
#     4  10  22  40  68 106 136 169 228 285 342 396
#     4  10  23  45  72 108 136 168 237 291 334 407
#     4  12  26  43  73  96 138 193 223 274 350 406
#     4  10  20  46  70 100 140 168 220 306 322 390
#
# _framework density 23.926767000000002
#
# number of rings (size 3 to 8) (size 9 to 14) (size 15 to 20)
#    0.000    1.200    4.000    3.600    8.400    0.000 
#    3.600    2.000    0.000    0.000    0.000    0.000 
#    0.000    0.000    0.000    0.000    0.000    0.000 
#
# Total GULP energy -55847.237028 kJ/mol
# GULP energy per Si atom -5584.723703 kJ/mol
# Density = 2.387231 g / cm^3
# Si number density = 23.926767 Si / 1000 Ang^3
#
#
#
# Elastic Constant Matrix: (Units=GPa)
#
#
# Indices 1 2 3 4 5 6 
#
# 1 92.4337 28.5169 38.8344 0.0000 25.3087 0.0000
# 2 28.5169 88.6068 28.9290 0.0000 5.8624 0.0000
# 3 38.8344 28.9290 85.4280 0.0000 9.9049 0.0000
# 4 0.0000 0.0000 0.0000 34.2500 0.0000 52.2838
# 5 25.3087 5.8624 9.9049 0.0000 41.9032 0.0000
# 6 0.0000 0.0000 0.0000 52.2838 0.0000 249.1458
#
#
#
# Elastic Compliance Matrix: (Units=1/GPa)
#
#
# Indices 1 2 3 4 5 6 
#
# 1 0.016224 -0.002905 -0.005452 0.000000 -0.008104 0.000000
# 2 -0.002905 0.013234 -0.003238 0.000000 0.000669 0.000000
# 3 -0.005452 -0.003238 0.015265 0.000000 0.000138 0.000000
# 4 0.000000 0.000000 0.000000 0.042959 0.000000 -0.009015
# 5 -0.008104 0.000669 0.000138 0.000000 0.028633 0.000000
# 6 0.000000 0.000000 0.000000 -0.009015 0.000000 0.005906
#
#
# Mechanical properties :
#
#
# Convention : Reuss Voigt Hill
#
# Bulk Modulus (GPa) = 46.44279 51.00324 48.72301
# Shear Modulus (GPa) = 32.76782 76.40567 54.58675
#
# Velocity S-wave (km/s) = 3.70470 5.65707 4.78159
# Velocity P-wave (km/s) = 6.14428 8.00204 7.13389
#
# Compressibility (1/GPa) = 0.02153187
#
# Stress axis : x y z
#
# Youngs Moduli (GPa) = 61.63577 75.56360 65.51054
#
# Poissons Ratio (x) = 0.21955 0.35715
# Poissons Ratio (y) = 0.17908 0.21214
# Poissons Ratio (z) = 0.33603 0.24469
#
# Static dielectric constant tensor:
#      x y z
#    x 1.932330 0.000000 0.030620 
#    y 0.000000 1.921650 0.000000 
#    z 0.030620 0.000000 1.897180 
# 
# From -- ./inp_files/14873.got.cif
#   From: 2010.05.17/outbox.cif.g08.bks.cpg/sg5_8_cif.got.tgz:14873.got - 2010.06.03 18:56:24.
