data_PCOD9124668
_publ_section_title
;
Structure prediction by ZEFSAII (Michael W. Deem and Ramdas Pophale) SiO2 
 PCOD9124668
Probable space group: C 2
;
_chemical_formula_sum "Si O2"
_cell_formula_units_Z 30
_cell_length_a 13.720194
_cell_length_b 8.457510
_cell_length_c 13.595568
_cell_angle_alpha 90.000000
_cell_angle_beta 64.247249
_cell_angle_gamma 90.000000
_cell_volume 1420.919204
_symmetry_space_group_name_H-M "C 2"
_symmetry_group_IT_number 5
_symmetry_cell_setting 'monoclinic'
loop_
_space_group_symop_operation_xyz
x,y,z
-x,y,-z
1/2+x,1/2+y,z
1/2-x,1/2+y,-z
loop_
_atom_site_type_symbol
_atom_site_label
_atom_site_fract_x
_atom_site_fract_y
_atom_site_fract_z
Si Si1 0.755060 0.768740 0.252234
Si Si2 0.436949 0.341990 0.728270
Si Si3 0.298792 0.921704 0.164702
Si Si4 0.546700 0.458057 0.878509
Si Si5 0.180827 0.326879 0.619865
Si Si6 0.476087 0.677286 0.623826
Si Si7 0.144331 0.672136 0.579137
Si Si8 0.500000 0.767021 0.000000
O O1 0.781998 0.611115 0.176437
O O2 0.826993 0.915821 0.185605
O O3 0.626164 0.785316 0.302790
O O4 0.792285 0.729737 0.348768
O O5 0.310572 0.322243 0.805347
O O6 0.490559 0.386602 0.808508
O O7 0.441063 0.496842 0.657245
O O8 0.518137 0.214555 0.646195
O O9 0.328211 0.876584 0.263632
O O10 0.393176 0.872033 0.049279
O O11 0.515643 0.642186 0.903897
O O12 0.500000 0.385446 0.000000
O O13 0.161381 0.485655 0.565968
O O14 0.296289 0.256795 0.537553
O O15 0.085667 0.206832 0.634817
O O16 0.500000 0.702866 0.500000
#
# Coordination Sequence:
#
# PCOD9124668 Si02
#       8
#     4   4   4   4   4   4   4   2
#     4   9  20  40  61  84 120 161 199 238 304 366
#     4  10  22  41  63  87 122 158 202 247 307 365
#     4  10  23  40  60  88 118 156 202 250 304 361
#     4   9  21  42  61  89 113 159 199 255 303 349
#     4  11  22  39  59  91 123 162 200 245 302 360
#     4  11  21  38  63  92 122 166 199 240 297 374
#     4  10  21  37  62  88 122 159 197 247 299 363
#     4  10  22  40  60  88 118 148 202 262 306 336
#
# _framework density 21.113095000000001
#
# number of rings (size 3 to 8) (size 9 to 14) (size 15 to 20)
#    0.400    1.600    1.333    1.600    4.667    2.133 
#    9.600    0.000    0.000    0.000    0.000    0.000 
#    0.000    0.000    0.000    0.000    0.000    0.000 
#
# Total GULP energy -83706.579731 kJ/mol
# GULP energy per Si atom -5580.438649 kJ/mol
# Density = 2.106504 g / cm^3
# Si number density = 21.113095 Si / 1000 Ang^3
#
#
#
# Elastic Constant Matrix: (Units=GPa)
#
#
# Indices 1 2 3 4 5 6 
#
# 1 75.9390 4.6527 23.6622 0.0000 -33.8310 0.0000
# 2 4.6527 47.9119 29.6971 0.0000 -20.4539 0.0000
# 3 23.6622 29.6971 84.5507 0.0000 -34.6683 0.0000
# 4 0.0000 0.0000 0.0000 19.1755 0.0000 -6.1450
# 5 -33.8310 -20.4539 -34.6683 0.0000 39.6834 0.0000
# 6 0.0000 0.0000 0.0000 -6.1450 0.0000 18.2681
#
#
#
# Elastic Compliance Matrix: (Units=1/GPa)
#
#
# Indices 1 2 3 4 5 6 
#
# 1 0.023443 0.007749 0.000857 0.000000 0.024729 0.000000
# 2 0.007749 0.031304 -0.005982 0.000000 0.017515 0.000000
# 3 0.000857 -0.005982 0.019826 0.000000 0.014967 0.000000
# 4 0.000000 0.000000 0.000000 0.058451 0.000000 0.019661
# 5 0.024729 0.017515 0.014967 0.000000 0.068385 0.000000
# 6 0.000000 0.000000 0.000000 0.019661 0.000000 0.061354
#
#
# Mechanical properties :
#
#
# Convention : Reuss Voigt Hill
#
# Bulk Modulus (GPa) = 12.52796 36.04729 24.28763
# Shear Modulus (GPa) = 17.59810 25.45139 21.52474
#
# Velocity S-wave (km/s) = 2.89020 3.47577 3.19642
# Velocity P-wave (km/s) = 4.13331 5.76354 5.01511
#
# Compressibility (1/GPa) = 0.07982144
#
# Stress axis : x y z
#
# Youngs Moduli (GPa) = 42.65593 31.94444 50.44006
#
# Poissons Ratio (x) = -0.24754 -0.04322
# Poissons Ratio (y) = -0.33055 0.30173
# Poissons Ratio (z) = -0.03655 0.19109
#
# Static dielectric constant tensor:
#      x y z
#    x 1.781430 0.000000 -0.016940 
#    y 0.000000 1.777270 0.000000 
#    z -0.016940 0.000000 1.756750 
# 
# From -- ./inp_files/54012.got.cif
#   From: 2010.05.17/outbox.cif.g08.bks.cpg/sg5_28_cif.got.tgz:54012.got - 2010.06.03 18:56:24.
