data_PCOD9124707
_publ_section_title
;
Structure prediction by ZEFSAII (Michael W. Deem and Ramdas Pophale) SiO2 
 PCOD9124707
Probable space group: C 2
;
_chemical_formula_sum "Si O2"
_cell_formula_units_Z 28
_cell_length_a 9.169387
_cell_length_b 19.285833
_cell_length_c 14.973420
_cell_angle_alpha 90.000000
_cell_angle_beta 29.739568
_cell_angle_gamma 90.000000
_cell_volume 1313.507440
_symmetry_space_group_name_H-M "C 2"
_symmetry_group_IT_number 5
_symmetry_cell_setting 'monoclinic'
loop_
_space_group_symop_operation_xyz
x,y,z
-x,y,-z
1/2+x,1/2+y,z
1/2-x,1/2+y,-z
loop_
_atom_site_type_symbol
_atom_site_label
_atom_site_fract_x
_atom_site_fract_y
_atom_site_fract_z
Si Si1 0.818170 0.334250 0.357548
Si Si2 0.334554 0.873198 0.998166
Si Si3 0.683611 0.164320 0.821016
Si Si4 0.219049 0.497250 0.588162
Si Si5 0.809213 0.532281 0.960918
Si Si6 0.721990 0.798883 0.305500
Si Si7 0.819956 0.081262 0.355824
O O1 0.500000 0.304828 0.500000
O O2 0.775053 0.413806 0.414001
O O3 0.996605 0.338070 0.172091
O O4 0.029397 0.301004 0.318146
O O5 0.500000 0.852557 0.000000
O O6 0.999533 0.849012 0.165998
O O7 0.364948 0.955976 0.970739
O O8 0.682530 0.218364 0.741020
O O9 0.994083 0.141164 0.695215
O O10 0.500000 0.197159 0.000000
O O11 0.522619 0.092668 0.882196
O O12 0.500000 0.519696 0.500000
O O13 0.269152 0.524116 0.461202
O O14 0.917647 0.522297 0.799320
O O15 0.498982 0.554209 0.172808
O O16 0.500000 0.818532 0.500000
O O17 0.500000 0.106343 0.500000
#
# Coordination Sequence:
#
# PCOD9124707 Si02
#       7
#     4   4   4   4   4   4   4
#     4  10  23  41  63  98 134 182 223 288 338 399
#     4  11  23  42  69 101 137 175 230 288 345 411
#     4  10  22  45  67  91 131 183 227 270 345 407
#     4  10  21  37  66  93 135 176 228 278 341 405
#     4  10  23  41  70  98 134 181 223 280 342 407
#     4  12  27  42  70  99 138 189 229 281 342 423
#     4  11  24  38  65  99 135 175 220 290 334 407
#
# _framework density 21.316972
#
# number of rings (size 3 to 8) (size 9 to 14) (size 15 to 20)
#    0.000    1.429    1.429    3.429   10.000    1.143 
#    0.000    2.857    0.000    0.000    0.000    0.000 
#    0.000    0.000    0.000    0.000    0.000    0.000 
#
# Total GULP energy -78119.984885 kJ/mol
# GULP energy per Si atom -5579.998920 kJ/mol
# Density = 2.126845 g / cm^3
# Si number density = 21.316972 Si / 1000 Ang^3
#
#
#
# Elastic Constant Matrix: (Units=GPa)
#
#
# Indices 1 2 3 4 5 6 
#
# 1 91.3868 34.3352 41.2911 0.0007 -12.5588 0.0040
# 2 34.3352 52.2332 31.2084 -0.0233 -3.6078 0.0007
# 3 41.2911 31.2084 146.6316 -0.0361 -6.5597 -0.0228
# 4 0.0007 -0.0233 -0.0361 23.0697 -0.0016 3.0463
# 5 -12.5588 -3.6078 -6.5597 -0.0016 29.3944 0.0149
# 6 0.0040 0.0007 -0.0228 3.0463 0.0149 19.3707
#
#
#
# Elastic Compliance Matrix: (Units=1/GPa)
#
#
# Indices 1 2 3 4 5 6 
#
# 1 0.016039 -0.008733 -0.002423 -0.000012 0.005240 -0.000008
# 2 -0.008733 0.026771 -0.003291 0.000023 -0.001180 -0.000006
# 3 -0.002423 -0.003291 0.008220 0.000009 0.000395 0.000009
# 4 -0.000012 0.000023 0.000009 0.044266 0.000006 -0.006961
# 5 0.005240 -0.001180 0.000395 0.000006 0.036202 -0.000029
# 6 -0.000008 -0.000006 0.000009 -0.006961 -0.000029 0.052719
#
#
# Mechanical properties :
#
#
# Convention : Reuss Voigt Hill
#
# Bulk Modulus (GPa) = 45.17901 55.99121 50.58511
# Shear Modulus (GPa) = 22.67671 26.59476 24.63573
#
# Velocity S-wave (km/s) = 3.26511 3.53595 3.40323
# Velocity P-wave (km/s) = 5.95437 6.55695 6.26291
#
# Compressibility (1/GPa) = 0.02213417
#
# Stress axis : x y z
#
# Youngs Moduli (GPa) = 62.34944 37.35451 121.64872
#
# Poissons Ratio (x) = 0.32622 0.29479
# Poissons Ratio (y) = 0.54450 0.40038
# Poissons Ratio (z) = 0.15109 0.12294
#
# Static dielectric constant tensor:
#      x y z
#    x 1.788410 -0.000090 0.010220 
#    y -0.000090 1.778070 0.000030 
#    z 0.010220 0.000030 1.798720 
# 
# From -- ./inp_files/25488.got.cif
#   From: 2010.05.17/outbox.cif.g08.bks.cpg/sg5_13_cif.got.tgz:25488.got - 2010.06.03 18:56:24.
