data_PCOD9124049
_publ_section_title
;
Structure prediction by ZEFSAII (Michael W. Deem and Ramdas Pophale) SiO2 
 PCOD9124049
Probable space group: C 2
;
_chemical_formula_sum "Si O2"
_cell_formula_units_Z 28
_cell_length_a 12.064114
_cell_length_b 11.039930
_cell_length_c 20.000009
_cell_angle_alpha 90.000000
_cell_angle_beta 29.676807
_cell_angle_gamma 90.000000
_cell_volume 1318.836686
_symmetry_space_group_name_H-M "C 2"
_symmetry_group_IT_number 5
_symmetry_cell_setting 'monoclinic'
loop_
_space_group_symop_operation_xyz
x,y,z
-x,y,-z
1/2+x,1/2+y,z
1/2-x,1/2+y,-z
loop_
_atom_site_type_symbol
_atom_site_label
_atom_site_fract_x
_atom_site_fract_y
_atom_site_fract_z
Si Si1 0.116706 0.248220 0.185887
Si Si2 0.748550 0.512307 0.888105
Si Si3 0.985392 0.578780 0.381278
Si Si4 0.500000 0.902017 0.500000
Si Si5 0.121392 0.539052 0.791496
Si Si6 0.457266 0.705393 0.414111
Si Si7 0.681703 0.286596 0.347276
Si Si8 0.500000 0.053675 0.000000
O O1 0.250057 0.368933 0.095860
O O2 0.286615 0.138793 0.099801
O O3 0.997790 0.265558 0.320385
O O4 0.915023 0.222024 0.241799
O O5 0.895269 0.525209 0.745078
O O6 0.894968 0.571404 0.870398
O O7 0.500000 0.554491 0.000000
O O8 0.049709 0.499831 0.413554
O O9 0.721524 0.597949 0.505256
O O10 0.073819 0.716780 0.342392
O O11 0.385669 0.800659 0.509317
O O12 0.298684 0.648355 0.697874
O O13 0.250322 0.426055 0.691904
O O14 0.054835 0.493355 0.900678
O O15 0.500000 0.270866 0.500000
#
# Coordination Sequence:
#
# PCOD9124049 Si02
#       8
#     4   4   4   2   4   4   4   2
#     4  10  20  41  68  88 134 176 222 281 349 414
#     4  11  24  44  66  95 136 182 226 282 348 425
#     4  12  25  43  68 105 140 181 232 295 358 424
#     4  12  24  40  70 110 138 180 240 286 360 428
#     4  10  26  44  69  98 135 186 232 292 357 423
#     4  11  23  42  68 103 137 176 233 296 354 418
#     4  11  23  42  67  99 138 179 218 290 366 415
#     4  10  22  46  68  96 126 184 240 280 348 428
#
# _framework density 21.230831999999999
#
# number of rings (size 3 to 8) (size 9 to 14) (size 15 to 20)
#    0.000    1.143    4.286    0.857    9.000    0.000 
#    1.286    0.000    0.000    0.000    0.000    0.000 
#    0.000    0.000    0.000    0.000    0.000    0.000 
#
# Total GULP energy -77950.140065 kJ/mol
# GULP energy per Si atom -5567.867148 kJ/mol
# Density = 2.118251 g / cm^3
# Si number density = 21.230832 Si / 1000 Ang^3
#
#
#
# Elastic Constant Matrix: (Units=GPa)
#
#
# Indices 1 2 3 4 5 6 
#
# 1 90.0688 3.3130 26.1118 0.0008 -18.3312 0.0002
# 2 3.3130 31.6548 2.0471 -0.0001 -6.1327 0.0001
# 3 26.1118 2.0471 67.9441 -0.0007 -17.8543 0.0033
# 4 0.0008 -0.0001 -0.0007 13.0956 -0.0003 3.1434
# 5 -18.3312 -6.1327 -17.8543 -0.0003 36.4997 -0.0006
# 6 0.0002 0.0001 0.0033 3.1434 -0.0006 19.7664
#
#
#
# Elastic Compliance Matrix: (Units=1/GPa)
#
#
# Indices 1 2 3 4 5 6 
#
# 1 0.013177 -0.000219 -0.003819 -0.000001 0.004713 0.000001
# 2 -0.000219 0.032674 0.000589 0.000000 0.005668 0.000000
# 3 -0.003819 0.000589 0.018004 0.000002 0.006988 -0.000003
# 4 -0.000001 0.000000 0.000002 0.079392 0.000001 -0.012625
# 5 0.004713 0.005668 0.006988 0.000001 0.034135 0.000000
# 6 0.000001 0.000000 -0.000003 -0.012625 0.000000 0.052599
#
#
# Mechanical properties :
#
#
# Convention : Reuss Voigt Hill
#
# Bulk Modulus (GPa) = 17.55704 28.06793 22.81249
# Shear Modulus (GPa) = 19.54160 24.41873 21.98016
#
# Velocity S-wave (km/s) = 3.03716 3.39507 3.22109
# Velocity P-wave (km/s) = 4.53725 5.34956 4.96006
#
# Compressibility (1/GPa) = 0.05695722
#
# Stress axis : x y z
#
# Youngs Moduli (GPa) = 75.88943 30.60564 55.54250
#
# Poissons Ratio (x) = 0.00670 0.21212
# Poissons Ratio (y) = 0.01662 -0.03273
# Poissons Ratio (z) = 0.28983 -0.01803
#
# Static dielectric constant tensor:
#      x y z
#    x 1.902000 0.000000 -0.033970 
#    y 0.000000 1.769980 0.000000 
#    z -0.033970 0.000000 1.768270 
# 
# From -- ./inp_files/46419.got.cif
#   From: 2010.05.17/outbox.cif.g08.bks.cpg/sg5_24_cif.got.tgz:46419.got - 2010.06.03 18:56:24.
