data_PCOD9124895
_publ_section_title
;
Structure prediction by ZEFSAII (Michael W. Deem and Ramdas Pophale) SiO2 
 PCOD9124895
Probable space group: C 2
;
_chemical_formula_sum "Si O2"
_cell_formula_units_Z 30
_cell_length_a 21.367546
_cell_length_b 10.414398
_cell_length_c 7.625943
_cell_angle_alpha 90.000000
_cell_angle_beta 130.326118
_cell_angle_gamma 90.000000
_cell_volume 1293.749266
_symmetry_space_group_name_H-M "C 2"
_symmetry_group_IT_number 5
_symmetry_cell_setting 'monoclinic'
loop_
_space_group_symop_operation_xyz
x,y,z
-x,y,-z
1/2+x,1/2+y,z
1/2-x,1/2+y,-z
loop_
_atom_site_type_symbol
_atom_site_label
_atom_site_fract_x
_atom_site_fract_y
_atom_site_fract_z
Si Si1 0.389322 0.428180 0.438767
Si Si2 0.624150 0.999472 0.122899
Si Si3 0.841074 0.197071 0.178653
Si Si4 0.240079 0.261389 0.314533
Si Si5 0.000000 0.368793 0.500000
Si Si6 0.957154 0.560282 0.680111
Si Si7 0.952750 0.834764 0.183346
Si Si8 0.289424 0.238946 0.788234
O O1 0.357917 0.565892 0.316527
O O2 0.322233 0.337900 0.407340
O O3 0.415730 0.354889 0.308769
O O4 0.473988 0.437415 0.704508
O O5 0.610731 0.057104 0.293428
O O6 0.669250 0.103592 0.084231
O O7 0.673311 0.871713 0.215946
O O8 0.533930 0.976076 0.887148
O O9 0.777510 0.275836 0.188573
O O10 0.927993 0.269135 0.307584
O O11 0.793632 0.176158 0.907656
O O12 0.249413 0.210184 0.527904
O O13 0.061314 0.477183 0.522250
O O14 0.996966 0.700732 0.739212
O O15 0.870312 0.829492 0.917349
#
# Coordination Sequence:
#
# PCOD9124895 Si02
#       8
#     4   4   4   4   2   4   4   4
#     4  11  23  44  71 102 152 185 237 303 363 439
#     4  10  21  43  61  98 136 171 236 301 338 423
#     4  12  26  46  67 105 148 192 241 299 362 442
#     4  12  24  44  72 101 144 193 239 297 369 435
#     4  12  22  40  68  98 134 190 230 292 360 422
#     4  10  21  38  71  97 132 176 241 297 348 412
#     4  10  22  44  71 109 139 188 239 303 363 428
#     4  11  24  43  72 100 142 187 244 297 368 429
#
# _framework density 23.188419
#
# number of rings (size 3 to 8) (size 9 to 14) (size 15 to 20)
#    0.000    1.067    4.000    3.200    0.000    2.667 
#    4.800    0.000    2.933    0.000    0.000    0.000 
#    0.000    0.000    0.000    0.000    0.000    0.000 
#
# Total GULP energy -83586.828222 kJ/mol
# GULP energy per Si atom -5572.455215 kJ/mol
# Density = 2.313564 g / cm^3
# Si number density = 23.188419 Si / 1000 Ang^3
#
#
#
# Elastic Constant Matrix: (Units=GPa)
#
#
# Indices 1 2 3 4 5 6 
#
# 1 79.2508 10.6644 25.3368 0.0000 7.9079 0.0000
# 2 10.6644 27.6375 -0.9012 0.0000 10.9145 0.0000
# 3 25.3368 -0.9012 107.2366 0.0000 16.8155 0.0000
# 4 0.0000 0.0000 0.0000 27.7704 0.0000 7.2921
# 5 7.9079 10.9145 16.8155 0.0000 28.7746 0.0000
# 6 0.0000 0.0000 0.0000 7.2921 0.0000 19.9456
#
#
#
# Elastic Compliance Matrix: (Units=1/GPa)
#
#
# Indices 1 2 3 4 5 6 
#
# 1 0.014498 -0.005819 -0.003518 0.000000 0.000279 0.000000
# 2 -0.005819 0.045902 0.004668 0.000000 -0.018540 0.000000
# 3 -0.003518 0.004668 0.011363 0.000000 -0.007444 0.000000
# 4 0.000000 0.000000 0.000000 0.039834 0.000000 -0.014563
# 5 0.000279 -0.018540 -0.007444 0.000000 0.046059 0.000000
# 6 0.000000 0.000000 0.000000 -0.014563 0.000000 0.055461
#
#
# Mechanical properties :
#
#
# Convention : Reuss Voigt Hill
#
# Bulk Modulus (GPa) = 16.01942 31.59163 23.80553
# Shear Modulus (GPa) = 20.55389 27.23312 23.89351
#
# Velocity S-wave (km/s) = 2.98045 3.43071 3.21348
# Velocity P-wave (km/s) = 4.33215 5.41724 4.90479
#
# Compressibility (1/GPa) = 0.06242422
#
# Stress axis : x y z
#
# Youngs Moduli (GPa) = 68.97435 21.78553 88.00565
#
# Poissons Ratio (x) = 0.12677 0.30961
# Poissons Ratio (y) = 0.40137 -0.41079
# Poissons Ratio (z) = 0.24266 -0.10169
#
# Static dielectric constant tensor:
#      x y z
#    x 2.448930 0.000000 -0.407720 
#    y 0.000000 1.854470 0.000000 
#    z -0.407720 0.000000 2.283980 
# 
# From -- ./inp_files/30944.got.cif
#   From: 2010.05.17/outbox.cif.g08.bks.cpg/sg5_16_cif.got.tgz:30944.got - 2010.06.03 18:56:24.
