data_PCOD9124534
_publ_section_title
;
Structure prediction by ZEFSAII (Michael W. Deem and Ramdas Pophale) SiO2 
 PCOD9124534
Probable space group: C 2
;
_chemical_formula_sum "Si O2"
_cell_formula_units_Z 28
_cell_length_a 8.303175
_cell_length_b 32.780501
_cell_length_c 5.012008
_cell_angle_alpha 90.000000
_cell_angle_beta 98.725660
_cell_angle_gamma 90.000000
_cell_volume 1348.390594
_symmetry_space_group_name_H-M "C 2"
_symmetry_group_IT_number 5
_symmetry_cell_setting 'monoclinic'
loop_
_space_group_symop_operation_xyz
x,y,z
-x,y,-z
1/2+x,1/2+y,z
1/2-x,1/2+y,-z
loop_
_atom_site_type_symbol
_atom_site_label
_atom_site_fract_x
_atom_site_fract_y
_atom_site_fract_z
Si Si1 0.684778 0.443650 0.441385
Si Si2 0.115698 0.609224 0.271816
Si Si3 0.382636 0.017553 0.722058
Si Si4 0.193311 0.396792 0.050490
Si Si5 0.696303 0.737297 0.067860
Si Si6 0.111855 0.815565 0.789324
Si Si7 0.695271 0.688785 0.561873
O O1 0.500000 0.438837 0.500000
O O2 0.745970 0.487184 0.572543
O O3 0.732046 0.429379 0.150278
O O4 0.785237 0.412939 0.646357
O O5 0.179885 0.563189 0.231685
O O6 0.247882 0.643964 0.345267
O O7 0.000000 0.607908 0.500000
O O8 0.000000 0.620538 0.000000
O O9 0.500000 0.020928 0.500000
O O10 0.500000 0.003666 0.000000
O O11 0.299847 0.355822 0.073298
O O12 0.000000 0.389443 0.000000
O O13 0.757447 0.779635 0.206924
O O14 0.752849 0.702197 0.285468
O O15 0.500000 0.738991 0.000000
O O16 0.751954 0.722590 0.790403
O O17 0.000000 0.823277 0.500000
O O18 0.000000 0.800087 0.000000
O O19 0.500000 0.689490 0.500000
#
# Coordination Sequence:
#
# PCOD9124534 Si02
#       7
#     4   4   4   4   4   4   4
#     4  12  24  40  64  93 122 154 200 256 302 352
#     4  10  21  36  58  86 119 156 198 246 293 350
#     4  10  21  39  60  86 120 160 201 242 297 365
#     4  12  25  43  65  88 120 163 200 241 303 372
#     4  10  22  40  59  84 118 158 198 240 296 362
#     4  12  25  41  62  90 121 153 197 254 301 349
#     4  10  21  37  59  85 118 156 198 245 294 352
#
# _framework density 20.765495999999999
#
# number of rings (size 3 to 8) (size 9 to 14) (size 15 to 20)
#    0.000    1.143    0.000    7.286    0.000    4.000 
#    0.000    4.286    0.000    8.571    0.000    0.000 
#    0.000    0.000    0.000    0.000    0.000    0.000 
#
# Total GULP energy -78059.430829 kJ/mol
# GULP energy per Si atom -5575.673631 kJ/mol
# Density = 2.071823 g / cm^3
# Si number density = 20.765496 Si / 1000 Ang^3
#
#
#
# Elastic Constant Matrix: (Units=GPa)
#
#
# Indices 1 2 3 4 5 6 
#
# 1 52.7218 20.5515 35.2572 0.0000 13.3389 0.0000
# 2 20.5515 97.4116 18.5458 0.0000 28.0199 0.0000
# 3 35.2572 18.5458 113.5995 0.0000 3.0669 0.0000
# 4 0.0000 0.0000 0.0000 48.0896 0.0000 4.7284
# 5 13.3389 28.0199 3.0669 0.0000 32.4934 0.0000
# 6 0.0000 0.0000 0.0000 4.7284 0.0000 28.4317
#
#
#
# Elastic Compliance Matrix: (Units=1/GPa)
#
#
# Indices 1 2 3 4 5 6 
#
# 1 0.027183 -0.001637 -0.007926 0.000000 -0.008999 0.000000
# 2 -0.001637 0.014180 -0.001499 0.000000 -0.011414 0.000000
# 3 -0.007926 -0.001499 0.011414 0.000000 0.003469 0.000000
# 4 0.000000 0.000000 0.000000 0.021140 0.000000 -0.003516
# 5 -0.008999 -0.011414 0.003469 0.000000 0.043985 0.000000
# 6 0.000000 0.000000 0.000000 -0.003516 0.000000 0.035757
#
#
# Mechanical properties :
#
#
# Convention : Reuss Voigt Hill
#
# Bulk Modulus (GPa) = 32.62436 45.82689 39.22563
# Shear Modulus (GPa) = 26.88162 34.42817 30.65490
#
# Velocity S-wave (km/s) = 3.60187 4.07621 3.84636
# Velocity P-wave (km/s) = 5.74829 6.65362 6.21746
#
# Compressibility (1/GPa) = 0.03065194
#
# Stress axis : x y z
#
# Youngs Moduli (GPa) = 36.78723 70.52389 87.61208
#
# Poissons Ratio (x) = 0.11548 0.69445
# Poissons Ratio (y) = 0.06024 0.13129
# Poissons Ratio (z) = 0.29159 0.10568
#
# Static dielectric constant tensor:
#      x y z
#    x 1.604340 0.000000 -0.086750 
#    y 0.000000 1.801750 0.000000 
#    z -0.086750 0.000000 1.671860 
# 
# From -- ./inp_files/3813.got.cif
#   From: 2010.05.17/outbox.cif.g08.bks.cpg/sg5_2_cif.got.tgz:3813.got - 2010.06.03 18:56:24.
