data_PCOD9124686
_publ_section_title
;
Structure prediction by ZEFSAII (Michael W. Deem and Ramdas Pophale) SiO2 
 PCOD9124686
Probable space group: C 2
;
_chemical_formula_sum "Si O2"
_cell_formula_units_Z 24
_cell_length_a 15.407620
_cell_length_b 7.409914
_cell_length_c 18.404145
_cell_angle_alpha 90.000000
_cell_angle_beta 151.001568
_cell_angle_gamma 90.000000
_cell_volume 1018.624598
_symmetry_space_group_name_H-M "C 2"
_symmetry_group_IT_number 5
_symmetry_cell_setting 'monoclinic'
loop_
_space_group_symop_operation_xyz
x,y,z
-x,y,-z
1/2+x,1/2+y,z
1/2-x,1/2+y,-z
loop_
_atom_site_type_symbol
_atom_site_label
_atom_site_fract_x
_atom_site_fract_y
_atom_site_fract_z
Si Si1 0.963672 0.478880 0.310530
Si Si2 0.073887 0.451417 0.878435
Si Si3 0.205968 0.939739 0.640182
Si Si4 0.535368 0.524312 0.820503
Si Si5 0.645054 0.584521 0.168661
Si Si6 0.697293 0.324672 0.470296
O O1 0.099251 0.310267 0.410286
O O2 0.095344 0.646314 0.421050
O O3 0.896262 0.527263 0.180395
O O4 0.798337 0.467370 0.242503
O O5 0.902658 0.532200 0.795129
O O6 0.039317 0.240485 0.835467
O O7 0.263860 0.471833 0.054504
O O8 0.243640 0.753458 0.713408
O O9 0.217425 0.926512 0.561178
O O10 0.000000 0.000300 0.500000
O O11 0.458046 0.475868 0.843620
O O12 0.412906 0.431010 0.670903
O O13 0.500000 0.641086 0.000000
#
# Coordination Sequence:
#
# PCOD9124686 Si02
#       6
#     4   4   4   4   4   4
#     4  11  21  41  66  94 131 166 226 268 329 386
#     4  10  22  39  66  95 130 171 220 271 329 396
#     4  10  21  37  63  94 125 164 228 265 307 388
#     4  11  23  40  67  95 131 175 222 268 336 383
#     4  11  22  39  68  97 126 175 226 267 310 412
#     4  11  23  38  67  95 130 175 215 276 324 392
#
# _framework density 23.561181999999999
#
# number of rings (size 3 to 8) (size 9 to 14) (size 15 to 20)
#    0.000    1.333    3.333    4.000    2.333    0.000 
#    0.000    0.000   36.667    0.000    0.000    0.000 
#    0.000    0.000    0.000    0.000    0.000    0.000 
#
# Total GULP energy -66826.734491 kJ/mol
# GULP energy per Si atom -5568.894541 kJ/mol
# Density = 2.350756 g / cm^3
# Si number density = 23.561182 Si / 1000 Ang^3
#
#
#
# Elastic Constant Matrix: (Units=GPa)
#
#
# Indices 1 2 3 4 5 6 
#
# 1 128.1139 -0.0756 61.4117 0.0000 44.7992 0.0000
# 2 -0.0756 49.7736 3.8295 0.0000 7.4461 0.0000
# 3 61.4117 3.8295 154.0973 -0.0001 28.5628 0.0000
# 4 0.0000 0.0000 -0.0001 31.8683 0.0000 0.2000
# 5 44.7992 7.4461 28.5628 0.0000 55.2032 0.0000
# 6 0.0000 0.0000 0.0000 0.2000 0.0000 20.5998
#
#
#
# Elastic Compliance Matrix: (Units=1/GPa)
#
#
# Indices 1 2 3 4 5 6 
#
# 1 0.012422 0.001557 -0.003409 0.000000 -0.008527 0.000000
# 2 0.001557 0.020700 -0.000424 0.000000 -0.003836 0.000000
# 3 -0.003409 -0.000424 0.008113 0.000000 -0.001374 0.000000
# 4 0.000000 0.000000 0.000000 0.031381 0.000000 -0.000305
# 5 -0.008527 -0.003836 -0.001374 0.000000 0.026264 0.000000
# 6 0.000000 0.000000 0.000000 -0.000305 0.000000 0.048547
#
#
# Mechanical properties :
#
#
# Convention : Reuss Voigt Hill
#
# Bulk Modulus (GPa) = 27.25985 51.36845 39.31415
# Shear Modulus (GPa) = 30.44947 39.32221 34.88584
#
# Velocity S-wave (km/s) = 3.59884 4.08970 3.85209
# Velocity P-wave (km/s) = 5.37250 6.64457 6.04211
#
# Compressibility (1/GPa) = 0.03668398
#
# Stress axis : x y z
#
# Youngs Moduli (GPa) = 80.50017 48.30957 123.25676
#
# Poissons Ratio (x) = -0.07521 0.42015
# Poissons Ratio (y) = -0.12532 0.05223
# Poissons Ratio (z) = 0.27440 0.02047
#
# Static dielectric constant tensor:
#      x y z
#    x 1.933110 0.000000 0.033240 
#    y 0.000000 2.051530 0.000000 
#    z 0.033240 0.000000 1.953640 
# 
# From -- ./inp_files/22852.got.cif
#   From: 2010.05.17/outbox.cif.g08.bks.cpg/sg5_12_cif.got.tgz:22852.got - 2010.06.03 18:56:24.
