data_PCOD9124270
_publ_section_title
;
Structure prediction by ZEFSAII (Michael W. Deem and Ramdas Pophale) SiO2 
 PCOD9124270
Probable space group: C 2
;
_chemical_formula_sum "Si O2"
_cell_formula_units_Z 28
_cell_length_a 7.882189
_cell_length_b 11.347074
_cell_length_c 20.755170
_cell_angle_alpha 90.000000
_cell_angle_beta 52.833023
_cell_angle_gamma 90.000000
_cell_volume 1479.275284
_symmetry_space_group_name_H-M "C 2"
_symmetry_group_IT_number 5
_symmetry_cell_setting 'monoclinic'
loop_
_space_group_symop_operation_xyz
x,y,z
-x,y,-z
1/2+x,1/2+y,z
1/2-x,1/2+y,-z
loop_
_atom_site_type_symbol
_atom_site_label
_atom_site_fract_x
_atom_site_fract_y
_atom_site_fract_z
Si Si1 0.089691 0.280260 0.783365
Si Si2 0.740306 0.153518 0.936483
Si Si3 0.123069 0.383225 0.637103
Si Si4 0.757612 0.133786 0.439863
Si Si5 0.298761 0.404717 0.855418
Si Si6 0.000000 0.224420 0.000000
Si Si7 0.209042 0.026455 0.705476
Si Si8 0.500000 0.521414 0.500000
O O1 0.074368 0.348114 0.720763
O O2 0.200025 0.362933 0.810437
O O3 0.202829 0.153457 0.743460
O O4 0.860952 0.243649 0.862483
O O5 0.885891 0.152510 0.968086
O O6 0.727789 0.027005 0.904529
O O7 0.500000 0.194333 0.000000
O O8 0.146039 0.263135 0.592390
O O9 0.350288 0.444239 0.579688
O O10 0.938641 0.467601 0.654942
O O11 0.500000 0.136667 0.500000
O O12 0.833992 0.057270 0.360014
O O13 0.846107 0.090173 0.487337
O O14 0.194340 0.304662 0.926375
O O15 0.542741 0.437863 0.779208
#
# Coordination Sequence:
#
# PCOD9124270 Si02
#       8
#     4   4   4   4   4   2   4   2
#     4   9  22  41  62  89 127 161 210 257 299 374
#     4  10  21  41  63  93 127 164 206 255 307 365
#     4  11  23  41  64  94 123 167 207 255 313 362
#     4  11  23  42  61  93 130 158 211 260 300 374
#     4  10  20  43  62  90 129 163 203 261 305 359
#     4  10  22  40  62  94 128 164 210 254 302 368
#     4  10  22  40  64  90 126 164 208 257 307 364
#     4  12  24  38  66  92 124 172 206 252 320 358
#
# _framework density 18.928187000000001
#
# number of rings (size 3 to 8) (size 9 to 14) (size 15 to 20)
#    0.000    1.714    2.857    0.857    2.000    2.286 
#    9.000    0.000    0.000    0.000    0.000    0.000 
#    0.000    0.000    0.000    0.000    0.000    0.000 
#
# Total GULP energy -77993.491114 kJ/mol
# GULP energy per Si atom -5570.963651 kJ/mol
# Density = 1.888511 g / cm^3
# Si number density = 18.928187 Si / 1000 Ang^3
#
#
#
# Elastic Constant Matrix: (Units=GPa)
#
#
# Indices 1 2 3 4 5 6 
#
# 1 93.5685 62.2061 49.2195 0.0000 -2.3640 0.0000
# 2 62.2061 70.9474 31.3649 0.0000 7.3592 0.0000
# 3 49.2195 31.3649 104.3420 0.0000 -4.7508 0.0000
# 4 0.0000 0.0000 0.0000 16.0073 0.0000 2.1648
# 5 -2.3640 7.3592 -4.7508 0.0000 35.1547 0.0000
# 6 0.0000 0.0000 0.0000 2.1648 0.0000 22.0343
#
#
#
# Elastic Compliance Matrix: (Units=1/GPa)
#
#
# Indices 1 2 3 4 5 6 
#
# 1 0.030863 -0.024687 -0.006850 0.000000 0.006318 0.000000
# 2 -0.024687 0.036608 0.000218 0.000000 -0.009294 0.000000
# 3 -0.006850 0.000218 0.012805 0.000000 0.001224 0.000000
# 4 0.000000 0.000000 0.000000 0.063313 0.000000 -0.006220
# 5 0.006318 -0.009294 0.001224 0.000000 0.030982 0.000000
# 6 0.000000 0.000000 0.000000 -0.006220 0.000000 0.045995
#
#
# Mechanical properties :
#
#
# Convention : Reuss Voigt Hill
#
# Bulk Modulus (GPa) = 56.69650 61.60433 59.15042
# Shear Modulus (GPa) = 17.29603 23.04374 20.16989
#
# Velocity S-wave (km/s) = 3.02614 3.49295 3.26790
# Velocity P-wave (km/s) = 6.49835 6.99176 6.74956
#
# Compressibility (1/GPa) = 0.01763777
#
# Stress axis : x y z
#
# Youngs Moduli (GPa) = 32.40157 27.31617 78.09284
#
# Poissons Ratio (x) = 0.67436 0.53492
# Poissons Ratio (y) = 0.79991 -0.01701
# Poissons Ratio (z) = 0.22194 -0.00595
#
# Static dielectric constant tensor:
#      x y z
#    x 1.624810 0.000000 0.003650 
#    y 0.000000 1.653350 0.000000 
#    z 0.003650 0.000000 1.694090 
# 
# From -- ./inp_files/50165.got.cif
#   From: 2010.05.17/outbox.cif.g08.bks.cpg/sg5_26_cif.got.tgz:50165.got - 2010.06.03 18:56:24.
