data_PCOD9124703
_publ_section_title
;
Structure prediction by ZEFSAII (Michael W. Deem and Ramdas Pophale) SiO2 
 PCOD9124703
Probable space group: C 2
;
_chemical_formula_sum "Si O2"
_cell_formula_units_Z 28
_cell_length_a 14.432862
_cell_length_b 5.290598
_cell_length_c 16.931544
_cell_angle_alpha 90.000000
_cell_angle_beta 70.184219
_cell_angle_gamma 90.000000
_cell_volume 1216.312848
_symmetry_space_group_name_H-M "C 2"
_symmetry_group_IT_number 5
_symmetry_cell_setting 'monoclinic'
loop_
_space_group_symop_operation_xyz
x,y,z
-x,y,-z
1/2+x,1/2+y,z
1/2-x,1/2+y,-z
loop_
_atom_site_type_symbol
_atom_site_label
_atom_site_fract_x
_atom_site_fract_y
_atom_site_fract_z
Si Si1 0.377465 0.379230 0.637608
Si Si2 0.726217 0.609685 0.193153
Si Si3 0.358570 0.604051 0.176794
Si Si4 0.828436 0.252857 0.522836
Si Si5 0.190967 0.076274 0.646409
Si Si6 0.500000 0.146193 0.500000
Si Si7 0.190908 0.311258 0.035070
Si Si8 0.000000 0.225569 0.000000
O O1 0.355222 0.562646 0.715833
O O2 0.371902 0.511396 0.553476
O O3 0.286993 0.185991 0.664192
O O4 0.483674 0.261883 0.593432
O O5 0.794523 0.849026 0.191972
O O6 0.676742 0.685652 0.124979
O O7 0.796457 0.359109 0.171518
O O8 0.388711 0.609041 0.261483
O O9 0.445364 0.580188 0.087328
O O10 0.821274 0.225396 0.431702
O O11 0.727411 0.309559 0.599843
O O12 0.904498 0.472816 0.518347
O O13 0.089353 0.366971 0.018721
O O14 0.250199 0.576549 0.023661
#
# Coordination Sequence:
#
# PCOD9124703 Si02
#       8
#     4   4   4   4   4   2   4   2
#     4  10  21  39  63  90 132 182 223 279 349 414
#     4  11  22  46  70  98 138 189 228 293 362 426
#     4  11  24  43  71 101 143 177 246 291 358 431
#     4  11  19  39  63  87 135 174 228 280 348 406
#     4  10  21  37  65  99 123 184 224 288 344 413
#     4  10  24  38  58  92 132 180 226 290 334 416
#     4  12  25  47  75 104 146 186 232 301 369 428
#     4  12  26  48  76 112 140 194 242 308 358 448
#
# _framework density 23.020394
#
# number of rings (size 3 to 8) (size 9 to 14) (size 15 to 20)
#    0.000    1.143    5.714    0.429    0.000    2.286 
#    5.143    0.000    0.000    0.000    0.000    0.000 
#    0.000    0.000    0.000    0.000    0.000    0.000 
#
# Total GULP energy -77971.348957 kJ/mol
# GULP energy per Si atom -5569.382068 kJ/mol
# Density = 2.296800 g / cm^3
# Si number density = 23.020394 Si / 1000 Ang^3
#
#
#
# Elastic Constant Matrix: (Units=GPa)
#
#
# Indices 1 2 3 4 5 6 
#
# 1 58.1447 3.6560 14.8513 0.0011 7.4445 0.0072
# 2 3.6560 80.3382 8.4065 0.0028 -5.8157 0.0180
# 3 14.8513 8.4065 175.5417 -0.0004 4.5579 -0.0025
# 4 0.0011 0.0028 -0.0004 31.0938 0.0003 30.2840
# 5 7.4445 -5.8157 4.5579 0.0003 37.7302 0.0018
# 6 0.0072 0.0180 -0.0025 30.2840 0.0018 146.6764
#
#
#
# Elastic Compliance Matrix: (Units=1/GPa)
#
#
# Indices 1 2 3 4 5 6 
#
# 1 0.018066 -0.000933 -0.001392 0.000000 -0.003540 -0.000001
# 2 -0.000933 0.012712 -0.000587 0.000000 0.002214 -0.000002
# 3 -0.001392 -0.000587 0.005856 0.000000 -0.000523 0.000000
# 4 0.000000 0.000000 0.000000 0.040256 0.000000 -0.008312
# 5 -0.003540 0.002214 -0.000523 0.000000 0.027607 0.000000
# 6 -0.000001 -0.000002 0.000000 -0.008312 0.000000 0.008534
#
#
# Mechanical properties :
#
#
# Convention : Reuss Voigt Hill
#
# Bulk Modulus (GPa) = 32.45729 40.87248 36.66489
# Shear Modulus (GPa) = 38.72246 62.24080 50.48163
#
# Velocity S-wave (km/s) = 4.10578 5.20538 4.68793
# Velocity P-wave (km/s) = 6.05034 7.34312 6.72785
#
# Compressibility (1/GPa) = 0.03080972
#
# Stress axis : x y z
#
# Youngs Moduli (GPa) = 55.35298 78.66845 170.76154
#
# Poissons Ratio (x) = 0.07338 0.23767
# Poissons Ratio (y) = 0.05163 0.10029
# Poissons Ratio (z) = 0.07704 0.04620
#
# Static dielectric constant tensor:
#      x y z
#    x 0.280070 0.000010 0.953290 
#    y 0.000010 1.974750 0.000000 
#    z 0.953290 0.000000 1.414870 
# 
# From -- ./inp_files/61058.got.cif
#   From: 2010.05.17/outbox.cif.g08.bks.cpg/sg5_31_cif.got.tgz:61058.got - 2010.06.03 18:56:24.
