data_PCOD9124494
_publ_section_title
;
Structure prediction by ZEFSAII (Michael W. Deem and Ramdas Pophale) SiO2 
 PCOD9124494
Probable space group: C 2
;
_chemical_formula_sum "Si O2"
_cell_formula_units_Z 24
_cell_length_a 16.262507
_cell_length_b 9.881225
_cell_length_c 13.558247
_cell_angle_alpha 90.000000
_cell_angle_beta 154.464799
_cell_angle_gamma 90.000000
_cell_volume 939.171992
_symmetry_space_group_name_H-M "C 2"
_symmetry_group_IT_number 5
_symmetry_cell_setting 'monoclinic'
loop_
_space_group_symop_operation_xyz
x,y,z
-x,y,-z
1/2+x,1/2+y,z
1/2-x,1/2+y,-z
loop_
_atom_site_type_symbol
_atom_site_label
_atom_site_fract_x
_atom_site_fract_y
_atom_site_fract_z
Si Si1 0.721665 0.772790 0.250459
Si Si2 0.215763 0.546906 0.189864
Si Si3 0.296407 0.204801 0.027021
Si Si4 0.629160 0.377502 0.379412
Si Si5 0.897823 0.528032 0.528832
Si Si6 0.398498 0.727941 0.545992
O O1 0.774180 0.846115 0.411157
O O2 0.819982 0.627917 0.361328
O O3 0.772902 0.891175 0.228775
O O4 0.500000 0.746767 0.000000
O O5 0.212716 0.642333 0.092347
O O6 0.356727 0.612071 0.423092
O O7 0.000000 0.541849 0.000000
O O8 0.072787 0.207927 0.810210
O O9 0.404360 0.350182 0.143779
O O10 0.424501 0.105132 0.230747
O O11 0.729789 0.500928 0.430367
O O12 0.701016 0.254973 0.387679
O O13 0.943257 0.375028 0.547321
#
# Coordination Sequence:
#
# PCOD9124494 Si02
#       6
#     4   4   4   4   4   4
#     4  10  21  35  65  92 123 162 205 256 317 359
#     4  11  20  38  65  92 121 167 209 252 304 370
#     4  11  21  40  65  90 124 165 209 255 299 375
#     4   9  21  40  61  88 123 164 207 246 307 374
#     4   9  21  40  59  90 123 156 207 255 307 359
#     4  10  23  38  64  91 121 166 212 246 305 373
#
# _framework density 25.554424999999998
#
# number of rings (size 3 to 8) (size 9 to 14) (size 15 to 20)
#    1.000    1.000    1.667    2.500    2.333    4.667 
#    0.000    0.000    0.000    0.000    0.000    0.000 
#    0.000    0.000    0.000    0.000    0.000    0.000 
#
# Total GULP energy -67045.760437 kJ/mol
# GULP energy per Si atom -5587.146703 kJ/mol
# Density = 2.549626 g / cm^3
# Si number density = 25.554425 Si / 1000 Ang^3
#
#
#
# Elastic Constant Matrix: (Units=GPa)
#
#
# Indices 1 2 3 4 5 6 
#
# 1 58.2254 -7.7082 6.0042 0.0000 6.4907 0.0000
# 2 -7.7082 167.7504 45.1052 0.0000 8.1129 0.0000
# 3 6.0042 45.1052 171.4683 0.0000 24.9687 0.0000
# 4 0.0000 0.0000 0.0000 31.2695 0.0000 0.9833
# 5 6.4907 8.1129 24.9687 0.0000 32.2607 0.0000
# 6 0.0000 0.0000 0.0000 0.9833 0.0000 7.1881
#
#
#
# Elastic Compliance Matrix: (Units=1/GPa)
#
#
# Indices 1 2 3 4 5 6 
#
# 1 0.017755 0.001093 -0.000393 0.000000 -0.003543 0.000000
# 2 0.001093 0.006486 -0.001662 0.000000 -0.000564 0.000000
# 3 -0.000393 -0.001662 0.006999 0.000000 -0.004920 0.000000
# 4 0.000000 0.000000 0.000000 0.032118 0.000000 -0.004393
# 5 -0.003543 -0.000564 -0.004920 0.000000 0.035660 0.000000
# 6 0.000000 0.000000 0.000000 -0.004393 0.000000 0.139720
#
#
# Mechanical properties :
#
#
# Convention : Reuss Voigt Hill
#
# Bulk Modulus (GPa) = 34.11245 53.80515 43.95880
# Shear Modulus (GPa) = 19.96526 37.74652 28.85589
#
# Velocity S-wave (km/s) = 2.79818 3.84748 3.36399
# Velocity P-wave (km/s) = 4.88033 6.39048 5.68577
#
# Compressibility (1/GPa) = 0.02931481
#
# Stress axis : x y z
#
# Youngs Moduli (GPa) = 56.32281 154.18582 142.86831
#
# Poissons Ratio (x) = -0.16851 0.05620
# Poissons Ratio (y) = -0.06156 0.23747
# Poissons Ratio (z) = 0.02215 0.25628
#
# Static dielectric constant tensor:
#      x y z
#    x 2.047450 0.000000 0.014250 
#    y 0.000000 2.030570 0.000000 
#    z 0.014250 0.000000 1.950230 
# 
# From -- ./inp_files/57050.got.cif
#   From: 2010.05.17/outbox.cif.g08.bks.cpg/sg5_29_cif.got.tgz:57050.got - 2010.06.03 18:56:24.
