data_PCOD9124692
_publ_section_title
;
Structure prediction by ZEFSAII (Michael W. Deem and Ramdas Pophale) SiO2 
 PCOD9124692
Probable space group: C 2
;
_chemical_formula_sum "Si O2"
_cell_formula_units_Z 26
_cell_length_a 10.351503
_cell_length_b 7.335003
_cell_length_c 13.440607
_cell_angle_alpha 90.000000
_cell_angle_beta 79.453505
_cell_angle_gamma 90.000000
_cell_volume 1003.282524
_symmetry_space_group_name_H-M "C 2"
_symmetry_group_IT_number 5
_symmetry_cell_setting 'monoclinic'
loop_
_space_group_symop_operation_xyz
x,y,z
-x,y,-z
1/2+x,1/2+y,z
1/2-x,1/2+y,-z
loop_
_atom_site_type_symbol
_atom_site_label
_atom_site_fract_x
_atom_site_fract_y
_atom_site_fract_z
Si Si1 0.000000 0.979380 0.000000
Si Si2 0.863240 0.604845 0.863463
Si Si3 0.860923 0.008059 0.224235
Si Si4 0.590235 0.521087 0.576923
Si Si5 0.840774 0.612095 0.251343
Si Si6 0.126940 0.591838 0.539106
Si Si7 0.230663 0.200646 0.067420
O O1 0.940251 0.931129 0.118342
O O2 0.119199 0.106569 0.020379
O O3 0.747857 0.648374 0.800225
O O4 0.828499 0.395990 0.896719
O O5 0.003792 0.608326 0.793380
O O6 0.851185 0.713473 0.970368
O O7 0.948665 0.072860 0.304306
O O8 0.793383 0.822436 0.273797
O O9 0.500000 0.592139 0.500000
O O10 0.740457 0.584212 0.542875
O O11 0.587484 0.301427 0.566730
O O12 0.830191 0.512258 0.358547
O O13 0.770574 0.576075 0.155702
O O14 0.000000 0.511965 0.500000
#
# Coordination Sequence:
#
# PCOD9124692 Si02
#       7
#     2   4   4   4   4   4   4
#     4  10  22  38  56  88 128 154 200 248 302 362
#     4  10  21  39  59  87 121 165 200 251 300 367
#     4   9  21  39  59  86 121 163 195 251 308 360
#     4  10  22  41  65  92 123 161 213 256 310 372
#     4  10  21  37  64  84 120 162 206 245 308 366
#     4  10  22  42  63  92 123 163 204 261 314 365
#     4  10  23  36  58  87 122 157 202 245 301 361
#
# _framework density 25.914933999999999
#
# number of rings (size 3 to 8) (size 9 to 14) (size 15 to 20)
#    0.000    2.154    0.000    1.385   10.769    0.615 
#    2.769    0.000    0.000    0.000    0.000    0.000 
#    0.000    0.000    0.000    0.000    0.000    0.000 
#
# Total GULP energy -72517.309738 kJ/mol
# GULP energy per Si atom -5578.254595 kJ/mol
# Density = 2.585595 g / cm^3
# Si number density = 25.914934 Si / 1000 Ang^3
#
#
#
# Elastic Constant Matrix: (Units=GPa)
#
#
# Indices 1 2 3 4 5 6 
#
# 1 81.9658 -13.2861 55.5787 0.0000 12.9693 0.0000
# 2 -13.2861 64.7537 17.1420 0.0000 0.0435 0.0000
# 3 55.5787 17.1420 208.7250 0.0000 42.8575 0.0000
# 4 0.0000 0.0000 0.0000 14.7002 0.0000 -4.3108
# 5 12.9693 0.0435 42.8575 0.0000 48.8548 0.0000
# 6 0.0000 0.0000 0.0000 -4.3108 0.0000 0.8709
#
#
#
# Elastic Compliance Matrix: (Units=1/GPa)
#
#
# Indices 1 2 3 4 5 6 
#
# 1 0.016096 0.004523 -0.004610 0.000000 -0.000233 0.000000
# 2 0.004523 0.017133 -0.002881 0.000000 0.001311 0.000000
# 3 -0.004610 -0.002881 0.007322 0.000000 -0.005197 0.000000
# 4 0.000000 0.000000 0.000000 -0.150641 0.000000 -0.745683
# 5 -0.000233 0.001311 -0.005197 0.000000 0.025089 0.000000
# 6 0.000000 0.000000 0.000000 -0.745683 0.000000 -2.542866
#
#
# Mechanical properties :
#
#
# Convention : Reuss Voigt Hill
#
# Bulk Modulus (GPa) = 28.88806 52.70153 40.79479
# Shear Modulus (GPa) = -1.91542 32.61916 15.35187
#
# Velocity S-wave (km/s) = -0.86065 3.55167 2.43656
# Velocity P-wave (km/s) = 3.19121 6.09915 4.86741
#
# Compressibility (1/GPa) = 0.03461638
#
# Stress axis : x y z
#
# Youngs Moduli (GPa) = 62.12779 58.36737 136.57306
#
# Poissons Ratio (x) = -0.26399 0.62954
# Poissons Ratio (y) = -0.28100 0.39342
# Poissons Ratio (z) = 0.28638 0.16814
#
# Static dielectric constant tensor:
#      x y z
#    x 2.116580 0.000000 0.010360 
#    y 0.000000 2.064150 0.000000 
#    z 0.010360 0.000000 2.220620 
# 
# From -- ./inp_files/38385.got.cif
#   From: 2010.05.17/outbox.cif.g08.bks.cpg/sg5_20_cif.got.tgz:38385.got - 2010.06.03 18:56:24.
