data_PCOD9124062
_publ_section_title
;
Structure prediction by ZEFSAII (Michael W. Deem and Ramdas Pophale) SiO2 
 PCOD9124062
Probable space group: C 2
;
_chemical_formula_sum "Si O2"
_cell_formula_units_Z 26
_cell_length_a 11.374983
_cell_length_b 9.108263
_cell_length_c 10.893713
_cell_angle_alpha 90.000000
_cell_angle_beta 124.028259
_cell_angle_gamma 90.000000
_cell_volume 935.388239
_symmetry_space_group_name_H-M "C 2"
_symmetry_group_IT_number 5
_symmetry_cell_setting 'monoclinic'
loop_
_space_group_symop_operation_xyz
x,y,z
-x,y,-z
1/2+x,1/2+y,z
1/2-x,1/2+y,-z
loop_
_atom_site_type_symbol
_atom_site_label
_atom_site_fract_x
_atom_site_fract_y
_atom_site_fract_z
Si Si1 0.000000 0.649101 0.500000
Si Si2 0.638068 0.878611 0.155277
Si Si3 0.900255 0.924258 0.833715
Si Si4 0.108459 0.698311 0.813084
Si Si5 0.597305 0.657811 0.374531
Si Si6 0.759715 0.165900 0.151534
Si Si7 0.734884 0.369404 0.535248
O O1 0.945204 0.595242 0.332082
O O2 0.877190 0.753077 0.481510
O O3 0.776002 0.808038 0.177346
O O4 0.667985 0.050983 0.176879
O O5 0.630607 0.831625 0.292668
O O6 0.500000 0.843199 0.000000
O O7 0.855050 0.058692 0.723321
O O8 0.786024 0.829209 0.840480
O O9 0.987610 0.806509 0.799683
O O10 0.000000 0.983627 0.000000
O O11 0.195064 0.628951 0.977406
O O12 0.426780 0.648194 0.265387
O O13 0.662298 0.521595 0.495943
O O14 0.670929 0.789148 0.510122
#
# Coordination Sequence:
#
# PCOD9124062 Si02
#       7
#     2   4   4   4   4   4   4
#     4  10  20  44  68  98 154 194 238 318 388 448
#     4  11  22  41  68 106 144 197 252 315 381 467
#     4  10  22  43  73 112 150 197 259 325 381 464
#     4  10  20  41  69 109 145 196 254 314 384 452
#     4  12  25  50  72 110 154 198 260 330 389 472
#     4  11  24  43  77 105 146 208 258 318 391 463
#     4  11  26  44  73 105 147 202 248 321 402 459
#
# _framework density 27.795946000000001
#
# number of rings (size 3 to 8) (size 9 to 14) (size 15 to 20)
#    0.000    1.231    3.077    3.231    2.154    4.308 
#    2.769    0.000    0.000    0.000    0.000    0.000 
#    0.000    0.000    0.000    0.000    0.000    0.000 
#
# Total GULP energy -72446.223844 kJ/mol
# GULP energy per Si atom -5572.786450 kJ/mol
# Density = 2.773268 g / cm^3
# Si number density = 27.795946 Si / 1000 Ang^3
#
#
#
# Elastic Constant Matrix: (Units=GPa)
#
#
# Indices 1 2 3 4 5 6 
#
# 1 73.4145 25.4200 27.3852 0.0000 14.9302 0.0000
# 2 25.4200 96.4830 10.0619 0.0000 22.0760 0.0000
# 3 27.3852 10.0619 177.9346 0.0000 0.4530 0.0000
# 4 0.0000 0.0000 0.0000 104.2984 0.0000 47.8097
# 5 14.9302 22.0760 0.4530 0.0000 50.6519 0.0000
# 6 0.0000 0.0000 0.0000 47.8097 0.0000 46.2247
#
#
#
# Elastic Compliance Matrix: (Units=1/GPa)
#
#
# Indices 1 2 3 4 5 6 
#
# 1 0.016305 -0.003287 -0.002315 0.000000 -0.003353 0.000000
# 2 -0.003287 0.012248 -0.000176 0.000000 -0.004368 0.000000
# 3 -0.002315 -0.000176 0.005984 0.000000 0.000705 0.000000
# 4 0.000000 0.000000 0.000000 0.018232 0.000000 -0.018857
# 5 -0.003353 -0.004368 0.000705 0.000000 0.022628 0.000000
# 6 0.000000 0.000000 0.000000 -0.018857 0.000000 0.041137
#
#
# Mechanical properties :
#
#
# Convention : Reuss Voigt Hill
#
# Bulk Modulus (GPa) = 43.51233 52.61848 48.06541
# Shear Modulus (GPa) = 36.83219 59.23266 48.03242
#
# Velocity S-wave (km/s) = 3.64413 4.62126 4.16148
# Velocity P-wave (km/s) = 5.77879 6.88812 6.35770
#
# Compressibility (1/GPa) = 0.02298199
#
# Stress axis : x y z
#
# Youngs Moduli (GPa) = 61.33134 81.64410 167.09925
#
# Poissons Ratio (x) = 0.26838 0.38683
# Poissons Ratio (y) = 0.20161 0.02934
# Poissons Ratio (z) = 0.14198 0.01433
#
# Static dielectric constant tensor:
#      x y z
#    x 1.892400 0.000000 -0.575440 
#    y 0.000000 2.286780 0.000000 
#    z -0.575440 0.000000 2.045470 
# 
# From -- ./inp_files/39296.got.cif
#   From: 2010.05.17/outbox.cif.g08.bks.cpg/sg5_20_cif.got.tgz:39296.got - 2010.06.03 18:56:24.
