data_PCOD9124232
_publ_section_title
;
Structure prediction by ZEFSAII (Michael W. Deem and Ramdas Pophale) SiO2 
 PCOD9124232
Probable space group: C 2
;
_chemical_formula_sum "Si O2"
_cell_formula_units_Z 30
_cell_length_a 8.495429
_cell_length_b 15.791315
_cell_length_c 12.601516
_cell_angle_alpha 90.000000
_cell_angle_beta 112.538115
_cell_angle_gamma 90.000000
_cell_volume 1561.428028
_symmetry_space_group_name_H-M "C 2"
_symmetry_group_IT_number 5
_symmetry_cell_setting 'monoclinic'
loop_
_space_group_symop_operation_xyz
x,y,z
-x,y,-z
1/2+x,1/2+y,z
1/2-x,1/2+y,-z
loop_
_atom_site_type_symbol
_atom_site_label
_atom_site_fract_x
_atom_site_fract_y
_atom_site_fract_z
Si Si1 0.510987 0.621390 0.630985
Si Si2 0.000000 0.141157 0.000000
Si Si3 0.188491 0.752543 0.015508
Si Si4 0.755183 0.110908 0.749681
Si Si5 0.642518 0.444529 0.627465
Si Si6 0.011737 0.463044 0.626100
Si Si7 0.792399 0.293342 0.270317
Si Si8 0.088621 0.790848 0.764650
O O1 0.500000 0.624804 0.500000
O O2 0.339053 0.622797 0.655306
O O3 0.591331 0.529755 0.676407
O O4 0.618834 0.702559 0.693487
O O5 0.846678 0.193317 0.019388
O O6 0.099872 0.096592 0.122818
O O7 0.249879 0.802380 0.134781
O O8 0.148134 0.806976 0.900729
O O9 0.000000 0.713706 0.000000
O O10 0.658962 0.198268 0.753003
O O11 0.627871 0.032387 0.713629
O O12 0.500000 0.430426 0.500000
O O13 0.822664 0.461801 0.621510
O O14 0.653761 0.362818 0.703833
O O15 0.000000 0.485419 0.500000
O O16 0.093302 0.370290 0.660498
O O17 0.615511 0.292179 0.288083
#
# Coordination Sequence:
#
# PCOD9124232 Si02
#       8
#     4   2   4   4   4   4   4   4
#     4  11  22  39  63  93 126 165 210 261 322 379
#     4  10  20  42  70  94 136 166 222 272 328 388
#     4   9  20  38  65  97 129 168 219 272 322 392
#     4  11  23  42  67  96 130 173 213 268 324 386
#     4  11  24  42  63  94 130 167 213 269 324 390
#     4  12  25  42  63  93 131 168 220 266 321 389
#     4  11  21  41  64  94 125 171 212 265 323 381
#     4  10  22  40  64  92 128 167 212 263 325 382
#
# _framework density 19.213180999999999
#
# number of rings (size 3 to 8) (size 9 to 14) (size 15 to 20)
#    0.000    1.333    1.333    5.200    1.867    1.600 
#    6.000    0.000    0.000    0.000    0.000    0.000 
#    0.000    0.000    0.000    0.000    0.000    0.000 
#
# Total GULP energy -83717.000060 kJ/mol
# GULP energy per Si atom -5581.133337 kJ/mol
# Density = 1.916945 g / cm^3
# Si number density = 19.213181 Si / 1000 Ang^3
#
#
#
# Elastic Constant Matrix: (Units=GPa)
#
#
# Indices 1 2 3 4 5 6 
#
# 1 108.9472 -7.4680 33.6777 0.0000 -4.8422 0.0000
# 2 -7.4680 63.9351 27.3111 0.0000 6.7069 0.0000
# 3 33.6777 27.3111 87.8339 0.0000 3.9300 0.0000
# 4 0.0000 0.0000 0.0000 -2.3748 0.0000 -3.3807
# 5 -4.8422 6.7069 3.9300 0.0000 35.3156 0.0000
# 6 0.0000 0.0000 0.0000 -3.3807 0.0000 17.6526
#
#
#
# Elastic Compliance Matrix: (Units=1/GPa)
#
#
# Indices 1 2 3 4 5 6 
#
# 1 0.011158 0.003464 -0.005421 0.000000 0.001475 0.000000
# 2 0.003464 0.019395 -0.007252 0.000000 -0.002401 0.000000
# 3 -0.005421 -0.007252 0.015769 0.000000 -0.001121 0.000000
# 4 0.000000 0.000000 0.000000 -0.330887 0.000000 -0.063368
# 5 0.001475 -0.002401 -0.001121 0.000000 0.029099 0.000000
# 6 0.000000 0.000000 0.000000 -0.063368 0.000000 0.044513
#
#
# Mechanical properties :
#
#
# Convention : Reuss Voigt Hill
#
# Bulk Modulus (GPa) = 35.83670 40.86199 38.34935
# Shear Modulus (GPa) = -27.28750 23.93170 -1.67790
#
# Velocity S-wave (km/s) = -3.77271 3.53312 -0.93552
# Velocity P-wave (km/s) = 0.53398 6.16099 4.34008
#
# Compressibility (1/GPa) = 0.02790436
#
# Stress axis : x y z
#
# Youngs Moduli (GPa) = 89.62475 51.55943 63.41652
#
# Poissons Ratio (x) = -0.17862 0.34380
# Poissons Ratio (y) = -0.31049 0.45987
# Poissons Ratio (z) = 0.48589 0.37389
#
# Static dielectric constant tensor:
#      x y z
#    x 1.690570 0.000000 -0.004600 
#    y 0.000000 1.652800 0.000000 
#    z -0.004600 0.000000 1.677250 
# 
# From -- ./inp_files/36463.got.cif
#   From: 2010.05.17/outbox.cif.g08.bks.cpg/sg5_19_cif.got.tgz:36463.got - 2010.06.03 18:56:24.
