data_PCOD9124290
_publ_section_title
;
Structure prediction by ZEFSAII (Michael W. Deem and Ramdas Pophale) SiO2 
 PCOD9124290
Probable space group: C 2
;
_chemical_formula_sum "Si O2"
_cell_formula_units_Z 30
_cell_length_a 11.497044
_cell_length_b 15.549023
_cell_length_c 16.313912
_cell_angle_alpha 90.000000
_cell_angle_beta 31.385751
_cell_angle_gamma 90.000000
_cell_volume 1518.854513
_symmetry_space_group_name_H-M "C 2"
_symmetry_group_IT_number 5
_symmetry_cell_setting 'monoclinic'
loop_
_space_group_symop_operation_xyz
x,y,z
-x,y,-z
1/2+x,1/2+y,z
1/2-x,1/2+y,-z
loop_
_atom_site_type_symbol
_atom_site_label
_atom_site_fract_x
_atom_site_fract_y
_atom_site_fract_z
Si Si1 0.038784 0.750000 0.835340
Si Si2 0.900140 0.114459 0.653100
Si Si3 0.362552 0.951515 0.164605
Si Si4 0.500000 0.390711 0.000000
Si Si5 0.648299 0.177049 0.607003
Si Si6 0.847899 0.519925 0.859387
Si Si7 0.337793 0.273551 0.668433
Si Si8 0.570468 0.678743 0.054553
O O1 0.174290 0.670937 0.796669
O O2 0.166659 0.746099 0.670851
O O3 0.035589 0.829852 0.898768
O O4 0.786848 0.730153 0.956971
O O5 0.000000 0.113023 0.500000
O O6 0.109208 0.154983 0.573528
O O7 0.840543 0.018387 0.712520
O O8 0.514980 0.973687 0.151547
O O9 0.277355 0.854996 0.221158
O O10 0.500000 0.964724 0.000000
O O11 0.281091 0.450441 0.118281
O O12 0.491924 0.220577 0.636092
O O13 0.518976 0.089759 0.715421
O O14 0.649301 0.580452 0.013489
O O15 0.500000 0.305093 0.500000
O O16 0.137794 0.208890 0.766750
O O17 0.500000 0.692176 0.000000
#
# Coordination Sequence:
#
# PCOD9124290 Si02
#       8
#     4   4   4   2   4   4   4   4
#     4  10  22  38  68  94 131 172 223 276 329 392
#     4  10  20  43  66  92 133 177 219 268 336 399
#     4  12  26  41  70 103 134 176 236 283 334 402
#     4  12  24  36  64 106 134 162 234 280 336 396
#     4  10  22  45  70  90 139 185 215 273 354 398
#     4  11  22  42  71  95 136 184 214 287 339 395
#     4  12  26  40  67 103 136 176 228 285 336 403
#     4  11  19  44  71  90 132 178 229 263 343 405
#
# _framework density 19.751728
#
# number of rings (size 3 to 8) (size 9 to 14) (size 15 to 20)
#    0.000    1.067    7.333    1.600    2.800    3.200 
#    0.000    0.000    0.000    0.800    0.000    0.000 
#    0.000    0.000    0.000    0.000    0.000    0.000 
#
# Total GULP energy -83619.808342 kJ/mol
# GULP energy per Si atom -5574.653889 kJ/mol
# Density = 1.970677 g / cm^3
# Si number density = 19.751728 Si / 1000 Ang^3
#
#
#
# Elastic Constant Matrix: (Units=GPa)
#
#
# Indices 1 2 3 4 5 6 
#
# 1 97.3573 46.0795 37.9305 -0.0029 -28.2439 0.0003
# 2 46.0795 76.7795 23.7817 -0.0178 -20.2231 0.0091
# 3 37.9305 23.7817 68.6875 -0.0231 -17.7223 0.0119
# 4 -0.0029 -0.0178 -0.0231 17.2267 0.0060 7.5539
# 5 -28.2439 -20.2231 -17.7223 0.0060 27.8139 -0.0012
# 6 0.0003 0.0091 0.0119 7.5539 -0.0012 32.4756
#
#
#
# Elastic Compliance Matrix: (Units=1/GPa)
#
#
# Indices 1 2 3 4 5 6 
#
# 1 0.018566 -0.006732 -0.005170 -0.000018 0.010664 0.000008
# 2 -0.006732 0.019106 -0.001289 0.000019 0.006234 -0.000009
# 3 -0.005170 -0.001289 0.019463 0.000027 0.006214 -0.000013
# 4 -0.000018 0.000019 0.000027 0.064643 -0.000002 -0.015036
# 5 0.010664 0.006234 0.006214 -0.000002 0.055274 -0.000002
# 6 0.000008 -0.000009 -0.000013 -0.015036 -0.000002 0.034290
#
#
# Mechanical properties :
#
#
# Convention : Reuss Voigt Hill
#
# Bulk Modulus (GPa) = 32.51762 50.93421 41.72591
# Shear Modulus (GPa) = 20.16336 24.50541 22.33438
#
# Velocity S-wave (km/s) = 3.19853 3.52614 3.36632
# Velocity P-wave (km/s) = 5.48996 6.51317 6.02333
#
# Compressibility (1/GPa) = 0.03075255
#
# Stress axis : x y z
#
# Youngs Moduli (GPa) = 53.86310 52.33984 51.37859
#
# Poissons Ratio (x) = 0.35236 0.26563
# Poissons Ratio (y) = 0.36261 0.06622
# Poissons Ratio (z) = 0.27848 0.06746
#
# Static dielectric constant tensor:
#      x y z
#    x 1.768870 0.000000 -0.027520 
#    y 0.000000 1.687530 0.000000 
#    z -0.027520 0.000000 1.734250 
# 
# From -- ./inp_files/60644.got.cif
#   From: 2010.05.17/outbox.cif.g08.bks.cpg/sg5_31_cif.got.tgz:60644.got - 2010.06.03 18:56:24.
