data_PCOD9124179
_publ_section_title
;
Structure prediction by ZEFSAII (Michael W. Deem and Ramdas Pophale) SiO2 
 PCOD9124179
Probable space group: C 2
;
_chemical_formula_sum "Si O2"
_cell_formula_units_Z 32
_cell_length_a 11.684504
_cell_length_b 7.774194
_cell_length_c 16.033473
_cell_angle_alpha 90.000000
_cell_angle_beta 81.624828
_cell_angle_gamma 90.000000
_cell_volume 1440.910055
_symmetry_space_group_name_H-M "C 2"
_symmetry_group_IT_number 5
_symmetry_cell_setting 'monoclinic'
loop_
_space_group_symop_operation_xyz
x,y,z
-x,y,-z
1/2+x,1/2+y,z
1/2-x,1/2+y,-z
loop_
_atom_site_type_symbol
_atom_site_label
_atom_site_fract_x
_atom_site_fract_y
_atom_site_fract_z
Si Si1 0.175270 0.269150 0.779520
Si Si2 0.800820 0.874087 0.246436
Si Si3 0.381466 0.289970 0.058578
Si Si4 0.743434 0.461403 0.073131
Si Si5 0.580371 0.669044 0.208395
Si Si6 0.123375 0.200094 0.510333
Si Si7 0.524343 0.410711 0.643843
Si Si8 0.288314 0.415832 0.610513
O O1 0.231499 0.313738 0.861975
O O2 0.219876 0.400827 0.704685
O O3 0.036479 0.270503 0.801239
O O4 0.212633 0.079945 0.744197
O O5 0.875644 0.847466 0.154363
O O6 0.679214 0.784643 0.240609
O O7 0.877441 0.809764 0.316144
O O8 0.351604 0.088975 0.059021
O O9 0.500000 0.326082 0.000000
O O10 0.285949 0.387815 0.013587
O O11 0.639730 0.575943 0.123396
O O12 0.538024 0.526235 0.278577
O O13 0.210298 0.322474 0.549654
O O14 0.000000 0.284608 0.500000
O O15 0.180320 0.105746 0.425397
O O16 0.087043 0.041344 0.574359
O O17 0.414723 0.325521 0.609878
#
# Coordination Sequence:
#
# PCOD9124179 Si02
#       8
#     4   4   4   4   4   4   4   4
#     4  11  22  42  65  93 130 170 211 265 318 375
#     4  10  22  41  67  97 125 172 215 256 321 378
#     4  11  24  41  64  95 132 170 212 269 314 373
#     4  11  24  41  64  95 130 169 218 261 321 373
#     4  10  21  41  65  94 125 169 214 262 314 378
#     4  10  23  43  64  91 131 165 206 263 322 379
#     4  10  20  42  67  88 131 164 210 261 316 376
#     4  11  22  43  67  93 127 169 206 264 320 379
#
# _framework density 22.208186000000001
#
# number of rings (size 3 to 8) (size 9 to 14) (size 15 to 20)
#    0.000    1.500    3.750    2.250    0.000    5.000 
#    2.250    6.250    0.000    0.000    0.000    0.000 
#    0.000    0.000    0.000    0.000    0.000    0.000 
#
# Total GULP energy -89437.621499 kJ/mol
# GULP energy per Si atom -5589.851344 kJ/mol
# Density = 2.215764 g / cm^3
# Si number density = 22.208186 Si / 1000 Ang^3
#
#
#
# Elastic Constant Matrix: (Units=GPa)
#
#
# Indices 1 2 3 4 5 6 
#
# 1 123.9678 32.8511 16.4955 0.0000 6.5177 0.0000
# 2 32.8511 35.2830 4.5325 0.0000 8.2629 0.0000
# 3 16.4955 4.5325 61.5879 0.0000 11.9874 0.0000
# 4 0.0000 0.0000 0.0000 30.7376 0.0000 3.5102
# 5 6.5177 8.2629 11.9874 0.0000 35.8221 0.0000
# 6 0.0000 0.0000 0.0000 3.5102 0.0000 33.0652
#
#
#
# Elastic Compliance Matrix: (Units=1/GPa)
#
#
# Indices 1 2 3 4 5 6 
#
# 1 0.011043 -0.010243 -0.002431 0.000000 0.001167 0.000000
# 2 -0.010243 0.039510 0.001334 0.000000 -0.007696 0.000000
# 3 -0.002431 0.001334 0.017932 0.000000 -0.005866 0.000000
# 4 0.000000 0.000000 0.000000 0.032933 0.000000 -0.003496
# 5 0.001167 -0.007696 -0.005866 0.000000 0.031442 0.000000
# 6 0.000000 0.000000 0.000000 -0.003496 0.000000 0.030614
#
#
# Mechanical properties :
#
#
# Convention : Reuss Voigt Hill
#
# Bulk Modulus (GPa) = 21.83197 36.51077 29.17137
# Shear Modulus (GPa) = 24.82344 31.05561 27.93952
#
# Velocity S-wave (km/s) = 3.34692 3.74356 3.55078
# Velocity P-wave (km/s) = 4.97873 5.92972 5.47491
#
# Compressibility (1/GPa) = 0.04580439
#
# Stress axis : x y z
#
# Youngs Moduli (GPa) = 90.55430 25.30986 55.76730
#
# Poissons Ratio (x) = 0.25925 0.13557
# Poissons Ratio (y) = 0.92754 -0.07438
# Poissons Ratio (z) = 0.22014 -0.03376
#
# Static dielectric constant tensor:
#      x y z
#    x 1.853520 0.000000 0.018970 
#    y 0.000000 1.811070 0.000000 
#    z 0.018970 0.000000 1.841640 
# 
# From -- ./inp_files/52457.got.cif
#   From: 2010.05.17/outbox.cif.g08.bks.cpg/sg5_27_cif.got.tgz:52457.got - 2010.06.03 18:56:24.
