data_PCOD9124998
_publ_section_title
;
Structure prediction by ZEFSAII (Michael W. Deem and Ramdas Pophale) SiO2 
 PCOD9124998
Probable space group: C 2
;
_chemical_formula_sum "Si O2"
_cell_formula_units_Z 14
_cell_length_a 7.167065
_cell_length_b 12.736578
_cell_length_c 7.225156
_cell_angle_alpha 90.000000
_cell_angle_beta 58.758112
_cell_angle_gamma 90.000000
_cell_volume 563.897260
_symmetry_space_group_name_H-M "C 2"
_symmetry_group_IT_number 5
_symmetry_cell_setting 'monoclinic'
loop_
_space_group_symop_operation_xyz
x,y,z
-x,y,-z
1/2+x,1/2+y,z
1/2-x,1/2+y,-z
loop_
_atom_site_type_symbol
_atom_site_label
_atom_site_fract_x
_atom_site_fract_y
_atom_site_fract_z
Si Si1 0.500000 0.379480 0.500000
Si Si2 0.203241 0.564591 0.661926
Si Si3 0.800813 0.785023 0.241888
Si Si4 0.753197 0.015247 0.202740
O O1 0.318581 0.459293 0.676873
O O2 0.392594 0.309606 0.398643
O O3 0.299210 0.669988 0.700737
O O4 0.245312 0.556579 0.418080
O O5 0.940605 0.568192 0.813032
O O6 0.679893 0.892132 0.248882
O O7 0.000000 0.781397 0.000000
O O8 0.000000 0.024203 0.000000
#
# Coordination Sequence:
#
# PCOD9124998 Si02
#       4
#     2   4   4   4
#     4  10  22  40  62  90 124 160 202 252 302 358
#     4  10  21  39  64  90 124 161 201 252 304 357
#     4  10  22  40  62  92 123 159 205 248 302 362
#     4   9  20  41  63  90 126 159 202 254 299 359
#
# _framework density 24.827217999999998
#
# number of rings (size 3 to 8) (size 9 to 14) (size 15 to 20)
#    0.000    2.286    0.000    1.714    0.000   11.429 
#    0.000   14.286    0.000    6.857    0.000    0.000 
#    0.000    0.000    0.000    0.000    0.000    0.000 
#
# Total GULP energy -39144.477930 kJ/mol
# GULP energy per Si atom -5592.068276 kJ/mol
# Density = 2.477071 g / cm^3
# Si number density = 24.827218 Si / 1000 Ang^3
#
#
#
# Elastic Constant Matrix: (Units=GPa)
#
#
# Indices 1 2 3 4 5 6 
#
# 1 70.7691 -7.6801 11.2687 0.0000 -23.9621 0.0000
# 2 -7.6801 130.1951 27.5404 0.0000 0.4424 0.0000
# 3 11.2687 27.5404 98.1176 0.0000 -32.1893 0.0000
# 4 0.0000 0.0000 0.0000 38.1203 0.0000 -2.0682
# 5 -23.9621 0.4424 -32.1893 0.0000 48.5898 0.0000
# 6 0.0000 0.0000 0.0000 -2.0682 0.0000 41.9123
#
#
#
# Elastic Compliance Matrix: (Units=1/GPa)
#
#
# Indices 1 2 3 4 5 6 
#
# 1 0.017124 0.000826 0.000728 0.000000 0.008919 0.000000
# 2 0.000826 0.008366 -0.002983 0.000000 -0.001645 0.000000
# 3 0.000728 -0.002983 0.014147 0.000000 0.009758 0.000000
# 4 0.000000 0.000000 0.000000 0.026303 0.000000 0.001298
# 5 0.008919 -0.001645 0.009758 0.000000 0.031458 0.000000
# 6 0.000000 0.000000 0.000000 0.001298 0.000000 0.023923
#
#
# Mechanical properties :
#
#
# Convention : Reuss Voigt Hill
#
# Bulk Modulus (GPa) = 27.18963 40.14887 33.66925
# Shear Modulus (GPa) = 36.64622 43.58800 40.11711
#
# Velocity S-wave (km/s) = 3.84611 4.19460 4.02413
# Velocity P-wave (km/s) = 5.54064 6.29809 5.93147
#
# Compressibility (1/GPa) = 0.03677873
#
# Stress axis : x y z
#
# Youngs Moduli (GPa) = 58.39660 119.53101 70.68777
#
# Poissons Ratio (x) = -0.09872 -0.05144
# Poissons Ratio (y) = -0.04823 0.21084
# Poissons Ratio (z) = -0.04249 0.35653
#
# Static dielectric constant tensor:
#      x y z
#    x 1.914350 0.000000 -0.022860 
#    y 0.000000 1.939690 0.000000 
#    z -0.022860 0.000000 1.985520 
# 
# From -- ./inp_files/13717.got.cif
#   From: 2010.05.17/outbox.cif.g08.bks.cpg/sg5_7_cif.got.tgz:13717.got - 2010.06.03 18:56:24.
