data_PCOD9124791
_publ_section_title
;
Structure prediction by ZEFSAII (Michael W. Deem and Ramdas Pophale) SiO2 
 PCOD9124791
Probable space group: C 2
;
_chemical_formula_sum "Si O2"
_cell_formula_units_Z 24
_cell_length_a 23.533176
_cell_length_b 9.322832
_cell_length_c 5.554104
_cell_angle_alpha 90.000000
_cell_angle_beta 110.474336
_cell_angle_gamma 90.000000
_cell_volume 1141.570445
_symmetry_space_group_name_H-M "C 2"
_symmetry_group_IT_number 5
_symmetry_cell_setting 'monoclinic'
loop_
_space_group_symop_operation_xyz
x,y,z
-x,y,-z
1/2+x,1/2+y,z
1/2-x,1/2+y,-z
loop_
_atom_site_type_symbol
_atom_site_label
_atom_site_fract_x
_atom_site_fract_y
_atom_site_fract_z
Si Si1 0.268258 0.316370 0.833667
Si Si2 0.314783 0.616714 0.004942
Si Si3 0.341832 0.827471 0.652272
Si Si4 0.568691 0.100223 0.646241
Si Si5 0.931893 0.264915 0.415840
Si Si6 0.134546 0.634465 0.226230
O O1 0.244671 0.192182 0.972835
O O2 0.204824 0.367828 0.627793
O O3 0.310737 0.245916 0.696016
O O4 0.303867 0.448488 0.999680
O O5 0.377899 0.669989 0.220462
O O6 0.319218 0.684438 0.746555
O O7 0.408554 0.792649 0.652450
O O8 0.342512 0.973321 0.801572
O O9 0.500000 0.147675 0.500000
O O10 0.604119 0.127872 0.445894
O O11 0.566917 0.927064 0.686228
O O12 0.594225 0.169500 0.929744
O O13 0.000000 0.206039 0.500000
#
# Coordination Sequence:
#
# PCOD9124791 Si02
#       6
#     4   4   4   4   4   4
#     4  11  25  37  63  92 130 168 210 271 323 391
#     4  11  22  41  61  91 125 167 215 264 325 382
#     4  10  21  38  62  90 125 165 218 263 323 379
#     4  10  21  40  68  95 129 167 220 266 316 380
#     4   9  20  38  62  94 121 167 216 267 315 379
#     4  11  22  40  64  98 126 167 215 268 319 383
#
# _framework density 21.023668000000001
#
# number of rings (size 3 to 8) (size 9 to 14) (size 15 to 20)
#    0.000    1.667    1.667    2.500    7.000    2.000 
#    0.000    0.833    3.667    0.000    0.000    0.000 
#    0.000    0.000    0.000    0.000    0.000    0.000 
#
# Total GULP energy -66886.985959 kJ/mol
# GULP energy per Si atom -5573.915497 kJ/mol
# Density = 2.097582 g / cm^3
# Si number density = 21.023668 Si / 1000 Ang^3
#
#
#
# Elastic Constant Matrix: (Units=GPa)
#
#
# Indices 1 2 3 4 5 6 
#
# 1 121.5073 50.7026 21.8700 0.0000 11.9819 0.0000
# 2 50.7026 75.2599 11.2585 0.0000 4.0922 0.0000
# 3 21.8700 11.2585 63.3682 0.0000 7.8880 0.0000
# 4 0.0000 0.0000 0.0000 20.5485 0.0000 -1.7984
# 5 11.9819 4.0922 7.8880 0.0000 21.2448 0.0000
# 6 0.0000 0.0000 0.0000 -1.7984 0.0000 26.2572
#
#
#
# Elastic Compliance Matrix: (Units=1/GPa)
#
#
# Indices 1 2 3 4 5 6 
#
# 1 0.012312 -0.007699 -0.002308 0.000000 -0.004604 0.000000
# 2 -0.007699 0.018531 -0.000767 0.000000 0.001057 0.000000
# 3 -0.002308 -0.000767 0.017334 0.000000 -0.004987 0.000000
# 4 0.000000 0.000000 0.000000 0.048959 0.000000 0.003353
# 5 -0.004604 0.001057 -0.004987 0.000000 0.051315 0.000000
# 6 0.000000 0.000000 0.000000 0.003353 0.000000 0.038315
#
#
# Mechanical properties :
#
#
# Convention : Reuss Voigt Hill
#
# Bulk Modulus (GPa) = 37.55242 47.53308 42.54275
# Shear Modulus (GPa) = 23.02125 25.36372 24.19248
#
# Velocity S-wave (km/s) = 3.31269 3.47715 3.39592
# Velocity P-wave (km/s) = 5.70374 6.22729 5.97126
#
# Compressibility (1/GPa) = 0.02662944
#
# Stress axis : x y z
#
# Youngs Moduli (GPa) = 81.22124 53.96259 57.68873
#
# Poissons Ratio (x) = 0.41546 0.13316
# Poissons Ratio (y) = 0.62532 0.04424
# Poissons Ratio (z) = 0.18748 0.04139
#
# Static dielectric constant tensor:
#      x y z
#    x 1.760220 0.000000 -0.013910 
#    y 0.000000 1.741590 0.000000 
#    z -0.013910 0.000000 1.844770 
# 
# From -- ./inp_files/10198.got.cif
#   From: 2010.05.17/outbox.cif.g08.bks.cpg/sg5_6_cif.got.tgz:10198.got - 2010.06.03 18:56:24.
