data_PCOD9124319
_publ_section_title
;
Structure prediction by ZEFSAII (Michael W. Deem and Ramdas Pophale) SiO2 
 PCOD9124319
Probable space group: C 2
;
_chemical_formula_sum "Si O2"
_cell_formula_units_Z 24
_cell_length_a 28.544706
_cell_length_b 4.950256
_cell_length_c 9.388332
_cell_angle_alpha 90.000000
_cell_angle_beta 135.339812
_cell_angle_gamma 90.000000
_cell_volume 932.471586
_symmetry_space_group_name_H-M "C 2"
_symmetry_group_IT_number 5
_symmetry_cell_setting 'monoclinic'
loop_
_space_group_symop_operation_xyz
x,y,z
-x,y,-z
1/2+x,1/2+y,z
1/2-x,1/2+y,-z
loop_
_atom_site_type_symbol
_atom_site_label
_atom_site_fract_x
_atom_site_fract_y
_atom_site_fract_z
Si Si1 0.307282 0.521550 0.932398
Si Si2 0.922616 0.802746 0.561406
Si Si3 0.000000 0.157866 0.500000
Si Si4 0.500000 0.438436 0.000000
Si Si5 0.837498 0.315059 0.419955
Si Si6 0.127352 0.278142 0.184426
Si Si7 0.881777 0.516523 0.122765
O O1 0.235634 0.391819 0.787639
O O2 0.324689 0.581731 0.803994
O O3 0.361809 0.318353 0.117000
O O4 0.320648 0.814257 0.028441
O O5 0.969537 0.957200 0.552295
O O6 0.964958 0.774943 0.798097
O O7 0.860769 0.007644 0.451962
O O8 0.947039 0.359217 0.312352
O O9 0.441837 0.627414 0.936450
O O10 0.842828 0.367467 0.601387
O O11 0.891400 0.511953 0.461824
O O12 0.115631 0.513879 0.044662
#
# Coordination Sequence:
#
# PCOD9124319 Si02
#       7
#     4   4   2   2   4   4   4
#     4  10  23  43  67 109 141 199 243 306 374 449
#     4  11  26  43  73 106 150 198 243 320 368 448
#     4  12  26  54  72 112 152 204 258 302 392 448
#     4  10  20  44  60 110 140 184 250 306 364 434
#     4  11  25  42  71 109 150 189 254 306 376 446
#     4   9  23  38  69 102 143 189 231 308 371 434
#     4  10  24  41  72 100 140 198 243 301 368 443
#
# _framework density 25.738052
#
# number of rings (size 3 to 8) (size 9 to 14) (size 15 to 20)
#    1.000    0.667    1.667    1.000    7.000    8.000 
#    0.000    3.333    0.000    0.000    0.000    0.000 
#    0.000    0.000    0.000    0.000    0.000    0.000 
#
# Total GULP energy -67238.953058 kJ/mol
# GULP energy per Si atom -5603.246088 kJ/mol
# Density = 2.567947 g / cm^3
# Si number density = 25.738052 Si / 1000 Ang^3
#
#
#
# Elastic Constant Matrix: (Units=GPa)
#
#
# Indices 1 2 3 4 5 6 
#
# 1 112.7401 12.4020 36.9863 0.0000 -6.4997 0.0000
# 2 12.4020 109.1173 24.0181 0.0000 -4.5463 0.0000
# 3 36.9863 24.0181 111.3476 0.0000 7.7901 0.0000
# 4 0.0000 0.0000 0.0000 38.7761 0.0000 -1.8923
# 5 -6.4997 -4.5463 7.7901 0.0000 40.8391 0.0000
# 6 0.0000 0.0000 0.0000 -1.8923 0.0000 32.9590
#
#
#
# Elastic Compliance Matrix: (Units=1/GPa)
#
#
# Indices 1 2 3 4 5 6 
#
# 1 0.010171 -0.000298 -0.003472 0.000000 0.002248 0.000000
# 2 -0.000298 0.009720 -0.002098 0.000000 0.001435 0.000000
# 3 -0.003472 -0.002098 0.010785 0.000000 -0.002843 0.000000
# 4 0.000000 0.000000 0.000000 0.025862 0.000000 0.001485
# 5 0.002248 0.001435 -0.002843 0.000000 0.025546 0.000000
# 6 0.000000 0.000000 0.000000 0.001485 0.000000 0.030426
#
#
# Mechanical properties :
#
#
# Convention : Reuss Voigt Hill
#
# Bulk Modulus (GPa) = 52.79485 53.33532 53.06508
# Shear Modulus (GPa) = 38.29673 39.83475 39.06574
#
# Velocity S-wave (km/s) = 3.86157 3.93835 3.90015
# Velocity P-wave (km/s) = 6.35918 6.43802 6.39872
#
# Compressibility (1/GPa) = 0.01894124
#
# Stress axis : x y z
#
# Youngs Moduli (GPa) = 98.31634 102.88169 92.71729
#
# Poissons Ratio (x) = 0.03069 0.32187
# Poissons Ratio (y) = 0.02932 0.19451
# Poissons Ratio (z) = 0.34131 0.21584
#
# Static dielectric constant tensor:
#      x y z
#    x 2.077800 0.000000 -0.070700 
#    y 0.000000 1.942470 0.000000 
#    z -0.070700 0.000000 2.029440 
# 
# From -- ./inp_files/30828.got.cif
#   From: 2010.05.17/outbox.cif.g08.bks.cpg/sg5_16_cif.got.tgz:30828.got - 2010.06.03 18:56:24.
