data_PCOD9124729
_publ_section_title
;
Structure prediction by ZEFSAII (Michael W. Deem and Ramdas Pophale) SiO2 
 PCOD9124729
Probable space group: C 2
;
_chemical_formula_sum "Si O2"
_cell_formula_units_Z 32
_cell_length_a 9.798047
_cell_length_b 10.028807
_cell_length_c 24.204646
_cell_angle_alpha 90.000000
_cell_angle_beta 141.610853
_cell_angle_gamma 90.000000
_cell_volume 1476.993734
_symmetry_space_group_name_H-M "C 2"
_symmetry_group_IT_number 5
_symmetry_cell_setting 'monoclinic'
loop_
_space_group_symop_operation_xyz
x,y,z
-x,y,-z
1/2+x,1/2+y,z
1/2-x,1/2+y,-z
loop_
_atom_site_type_symbol
_atom_site_label
_atom_site_fract_x
_atom_site_fract_y
_atom_site_fract_z
Si Si1 0.898010 0.745350 0.327802
Si Si2 0.919104 0.213454 0.872505
Si Si3 0.710945 0.409338 0.184509
Si Si4 0.418700 0.970579 0.365333
Si Si5 0.416652 0.186106 0.144203
Si Si6 0.257959 0.203397 0.651028
Si Si7 0.932089 0.973103 0.540508
Si Si8 0.236933 0.399788 0.920556
O O1 0.735515 0.771447 0.225433
O O2 0.820796 0.619012 0.339273
O O3 0.116013 0.687332 0.366526
O O4 0.955080 0.871966 0.381423
O O5 0.801453 0.238435 0.893589
O O6 0.145527 0.288275 0.932791
O O7 0.908768 0.053162 0.861384
O O8 0.538189 0.296061 0.146547
O O9 0.827724 0.373576 0.164122
O O10 0.878848 0.427850 0.288582
O O11 0.287712 0.859471 0.357186
O O12 0.670864 0.967445 0.463213
O O13 0.582554 0.158492 0.248473
O O14 0.354994 0.047376 0.095377
O O15 0.037199 0.118464 0.583388
O O16 0.000000 0.933622 0.500000
O O17 0.500000 0.402208 0.000000
#
# Coordination Sequence:
#
# PCOD9124729 Si02
#       8
#     4   4   4   4   4   4   4   4
#     4  10  21  40  57  81 112 153 194 242 284 339
#     4   9  20  38  63  84 116 153 195 237 291 347
#     4   9  21  40  60  84 118 154 195 243 287 344
#     4  10  21  38  58  81 113 152 196 241 285 333
#     4   9  20  41  65  86 115 157 198 238 287 348
#     4  10  21  42  60  81 115 154 198 242 285 332
#     4  12  23  34  56  84 118 154 192 237 291 332
#     4  11  23  38  61  93 121 148 187 238 295 357
#
# _framework density 21.66563
#
# number of rings (size 3 to 8) (size 9 to 14) (size 15 to 20)
#    0.000    2.000    1.250    2.250    1.750    3.000 
#    4.500    3.125    0.000    0.000    0.000    0.000 
#    0.000    0.000    0.000    0.000    0.000    0.000 
#
# Total GULP energy -89412.160886 kJ/mol
# GULP energy per Si atom -5588.260055 kJ/mol
# Density = 2.161632 g / cm^3
# Si number density = 21.665630 Si / 1000 Ang^3
#
#
#
# Elastic Constant Matrix: (Units=GPa)
#
#
# Indices 1 2 3 4 5 6 
#
# 1 56.4421 29.1940 -6.9078 0.0000 5.4400 0.0000
# 2 29.1940 70.8770 -2.2212 0.0000 4.9310 0.0000
# 3 -6.9078 -2.2212 74.1001 0.0000 5.8803 0.0000
# 4 0.0000 0.0000 0.0000 15.6500 0.0000 13.6068
# 5 5.4400 4.9310 5.8803 0.0000 28.1246 0.0000
# 6 0.0000 0.0000 0.0000 13.6068 0.0000 34.3902
#
#
#
# Elastic Compliance Matrix: (Units=1/GPa)
#
#
# Indices 1 2 3 4 5 6 
#
# 1 0.023055 -0.009200 0.002135 0.000000 -0.003293 0.000000
# 2 -0.009200 0.017984 -0.000213 0.000000 -0.001329 0.000000
# 3 0.002135 -0.000213 0.013949 0.000000 -0.003292 0.000000
# 4 0.000000 0.000000 0.000000 0.097405 0.000000 -0.038539
# 5 -0.003293 -0.001329 -0.003292 0.000000 0.037114 0.000000
# 6 0.000000 0.000000 0.000000 -0.038539 0.000000 0.044326
#
#
# Mechanical properties :
#
#
# Convention : Reuss Voigt Hill
#
# Bulk Modulus (GPa) = 24.73356 26.83880 25.78618
# Shear Modulus (GPa) = 19.09360 27.72325 23.40842
#
# Velocity S-wave (km/s) = 2.97187 3.58102 3.29057
# Velocity P-wave (km/s) = 4.81838 5.43258 5.13467
#
# Compressibility (1/GPa) = 0.04043090
#
# Stress axis : x y z
#
# Youngs Moduli (GPa) = 43.37539 55.60429 71.68907
#
# Poissons Ratio (x) = 0.51157 -0.15304
# Poissons Ratio (y) = 0.39906 0.01528
# Poissons Ratio (z) = -0.09259 0.01185
#
# Static dielectric constant tensor:
#      x y z
#    x 1.766300 0.000000 -0.010180 
#    y 0.000000 1.764290 0.000000 
#    z -0.010180 0.000000 1.855340 
# 
# From -- ./inp_files/71763.got.cif
#   From: 2010.05.17/outbox.cif.g08.bks.cpg/sg5_36_cif.got.tgz:71763.got - 2010.06.03 18:56:24.
