data_PCOD9124662
_publ_section_title
;
Structure prediction by ZEFSAII (Michael W. Deem and Ramdas Pophale) SiO2 
 PCOD9124662
Probable space group: C 2
;
_chemical_formula_sum "Si O2"
_cell_formula_units_Z 30
_cell_length_a 20.974852
_cell_length_b 5.318451
_cell_length_c 24.664222
_cell_angle_alpha 90.000000
_cell_angle_beta 149.296677
_cell_angle_gamma 90.000000
_cell_volume 1404.837731
_symmetry_space_group_name_H-M "C 2"
_symmetry_group_IT_number 5
_symmetry_cell_setting 'monoclinic'
loop_
_space_group_symop_operation_xyz
x,y,z
-x,y,-z
1/2+x,1/2+y,z
1/2-x,1/2+y,-z
loop_
_atom_site_type_symbol
_atom_site_label
_atom_site_fract_x
_atom_site_fract_y
_atom_site_fract_z
Si Si1 0.170574 0.361910 0.070865
Si Si2 0.880881 0.459936 0.841732
Si Si3 0.673960 0.839849 0.701642
Si Si4 0.239868 0.866863 0.422064
Si Si5 0.318045 0.863320 0.165748
Si Si6 0.000000 0.007520 0.500000
Si Si7 0.600620 0.869445 0.356405
Si Si8 0.211795 0.685046 0.641579
O O1 0.168112 0.352214 0.135541
O O2 0.255363 0.591474 0.111352
O O3 0.223634 0.096801 0.088151
O O4 0.028920 0.433063 0.952238
O O5 0.815124 0.734358 0.794597
O O6 0.833758 0.326271 0.752220
O O7 0.653513 0.861015 0.749437
O O8 0.579899 0.658745 0.602061
O O9 0.655193 0.098863 0.657476
O O10 0.355869 0.883962 0.548647
O O11 0.174911 0.597422 0.381850
O O12 0.148084 0.096426 0.372029
O O13 0.273190 0.945782 0.385534
O O14 0.453609 0.896152 0.238580
O O15 0.104689 0.862940 0.541203
#
# Coordination Sequence:
#
# PCOD9124662 Si02
#       8
#     4   4   4   4   4   2   4   4
#     4  10  21  37  61  92 123 161 193 258 297 375
#     4   9  21  36  57  90 128 154 205 232 320 367
#     4  10  22  36  56  95 123 164 189 253 309 382
#     4  10  24  40  63  84 122 161 207 243 295 359
#     4  11  22  38  64  87 124 153 208 252 306 349
#     4  10  24  34  54  96 134 156 196 236 324 374
#     4  10  23  42  59  89 115 165 207 249 290 357
#     4  11  22  38  60  90 123 165 195 250 305 372
#
# _framework density 21.354780000000002
#
# number of rings (size 3 to 8) (size 9 to 14) (size 15 to 20)
#    0.000    1.867    1.333    1.200    9.333    3.200 
#    0.000    0.000    0.000    3.200    0.000    0.000 
#    0.000    0.000    0.000    0.000    0.000    0.000 
#
# Total GULP energy -83691.182257 kJ/mol
# GULP energy per Si atom -5579.412150 kJ/mol
# Density = 2.130618 g / cm^3
# Si number density = 21.354780 Si / 1000 Ang^3
#
#
#
# Elastic Constant Matrix: (Units=GPa)
#
#
# Indices 1 2 3 4 5 6 
#
# 1 24.2425 13.2431 30.7714 -0.0012 9.3985 0.0003
# 2 13.2431 77.7515 27.1025 -0.0035 16.0370 0.0005
# 3 30.7714 27.1025 106.2569 -0.0006 28.3077 -0.0016
# 4 -0.0012 -0.0035 -0.0006 10.5293 0.0000 -3.0974
# 5 9.3985 16.0370 28.3077 0.0000 32.8813 0.0004
# 6 0.0003 0.0005 -0.0016 -3.0974 0.0004 23.2804
#
#
#
# Elastic Compliance Matrix: (Units=1/GPa)
#
#
# Indices 1 2 3 4 5 6 
#
# 1 0.067074 -0.004925 -0.017778 0.000004 -0.001465 -0.000001
# 2 -0.004925 0.015117 -0.001090 0.000005 -0.005026 0.000000
# 3 -0.017778 -0.001090 0.017313 -0.000001 -0.009292 0.000001
# 4 0.000004 0.000005 -0.000001 0.098842 -0.000003 0.013151
# 5 -0.001465 -0.005026 -0.009292 -0.000003 0.041282 -0.000002
# 6 -0.000001 0.000000 0.000001 0.013151 -0.000002 0.044704
#
#
# Mechanical properties :
#
#
# Convention : Reuss Voigt Hill
#
# Bulk Modulus (GPa) = 19.26153 38.94279 29.10216
# Shear Modulus (GPa) = 14.31742 22.48046 18.39894
#
# Velocity S-wave (km/s) = 2.59212 3.24807 2.93846
# Velocity P-wave (km/s) = 4.24242 5.68703 5.01700
#
# Compressibility (1/GPa) = 0.05191696
#
# Stress axis : x y z
#
# Youngs Moduli (GPa) = 14.90891 66.14952 57.76012
#
# Poissons Ratio (x) = 0.32582 1.02685
# Poissons Ratio (y) = 0.07343 0.06298
# Poissons Ratio (z) = 0.26505 0.07213
#
# Static dielectric constant tensor:
#      x y z
#    x 1.807640 0.000000 0.001020 
#    y 0.000000 1.807630 0.000000 
#    z 0.001020 0.000000 1.789630 
# 
# From -- ./inp_files/48229.got.cif
#   From: 2010.05.17/outbox.cif.g08.bks.cpg/sg5_25_cif.got.tgz:48229.got - 2010.06.03 18:56:24.
