data_PCOD9124206
_publ_section_title
;
Structure prediction by ZEFSAII (Michael W. Deem and Ramdas Pophale) SiO2 
 PCOD9124206
Probable space group: C 2
;
_chemical_formula_sum "Si O2"
_cell_formula_units_Z 26
_cell_length_a 22.498518
_cell_length_b 8.235005
_cell_length_c 8.292267
_cell_angle_alpha 90.000000
_cell_angle_beta 131.026808
_cell_angle_gamma 90.000000
_cell_volume 1159.028715
_symmetry_space_group_name_H-M "C 2"
_symmetry_group_IT_number 5
_symmetry_cell_setting 'monoclinic'
loop_
_space_group_symop_operation_xyz
x,y,z
-x,y,-z
1/2+x,1/2+y,z
1/2-x,1/2+y,-z
loop_
_atom_site_type_symbol
_atom_site_label
_atom_site_fract_x
_atom_site_fract_y
_atom_site_fract_z
Si Si1 0.500000 0.346540 0.500000
Si Si2 0.383756 0.602392 0.428179
Si Si3 0.500000 0.903338 0.000000
Si Si4 0.166750 0.250572 0.360946
Si Si5 0.500000 0.835161 0.500000
Si Si6 0.222607 0.718053 0.015587
Si Si7 0.425210 0.081120 0.152847
Si Si8 0.761348 0.536900 0.272648
O O1 0.427101 0.446739 0.439965
O O2 0.462983 0.241007 0.293381
O O3 0.345501 0.603525 0.534374
O O4 0.456768 0.728388 0.555795
O O5 0.314020 0.669793 0.192836
O O6 0.579769 0.800524 0.149499
O O7 0.481901 0.021363 0.115317
O O8 0.197699 0.408212 0.523924
O O9 0.215531 0.169789 0.301565
O O10 0.433667 0.944406 0.303565
O O11 0.166455 0.615808 0.037372
O O12 0.197806 0.655646 0.791323
O O13 0.219194 0.902079 0.079250
#
# Coordination Sequence:
#
# PCOD9124206 Si02
#       8
#     2   4   2   4   2   4   4   4
#     4  10  24  40  70 100 144 184 236 302 340 436
#     4  10  22  45  69 102 140 193 234 296 367 433
#     4  12  28  44  72 102 146 202 232 300 368 446
#     4  11  27  49  73 106 151 188 246 301 380 430
#     4  10  20  42  68  94 142 192 244 286 356 436
#     4  11  25  45  73 110 143 191 251 297 359 440
#     4  11  24  42  66 103 140 185 244 295 353 423
#     4  11  28  46  78 109 147 193 242 309 364 443
#
# _framework density 22.432577999999999
#
# number of rings (size 3 to 8) (size 9 to 14) (size 15 to 20)
#    0.000    1.231    1.538    2.769   10.769    3.692 
#    0.000    0.000    0.000    0.000    0.000    0.000 
#    0.000    0.000    0.000    0.000    0.000    0.000 
#
# Total GULP energy -72380.025226 kJ/mol
# GULP energy per Si atom -5567.694248 kJ/mol
# Density = 2.238152 g / cm^3
# Si number density = 22.432578 Si / 1000 Ang^3
#
#
#
# Elastic Constant Matrix: (Units=GPa)
#
#
# Indices 1 2 3 4 5 6 
#
# 1 118.3016 49.3207 28.3581 0.0000 -7.5516 0.0000
# 2 49.3207 110.1712 51.2452 0.0000 -1.1936 0.0000
# 3 28.3581 51.2452 64.7400 0.0000 12.4771 0.0000
# 4 0.0000 0.0000 0.0000 36.9091 0.0000 -5.7837
# 5 -7.5516 -1.1936 12.4771 0.0000 40.6986 0.0000
# 6 0.0000 0.0000 0.0000 -5.7837 0.0000 56.7985
#
#
#
# Elastic Compliance Matrix: (Units=1/GPa)
#
#
# Indices 1 2 3 4 5 6 
#
# 1 0.010705 -0.003726 -0.002234 0.000000 0.002562 0.000000
# 2 -0.003726 0.016355 -0.011981 0.000000 0.003461 0.000000
# 3 -0.002234 -0.011981 0.027692 0.000000 -0.009256 0.000000
# 4 0.000000 0.000000 0.000000 0.027533 0.000000 0.002804
# 5 0.002562 0.003461 -0.009256 0.000000 0.027985 0.000000
# 6 0.000000 0.000000 0.000000 0.002804 0.000000 0.017892
#
#
# Mechanical properties :
#
#
# Convention : Reuss Voigt Hill
#
# Bulk Modulus (GPa) = 52.99020 61.22897 57.10958
# Shear Modulus (GPa) = 29.35407 37.83383 33.59395
#
# Velocity S-wave (km/s) = 3.62131 4.11123 3.87402
# Velocity P-wave (km/s) = 6.41548 7.06330 6.74717
#
# Compressibility (1/GPa) = 0.01887142
#
# Stress axis : x y z
#
# Youngs Moduli (GPa) = 93.41222 61.14339 36.11101
#
# Poissons Ratio (x) = 0.22779 0.08067
# Poissons Ratio (y) = 0.34801 0.43265
# Poissons Ratio (z) = 0.20868 0.73256
#
# Static dielectric constant tensor:
#      x y z
#    x 1.817580 0.000000 -0.101820 
#    y 0.000000 1.876050 0.000000 
#    z -0.101820 0.000000 1.922920 
# 
# From -- ./inp_files/28914.got.cif
#   From: 2010.05.17/outbox.cif.g08.bks.cpg/sg5_15_cif.got.tgz:28914.got - 2010.06.03 18:56:24.
