data_PCOD9124632
_publ_section_title
;
Structure prediction by ZEFSAII (Michael W. Deem and Ramdas Pophale) SiO2 
 PCOD9124632
Probable space group: C 2
;
_chemical_formula_sum "Si O2"
_cell_formula_units_Z 26
_cell_length_a 10.850758
_cell_length_b 9.512677
_cell_length_c 15.064268
_cell_angle_alpha 90.000000
_cell_angle_beta 39.390236
_cell_angle_gamma 90.000000
_cell_volume 986.756786
_symmetry_space_group_name_H-M "C 2"
_symmetry_group_IT_number 5
_symmetry_cell_setting 'monoclinic'
loop_
_space_group_symop_operation_xyz
x,y,z
-x,y,-z
1/2+x,1/2+y,z
1/2-x,1/2+y,-z
loop_
_atom_site_type_symbol
_atom_site_label
_atom_site_fract_x
_atom_site_fract_y
_atom_site_fract_z
Si Si1 0.622974 0.242480 0.267750
Si Si2 0.000000 0.905318 0.500000
Si Si3 0.500000 0.886395 0.500000
Si Si4 0.000000 0.516413 0.000000
Si Si5 0.177519 0.942588 0.070398
Si Si6 0.792698 0.964983 0.187691
Si Si7 0.304357 0.643513 0.497048
Si Si8 0.643101 0.696582 0.185029
O O1 0.629959 0.318081 0.358984
O O2 0.609054 0.356112 0.196695
O O3 0.783568 0.124756 0.161388
O O4 0.421934 0.156924 0.385533
O O5 0.135310 0.005561 0.483472
O O6 0.376349 0.781538 0.508110
O O7 0.657817 0.962259 0.351257
O O8 0.090848 0.432751 0.033444
O O9 0.177582 0.614074 0.865823
O O10 0.163574 0.115057 0.081556
O O11 0.006271 0.909969 0.095903
O O12 0.685484 0.858790 0.178361
O O13 0.435434 0.651444 0.336789
#
# Coordination Sequence:
#
# PCOD9124632 Si02
#       8
#     4   2   2   2   4   4   4   4
#     4  12  25  34  63  98 123 157 202 254 304 366
#     4  11  23  34  54  90 128 166 196 228 306 376
#     4   9  19  36  56  84 126 164 184 242 306 364
#     4   8  20  44  70  76 120 172 202 254 302 352
#     4  10  22  45  60  87 123 160 205 256 301 354
#     4  11  23  37  61  93 120 158 206 247 314 360
#     4  10  21  37  59  86 128 160 196 244 303 367
#     4   9  21  41  65  83 120 168 201 248 309 358
#
# _framework density 26.348946000000002
#
# number of rings (size 3 to 8) (size 9 to 14) (size 15 to 20)
#    0.923    0.923    3.077    0.462    8.615    0.000 
#    2.769    0.769    3.385    0.000    0.000    0.000 
#    0.000    0.000    0.000    0.000    0.000    0.000 
#
# Total GULP energy -72530.262270 kJ/mol
# GULP energy per Si atom -5579.250944 kJ/mol
# Density = 2.628897 g / cm^3
# Si number density = 26.348946 Si / 1000 Ang^3
#
#
#
# Elastic Constant Matrix: (Units=GPa)
#
#
# Indices 1 2 3 4 5 6 
#
# 1 100.7235 35.4709 12.7144 0.0000 -20.3127 0.0000
# 2 35.4709 122.8075 17.8855 0.0000 2.8051 0.0000
# 3 12.7144 17.8855 110.4814 -0.0001 -17.1185 0.0000
# 4 0.0000 0.0000 -0.0001 28.1232 0.0000 -1.5872
# 5 -20.3127 2.8051 -17.1185 0.0000 34.2211 0.0000
# 6 0.0000 0.0000 0.0000 -1.5872 0.0000 16.7865
#
#
#
# Elastic Compliance Matrix: (Units=1/GPa)
#
#
# Indices 1 2 3 4 5 6 
#
# 1 0.012936 -0.003987 0.000430 0.000000 0.008220 0.000000
# 2 -0.003987 0.009637 -0.001724 0.000000 -0.004019 0.000000
# 3 0.000430 -0.001724 0.010127 0.000000 0.005463 0.000000
# 4 0.000000 0.000000 0.000000 0.035749 0.000000 0.003380
# 5 0.008220 -0.004019 0.005463 0.000000 0.037163 0.000000
# 6 0.000000 0.000000 0.000000 0.003380 0.000000 0.059891
#
#
# Mechanical properties :
#
#
# Convention : Reuss Voigt Hill
#
# Bulk Modulus (GPa) = 45.16812 51.79491 48.48152
# Shear Modulus (GPa) = 27.25632 33.68890 30.47261
#
# Velocity S-wave (km/s) = 3.21976 3.57959 3.40443
# Velocity P-wave (km/s) = 5.56794 6.06503 5.82179
#
# Compressibility (1/GPa) = 0.02213951
#
# Stress axis : x y z
#
# Youngs Moduli (GPa) = 77.30621 103.76471 98.74307
#
# Poissons Ratio (x) = 0.41368 -0.04250
# Poissons Ratio (y) = 0.30819 0.17024
# Poissons Ratio (z) = -0.03328 0.17889
#
# Static dielectric constant tensor:
#      x y z
#    x 2.172430 0.000000 0.058220 
#    y 0.000000 2.066670 0.000000 
#    z 0.058220 0.000000 2.132550 
# 
# From -- ./inp_files/52160.got.cif
#   From: 2010.05.17/outbox.cif.g08.bks.cpg/sg5_27_cif.got.tgz:52160.got - 2010.06.03 18:56:24.
