data_PCOD9124346
_publ_section_title
;
Structure prediction by ZEFSAII (Michael W. Deem and Ramdas Pophale) SiO2 
 PCOD9124346
Probable space group: C 2
;
_chemical_formula_sum "Si O2"
_cell_formula_units_Z 26
_cell_length_a 8.013792
_cell_length_b 13.357593
_cell_length_c 21.998196
_cell_angle_alpha 90.000000
_cell_angle_beta 32.376878
_cell_angle_gamma 90.000000
_cell_volume 1260.960481
_symmetry_space_group_name_H-M "C 2"
_symmetry_group_IT_number 5
_symmetry_cell_setting 'monoclinic'
loop_
_space_group_symop_operation_xyz
x,y,z
-x,y,-z
1/2+x,1/2+y,z
1/2-x,1/2+y,-z
loop_
_atom_site_type_symbol
_atom_site_label
_atom_site_fract_x
_atom_site_fract_y
_atom_site_fract_z
Si Si1 0.634408 0.684550 0.601448
Si Si2 0.646813 0.410209 0.015561
Si Si3 0.423886 0.857409 0.588403
Si Si4 0.749087 0.854986 0.754694
Si Si5 0.961027 0.993062 0.439837
Si Si6 0.500000 0.042948 0.000000
Si Si7 0.811459 0.215178 0.826037
O O1 0.583625 0.794470 0.591048
O O2 0.503183 0.605825 0.593402
O O3 0.425019 0.681519 0.725521
O O4 0.000000 0.669262 0.500000
O O5 0.737634 0.476622 0.045878
O O6 0.977062 0.380774 0.885239
O O7 0.500000 0.462433 0.000000
O O8 0.425906 0.312695 0.098373
O O9 0.500000 0.808586 0.500000
O O10 0.605221 0.961541 0.534098
O O11 0.056753 0.859543 0.700755
O O12 0.624333 0.751622 0.764614
O O13 0.826068 0.924545 0.671373
O O14 0.000000 0.981808 0.500000
O O15 0.655935 0.119695 0.904771
#
# Coordination Sequence:
#
# PCOD9124346 Si02
#       7
#     4   4   4   4   4   2   4
#     4  12  24  42  66 100 138 182 230 287 357 426
#     4  10  24  48  71 106 142 186 250 294 360 427
#     4  10  21  39  66  97 132 177 225 278 353 423
#     4  10  20  44  68  96 140 175 226 299 345 423
#     4  11  23  41  66 100 139 182 230 285 356 431
#     4  12  24  48  78 104 144 200 236 302 372 420
#     4  11  24  48  70 103 144 184 238 302 351 431
#
# _framework density 20.619204
#
# number of rings (size 3 to 8) (size 9 to 14) (size 15 to 20)
#    0.000    1.231    2.308    6.000    2.154    0.000 
#   15.231    0.000    0.000    0.000    0.000    0.000 
#    0.000    0.000    0.000    0.000    0.000    0.000 
#
# Total GULP energy -72456.456545 kJ/mol
# GULP energy per Si atom -5573.573580 kJ/mol
# Density = 2.057227 g / cm^3
# Si number density = 20.619204 Si / 1000 Ang^3
#
#
#
# Elastic Constant Matrix: (Units=GPa)
#
#
# Indices 1 2 3 4 5 6 
#
# 1 110.9512 47.6298 46.2561 -0.0477 9.1590 0.0000
# 2 47.6298 81.4488 27.9959 -0.0220 11.4049 0.0022
# 3 46.2561 27.9959 109.0113 -0.1007 -2.5078 -0.0005
# 4 -0.0477 -0.0220 -0.1007 30.9245 0.0860 18.7948
# 5 9.1590 11.4049 -2.5078 0.0860 29.3761 0.0138
# 6 0.0000 0.0022 -0.0005 18.7948 0.0138 48.0158
#
#
#
# Elastic Compliance Matrix: (Units=1/GPa)
#
#
# Indices 1 2 3 4 5 6 
#
# 1 0.013624 -0.006202 -0.004239 0.000011 -0.002202 -0.000003
# 2 -0.006202 0.017252 -0.001912 0.000013 -0.004927 -0.000004
# 3 -0.004239 -0.001912 0.011533 0.000028 0.003049 -0.000012
# 4 0.000011 0.000013 0.000028 0.042432 -0.000122 -0.016609
# 5 -0.002202 -0.004927 0.003049 -0.000122 0.036901 0.000038
# 6 -0.000003 -0.000004 -0.000012 -0.016609 0.000038 0.027328
#
#
# Mechanical properties :
#
#
# Convention : Reuss Voigt Hill
#
# Bulk Modulus (GPa) = 56.48755 60.57498 58.53127
# Shear Modulus (GPa) = 27.82763 33.63191 30.72977
#
# Velocity S-wave (km/s) = 3.67767 4.04306 3.86469
# Velocity P-wave (km/s) = 6.74454 7.15799 6.95434
#
# Compressibility (1/GPa) = 0.01770302
#
# Stress axis : x y z
#
# Youngs Moduli (GPa) = 73.39753 57.96544 86.70507
#
# Poissons Ratio (x) = 0.35950 0.36755
# Poissons Ratio (y) = 0.45520 0.16580
# Poissons Ratio (z) = 0.31114 0.11084
#
# Static dielectric constant tensor:
#      x y z
#    x 1.776100 -0.000070 -0.009780 
#    y -0.000070 1.755940 -0.000030 
#    z -0.009780 -0.000030 1.830540 
# 
# From -- ./inp_files/67945.got.cif
#   From: 2010.05.17/outbox.cif.g08.bks.cpg/sg5_34_cif.got.tgz:67945.got - 2010.06.03 18:56:24.
