data_PCOD9124325
_publ_section_title
;
Structure prediction by ZEFSAII (Michael W. Deem and Ramdas Pophale) SiO2 
 PCOD9124325
Probable space group: C 2
;
_chemical_formula_sum "Si O2"
_cell_formula_units_Z 24
_cell_length_a 15.527717
_cell_length_b 8.898291
_cell_length_c 17.810258
_cell_angle_alpha 90.000000
_cell_angle_beta 25.167933
_cell_angle_gamma 90.000000
_cell_volume 1046.530874
_symmetry_space_group_name_H-M "C 2"
_symmetry_group_IT_number 5
_symmetry_cell_setting 'monoclinic'
loop_
_space_group_symop_operation_xyz
x,y,z
-x,y,-z
1/2+x,1/2+y,z
1/2-x,1/2+y,-z
loop_
_atom_site_type_symbol
_atom_site_label
_atom_site_fract_x
_atom_site_fract_y
_atom_site_fract_z
Si Si1 0.018330 0.440000 0.867677
Si Si2 0.423789 0.396835 0.632370
Si Si3 0.847801 0.575140 0.561485
Si Si4 0.841226 0.108894 0.826345
Si Si5 0.500543 0.943738 0.704250
Si Si6 0.105526 0.115369 0.043584
O O1 0.070271 0.461547 0.737148
O O2 0.190807 0.387177 0.789704
O O3 0.870976 0.294380 0.982835
O O4 0.901351 0.585955 0.990551
O O5 0.500000 0.489665 0.500000
O O6 0.552927 0.242097 0.531857
O O7 0.443082 0.491449 0.691050
O O8 0.633841 0.583021 0.773703
O O9 0.000000 0.498188 0.500000
O O10 0.846618 0.497843 0.481048
O O11 0.938744 0.271244 0.741064
O O12 0.863998 0.067648 0.894776
O O13 0.289586 0.034969 0.856788
#
# Coordination Sequence:
#
# PCOD9124325 Si02
#       6
#     4   4   4   4   4   4
#     4  10  20  44  64  87 125 165 213 250 303 381
#     4  11  22  40  63  94 121 164 214 253 305 370
#     4  11  23  42  66  93 121 168 215 256 307 370
#     4  10  23  39  63  95 125 165 202 261 321 362
#     4  10  24  42  64  94 128 164 204 261 320 366
#     4  10  21  43  67  90 123 167 215 252 306 381
#
# _framework density 22.932912000000002
#
# number of rings (size 3 to 8) (size 9 to 14) (size 15 to 20)
#    0.000    1.667    3.333    1.500    2.333    2.667 
#    9.000    0.000    0.000    0.000    0.000    0.000 
#    0.000    0.000    0.000    0.000    0.000    0.000 
#
# Total GULP energy -66862.688848 kJ/mol
# GULP energy per Si atom -5571.890737 kJ/mol
# Density = 2.288072 g / cm^3
# Si number density = 22.932912 Si / 1000 Ang^3
#
#
#
# Elastic Constant Matrix: (Units=GPa)
#
#
# Indices 1 2 3 4 5 6 
#
# 1 79.3174 13.4525 2.3979 -0.0006 1.4113 -0.0001
# 2 13.4525 29.0859 6.7853 0.0015 6.4548 0.0000
# 3 2.3979 6.7853 70.8631 0.0010 -3.3013 0.0003
# 4 -0.0006 0.0015 0.0010 32.5845 0.0000 13.5795
# 5 1.4113 6.4548 -3.3013 0.0000 43.7072 -0.0002
# 6 -0.0001 0.0000 0.0003 13.5795 -0.0002 19.4215
#
#
#
# Elastic Compliance Matrix: (Units=1/GPa)
#
#
# Indices 1 2 3 4 5 6 
#
# 1 0.013694 -0.006494 0.000183 0.000001 0.000531 0.000000
# 2 -0.006494 0.039598 -0.003848 -0.000003 -0.005929 0.000002
# 3 0.000183 -0.003848 0.014551 0.000000 0.001661 0.000000
# 4 0.000001 -0.000003 0.000000 0.043309 0.000000 -0.030282
# 5 0.000531 -0.005929 0.001661 0.000000 0.023863 0.000000
# 6 0.000000 0.000002 0.000000 -0.030282 0.000000 0.072663
#
#
# Mechanical properties :
#
#
# Convention : Reuss Voigt Hill
#
# Bulk Modulus (GPa) = 21.04139 24.94863 22.99501
# Shear Modulus (GPa) = 20.50538 29.58468 25.04503
#
# Velocity S-wave (km/s) = 2.99347 3.59563 3.30828
# Velocity P-wave (km/s) = 4.59815 5.30477 4.96405
#
# Compressibility (1/GPa) = 0.04752537
#
# Stress axis : x y z
#
# Youngs Moduli (GPa) = 73.02460 25.25385 68.72200
#
# Poissons Ratio (x) = 0.16400 -0.01259
# Poissons Ratio (y) = 0.47423 0.26444
# Poissons Ratio (z) = -0.01338 0.09718
#
# Static dielectric constant tensor:
#      x y z
#    x 1.933470 0.000000 -0.104400 
#    y 0.000000 1.849900 0.000000 
#    z -0.104400 0.000000 2.110740 
# 
# From -- ./inp_files/61408.got.cif
#   From: 2010.05.17/outbox.cif.g08.bks.cpg/sg5_31_cif.got.tgz:61408.got - 2010.06.03 18:56:24.
