data_PCOD9124228
_publ_section_title
;
Structure prediction by ZEFSAII (Michael W. Deem and Ramdas Pophale) SiO2 
 PCOD9124228
Probable space group: C 2
;
_chemical_formula_sum "Si O2"
_cell_formula_units_Z 20
_cell_length_a 16.559929
_cell_length_b 8.118974
_cell_length_c 8.001511
_cell_angle_alpha 90.000000
_cell_angle_beta 46.446295
_cell_angle_gamma 90.000000
_cell_volume 779.663441
_symmetry_space_group_name_H-M "C 2"
_symmetry_group_IT_number 5
_symmetry_cell_setting 'monoclinic'
loop_
_space_group_symop_operation_xyz
x,y,z
-x,y,-z
1/2+x,1/2+y,z
1/2-x,1/2+y,-z
loop_
_atom_site_type_symbol
_atom_site_label
_atom_site_fract_x
_atom_site_fract_y
_atom_site_fract_z
Si Si1 0.914157 0.500000 0.473092
Si Si2 0.185069 0.120192 0.763264
Si Si3 0.500000 0.401424 0.500000
Si Si4 0.917034 0.787249 0.962671
Si Si5 0.190082 0.133194 0.366398
Si Si6 0.500000 0.896384 0.000000
O O1 0.813723 0.631445 0.631972
O O2 0.025116 0.796293 0.298938
O O3 0.000000 0.499620 0.500000
O O4 0.968853 0.495242 0.211347
O O5 0.133400 0.971446 0.940643
O O6 0.189959 0.074000 0.559318
O O7 0.105309 0.277494 0.892096
O O8 0.606992 0.517332 0.383507
O O9 0.815426 0.657710 0.121476
O O10 0.000000 0.778663 0.000000
O O11 0.142438 0.318307 0.437377
#
# Coordination Sequence:
#
# PCOD9124228 Si02
#       6
#     4   4   2   4   4   2
#     4  10  21  40  67  99 129 168 228 267 323 406
#     4  10  20  43  68  94 133 178 213 276 337 387
#     4  12  22  46  72  96 136 186 214 282 340 392
#     4  11  22  44  70 100 135 177 230 273 335 411
#     4  10  22  42  70  97 136 176 224 276 336 396
#     4  10  20  42  70  88 132 182 206 270 340 378
#
# _framework density 25.652094000000002
#
# number of rings (size 3 to 8) (size 9 to 14) (size 15 to 20)
#    0.000    1.600    4.000    1.200    0.000    0.000 
#   12.600    0.000    0.000    0.000    0.000    0.000 
#    0.000    0.000    0.000    0.000    0.000    0.000 
#
# Total GULP energy -56128.006884 kJ/mol
# GULP energy per Si atom -5612.800688 kJ/mol
# Density = 2.559371 g / cm^3
# Si number density = 25.652094 Si / 1000 Ang^3
#
#
#
# Elastic Constant Matrix: (Units=GPa)
#
#
# Indices 1 2 3 4 5 6 
#
# 1 181.9510 24.4604 99.1555 0.0000 -11.6114 0.0000
# 2 24.4604 65.4897 59.0275 0.0000 5.2486 0.0000
# 3 99.1555 59.0275 206.3861 0.0000 -2.8467 0.0000
# 4 0.0000 0.0000 0.0000 36.6492 0.0000 -1.0291
# 5 -11.6114 5.2486 -2.8467 0.0000 45.5407 0.0000
# 6 0.0000 0.0000 0.0000 -1.0291 0.0000 45.3328
#
#
#
# Elastic Compliance Matrix: (Units=1/GPa)
#
#
# Indices 1 2 3 4 5 6 
#
# 1 0.007583 0.000402 -0.003735 0.000000 0.001654 0.000000
# 2 0.000402 0.020942 -0.006220 0.000000 -0.002700 0.000000
# 3 -0.003735 -0.006220 0.008423 0.000000 0.000291 0.000000
# 4 0.000000 0.000000 0.000000 0.027303 0.000000 0.000620
# 5 0.001654 -0.002700 0.000291 0.000000 0.022709 0.000000
# 6 0.000000 0.000000 0.000000 0.000620 0.000000 0.022073
#
#
# Mechanical properties :
#
#
# Convention : Reuss Voigt Hill
#
# Bulk Modulus (GPa) = 56.04960 91.01262 73.53111
# Shear Modulus (GPa) = 37.28921 43.58344 40.43633
#
# Velocity S-wave (km/s) = 3.81681 4.12639 3.97462
# Velocity P-wave (km/s) = 6.42818 7.63279 7.05623
#
# Compressibility (1/GPa) = 0.01784134
#
# Stress axis : x y z
#
# Youngs Moduli (GPa) = 131.87255 47.75104 118.72525
#
# Poissons Ratio (x) = -0.01919 0.44348
# Poissons Ratio (y) = -0.05301 0.73845
# Poissons Ratio (z) = 0.49259 0.29700
#
# Static dielectric constant tensor:
#      x y z
#    x 1.944110 0.000000 -0.087310 
#    y 0.000000 2.044790 0.000000 
#    z -0.087310 0.000000 2.051060 
# 
# From -- ./inp_files/26940.got.cif
#   From: 2010.05.17/outbox.cif.g08.bks.cpg/sg5_14_cif.got.tgz:26940.got - 2010.06.03 18:56:24.
