data_PCOD9124920
_publ_section_title
;
Structure prediction by ZEFSAII (Michael W. Deem and Ramdas Pophale) SiO2 
 PCOD9124920
Probable space group: C 2
;
_chemical_formula_sum "Si O2"
_cell_formula_units_Z 22
_cell_length_a 24.434058
_cell_length_b 8.243038
_cell_length_c 15.954467
_cell_angle_alpha 90.000000
_cell_angle_beta 160.867852
_cell_angle_gamma 90.000000
_cell_volume 1053.186577
_symmetry_space_group_name_H-M "C 2"
_symmetry_group_IT_number 5
_symmetry_cell_setting 'monoclinic'
loop_
_space_group_symop_operation_xyz
x,y,z
-x,y,-z
1/2+x,1/2+y,z
1/2-x,1/2+y,-z
loop_
_atom_site_type_symbol
_atom_site_label
_atom_site_fract_x
_atom_site_fract_y
_atom_site_fract_z
Si Si1 0.917093 0.293010 0.302422
Si Si2 0.456504 0.818773 0.100051
Si Si3 0.421345 0.327457 0.479549
Si Si4 0.357914 0.996984 0.488553
Si Si5 0.000000 0.130181 0.000000
Si Si6 0.652179 0.555260 0.925197
O O1 0.000000 0.202783 0.500000
O O2 0.067707 0.356099 0.462730
O O3 0.796091 0.188186 0.069314
O O4 0.806512 0.443489 0.174015
O O5 0.559167 0.950429 0.302043
O O6 0.423736 0.657576 0.109155
O O7 0.270428 0.882314 0.811569
O O8 0.536716 0.749414 0.131450
O O9 0.500000 0.306720 0.500000
O O10 0.519031 0.451854 0.680189
O O11 0.411818 0.161125 0.519035
O O12 0.160365 0.019403 0.212858
#
# Coordination Sequence:
#
# PCOD9124920 Si02
#       6
#     4   4   4   4   2   4
#     4  11  21  36  58  88 121 152 186 230 288 349
#     4  10  23  41  60  86 116 153 198 242 290 340
#     4  11  21  37  61  89 121 153 185 233 293 352
#     4  10  21  39  61  83 115 155 194 241 289 338
#     4  10  22  40  60  82 114 154 202 248 288 332
#     4  11  23  36  59  92 121 151 189 232 287 353
#
# _framework density 20.888987
#
# number of rings (size 3 to 8) (size 9 to 14) (size 15 to 20)
#    0.000    1.455    0.000    7.636    0.000    4.364 
#    0.000    5.455    0.000    2.182    0.000    0.000 
#    0.000    0.000    0.000    0.000    0.000    0.000 
#
# Total GULP energy -61418.539482 kJ/mol
# GULP energy per Si atom -5583.503589 kJ/mol
# Density = 2.084144 g / cm^3
# Si number density = 20.888987 Si / 1000 Ang^3
#
#
#
# Elastic Constant Matrix: (Units=GPa)
#
#
# Indices 1 2 3 4 5 6 
#
# 1 71.9491 17.1967 40.8006 0.0000 -17.3912 0.0000
# 2 17.1967 47.8901 26.3559 0.0000 -2.1044 0.0000
# 3 40.8006 26.3559 115.3824 0.0000 1.7025 0.0000
# 4 0.0000 0.0000 0.0000 44.5947 0.0000 -17.1858
# 5 -17.3912 -2.1044 1.7025 0.0000 42.4066 0.0000
# 6 0.0000 0.0000 0.0000 -17.1858 0.0000 15.9598
#
#
#
# Elastic Compliance Matrix: (Units=1/GPa)
#
#
# Indices 1 2 3 4 5 6 
#
# 1 0.020505 -0.003351 -0.006611 0.000000 0.008508 0.000000
# 2 -0.003351 0.024515 -0.004415 0.000000 0.000020 0.000000
# 3 -0.006611 -0.004415 0.012063 0.000000 -0.003415 0.000000
# 4 0.000000 0.000000 0.000000 0.038331 0.000000 0.041275
# 5 0.008508 0.000020 -0.003415 0.000000 0.027209 0.000000
# 6 0.000000 0.000000 0.000000 0.041275 0.000000 0.107104
#
#
# Mechanical properties :
#
#
# Convention : Reuss Voigt Hill
#
# Bulk Modulus (GPa) = 35.29883 44.88090 40.08986
# Shear Modulus (GPa) = 18.66201 30.65012 24.65606
#
# Velocity S-wave (km/s) = 2.99221 3.83467 3.43933
# Velocity P-wave (km/s) = 5.37333 6.41392 5.91655
#
# Compressibility (1/GPa) = 0.02832955
#
# Stress axis : x y z
#
# Youngs Moduli (GPa) = 48.76820 40.79114 82.89502
#
# Poissons Ratio (x) = 0.13669 0.54802
# Poissons Ratio (y) = 0.16342 0.36599
# Poissons Ratio (z) = 0.32241 0.18010
#
# Static dielectric constant tensor:
#      x y z
#    x 1.753930 0.000000 -0.020020 
#    y 0.000000 1.793630 0.000000 
#    z -0.020020 0.000000 1.742940 
# 
# From -- ./inp_files/52172.got.cif
#   From: 2010.05.17/outbox.cif.g08.bks.cpg/sg5_27_cif.got.tgz:52172.got - 2010.06.03 18:56:24.
