data_PCOD9124265
_publ_section_title
;
Structure prediction by ZEFSAII (Michael W. Deem and Ramdas Pophale) SiO2 
 PCOD9124265
Probable space group: C 2
;
_chemical_formula_sum "Si O2"
_cell_formula_units_Z 26
_cell_length_a 13.642104
_cell_length_b 4.909493
_cell_length_c 19.695430
_cell_angle_alpha 90.000000
_cell_angle_beta 122.083606
_cell_angle_gamma 90.000000
_cell_volume 1117.653840
_symmetry_space_group_name_H-M "C 2"
_symmetry_group_IT_number 5
_symmetry_cell_setting 'monoclinic'
loop_
_space_group_symop_operation_xyz
x,y,z
-x,y,-z
1/2+x,1/2+y,z
1/2-x,1/2+y,-z
loop_
_atom_site_type_symbol
_atom_site_label
_atom_site_fract_x
_atom_site_fract_y
_atom_site_fract_z
Si Si1 0.431218 0.472110 0.368114
Si Si2 0.840873 0.001142 0.188204
Si Si3 0.000000 0.770730 0.000000
Si Si4 0.812520 0.817363 0.547213
Si Si5 0.694263 0.507534 0.162767
Si Si6 0.674056 0.257549 0.959144
Si Si7 0.776259 0.469786 0.340850
O O1 0.423584 0.460407 0.282851
O O2 0.561283 0.393770 0.434150
O O3 0.384963 0.764792 0.373392
O O4 0.336317 0.263764 0.362371
O O5 0.728330 0.820259 0.165329
O O6 0.877914 0.875571 0.129894
O O7 0.797324 0.311744 0.171610
O O8 0.086411 0.622310 0.980521
O O9 0.922016 0.940498 0.918966
O O10 0.782426 0.501971 0.526308
O O11 0.795319 0.900204 0.618995
O O12 0.698519 0.446044 0.244566
O O13 0.729131 0.526686 0.013960
#
# Coordination Sequence:
#
# PCOD9124265 Si02
#       7
#     4   4   2   4   4   4   4
#     4  10  23  42  68  89 127 168 201 253 320 358
#     4  10  20  43  59  87 125 165 208 258 300 374
#     4  12  24  38  66  92 124 174 204 260 322 346
#     4  12  26  42  67 100 127 158 211 251 310 386
#     4  10  22  39  64  90 125 162 216 251 309 366
#     4  12  24  40  59  90 128 162 211 261 308 364
#     4  10  23  44  64  94 128 166 206 258 302 374
#
# _framework density 23.263019
#
# number of rings (size 3 to 8) (size 9 to 14) (size 15 to 20)
#    0.000    1.231    3.077    1.846    2.154    6.154 
#    0.000    0.000    0.000    0.000    0.000    0.000 
#    0.000    0.000    0.000    0.000    0.000    0.000 
#
# Total GULP energy -72678.754605 kJ/mol
# GULP energy per Si atom -5590.673431 kJ/mol
# Density = 2.321007 g / cm^3
# Si number density = 23.263019 Si / 1000 Ang^3
#
#
#
# Elastic Constant Matrix: (Units=GPa)
#
#
# Indices 1 2 3 4 5 6 
#
# 1 77.4374 -12.8308 17.7026 0.0000 -18.0169 0.0000
# 2 -12.8308 63.9245 -6.6090 0.0000 -6.4702 0.0001
# 3 17.7026 -6.6090 65.7465 0.0000 -4.5756 0.0000
# 4 0.0000 0.0000 0.0000 25.7659 0.0000 -10.9097
# 5 -18.0169 -6.4702 -4.5756 0.0000 49.8953 0.0000
# 6 0.0000 0.0001 0.0000 -10.9097 0.0000 13.3021
#
#
#
# Elastic Compliance Matrix: (Units=1/GPa)
#
#
# Indices 1 2 3 4 5 6 
#
# 1 0.015599 0.003355 -0.003463 0.000000 0.005750 0.000000
# 2 0.003355 0.016775 0.001025 0.000000 0.003481 0.000000
# 3 -0.003463 0.001025 0.016271 0.000000 0.000375 0.000000
# 4 0.000000 0.000000 0.000000 0.059459 0.000000 0.048765
# 5 0.005750 0.003481 0.000375 0.000000 0.022604 0.000000
# 6 0.000000 0.000000 0.000000 0.048765 0.000000 0.115170
#
#
# Mechanical properties :
#
#
# Convention : Reuss Voigt Hill
#
# Bulk Modulus (GPa) = 19.80955 22.62598 21.21776
# Shear Modulus (GPa) = 19.16659 31.71573 25.44116
#
# Velocity S-wave (km/s) = 2.87349 3.69637 3.31060
# Velocity P-wave (km/s) = 4.42077 5.28817 4.87381
#
# Compressibility (1/GPa) = 0.05048070
#
# Stress axis : x y z
#
# Youngs Moduli (GPa) = 64.10653 59.61186 61.45751
#
# Poissons Ratio (x) = -0.20000 0.21281
# Poissons Ratio (y) = -0.21508 -0.06300
# Poissons Ratio (z) = 0.22198 -0.06111
#
# Static dielectric constant tensor:
#      x y z
#    x 1.877330 0.000000 -0.035250 
#    y 0.000000 1.782920 0.000000 
#    z -0.035250 0.000000 1.905480 
# 
# From -- ./inp_files/64998.got.cif
#   From: 2010.05.17/outbox.cif.g08.bks.cpg/sg5_33_cif.got.tgz:64998.got - 2010.06.03 18:56:24.
