data_PCOD9124125
_publ_section_title
;
Structure prediction by ZEFSAII (Michael W. Deem and Ramdas Pophale) SiO2 
 PCOD9124125
Probable space group: C 2
;
_chemical_formula_sum "Si O2"
_cell_formula_units_Z 24
_cell_length_a 6.685587
_cell_length_b 8.148112
_cell_length_c 20.004842
_cell_angle_alpha 90.000000
_cell_angle_beta 56.094904
_cell_angle_gamma 90.000000
_cell_volume 904.461785
_symmetry_space_group_name_H-M "C 2"
_symmetry_group_IT_number 5
_symmetry_cell_setting 'monoclinic'
loop_
_space_group_symop_operation_xyz
x,y,z
-x,y,-z
1/2+x,1/2+y,z
1/2-x,1/2+y,-z
loop_
_atom_site_type_symbol
_atom_site_label
_atom_site_fract_x
_atom_site_fract_y
_atom_site_fract_z
Si Si1 0.258128 0.946630 0.973058
Si Si2 0.927067 0.744038 0.874719
Si Si3 0.552930 0.746601 0.823094
Si Si4 0.599440 0.418041 0.330413
Si Si5 0.286462 0.419521 0.273494
Si Si6 0.343646 0.122105 0.592881
O O1 0.325788 0.801363 0.909196
O O2 0.443462 0.087665 0.919408
O O3 0.212720 0.878899 0.054749
O O4 0.000000 0.017345 0.000000
O O5 0.753690 0.714631 0.843775
O O6 0.181081 0.802681 0.795921
O O7 0.650567 0.894979 0.756427
O O8 0.557333 0.578317 0.780555
O O9 0.418942 0.330429 0.310641
O O10 0.620053 0.308804 0.391996
O O11 0.441055 0.582579 0.368284
O O12 0.084477 0.513253 0.354506
O O13 0.500000 0.077804 0.500000
#
# Coordination Sequence:
#
# PCOD9124125 Si02
#       6
#     4   4   4   4   4   4
#     4  12  25  36  57  91 126 173 230 295 348 424
#     4  11  22  40  58  85 127 172 227 284 348 421
#     4  10  20  42  64  87 127 174 228 285 350 420
#     4   8  18  35  67  96 134 181 218 289 350 428
#     4   8  18  37  67  90 125 174 222 284 349 414
#     4   9  17  36  68 100 135 177 228 287 352 427
#
# _framework density 26.535119000000002
#
# number of rings (size 3 to 8) (size 9 to 14) (size 15 to 20)
#    1.000    1.333    0.000    3.500    0.000    4.000 
#    0.000    2.500   22.000    0.000    0.000    0.000 
#    0.000    0.000    0.000    0.000    0.000    0.000 
#
# Total GULP energy -66906.799547 kJ/mol
# GULP energy per Si atom -5575.566629 kJ/mol
# Density = 2.647472 g / cm^3
# Si number density = 26.535119 Si / 1000 Ang^3
#
#
#
# Elastic Constant Matrix: (Units=GPa)
#
#
# Indices 1 2 3 4 5 6 
#
# 1 66.4291 42.4646 24.0445 0.0000 -12.9274 0.0000
# 2 42.4646 104.5736 47.0460 0.0000 16.4670 0.0000
# 3 24.0445 47.0460 192.4933 0.0000 9.9897 0.0000
# 4 0.0000 0.0000 0.0000 36.2200 0.0000 9.3651
# 5 -12.9274 16.4670 9.9897 0.0000 24.1021 0.0000
# 6 0.0000 0.0000 0.0000 9.3651 0.0000 46.1899
#
#
#
# Elastic Compliance Matrix: (Units=1/GPa)
#
#
# Indices 1 2 3 4 5 6 
#
# 1 0.032271 -0.017145 -0.001376 0.000000 0.029593 0.000000
# 2 -0.017145 0.020911 -0.001789 0.000000 -0.022741 0.000000
# 3 -0.001376 -0.001789 0.005906 0.000000 -0.001964 0.000000
# 4 0.000000 0.000000 0.000000 0.029136 0.000000 -0.005907
# 5 0.029593 -0.022741 -0.001964 0.000000 0.073714 0.000000
# 6 0.000000 0.000000 0.000000 -0.005907 0.000000 0.022848
#
#
# Mechanical properties :
#
#
# Convention : Reuss Voigt Hill
#
# Bulk Modulus (GPa) = 54.15150 65.62291 59.88720
# Shear Modulus (GPa) = 21.59260 37.96512 29.77886
#
# Velocity S-wave (km/s) = 2.85570 3.78663 3.35362
# Velocity P-wave (km/s) = 5.59689 6.62589 6.13301
#
# Compressibility (1/GPa) = 0.01846671
#
# Stress axis : x y z
#
# Youngs Moduli (GPa) = 30.98790 47.82282 169.31822
#
# Poissons Ratio (x) = 0.81992 0.23305
# Poissons Ratio (y) = 0.53129 0.30288
# Poissons Ratio (z) = 0.04265 0.08555
#
# Static dielectric constant tensor:
#      x y z
#    x 2.172470 0.000000 -0.030520 
#    y 0.000000 2.145130 0.000000 
#    z -0.030520 0.000000 2.045840 
# 
# From -- ./inp_files/64294.got.cif
#   From: 2010.05.17/outbox.cif.g08.bks.cpg/sg5_33_cif.got.tgz:64294.got - 2010.06.03 18:56:24.
