data_PCOD9124465
_publ_section_title
;
Structure prediction by ZEFSAII (Michael W. Deem and Ramdas Pophale) SiO2 
 PCOD9124465
Probable space group: C 2
;
_chemical_formula_sum "Si O2"
_cell_formula_units_Z 28
_cell_length_a 12.492044
_cell_length_b 7.775584
_cell_length_c 18.686620
_cell_angle_alpha 90.000000
_cell_angle_beta 138.480872
_cell_angle_gamma 90.000000
_cell_volume 1203.166337
_symmetry_space_group_name_H-M "C 2"
_symmetry_group_IT_number 5
_symmetry_cell_setting 'monoclinic'
loop_
_space_group_symop_operation_xyz
x,y,z
-x,y,-z
1/2+x,1/2+y,z
1/2-x,1/2+y,-z
loop_
_atom_site_type_symbol
_atom_site_label
_atom_site_fract_x
_atom_site_fract_y
_atom_site_fract_z
Si Si1 0.875913 0.002030 0.381334
Si Si2 0.604440 0.586904 0.829905
Si Si3 0.730399 0.272587 0.220826
Si Si4 0.885944 0.779744 0.256703
Si Si5 0.048624 0.467277 0.398764
Si Si6 0.267745 0.696382 0.599850
Si Si7 0.456720 0.604261 0.895998
O O1 0.730465 0.115868 0.276636
O O2 0.000000 0.087941 0.500000
O O3 0.953511 0.920009 0.348204
O O4 0.814592 0.837251 0.392311
O O5 0.711033 0.700184 0.827678
O O6 0.639312 0.388272 0.828027
O O7 0.417236 0.612275 0.714791
O O8 0.597838 0.643281 0.909292
O O9 0.585357 0.402872 0.138244
O O10 0.875894 0.385230 0.326810
O O11 0.710235 0.712661 0.195056
O O12 0.005157 0.616448 0.318488
O O13 0.140209 0.561678 0.507418
O O14 0.155734 0.310280 0.425130
O O15 0.500000 0.627761 0.000000
#
# Coordination Sequence:
#
# PCOD9124465 Si02
#       7
#     4   4   4   4   4   4   4
#     4  11  21  37  58  90 128 168 209 253 302 375
#     4  10  22  41  64  90 129 164 202 269 316 372
#     4   9  24  42  59  91 132 164 218 263 307 380
#     4  10  21  42  60  90 127 160 210 263 313 374
#     4  10  21  35  54  89 126 168 207 252 302 380
#     4  11  21  34  59  89 130 171 212 242 311 383
#     4  11  24  44  68  92 120 165 220 268 332 376
#
# _framework density 23.271927999999999
#
# number of rings (size 3 to 8) (size 9 to 14) (size 15 to 20)
#    0.000    1.714    2.857    0.857    6.000    2.286 
#    0.000    2.857    0.000    0.000    0.000    0.000 
#    0.000    0.000    0.000    0.000    0.000    0.000 
#
# Total GULP energy -78164.021897 kJ/mol
# GULP energy per Si atom -5583.144421 kJ/mol
# Density = 2.321896 g / cm^3
# Si number density = 23.271928 Si / 1000 Ang^3
#
#
#
# Elastic Constant Matrix: (Units=GPa)
#
#
# Indices 1 2 3 4 5 6 
#
# 1 65.3098 5.9363 9.4895 0.0000 -22.2424 0.0000
# 2 5.9363 70.0995 10.5789 0.0000 -9.5094 0.0000
# 3 9.4895 10.5789 60.4716 0.0000 -26.2254 0.0000
# 4 0.0000 0.0000 0.0000 15.4175 0.0000 -0.3031
# 5 -22.2424 -9.5094 -26.2254 0.0000 26.7993 0.0000
# 6 0.0000 0.0000 0.0000 -0.3031 0.0000 18.5579
#
#
#
# Elastic Compliance Matrix: (Units=1/GPa)
#
#
# Indices 1 2 3 4 5 6 
#
# 1 0.023537 0.000532 0.008282 0.000000 0.027828 0.000000
# 2 0.000532 0.015009 -0.000361 0.000000 0.005414 0.000000
# 3 0.008282 -0.000361 0.031663 0.000000 0.037731 0.000000
# 4 0.000000 0.000000 0.000000 0.064882 0.000000 0.001060
# 5 0.027828 0.005414 0.037731 0.000000 0.099255 0.000000
# 6 0.000000 0.000000 0.000000 0.001060 0.000000 0.053903
#
#
# Mechanical properties :
#
#
# Convention : Reuss Voigt Hill
#
# Bulk Modulus (GPa) = 11.47903 27.54338 19.51120
# Shear Modulus (GPa) = 16.64543 23.48003 20.06273
#
# Velocity S-wave (km/s) = 2.67733 3.17983 2.93934
# Velocity P-wave (km/s) = 3.80798 5.03417 4.46339
#
# Compressibility (1/GPa) = 0.08711540
#
# Stress axis : x y z
#
# Youngs Moduli (GPa) = 42.48564 66.62528 31.58215
#
# Poissons Ratio (x) = -0.03544 -0.26156
# Poissons Ratio (y) = -0.02260 0.01141
# Poissons Ratio (z) = -0.35187 0.02408
#
# Static dielectric constant tensor:
#      x y z
#    x 1.994550 0.000000 -0.045590 
#    y 0.000000 1.898120 0.000000 
#    z -0.045590 0.000000 1.921310 
# 
# From -- ./inp_files/48306.got.cif
#   From: 2010.05.17/outbox.cif.g08.bks.cpg/sg5_25_cif.got.tgz:48306.got - 2010.06.03 18:56:24.
