data_PCOD9124196
_publ_section_title
;
Structure prediction by ZEFSAII (Michael W. Deem and Ramdas Pophale) SiO2 
 PCOD9124196
Probable space group: C 2
;
_chemical_formula_sum "Si O2"
_cell_formula_units_Z 26
_cell_length_a 11.083513
_cell_length_b 7.604229
_cell_length_c 27.347075
_cell_angle_alpha 90.000000
_cell_angle_beta 149.592707
_cell_angle_gamma 90.000000
_cell_volume 1166.587202
_symmetry_space_group_name_H-M "C 2"
_symmetry_group_IT_number 5
_symmetry_cell_setting 'monoclinic'
loop_
_space_group_symop_operation_xyz
x,y,z
-x,y,-z
1/2+x,1/2+y,z
1/2-x,1/2+y,-z
loop_
_atom_site_type_symbol
_atom_site_label
_atom_site_fract_x
_atom_site_fract_y
_atom_site_fract_z
Si Si1 0.754335 0.475840 0.564582
Si Si2 0.000000 0.789799 0.000000
Si Si3 0.506924 0.226879 0.896143
Si Si4 0.752030 0.593599 0.216503
Si Si5 0.735483 0.452841 0.744191
Si Si6 0.335102 0.102579 0.142583
Si Si7 0.216700 0.557226 0.540399
O O1 0.500000 0.531990 0.500000
O O2 0.800153 0.534052 0.524200
O O3 0.751283 0.263947 0.562621
O O4 0.983220 0.536888 0.675239
O O5 0.792668 0.916425 0.908076
O O6 0.086423 0.703660 0.979753
O O7 0.400170 0.416673 0.843681
O O8 0.316405 0.071623 0.818647
O O9 0.704621 0.194107 0.923366
O O10 0.755876 0.686325 0.164727
O O11 0.676388 0.752137 0.225001
O O12 0.456259 0.457116 0.639530
O O13 0.882367 0.561857 0.754939
O O14 0.000000 0.498781 0.500000
#
# Coordination Sequence:
#
# PCOD9124196 Si02
#       7
#     4   2   4   4   4   4   4
#     4  11  23  39  64  92 132 177 216 278 321 376
#     4  10  20  42  68  90 124 168 204 276 326 382
#     4   9  22  44  61  90 130 157 212 268 318 391
#     4  11  21  41  65  88 127 174 208 264 327 373
#     4  10  22  43  62  94 125 172 213 256 328 387
#     4   9  22  42  63  93 126 159 216 264 318 401
#     4  11  24  41  63  99 133 173 227 268 318 389
#
# _framework density 22.287231999999999
#
# number of rings (size 3 to 8) (size 9 to 14) (size 15 to 20)
#    0.923    0.923    1.538    1.846    0.000    8.615 
#    8.308    0.769    0.000    0.000    0.000    0.000 
#    0.000    0.000    0.000    0.000    0.000    0.000 
#
# Total GULP energy -72394.524207 kJ/mol
# GULP energy per Si atom -5568.809554 kJ/mol
# Density = 2.223650 g / cm^3
# Si number density = 22.287232 Si / 1000 Ang^3
#
#
#
# Elastic Constant Matrix: (Units=GPa)
#
#
# Indices 1 2 3 4 5 6 
#
# 1 80.2285 -0.1715 12.4209 0.0000 -10.2128 0.0000
# 2 -0.1715 80.3412 -6.1534 -0.0002 -3.9140 0.0000
# 3 12.4209 -6.1534 57.0162 -0.0001 -6.3987 0.0000
# 4 0.0000 -0.0002 -0.0001 319.6169 0.0001 83.1114
# 5 -10.2128 -3.9140 -6.3987 0.0001 39.6598 0.0000
# 6 0.0000 0.0000 0.0000 83.1114 0.0000 45.0994
#
#
#
# Elastic Compliance Matrix: (Units=1/GPa)
#
#
# Indices 1 2 3 4 5 6 
#
# 1 0.013241 -0.000021 -0.002550 0.000000 0.002996 0.000000
# 2 -0.000021 0.012637 0.001536 0.000000 0.001489 0.000000
# 3 -0.002550 0.001536 0.018539 0.000000 0.002486 0.000000
# 4 0.000000 0.000000 0.000000 0.006008 0.000000 -0.011071
# 5 0.002996 0.001489 0.002486 0.000000 0.026534 0.000000
# 6 0.000000 0.000000 0.000000 -0.011071 0.000000 0.042576
#
#
# Mechanical properties :
#
#
# Convention : Reuss Voigt Hill
#
# Bulk Modulus (GPa) = 23.61565 25.53087 24.57326
# Shear Modulus (GPa) = 36.84021 94.97453 65.90737
#
# Velocity S-wave (km/s) = 4.07009 6.53501 5.44390
# Velocity P-wave (km/s) = 5.71896 8.27177 7.11086
#
# Compressibility (1/GPa) = 0.04234481
#
# Stress axis : x y z
#
# Youngs Moduli (GPa) = 75.52530 79.13245 53.93972
#
# Poissons Ratio (x) = 0.00167 0.13757
# Poissons Ratio (y) = 0.00160 -0.08283
# Poissons Ratio (z) = 0.19263 -0.12151
#
# Static dielectric constant tensor:
#      x y z
#    x 1.297540 0.000000 -0.192240 
#    y 0.000000 1.814800 0.000000 
#    z -0.192240 0.000000 1.773060 
# 
# From -- ./inp_files/70368.got.cif
#   From: 2010.05.17/outbox.cif.g08.bks.cpg/sg5_36_cif.got.tgz:70368.got - 2010.06.03 18:56:24.
