data_PCOD9124336
_publ_section_title
;
Structure prediction by ZEFSAII (Michael W. Deem and Ramdas Pophale) SiO2 
 PCOD9124336
Probable space group: C 2
;
_chemical_formula_sum "Si O2"
_cell_formula_units_Z 24
_cell_length_a 20.953560
_cell_length_b 7.807065
_cell_length_c 8.328264
_cell_angle_alpha 90.000000
_cell_angle_beta 47.367530
_cell_angle_gamma 90.000000
_cell_volume 1002.325436
_symmetry_space_group_name_H-M "C 2"
_symmetry_group_IT_number 5
_symmetry_cell_setting 'monoclinic'
loop_
_space_group_symop_operation_xyz
x,y,z
-x,y,-z
1/2+x,1/2+y,z
1/2-x,1/2+y,-z
loop_
_atom_site_type_symbol
_atom_site_label
_atom_site_fract_x
_atom_site_fract_y
_atom_site_fract_z
Si Si1 0.923469 0.868620 0.839534
Si Si2 0.649045 0.687694 0.522887
Si Si3 0.410295 0.048960 0.054180
Si Si4 0.464850 0.759562 0.742399
Si Si5 0.735744 0.405914 0.515194
Si Si6 0.871879 0.848725 0.587498
O O1 0.901351 0.749299 0.026384
O O2 0.870614 0.797954 0.774615
O O3 0.027129 0.835141 0.634155
O O4 0.919176 0.075687 0.850657
O O5 0.553549 0.756385 0.693845
O O6 0.670187 0.564631 0.638262
O O7 0.725264 0.822875 0.392829
O O8 0.651554 0.551753 0.375374
O O9 0.416966 0.928673 0.884244
O O10 0.500000 0.035324 0.000000
O O11 0.324676 0.979089 0.286255
O O12 0.500000 0.770670 0.500000
O O13 0.688489 0.288356 0.457561
#
# Coordination Sequence:
#
# PCOD9124336 Si02
#       6
#     4   4   4   4   4   4
#     4  10  20  44  66  87 126 172 216 257 319 387
#     4   9  19  39  67  85 132 167 213 257 312 399
#     4  12  27  39  64 104 132 157 220 278 319 374
#     4  11  21  44  71  90 125 179 217 258 323 390
#     4  10  21  41  60  97 130 166 211 264 325 377
#     4   8  19  39  66  86 120 170 217 248 311 392
#
# _framework density 23.944317999999999
#
# number of rings (size 3 to 8) (size 9 to 14) (size 15 to 20)
#    1.000    1.000    5.000    0.000    4.667    0.667 
#    9.000    0.000    0.000    0.000    0.000    0.000 
#    0.000    0.000    0.000    0.000    0.000    0.000 
#
# Total GULP energy -66820.579507 kJ/mol
# GULP energy per Si atom -5568.381626 kJ/mol
# Density = 2.388982 g / cm^3
# Si number density = 23.944318 Si / 1000 Ang^3
#
#
#
# Elastic Constant Matrix: (Units=GPa)
#
#
# Indices 1 2 3 4 5 6 
#
# 1 106.5156 8.2759 14.7920 0.0000 -7.4053 0.0000
# 2 8.2759 77.3318 21.6504 0.0000 5.0149 0.0000
# 3 14.7920 21.6504 60.3553 0.0000 0.8013 0.0000
# 4 0.0000 0.0000 0.0000 23.2889 0.0000 0.8400
# 5 -7.4053 5.0149 0.8013 0.0000 20.3247 0.0000
# 6 0.0000 0.0000 0.0000 0.8400 0.0000 38.1527
#
#
#
# Elastic Compliance Matrix: (Units=1/GPa)
#
#
# Indices 1 2 3 4 5 6 
#
# 1 0.010028 -0.000694 -0.002261 0.000000 0.003914 0.000000
# 2 -0.000694 0.014654 -0.005038 0.000000 -0.003670 0.000000
# 3 -0.002261 -0.005038 0.018934 0.000000 -0.000327 0.000000
# 4 0.000000 0.000000 0.000000 0.042973 0.000000 -0.000946
# 5 0.003914 -0.003670 -0.000327 0.000000 0.051546 0.000000
# 6 0.000000 0.000000 0.000000 -0.000946 0.000000 0.026231
#
#
# Mechanical properties :
#
#
# Convention : Reuss Voigt Hill
#
# Bulk Modulus (GPa) = 36.19104 37.07102 36.63103
# Shear Modulus (GPa) = 26.37659 29.65223 28.01441
#
# Velocity S-wave (km/s) = 3.32261 3.52288 3.42421
# Velocity P-wave (km/s) = 5.46508 5.66246 5.56464
#
# Compressibility (1/GPa) = 0.02763115
#
# Stress axis : x y z
#
# Youngs Moduli (GPa) = 99.71776 68.24082 52.81477
#
# Poissons Ratio (x) = 0.04737 0.11940
# Poissons Ratio (y) = 0.06921 0.26607
# Poissons Ratio (z) = 0.22544 0.34378
#
# Static dielectric constant tensor:
#      x y z
#    x 1.933160 0.000000 0.027790 
#    y 0.000000 1.979620 0.000000 
#    z 0.027790 0.000000 1.955330 
# 
# From -- ./inp_files/28869.got.cif
#   From: 2010.05.17/outbox.cif.g08.bks.cpg/sg5_15_cif.got.tgz:28869.got - 2010.06.03 18:56:24.
