data_PCOD9124499
_publ_section_title
;
Structure prediction by ZEFSAII (Michael W. Deem and Ramdas Pophale) SiO2 
 PCOD9124499
Probable space group: C 2
;
_chemical_formula_sum "Si O2"
_cell_formula_units_Z 32
_cell_length_a 7.612607
_cell_length_b 21.610526
_cell_length_c 9.460858
_cell_angle_alpha 90.000000
_cell_angle_beta 66.468485
_cell_angle_gamma 90.000000
_cell_volume 1426.997171
_symmetry_space_group_name_H-M "C 2"
_symmetry_group_IT_number 5
_symmetry_cell_setting 'monoclinic'
loop_
_space_group_symop_operation_xyz
x,y,z
-x,y,-z
1/2+x,1/2+y,z
1/2-x,1/2+y,-z
loop_
_atom_site_type_symbol
_atom_site_label
_atom_site_fract_x
_atom_site_fract_y
_atom_site_fract_z
Si Si1 0.002497 0.018200 0.770296
Si Si2 0.466942 0.645526 0.672766
Si Si3 0.824890 0.901758 0.395910
Si Si4 0.678478 0.024141 0.091535
Si Si5 0.475008 0.156656 0.166743
Si Si6 0.466789 0.769096 0.282555
Si Si7 0.011623 0.404790 0.734770
Si Si8 0.838401 0.768231 0.371215
O O1 0.157387 0.014800 0.845024
O O2 0.059765 0.079740 0.668227
O O3 0.031440 0.957494 0.670295
O O4 0.794103 0.021872 0.907684
O O5 0.500000 0.665295 0.500000
O O6 0.242834 0.635106 0.754908
O O7 0.526403 0.697533 0.769192
O O8 0.700853 0.909547 0.577419
O O9 0.663699 0.902132 0.323053
O O10 0.929933 0.835993 0.345907
O O11 0.596113 0.093543 0.139650
O O12 0.535256 0.965908 0.159488
O O13 0.477950 0.212094 0.282130
O O14 0.500000 0.183227 0.000000
O O15 0.474048 0.835294 0.202315
O O16 0.665559 0.769213 0.310685
O O17 0.279842 0.766738 0.444084
#
# Coordination Sequence:
#
# PCOD9124499 Si02
#       8
#     4   4   4   4   4   4   4   4
#     4  10  21  36  50  76 109 143 174 213 262 311
#     4  11  20  34  56  80 106 138 175 218 266 310
#     4   8  15  29  49  74  99 129 173 218 255 300
#     4  10  21  36  50  75 111 142 174 212 259 316
#     4  11  20  34  52  80 106 139 176 217 265 308
#     4   8  13  28  50  75 100 127 169 217 261 297
#     4   8  15  28  51  74  98 131 172 217 257 301
#     4   8  14  28  48  75 101 127 166 225 256 295
#
# _framework density 22.424710999999999
#
# number of rings (size 3 to 8) (size 9 to 14) (size 15 to 20)
#    0.000    2.750    3.750    1.500    1.750    0.000 
#    9.000    0.000    0.000    1.500    3.250    0.000 
#    0.000    0.000    0.000    0.000    0.000    0.000 
#
# Total GULP energy -89077.533155 kJ/mol
# GULP energy per Si atom -5567.345822 kJ/mol
# Density = 2.237367 g / cm^3
# Si number density = 22.424711 Si / 1000 Ang^3
#
#
#
# Elastic Constant Matrix: (Units=GPa)
#
#
# Indices 1 2 3 4 5 6 
#
# 1 42.3448 24.2296 17.7243 0.0000 1.0932 0.0000
# 2 24.2296 250.2617 62.4265 0.0000 -20.7741 0.0000
# 3 17.7243 62.4265 72.3820 0.0000 -21.7216 0.0000
# 4 0.0000 0.0000 0.0000 43.6997 0.0000 -20.7141
# 5 1.0932 -20.7741 -21.7216 0.0000 19.3891 0.0000
# 6 0.0000 0.0000 0.0000 -20.7141 0.0000 33.4419
#
#
#
# Elastic Compliance Matrix: (Units=1/GPa)
#
#
# Indices 1 2 3 4 5 6 
#
# 1 0.029151 -0.001481 -0.010290 0.000000 -0.014758 0.000000
# 2 -0.001481 0.005175 -0.003633 0.000000 0.001558 0.000000
# 3 -0.010290 -0.003633 0.027832 0.000000 0.027868 0.000000
# 4 0.000000 0.000000 0.000000 0.032395 0.000000 0.020065
# 5 -0.014758 0.001558 0.027868 0.000000 0.085297 0.000000
# 6 0.000000 0.000000 0.000000 0.020065 0.000000 0.042331
#
#
# Mechanical properties :
#
#
# Convention : Reuss Voigt Hill
#
# Bulk Modulus (GPa) = 31.89799 63.74994 47.82397
# Shear Modulus (GPa) = 18.97985 36.68001 27.82993
#
# Velocity S-wave (km/s) = 2.91242 4.04876 3.52666
# Velocity P-wave (km/s) = 5.05618 7.09555 6.16083
#
# Compressibility (1/GPa) = 0.03134993
#
# Stress axis : x y z
#
# Youngs Moduli (GPa) = 34.30415 193.24861 35.93044
#
# Poissons Ratio (x) = 0.28611 0.36973
# Poissons Ratio (y) = 0.05079 0.13053
# Poissons Ratio (z) = 0.35300 0.70205
#
# Static dielectric constant tensor:
#      x y z
#    x 1.880620 0.000000 0.045540 
#    y 0.000000 1.918080 0.000000 
#    z 0.045540 0.000000 1.597800 
# 
# From -- ./inp_files/40634.got.cif
#   From: 2010.05.17/outbox.cif.g08.bks.cpg/sg5_21_cif.got.tgz:40634.got - 2010.06.03 18:56:24.
