data_PCOD9124984
_publ_section_title
;
Structure prediction by ZEFSAII (Michael W. Deem and Ramdas Pophale) SiO2 
 PCOD9124984
Probable space group: C 2
;
_chemical_formula_sum "Si O2"
_cell_formula_units_Z 32
_cell_length_a 18.386647
_cell_length_b 14.781786
_cell_length_c 12.821722
_cell_angle_alpha 90.000000
_cell_angle_beta 24.808157
_cell_angle_gamma 90.000000
_cell_volume 1462.150056
_symmetry_space_group_name_H-M "C 2"
_symmetry_group_IT_number 5
_symmetry_cell_setting 'monoclinic'
loop_
_space_group_symop_operation_xyz
x,y,z
-x,y,-z
1/2+x,1/2+y,z
1/2-x,1/2+y,-z
loop_
_atom_site_type_symbol
_atom_site_label
_atom_site_fract_x
_atom_site_fract_y
_atom_site_fract_z
Si Si1 0.748236 0.752690 0.520013
Si Si2 0.351557 0.837980 0.783239
Si Si3 0.270239 0.140316 0.005664
Si Si4 0.501781 0.096184 0.876272
Si Si5 0.069168 0.113266 0.074425
Si Si6 0.104779 0.709721 0.459294
Si Si7 0.384373 0.428123 0.067455
Si Si8 0.604074 0.932840 0.598814
O O1 0.894848 0.690469 0.274776
O O2 0.816791 0.768143 0.548610
O O3 0.691481 0.844833 0.538322
O O4 0.581348 0.686599 0.737261
O O5 0.500000 0.829525 0.500000
O O6 0.182831 0.875010 0.944174
O O7 0.422535 0.901195 0.783314
O O8 0.305641 0.740913 0.888182
O O9 0.314824 0.107135 0.063335
O O10 0.136926 0.091680 0.102796
O O11 0.458096 0.146022 0.703691
O O12 0.588379 0.013861 0.700170
O O13 0.500000 0.075872 0.000000
O O14 0.235529 0.154477 0.797632
O O15 0.015334 0.018026 0.096030
O O16 0.000000 0.755442 0.500000
O O17 0.216530 0.457824 0.351251
O O18 0.500000 0.374607 0.000000
#
# Coordination Sequence:
#
# PCOD9124984 Si02
#       8
#     4   4   4   4   4   4   4   4
#     4  11  23  41  69  94 132 173 220 271 323 392
#     4  10  23  40  65  96 128 175 218 271 326 390
#     4  10  21  39  63  92 131 167 222 260 330 386
#     4  11  26  42  65  97 137 178 214 269 336 398
#     4  11  20  40  66  97 125 165 219 273 326 377
#     4   9  20  35  60  93 121 164 208 267 319 382
#     4  11  23  36  67  96 128 161 222 275 320 378
#     4  11  24  45  63  98 133 172 222 269 328 394
#
# _framework density 21.885579
#
# number of rings (size 3 to 8) (size 9 to 14) (size 15 to 20)
#    0.000    1.500    1.250    4.125    7.000    4.500 
#    0.000    0.000    0.000    0.000    0.000    0.000 
#    0.000    0.000    0.000    0.000    0.000    0.000 
#
# Total GULP energy -89380.818640 kJ/mol
# GULP energy per Si atom -5586.301165 kJ/mol
# Density = 2.183577 g / cm^3
# Si number density = 21.885579 Si / 1000 Ang^3
#
#
#
# Elastic Constant Matrix: (Units=GPa)
#
#
# Indices 1 2 3 4 5 6 
#
# 1 179.4806 29.4109 13.3963 0.0000 -0.8663 0.0000
# 2 29.4109 84.8478 5.8208 0.0002 3.2158 -0.0001
# 3 13.3963 5.8208 34.1676 0.0002 1.4343 0.0000
# 4 0.0000 0.0002 0.0002 27.5154 0.0000 -0.6320
# 5 -0.8663 3.2158 1.4343 0.0000 32.7662 0.0000
# 6 0.0000 -0.0001 0.0000 -0.6320 0.0000 34.1219
#
#
#
# Elastic Compliance Matrix: (Units=1/GPa)
#
#
# Indices 1 2 3 4 5 6 
#
# 1 0.006050 -0.001973 -0.002055 0.000000 0.000444 0.000000
# 2 -0.001973 0.012607 -0.001322 0.000000 -0.001232 0.000000
# 3 -0.002055 -0.001322 0.030351 0.000000 -0.001253 0.000000
# 4 0.000000 0.000000 0.000000 0.036359 0.000000 0.000673
# 5 0.000444 -0.001232 -0.001253 0.000000 0.030707 0.000000
# 6 0.000000 0.000000 0.000000 0.000673 0.000000 0.029319
#
#
# Mechanical properties :
#
#
# Convention : Reuss Voigt Hill
#
# Bulk Modulus (GPa) = 26.10415 43.97244 35.03830
# Shear Modulus (GPa) = 29.60976 35.53856 32.57416
#
# Velocity S-wave (km/s) = 3.68222 4.03405 3.86214
# Velocity P-wave (km/s) = 5.48012 6.46790 5.99439
#
# Compressibility (1/GPa) = 0.03830808
#
# Stress axis : x y z
#
# Youngs Moduli (GPa) = 165.27639 79.31997 32.94780
#
# Poissons Ratio (x) = 0.15651 0.06770
# Poissons Ratio (y) = 0.32611 0.04357
# Poissons Ratio (z) = 0.33960 0.10489
#
# Static dielectric constant tensor:
#      x y z
#    x 1.842200 0.000000 -0.015510 
#    y 0.000000 1.761060 0.000000 
#    z -0.015510 0.000000 1.823870 
# 
# From -- ./inp_files/44961.got.cif
#   From: 2010.05.17/outbox.cif.g08.bks.cpg/sg5_23_cif.got.tgz:44961.got - 2010.06.03 18:56:24.
