data_PCOD9124279
_publ_section_title
;
Structure prediction by ZEFSAII (Michael W. Deem and Ramdas Pophale) SiO2 
 PCOD9124279
Probable space group: C 2
;
_chemical_formula_sum "Si O2"
_cell_formula_units_Z 26
_cell_length_a 10.508767
_cell_length_b 9.296676
_cell_length_c 18.989933
_cell_angle_alpha 90.000000
_cell_angle_beta 139.490605
_cell_angle_gamma 90.000000
_cell_volume 1205.121051
_symmetry_space_group_name_H-M "C 2"
_symmetry_group_IT_number 5
_symmetry_cell_setting 'monoclinic'
loop_
_space_group_symop_operation_xyz
x,y,z
-x,y,-z
1/2+x,1/2+y,z
1/2-x,1/2+y,-z
loop_
_atom_site_type_symbol
_atom_site_label
_atom_site_fract_x
_atom_site_fract_y
_atom_site_fract_z
Si Si1 0.431980 0.018860 0.632879
Si Si2 0.357020 0.184772 0.849447
Si Si3 0.200978 0.176614 0.019312
Si Si4 0.642320 0.576493 0.628204
Si Si5 0.340745 0.506055 0.854513
Si Si6 0.000000 0.441552 0.000000
Si Si7 0.898625 0.804025 0.532574
O O1 0.346896 0.038644 0.675858
O O2 0.664297 0.013948 0.725962
O O3 0.377259 0.161026 0.567362
O O4 0.313432 0.879071 0.559158
O O5 0.582399 0.182024 0.918728
O O6 0.206333 0.173868 0.720644
O O7 0.336779 0.340325 0.876461
O O8 0.347975 0.046984 0.896462
O O9 0.209867 0.107239 0.100943
O O10 0.105817 0.334225 0.989392
O O11 0.046698 0.071017 0.915160
O O12 0.500000 0.616465 0.500000
O O13 0.540216 0.433857 0.617443
O O14 0.000000 0.769292 0.500000
#
# Coordination Sequence:
#
# PCOD9124279 Si02
#       7
#     4   4   4   4   4   2   4
#     4  10  20  43  64  88 126 166 207 264 312 369
#     4  12  22  41  65  91 125 165 212 258 317 380
#     4  10  23  44  57  90 131 160 205 269 319 364
#     4   9  22  39  63  88 126 166 205 258 317 365
#     4  10  22  38  64  91 121 164 209 257 317 371
#     4  10  24  38  66  92 116 166 212 252 314 380
#     4   9  22  41  59  91 123 163 208 260 310 367
#
# _framework density 21.574594999999999
#
# number of rings (size 3 to 8) (size 9 to 14) (size 15 to 20)
#    0.000    2.462    1.538    1.846    8.615    0.000 
#    2.769    3.077    0.000    0.000    0.000    0.000 
#    0.000    0.000    0.000    0.000    0.000    0.000 
#
# Total GULP energy -72432.474115 kJ/mol
# GULP energy per Si atom -5571.728778 kJ/mol
# Density = 2.152549 g / cm^3
# Si number density = 21.574595 Si / 1000 Ang^3
#
#
#
# Elastic Constant Matrix: (Units=GPa)
#
#
# Indices 1 2 3 4 5 6 
#
# 1 39.1322 12.4506 9.4780 0.0000 17.2860 0.0000
# 2 12.4506 130.5207 52.2455 0.0000 -7.1285 0.0000
# 3 9.4780 52.2455 107.1811 0.0000 11.8146 0.0000
# 4 0.0000 0.0000 0.0000 26.4853 0.0000 1.4943
# 5 17.2860 -7.1285 11.8146 0.0000 25.9410 0.0000
# 6 0.0000 0.0000 0.0000 1.4943 0.0000 22.9604
#
#
#
# Elastic Compliance Matrix: (Units=1/GPa)
#
#
# Indices 1 2 3 4 5 6 
#
# 1 0.040197 -0.006675 0.003005 0.000000 -0.029989 0.000000
# 2 -0.006675 0.011280 -0.006044 0.000000 0.010300 0.000000
# 3 0.003005 -0.006044 0.013070 0.000000 -0.009616 0.000000
# 4 0.000000 0.000000 0.000000 0.037896 0.000000 -0.002466
# 5 -0.029989 0.010300 -0.009616 0.000000 0.065742 0.000000
# 6 0.000000 0.000000 0.000000 -0.002466 0.000000 0.043714
#
#
# Mechanical properties :
#
#
# Convention : Reuss Voigt Hill
#
# Bulk Modulus (GPa) = 22.16320 47.24245 34.70283
# Shear Modulus (GPa) = 20.29490 28.58801 24.44146
#
# Velocity S-wave (km/s) = 3.07039 3.64411 3.36948
# Velocity P-wave (km/s) = 4.78172 6.29689 5.59087
#
# Compressibility (1/GPa) = 0.04511984
#
# Stress axis : x y z
#
# Youngs Moduli (GPa) = 24.87721 88.65180 76.51008
#
# Poissons Ratio (x) = 0.59176 -0.22990
# Poissons Ratio (y) = 0.16606 0.46240
# Poissons Ratio (z) = -0.07475 0.53578
#
# Static dielectric constant tensor:
#      x y z
#    x 1.810390 0.000000 0.036710 
#    y 0.000000 1.779880 0.000000 
#    z 0.036710 0.000000 1.892590 
# 
# From -- ./inp_files/65160.got.cif
#   From: 2010.05.17/outbox.cif.g08.bks.cpg/sg5_33_cif.got.tgz:65160.got - 2010.06.03 18:56:24.
