data_PCOD9124693
_publ_section_title
;
Structure prediction by ZEFSAII (Michael W. Deem and Ramdas Pophale) SiO2 
 PCOD9124693
Probable space group: C 2
;
_chemical_formula_sum "Si O2"
_cell_formula_units_Z 28
_cell_length_a 21.685171
_cell_length_b 7.445418
_cell_length_c 19.511694
_cell_angle_alpha 90.000000
_cell_angle_beta 20.013816
_cell_angle_gamma 90.000000
_cell_volume 1078.167446
_symmetry_space_group_name_H-M "C 2"
_symmetry_group_IT_number 5
_symmetry_cell_setting 'monoclinic'
loop_
_space_group_symop_operation_xyz
x,y,z
-x,y,-z
1/2+x,1/2+y,z
1/2-x,1/2+y,-z
loop_
_atom_site_type_symbol
_atom_site_label
_atom_site_fract_x
_atom_site_fract_y
_atom_site_fract_z
Si Si1 0.595496 0.574640 0.563034
Si Si2 0.085761 0.586034 0.096718
Si Si3 0.695271 0.441724 0.241739
Si Si4 0.660994 0.903843 0.148612
Si Si5 0.609639 0.193016 0.574371
Si Si6 0.294058 0.640320 0.241915
Si Si7 0.704924 0.238032 0.762201
O O1 0.468003 0.474492 0.639210
O O2 0.494305 0.751965 0.694770
O O3 0.616646 0.401782 0.587530
O O4 0.765854 0.651363 0.342938
O O5 0.212329 0.479022 0.020513
O O6 0.910631 0.605442 0.328237
O O7 0.119383 0.463901 0.995646
O O8 0.175311 0.784974 0.991200
O O9 0.698948 0.275798 0.288996
O O10 0.694792 0.615255 0.289497
O O11 0.563985 0.085139 0.279187
O O12 0.762041 0.178351 0.356475
O O13 0.224782 0.438412 0.307462
O O14 0.500000 0.645196 0.000000
O O15 0.500000 0.238581 0.000000
#
# Coordination Sequence:
#
# PCOD9124693 Si02
#       7
#     4   4   4   4   4   4   4
#     4  11  21  39  62  97 126 167 218 265 325 385
#     4   9  19  37  59  89 132 164 211 262 324 390
#     4  11  23  38  61  97 130 153 216 278 316 369
#     4   9  19  36  57  86 127 170 207 254 322 397
#     4  10  21  37  64  89 123 173 210 254 325 390
#     4  11  24  44  68  88 126 180 221 261 326 394
#     4  11  23  41  63  89 128 174 215 261 324 390
#
# _framework density 25.969991
#
# number of rings (size 3 to 8) (size 9 to 14) (size 15 to 20)
#    0.857    0.857    2.857    2.571    0.000    2.286 
#    5.143    0.000    9.429    0.000    0.000    0.000 
#    0.000    0.000    0.000    0.000    0.000    0.000 
#
# Total GULP energy -78001.856286 kJ/mol
# GULP energy per Si atom -5571.561163 kJ/mol
# Density = 2.591088 g / cm^3
# Si number density = 25.969991 Si / 1000 Ang^3
#
#
#
# Elastic Constant Matrix: (Units=GPa)
#
#
# Indices 1 2 3 4 5 6 
#
# 1 55.8817 20.7627 32.3453 -0.0001 29.9667 -0.0001
# 2 20.7627 175.1785 45.1507 -0.0016 1.6403 -0.0001
# 3 32.3453 45.1507 156.5436 -0.0005 46.6535 0.0001
# 4 -0.0001 -0.0016 -0.0005 36.4465 0.0001 5.3188
# 5 29.9667 1.6403 46.6535 0.0001 49.1990 0.0001
# 6 -0.0001 -0.0001 0.0001 5.3188 0.0001 22.9587
#
#
#
# Elastic Compliance Matrix: (Units=1/GPa)
#
#
# Indices 1 2 3 4 5 6 
#
# 1 0.028257 -0.003258 0.000276 0.000000 -0.017364 0.000000
# 2 -0.003258 0.006697 -0.002486 0.000000 0.004118 0.000000
# 3 0.000276 -0.002486 0.009860 0.000000 -0.009435 0.000000
# 4 0.000000 0.000000 0.000000 0.028398 0.000000 -0.006579
# 5 -0.017364 0.004118 -0.009435 0.000000 0.039711 0.000000
# 6 0.000000 0.000000 0.000000 -0.006579 0.000000 0.045081
#
#
# Mechanical properties :
#
#
# Convention : Reuss Voigt Hill
#
# Bulk Modulus (GPa) = 29.51683 64.90234 47.20959
# Shear Modulus (GPa) = 27.74224 41.01052 34.37638
#
# Velocity S-wave (km/s) = 3.27194 3.97816 3.64221
# Velocity P-wave (km/s) = 5.06602 6.79313 5.99213
#
# Compressibility (1/GPa) = 0.03387897
#
# Stress axis : x y z
#
# Youngs Moduli (GPa) = 35.38916 149.32826 101.42350
#
# Poissons Ratio (x) = 0.48646 -0.02799
# Poissons Ratio (y) = 0.11529 0.25210
# Poissons Ratio (z) = -0.00977 0.37117
#
# Static dielectric constant tensor:
#      x y z
#    x 2.381240 0.000000 -0.244050 
#    y 0.000000 2.010130 0.000000 
#    z -0.244050 0.000000 2.270460 
# 
# From -- ./inp_files/67342.got.cif
#   From: 2010.05.17/outbox.cif.g08.bks.cpg/sg5_34_cif.got.tgz:67342.got - 2010.06.03 18:56:24.
