data_PCOD9124304
_publ_section_title
;
Structure prediction by ZEFSAII (Michael W. Deem and Ramdas Pophale) SiO2 
 PCOD9124304
Probable space group: C 2
;
_chemical_formula_sum "Si O2"
_cell_formula_units_Z 28
_cell_length_a 10.157709
_cell_length_b 10.474966
_cell_length_c 13.167804
_cell_angle_alpha 90.000000
_cell_angle_beta 104.849403
_cell_angle_gamma 90.000000
_cell_volume 1354.284098
_symmetry_space_group_name_H-M "C 2"
_symmetry_group_IT_number 5
_symmetry_cell_setting 'monoclinic'
loop_
_space_group_symop_operation_xyz
x,y,z
-x,y,-z
1/2+x,1/2+y,z
1/2-x,1/2+y,-z
loop_
_atom_site_type_symbol
_atom_site_label
_atom_site_fract_x
_atom_site_fract_y
_atom_site_fract_z
Si Si1 0.451836 0.699630 0.742853
Si Si2 0.697323 0.971000 0.975899
Si Si3 0.881178 0.314666 0.393974
Si Si4 0.375372 0.695739 0.038712
Si Si5 0.335666 0.093727 0.378999
Si Si6 0.878215 0.657290 0.616609
Si Si7 0.093014 0.482869 0.181925
O O1 0.555195 0.714799 0.670701
O O2 0.545573 0.642081 0.848820
O O3 0.313273 0.632409 0.684810
O O4 0.407614 0.840692 0.772011
O O5 0.719629 0.819355 0.959042
O O6 0.560064 0.007260 0.888874
O O7 0.679297 0.988597 0.094510
O O8 0.806482 0.078339 0.968149
O O9 0.868148 0.453917 0.342502
O O10 0.732618 0.270233 0.401235
O O11 0.000000 0.325962 0.500000
O O12 0.500000 0.755613 0.000000
O O13 0.341634 0.085254 0.503441
O O14 0.460064 0.184394 0.367113
O O15 0.866282 0.577569 0.718695
#
# Coordination Sequence:
#
# PCOD9124304 Si02
#       7
#     4   4   4   4   4   4   4
#     4  11  22  42  70  91 129 173 214 267 326 382
#     4  10  22  43  68  96 130 168 218 266 328 387
#     4  12  22  43  63  90 130 169 214 267 317 380
#     4  11  23  43  66  96 131 170 215 273 326 388
#     4  11  24  42  62  95 129 170 215 265 323 382
#     4  11  23  40  65  93 128 171 213 262 324 384
#     4  10  20  43  70  89 129 173 202 268 327 376
#
# _framework density 20.675128999999998
#
# number of rings (size 3 to 8) (size 9 to 14) (size 15 to 20)
#    0.000    1.143    7.143    0.857    2.000    0.000 
#   10.286    0.000    0.000    0.000    0.000    0.000 
#    0.000    0.000    0.000    0.000    0.000    0.000 
#
# Total GULP energy -78047.555843 kJ/mol
# GULP energy per Si atom -5574.825417 kJ/mol
# Density = 2.062807 g / cm^3
# Si number density = 20.675129 Si / 1000 Ang^3
#
#
#
# Elastic Constant Matrix: (Units=GPa)
#
#
# Indices 1 2 3 4 5 6 
#
# 1 103.4179 40.2993 31.3568 0.0000 19.2746 0.0000
# 2 40.2993 53.3632 19.3610 0.0000 20.8502 0.0000
# 3 31.3568 19.3610 96.1260 0.0000 16.7885 0.0000
# 4 0.0000 0.0000 0.0000 22.3968 0.0000 8.0599
# 5 19.2746 20.8502 16.7885 0.0000 30.4027 0.0000
# 6 0.0000 0.0000 0.0000 8.0599 0.0000 38.0684
#
#
#
# Elastic Compliance Matrix: (Units=1/GPa)
#
#
# Indices 1 2 3 4 5 6 
#
# 1 0.014349 -0.009431 -0.002570 0.000000 -0.001210 0.000000
# 2 -0.009431 0.032271 -0.000667 0.000000 -0.015784 0.000000
# 3 -0.002570 -0.000667 0.012186 0.000000 -0.004643 0.000000
# 4 0.000000 0.000000 0.000000 0.048332 0.000000 -0.010233
# 5 -0.001210 -0.015784 -0.004643 0.000000 0.047048 0.000000
# 6 0.000000 0.000000 0.000000 -0.010233 0.000000 0.028435
#
#
# Mechanical properties :
#
#
# Convention : Reuss Voigt Hill
#
# Bulk Modulus (GPa) = 29.87628 48.32681 39.10155
# Shear Modulus (GPa) = 22.81920 28.96627 25.89273
#
# Velocity S-wave (km/s) = 3.32581 3.74708 3.54271
# Velocity P-wave (km/s) = 5.40645 6.49199 5.97393
#
# Compressibility (1/GPa) = 0.03347137
#
# Stress axis : x y z
#
# Youngs Moduli (GPa) = 69.68947 30.98763 82.05802
#
# Poissons Ratio (x) = 0.29225 0.21088
# Poissons Ratio (y) = 0.65726 0.05469
# Poissons Ratio (z) = 0.17910 0.02065
#
# Static dielectric constant tensor:
#      x y z
#    x 1.768300 0.000000 -0.053070 
#    y 0.000000 1.731680 0.000000 
#    z -0.053070 0.000000 2.010830 
# 
# From -- ./inp_files/52316.got.cif
#   From: 2010.05.17/outbox.cif.g08.bks.cpg/sg5_27_cif.got.tgz:52316.got - 2010.06.03 18:56:24.
