data_PCOD9124463
_publ_section_title
;
Structure prediction by ZEFSAII (Michael W. Deem and Ramdas Pophale) SiO2 
 PCOD9124463
Probable space group: C 2
;
_chemical_formula_sum "Si O2"
_cell_formula_units_Z 20
_cell_length_a 5.156497
_cell_length_b 18.914677
_cell_length_c 13.597724
_cell_angle_alpha 90.000000
_cell_angle_beta 130.743958
_cell_angle_gamma 90.000000
_cell_volume 1004.799178
_symmetry_space_group_name_H-M "C 2"
_symmetry_group_IT_number 5
_symmetry_cell_setting 'monoclinic'
loop_
_space_group_symop_operation_xyz
x,y,z
-x,y,-z
1/2+x,1/2+y,z
1/2-x,1/2+y,-z
loop_
_atom_site_type_symbol
_atom_site_label
_atom_site_fract_x
_atom_site_fract_y
_atom_site_fract_z
Si Si1 0.732936 0.650580 0.146729
Si Si2 0.715489 0.430118 0.343026
Si Si3 0.090498 0.218527 0.633629
Si Si4 0.216641 0.350920 0.344101
Si Si5 0.903796 0.085048 0.256401
O O1 0.509555 0.620117 0.179706
O O2 0.003465 0.708738 0.251837
O O3 0.995830 0.590444 0.171461
O O4 0.500000 0.675947 0.000000
O O5 0.422349 0.373433 0.298610
O O6 0.552651 0.507377 0.299685
O O7 0.000000 0.430004 0.500000
O O8 0.916644 0.406301 0.295707
O O9 0.953725 0.139618 0.625044
O O10 0.000000 0.239533 0.500000
O O11 0.940865 0.273912 0.674449
O O12 0.500000 0.357955 0.500000
#
# Coordination Sequence:
#
# PCOD9124463 Si02
#       5
#     4   4   4   4   4
#     4  10  23  40  61  90 119 164 202 257 308 358
#     4  10  21  35  56  86 126 158 188 245 309 367
#     4  10  24  35  63  94 124 156 201 258 296 359
#     4  10  21  35  53  85 129 160 188 237 312 362
#     4  10  23  36  64  87 118 159 210 251 297 361
#
# _framework density 19.904477
#
# number of rings (size 3 to 8) (size 9 to 14) (size 15 to 20)
#    1.200    0.800    0.000    3.600    8.400    0.800 
#    0.000    0.000    0.000    4.800    0.000    0.000 
#    0.000    0.000    0.000    0.000    0.000    0.000 
#
# Total GULP energy -55733.138346 kJ/mol
# GULP energy per Si atom -5573.313835 kJ/mol
# Density = 1.985917 g / cm^3
# Si number density = 19.904477 Si / 1000 Ang^3
#
#
#
# Elastic Constant Matrix: (Units=GPa)
#
#
# Indices 1 2 3 4 5 6 
#
# 1 75.2727 -6.8380 10.8453 0.0000 -5.7587 0.0000
# 2 -6.8380 94.1798 10.5733 0.0000 -1.8865 0.0000
# 3 10.8453 10.5733 60.0337 0.0001 -3.6909 0.0000
# 4 0.0000 0.0000 0.0001 4.3853 0.0000 10.5509
# 5 -5.7587 -1.8865 -3.6909 0.0000 13.3187 0.0000
# 6 0.0000 0.0000 0.0000 10.5509 0.0000 26.6057
#
#
#
# Elastic Compliance Matrix: (Units=1/GPa)
#
#
# Indices 1 2 3 4 5 6 
#
# 1 0.014203 0.001422 -0.002468 0.000000 0.005658 0.000000
# 2 0.001422 0.010988 -0.002094 0.000001 0.001591 0.000000
# 3 -0.002468 -0.002094 0.017690 -0.000004 0.003538 0.000002
# 4 0.000000 0.000001 -0.000004 4.968812 -0.000008 -1.970448
# 5 0.005658 0.001591 0.003538 -0.000008 0.078735 0.000003
# 6 0.000000 0.000000 0.000002 -1.970448 0.000003 0.818993
#
#
# Mechanical properties :
#
#
# Convention : Reuss Voigt Hill
#
# Bulk Modulus (GPa) = 27.32342 28.73859 28.03101
# Shear Modulus (GPa) = 0.84347 23.18899 12.01623
#
# Velocity S-wave (km/s) = 0.65167 3.41693 2.45969
# Velocity P-wave (km/s) = 3.78462 5.48059 4.70957
#
# Compressibility (1/GPa) = 0.03659864
#
# Stress axis : x y z
#
# Youngs Moduli (GPa) = 70.40925 91.00678 56.53035
#
# Poissons Ratio (x) = -0.12938 0.13953
# Poissons Ratio (y) = -0.10010 0.11839
# Poissons Ratio (z) = 0.17379 0.19059
#
# Static dielectric constant tensor:
#      x y z
#    x 1.736560 0.000000 0.013330 
#    y 0.000000 1.727090 0.000000 
#    z 0.013330 0.000000 1.683120 
# 
# From -- ./inp_files/58967.got.cif
#   From: 2010.05.17/outbox.cif.g08.bks.cpg/sg5_30_cif.got.tgz:58967.got - 2010.06.03 18:56:24.
