data_PCOD9124214
_publ_section_title
;
Structure prediction by ZEFSAII (Michael W. Deem and Ramdas Pophale) SiO2 
 PCOD9124214
Probable space group: C 2
;
_chemical_formula_sum "Si O2"
_cell_formula_units_Z 20
_cell_length_a 11.894695
_cell_length_b 8.247767
_cell_length_c 8.243090
_cell_angle_alpha 90.000000
_cell_angle_beta 96.239657
_cell_angle_gamma 90.000000
_cell_volume 803.894974
_symmetry_space_group_name_H-M "C 2"
_symmetry_group_IT_number 5
_symmetry_cell_setting 'monoclinic'
loop_
_space_group_symop_operation_xyz
x,y,z
-x,y,-z
1/2+x,1/2+y,z
1/2-x,1/2+y,-z
loop_
_atom_site_type_symbol
_atom_site_label
_atom_site_fract_x
_atom_site_fract_y
_atom_site_fract_z
Si Si1 0.338074 0.828410 0.207072
Si Si2 0.500000 0.312129 0.500000
Si Si3 0.753217 0.853878 0.468180
Si Si4 0.050879 0.514477 0.301744
Si Si5 0.000000 0.692646 0.000000
Si Si6 0.275614 0.199462 0.118110
O O1 0.468272 0.860858 0.277672
O O2 0.295557 0.009770 0.156034
O O3 0.313255 0.725625 0.042313
O O4 0.274111 0.773324 0.361305
O O5 0.383783 0.407788 0.496923
O O6 0.493016 0.179903 0.355797
O O7 0.654381 0.985108 0.436339
O O8 0.741411 0.769623 0.289238
O O9 0.072529 0.569307 0.123645
O O10 0.106050 0.780522 0.931426
#
# Coordination Sequence:
#
# PCOD9124214 Si02
#       6
#     4   2   4   4   2   4
#     4  11  24  44  73 107 147 195 243 301 374 439
#     4  12  22  42  72 100 142 194 240 296 370 430
#     4  12  22  40  75 104 137 189 250 293 364 440
#     4  11  21  44  70  98 145 195 237 298 367 437
#     4  10  20  42  68  98 142 194 238 288 372 436
#     4  11  24  42  71 109 140 195 246 300 367 440
#
# _framework density 24.878871
#
# number of rings (size 3 to 8) (size 9 to 14) (size 15 to 20)
#    0.000    0.800    6.000    3.600    0.000    1.600 
#    0.000    2.000   35.200    0.000    0.000    0.000 
#    0.000    0.000    0.000    0.000    0.000    0.000 
#
# Total GULP energy -55736.149090 kJ/mol
# GULP energy per Si atom -5573.614909 kJ/mol
# Density = 2.482225 g / cm^3
# Si number density = 24.878871 Si / 1000 Ang^3
#
#
#
# Elastic Constant Matrix: (Units=GPa)
#
#
# Indices 1 2 3 4 5 6 
#
# 1 126.5247 15.6151 50.5055 0.0000 12.5567 0.0000
# 2 15.6151 34.4718 17.6847 0.0000 0.8293 0.0000
# 3 50.5055 17.6847 178.2184 0.0000 -3.3685 0.0000
# 4 0.0000 0.0000 0.0000 33.5187 0.0000 8.1762
# 5 12.5567 0.8293 -3.3685 0.0000 56.7285 0.0000
# 6 0.0000 0.0000 0.0000 8.1762 0.0000 32.5694
#
#
#
# Elastic Compliance Matrix: (Units=1/GPa)
#
#
# Indices 1 2 3 4 5 6 
#
# 1 0.009458 -0.002987 -0.002425 0.000000 -0.002194 0.000000
# 2 -0.002987 0.031531 -0.002281 0.000000 0.000065 0.000000
# 3 -0.002425 -0.002281 0.006543 0.000000 0.000959 0.000000
# 4 0.000000 0.000000 0.000000 0.031780 0.000000 -0.007978
# 5 -0.002194 0.000065 0.000959 0.000000 0.018169 0.000000
# 6 0.000000 0.000000 0.000000 -0.007978 0.000000 0.032707
#
#
# Mechanical properties :
#
#
# Convention : Reuss Voigt Hill
#
# Bulk Modulus (GPa) = 31.10940 56.31394 43.71167
# Shear Modulus (GPa) = 31.99168 41.59061 36.79115
#
# Velocity S-wave (km/s) = 3.58983 4.09311 3.84970
# Velocity P-wave (km/s) = 5.45106 6.70988 6.11296
#
# Compressibility (1/GPa) = 0.03214462
#
# Stress axis : x y z
#
# Youngs Moduli (GPa) = 105.72876 31.71477 152.83751
#
# Poissons Ratio (x) = 0.09474 0.37069
# Poissons Ratio (y) = 0.31585 0.34863
# Poissons Ratio (z) = 0.25643 0.07234
#
# Static dielectric constant tensor:
#      x y z
#    x 2.069520 0.000000 -0.075670 
#    y 0.000000 1.981210 0.000000 
#    z -0.075670 0.000000 2.169640 
# 
# From -- ./inp_files/18807.got.cif
#   From: 2010.05.17/outbox.cif.g08.bks.cpg/sg5_10_cif.got.tgz:18807.got - 2010.06.03 18:56:24.
