data_PCOD9124075
_publ_section_title
;
Structure prediction by ZEFSAII (Michael W. Deem and Ramdas Pophale) SiO2 
 PCOD9124075
Probable space group: C 2
;
_chemical_formula_sum "Si O2"
_cell_formula_units_Z 28
_cell_length_a 12.190971
_cell_length_b 14.189007
_cell_length_c 8.466852
_cell_angle_alpha 90.000000
_cell_angle_beta 50.511273
_cell_angle_gamma 90.000000
_cell_volume 1130.287042
_symmetry_space_group_name_H-M "C 2"
_symmetry_group_IT_number 5
_symmetry_cell_setting 'monoclinic'
loop_
_space_group_symop_operation_xyz
x,y,z
-x,y,-z
1/2+x,1/2+y,z
1/2-x,1/2+y,-z
loop_
_atom_site_type_symbol
_atom_site_label
_atom_site_fract_x
_atom_site_fract_y
_atom_site_fract_z
Si Si1 0.850598 0.381090 0.581540
Si Si2 0.132129 0.421365 0.774473
Si Si3 0.376143 0.437735 0.983499
Si Si4 0.350553 0.556908 0.713081
Si Si5 0.695297 0.191100 0.648867
Si Si6 0.345947 0.695873 0.194942
Si Si7 0.920939 0.747025 0.740903
O O1 0.883194 0.441267 0.396399
O O2 0.740411 0.299258 0.635846
O O3 0.000000 0.338206 0.500000
O O4 0.774128 0.437185 0.789324
O O5 0.278712 0.465831 0.697033
O O6 0.137001 0.308621 0.789523
O O7 0.000000 0.455931 0.000000
O O8 0.379069 0.525263 0.863499
O O9 0.388774 0.342207 0.867773
O O10 0.500000 0.438935 0.000000
O O11 0.500000 0.582744 0.500000
O O12 0.239427 0.637206 0.766078
O O13 0.788647 0.155399 0.413323
O O14 0.533326 0.188999 0.742484
O O15 0.222477 0.693431 0.177070
O O16 0.500000 0.661883 0.000000
O O17 0.000000 0.767878 0.500000
#
# Coordination Sequence:
#
# PCOD9124075 Si02
#       7
#     4   4   4   4   4   4   4
#     4  11  23  40  68 100 142 181 252 300 349 441
#     4  10  21  42  69 101 139 187 236 295 365 435
#     4  12  23  40  73 108 136 193 259 297 355 440
#     4  12  25  44  70  98 148 191 245 307 374 421
#     4  10  23  42  64 104 146 187 242 301 374 425
#     4   9  19  38  74 108 138 181 248 294 361 444
#     4  10  20  41  71 105 138 189 243 297 352 446
#
# _framework density 24.772469000000001
#
# number of rings (size 3 to 8) (size 9 to 14) (size 15 to 20)
#    0.000    1.429    2.857    2.571    6.000    0.000 
#    2.571    4.286    6.286    0.857    0.000    0.000 
#    0.000    0.000    0.000    0.000    0.000    0.000 
#
# Total GULP energy -78422.855077 kJ/mol
# GULP energy per Si atom -5601.632506 kJ/mol
# Density = 2.471609 g / cm^3
# Si number density = 24.772469 Si / 1000 Ang^3
#
#
#
# Elastic Constant Matrix: (Units=GPa)
#
#
# Indices 1 2 3 4 5 6 
#
# 1 180.3363 19.7139 67.4604 0.0000 -3.6661 0.0000
# 2 19.7139 51.3467 35.7789 0.0000 7.9083 0.0000
# 3 67.4604 35.7789 124.1513 0.0000 -1.5684 0.0000
# 4 0.0000 0.0000 0.0000 10.0270 0.0000 12.7972
# 5 -3.6661 7.9083 -1.5684 0.0000 40.4530 0.0000
# 6 0.0000 0.0000 0.0000 12.7972 0.0000 27.1939
#
#
#
# Elastic Compliance Matrix: (Units=1/GPa)
#
#
# Indices 1 2 3 4 5 6 
#
# 1 0.006970 -0.000152 -0.003737 0.000000 0.000516 0.000000
# 2 -0.000152 0.025444 -0.007317 0.000000 -0.005272 0.000000
# 3 -0.003737 -0.007317 0.012214 0.000000 0.001565 0.000000
# 4 0.000000 0.000000 0.000000 0.249700 0.000000 -0.117506
# 5 0.000516 -0.005272 0.001565 0.000000 0.025858 0.000000
# 6 0.000000 0.000000 0.000000 -0.117506 0.000000 0.092070
#
#
# Mechanical properties :
#
#
# Convention : Reuss Voigt Hill
#
# Bulk Modulus (GPa) = 45.01112 66.86008 55.93560
# Shear Modulus (GPa) = 11.31035 31.06020 21.18527
#
# Velocity S-wave (km/s) = 2.13907 3.54477 2.92754
# Velocity P-wave (km/s) = 4.93052 6.61832 5.83576
#
# Compressibility (1/GPa) = 0.02221673
#
# Stress axis : x y z
#
# Youngs Moduli (GPa) = 143.46585 39.30190 81.87425
#
# Poissons Ratio (x) = 0.00596 0.30599
# Poissons Ratio (y) = 0.02174 0.59907
# Poissons Ratio (z) = 0.53617 0.28757
#
# Static dielectric constant tensor:
#      x y z
#    x 1.927950 0.000000 0.019530 
#    y 0.000000 1.975210 0.000000 
#    z 0.019530 0.000000 1.984920 
# 
# From -- ./inp_files/20554.got.cif
#   From: 2010.05.17/outbox.cif.g08.bks.cpg/sg5_11_cif.got.tgz:20554.got - 2010.06.03 18:56:24.
