data_PCOD9124508
_publ_section_title
;
Structure prediction by ZEFSAII (Michael W. Deem and Ramdas Pophale) SiO2 
 PCOD9124508
Probable space group: C 2
;
_chemical_formula_sum "Si O2"
_cell_formula_units_Z 24
_cell_length_a 11.359632
_cell_length_b 22.225575
_cell_length_c 5.246450
_cell_angle_alpha 90.000000
_cell_angle_beta 124.465321
_cell_angle_gamma 90.000000
_cell_volume 1092.086565
_symmetry_space_group_name_H-M "C 2"
_symmetry_group_IT_number 5
_symmetry_cell_setting 'monoclinic'
loop_
_space_group_symop_operation_xyz
x,y,z
-x,y,-z
1/2+x,1/2+y,z
1/2-x,1/2+y,-z
loop_
_atom_site_type_symbol
_atom_site_label
_atom_site_fract_x
_atom_site_fract_y
_atom_site_fract_z
Si Si1 0.090045 0.175230 0.361145
Si Si2 0.592244 0.819715 0.358361
Si Si3 0.336201 0.010626 0.308017
Si Si4 0.334837 0.086853 0.804075
Si Si5 0.547210 0.482003 0.810133
Si Si6 0.580021 0.349812 0.343162
O O1 0.110713 0.247285 0.382619
O O2 0.235967 0.139637 0.580575
O O3 0.000000 0.160863 0.500000
O O4 0.000000 0.159629 0.000000
O O5 0.500000 0.835621 0.500000
O O6 0.752004 0.843598 0.501511
O O7 0.500000 0.837594 0.000000
O O8 0.500000 0.989517 0.500000
O O9 0.314778 0.033171 0.571117
O O10 0.313985 0.063647 0.069009
O O11 0.212724 0.966487 0.056466
O O12 0.500000 0.104979 0.000000
O O13 0.500000 0.515756 0.500000
O O14 0.455385 0.421141 0.693276
O O15 0.500000 0.518103 0.000000
O O16 0.500000 0.325864 0.500000
O O17 0.500000 0.323490 0.000000
#
# Coordination Sequence:
#
# PCOD9124508 Si02
#       6
#     4   4   4   4   4   4
#     4  10  21  36  56  85 116 150 193 234 283 348
#     4  10  21  39  61  86 120 158 194 240 298 355
#     4  10  21  37  56  79 114 153 189 233 289 345
#     4  10  21  36  55  83 115 150 189 232 286 346
#     4  10  21  37  56  82 111 143 192 243 286 342
#     4  10  21  39  60  87 116 148 197 248 293 348
#
# _framework density 21.976279999999999
#
# number of rings (size 3 to 8) (size 9 to 14) (size 15 to 20)
#    0.000    2.000    0.000    3.000    0.000    4.667 
#    0.000   12.500    0.000    0.000    0.000    0.000 
#    0.000    0.000    0.000    0.000    0.000    0.000 
#
# Total GULP energy -66948.581107 kJ/mol
# GULP energy per Si atom -5579.048426 kJ/mol
# Density = 2.192626 g / cm^3
# Si number density = 21.976280 Si / 1000 Ang^3
#
#
#
# Elastic Constant Matrix: (Units=GPa)
#
#
# Indices 1 2 3 4 5 6 
#
# 1 153.8069 30.0562 110.7290 0.0000 6.3989 0.0000
# 2 30.0562 47.0819 35.0327 0.0000 13.0918 0.0000
# 3 110.7290 35.0327 206.9081 0.0000 11.9842 0.0000
# 4 0.0000 0.0000 0.0000 16.9015 0.0000 13.5155
# 5 6.3989 13.0918 11.9842 0.0000 71.2797 0.0000
# 6 0.0000 0.0000 0.0000 13.5155 0.0000 20.1631
#
#
#
# Elastic Compliance Matrix: (Units=1/GPa)
#
#
# Indices 1 2 3 4 5 6 
#
# 1 0.010952 -0.003143 -0.005358 0.000000 0.000495 0.000000
# 2 -0.003143 0.026272 -0.002528 0.000000 -0.004118 0.000000
# 3 -0.005358 -0.002528 0.008153 0.000000 -0.000425 0.000000
# 4 0.000000 0.000000 0.000000 0.127520 0.000000 -0.085478
# 5 0.000495 -0.004118 -0.000425 0.000000 0.014813 0.000000
# 6 0.000000 0.000000 0.000000 -0.085478 0.000000 0.106892
#
#
# Mechanical properties :
#
#
# Convention : Reuss Voigt Hill
#
# Bulk Modulus (GPa) = 42.88076 84.38141 63.63109
# Shear Modulus (GPa) = 15.41149 37.13414 26.27281
#
# Velocity S-wave (km/s) = 2.65104 4.11510 3.46136
# Velocity P-wave (km/s) = 5.37823 7.81401 6.70761
#
# Compressibility (1/GPa) = 0.02332048
#
# Stress axis : x y z
#
# Youngs Moduli (GPa) = 91.30373 38.06349 122.65392
#
# Poissons Ratio (x) = 0.11962 0.65716
# Poissons Ratio (y) = 0.28695 0.31005
# Poissons Ratio (z) = 0.48919 0.09622
#
# Static dielectric constant tensor:
#      x y z
#    x 1.952730 0.000000 -0.067480 
#    y 0.000000 1.817060 0.000000 
#    z -0.067480 0.000000 1.880580 
# 
# From -- ./inp_files/5997.got.cif
#   From: 2010.05.17/outbox.cif.g08.bks.cpg/sg5_3_cif.got.tgz:5997.got - 2010.06.03 18:56:24.
