data_PCOD9124918
_publ_section_title
;
Structure prediction by ZEFSAII (Michael W. Deem and Ramdas Pophale) SiO2 
 PCOD9124918
Probable space group: C 2
;
_chemical_formula_sum "Si O2"
_cell_formula_units_Z 26
_cell_length_a 28.318997
_cell_length_b 5.265297
_cell_length_c 13.561191
_cell_angle_alpha 90.000000
_cell_angle_beta 28.842866
_cell_angle_gamma 90.000000
_cell_volume 975.470434
_symmetry_space_group_name_H-M "C 2"
_symmetry_group_IT_number 5
_symmetry_cell_setting 'monoclinic'
loop_
_space_group_symop_operation_xyz
x,y,z
-x,y,-z
1/2+x,1/2+y,z
1/2-x,1/2+y,-z
loop_
_atom_site_type_symbol
_atom_site_label
_atom_site_fract_x
_atom_site_fract_y
_atom_site_fract_z
Si Si1 0.805918 0.176010 0.429047
Si Si2 0.688229 0.100256 0.975799
Si Si3 0.514098 0.582001 0.331750
Si Si4 0.131472 0.869734 0.270842
Si Si5 0.004330 0.688053 0.199110
Si Si6 0.662317 0.876592 0.417631
Si Si7 0.000000 0.442515 0.000000
O O1 0.729283 0.399522 0.540387
O O2 0.818340 0.192638 0.524271
O O3 0.907183 0.265793 0.194293
O O4 0.776794 0.907906 0.825339
O O5 0.740478 0.341035 0.825255
O O6 0.590067 0.024660 0.098015
O O7 0.658671 0.163594 0.141056
O O8 0.602560 0.602922 0.247177
O O9 0.458359 0.345820 0.490001
O O10 0.427105 0.780396 0.487055
O O11 0.528448 0.467256 0.196963
O O12 0.892137 0.613449 0.430637
O O13 0.018029 0.622913 0.060741
#
# Coordination Sequence:
#
# PCOD9124918 Si02
#       7
#     4   4   4   4   4   4   2
#     4  11  26  48  74 109 146 193 248 303 366 436
#     4  10  21  39  60  98 126 174 229 285 351 435
#     4   9  20  41  60  90 134 172 226 288 351 430
#     4   9  20  36  59  90 128 171 222 290 348 427
#     4  10  22  42  64  95 133 174 232 282 358 422
#     4  10  23  41  64  95 133 181 221 295 354 419
#     4  10  24  48  72 108 136 200 234 308 366 438
#
# _framework density 26.653807
#
# number of rings (size 3 to 8) (size 9 to 14) (size 15 to 20)
#    0.000    2.154    0.000    0.923    8.615    0.615 
#   13.846    0.000    0.000    0.000    0.000    0.000 
#    0.000    0.000    0.000    0.000    0.000    0.000 
#
# Total GULP energy -72567.942257 kJ/mol
# GULP energy per Si atom -5582.149404 kJ/mol
# Density = 2.659314 g / cm^3
# Si number density = 26.653807 Si / 1000 Ang^3
#
#
#
# Elastic Constant Matrix: (Units=GPa)
#
#
# Indices 1 2 3 4 5 6 
#
# 1 135.1276 19.3752 12.1660 -0.0001 -1.0384 0.0000
# 2 19.3752 67.5927 10.6340 -0.0020 -5.1730 -0.0023
# 3 12.1660 10.6340 137.9342 -0.0013 -9.8224 -0.0005
# 4 -0.0001 -0.0020 -0.0013 17.8371 0.0004 -6.7315
# 5 -1.0384 -5.1730 -9.8224 0.0004 41.4414 0.0003
# 6 0.0000 -0.0023 -0.0005 -6.7315 0.0003 29.6165
#
#
#
# Elastic Compliance Matrix: (Units=1/GPa)
#
#
# Indices 1 2 3 4 5 6 
#
# 1 0.007756 -0.002155 -0.000532 0.000000 -0.000201 0.000000
# 2 -0.002155 0.015683 -0.000899 0.000002 0.001691 0.000002
# 3 -0.000532 -0.000899 0.007483 0.000000 0.001648 0.000000
# 4 0.000000 0.000002 0.000000 0.061323 0.000000 0.013938
# 5 -0.000201 0.001691 0.001648 0.000000 0.024727 0.000000
# 6 0.000000 0.000002 0.000000 0.013938 0.000000 0.036933
#
#
# Mechanical properties :
#
#
# Convention : Reuss Voigt Hill
#
# Bulk Modulus (GPa) = 42.10385 47.22276 44.66331
# Shear Modulus (GPa) = 29.58697 37.67763 33.63230
#
# Velocity S-wave (km/s) = 3.33535 3.76386 3.55606
# Velocity P-wave (km/s) = 5.53747 6.05346 5.80121
#
# Compressibility (1/GPa) = 0.02375080
#
# Stress axis : x y z
#
# Youngs Moduli (GPa) = 128.93657 63.76365 133.62866
#
# Poissons Ratio (x) = 0.13740 0.07112
# Poissons Ratio (y) = 0.27783 0.12008
# Poissons Ratio (z) = 0.06863 0.05730
#
# Static dielectric constant tensor:
#      x y z
#    x 2.125230 0.000000 -0.034240 
#    y 0.000000 2.255600 0.000000 
#    z -0.034240 0.000000 2.084910 
# 
# From -- ./inp_files/58290.got.cif
#   From: 2010.05.17/outbox.cif.g08.bks.cpg/sg5_30_cif.got.tgz:58290.got - 2010.06.03 18:56:24.
