data_PCOD9124938
_publ_section_title
;
Structure prediction by ZEFSAII (Michael W. Deem and Ramdas Pophale) SiO2 
 PCOD9124938
Probable space group: C 2
;
_chemical_formula_sum "Si O2"
_cell_formula_units_Z 24
_cell_length_a 24.137756
_cell_length_b 5.661102
_cell_length_c 7.597739
_cell_angle_alpha 90.000000
_cell_angle_beta 94.169080
_cell_angle_gamma 90.000000
_cell_volume 1035.455678
_symmetry_space_group_name_H-M "C 2"
_symmetry_group_IT_number 5
_symmetry_cell_setting 'monoclinic'
loop_
_space_group_symop_operation_xyz
x,y,z
-x,y,-z
1/2+x,1/2+y,z
1/2-x,1/2+y,-z
loop_
_atom_site_type_symbol
_atom_site_label
_atom_site_fract_x
_atom_site_fract_y
_atom_site_fract_z
Si Si1 0.743369 0.425210 0.719050
Si Si2 0.121034 0.022729 0.826021
Si Si3 0.484179 0.287649 0.310125
Si Si4 0.715159 0.421554 0.311798
Si Si5 0.098541 0.804265 0.202663
Si Si6 0.941809 0.408887 0.020113
O O1 0.679459 0.448560 0.761035
O O2 0.746860 0.426310 0.506024
O O3 0.769404 0.676838 0.783844
O O4 0.770669 0.172602 0.777079
O O5 0.107471 0.288994 0.881147
O O6 0.069393 0.952917 0.690175
O O7 0.114113 0.898314 0.013778
O O8 0.500000 0.175167 0.500000
O O9 0.541044 0.407268 0.259631
O O10 0.466665 0.106403 0.155643
O O11 0.649953 0.382455 0.331750
O O12 0.085029 0.527752 0.160289
O O13 0.000000 0.267102 0.000000
#
# Coordination Sequence:
#
# PCOD9124938 Si02
#       6
#     4   4   4   4   4   4
#     4  10  24  42  68  91 132 166 222 260 327 368
#     4  11  22  38  64  90 126 165 210 268 319 390
#     4  10  21  39  61  93 125 163 210 263 324 386
#     4  10  23  45  63  97 125 174 212 273 310 388
#     4  10  22  38  63  89 129 162 211 264 320 382
#     4   9  20  38  59  94 127 166 205 267 324 391
#
# _framework density 23.178201000000001
#
# number of rings (size 3 to 8) (size 9 to 14) (size 15 to 20)
#    0.000    2.000    0.000    3.500    7.000    2.000 
#    3.000    0.000    0.000    0.000    0.000    0.000 
#    0.000    0.000    0.000    0.000    0.000    0.000 
#
# Total GULP energy -66839.191760 kJ/mol
# GULP energy per Si atom -5569.932647 kJ/mol
# Density = 2.312545 g / cm^3
# Si number density = 23.178201 Si / 1000 Ang^3
#
#
#
# Elastic Constant Matrix: (Units=GPa)
#
#
# Indices 1 2 3 4 5 6 
#
# 1 140.9728 64.6010 -12.3625 0.0000 -14.6371 0.0000
# 2 64.6010 118.9495 3.3635 0.0000 -0.3711 0.0000
# 3 -12.3625 3.3635 44.0511 0.0000 -1.9069 0.0000
# 4 0.0000 0.0000 0.0000 3.4308 0.0000 -6.5382
# 5 -14.6371 -0.3711 -1.9069 0.0000 33.6586 0.0000
# 6 0.0000 0.0000 0.0000 -6.5382 0.0000 50.7030
#
#
#
# Elastic Compliance Matrix: (Units=1/GPa)
#
#
# Indices 1 2 3 4 5 6 
#
# 1 0.010575 -0.005831 0.003618 0.000000 0.004739 0.000000
# 2 -0.005831 0.011640 -0.002636 0.000000 -0.002557 0.000000
# 3 0.003618 -0.002636 0.024043 0.000000 0.002906 0.000000
# 4 0.000000 0.000000 0.000000 0.386444 0.000000 0.049832
# 5 0.004739 -0.002557 0.002906 0.000000 0.031908 0.000000
# 6 0.000000 0.000000 0.000000 0.049832 0.000000 0.026149
#
#
# Mechanical properties :
#
#
# Convention : Reuss Voigt Hill
#
# Bulk Modulus (GPa) = 27.35116 46.13085 36.74100
# Shear Modulus (GPa) = 9.75339 34.11657 21.93498
#
# Velocity S-wave (km/s) = 2.05357 3.84073 3.07964
# Velocity P-wave (km/s) = 4.17718 6.29398 5.34149
#
# Compressibility (1/GPa) = 0.03656153
#
# Stress axis : x y z
#
# Youngs Moduli (GPa) = 94.56392 85.90983 41.59159
#
# Poissons Ratio (x) = 0.50091 -0.15048
# Poissons Ratio (y) = 0.55137 0.10963
# Poissons Ratio (z) = -0.34214 0.22644
#
# Static dielectric constant tensor:
#      x y z
#    x 1.914040 0.000000 -0.011620 
#    y 0.000000 2.009540 0.000000 
#    z -0.011620 0.000000 1.787130 
# 
# From -- ./inp_files/30288.got.cif
#   From: 2010.05.17/outbox.cif.g08.bks.cpg/sg5_16_cif.got.tgz:30288.got - 2010.06.03 18:56:24.
