data_PCOD9124533
_publ_section_title
;
Structure prediction by ZEFSAII (Michael W. Deem and Ramdas Pophale) SiO2 
 PCOD9124533
Probable space group: C 2
;
_chemical_formula_sum "Si O2"
_cell_formula_units_Z 30
_cell_length_a 14.732924
_cell_length_b 5.625380
_cell_length_c 16.233945
_cell_angle_alpha 90.000000
_cell_angle_beta 62.162239
_cell_angle_gamma 90.000000
_cell_volume 1189.738318
_symmetry_space_group_name_H-M "C 2"
_symmetry_group_IT_number 5
_symmetry_cell_setting 'monoclinic'
loop_
_space_group_symop_operation_xyz
x,y,z
-x,y,-z
1/2+x,1/2+y,z
1/2-x,1/2+y,-z
loop_
_atom_site_type_symbol
_atom_site_label
_atom_site_fract_x
_atom_site_fract_y
_atom_site_fract_z
Si Si1 0.343330 0.485680 0.969615
Si Si2 0.180486 0.593626 0.466595
Si Si3 0.355861 0.995765 0.188689
Si Si4 0.000000 0.912466 0.500000
Si Si5 0.921108 0.302112 0.639971
Si Si6 0.258709 0.494043 0.192122
Si Si7 0.613783 0.985065 0.008906
Si Si8 0.631278 0.868731 0.639884
O O1 0.297622 0.487914 0.081732
O O2 0.405912 0.238671 0.938174
O O3 0.406239 0.731969 0.938142
O O4 0.242200 0.487806 0.955318
O O5 0.126896 0.428652 0.419717
O O6 0.203251 0.534237 0.552551
O O7 0.089287 0.783776 0.511432
O O8 0.292194 0.649109 0.382267
O O9 0.314977 0.265801 0.209376
O O10 0.414587 0.983908 0.076256
O O11 0.405278 0.954381 0.256343
O O12 0.280018 0.764581 0.212340
O O13 0.069115 0.037432 0.399314
O O14 0.856450 0.406606 0.743055
O O15 0.037416 0.340084 0.618249
#
# Coordination Sequence:
#
# PCOD9124533 Si02
#       8
#     4   4   4   2   4   4   4   4
#     4   8  14  27  50  78 111 148 191 231 293 353
#     4  12  25  43  59  87 115 158 210 252 317 371
#     4  10  21  36  58  86 119 153 200 248 301 361
#     4  12  22  44  64  80 118 158 206 266 302 372
#     4  12  24  42  58  85 118 155 203 260 304 369
#     4  10  21  37  57  85 119 156 194 250 300 362
#     4   8  14  27  49  80 111 146 190 240 283 355
#     4  12  24  40  61  85 116 159 202 254 314 370
#
# _framework density 25.215630999999998
#
# number of rings (size 3 to 8) (size 9 to 14) (size 15 to 20)
#    0.000    1.600    4.000    1.600    1.867    1.067 
#    0.000    0.000    0.000    0.800    0.000    0.000 
#    0.000   21.333    0.000    0.000    0.000    3.200 
#
# Total GULP energy -83541.996981 kJ/mol
# GULP energy per Si atom -5569.466465 kJ/mol
# Density = 2.515824 g / cm^3
# Si number density = 25.215631 Si / 1000 Ang^3
#
#
#
# Elastic Constant Matrix: (Units=GPa)
#
#
# Indices 1 2 3 4 5 6 
#
# 1 84.1905 21.4276 34.1363 0.0001 10.8548 0.0005
# 2 21.4276 134.0629 8.4489 0.0001 4.1610 0.0012
# 3 34.1363 8.4489 85.0051 -0.0001 16.5179 0.0000
# 4 0.0001 0.0001 -0.0001 27.8779 -0.0001 3.2552
# 5 10.8548 4.1610 16.5179 -0.0001 38.7893 0.0001
# 6 0.0005 0.0012 0.0000 3.2552 0.0001 29.5065
#
#
#
# Elastic Compliance Matrix: (Units=1/GPa)
#
#
# Indices 1 2 3 4 5 6 
#
# 1 0.014789 -0.001972 -0.005429 0.000000 -0.001615 0.000000
# 2 -0.001972 0.007779 0.000080 0.000000 -0.000317 0.000000
# 3 -0.005429 0.000080 0.014873 0.000000 -0.004823 0.000000
# 4 0.000000 0.000000 0.000000 0.036339 0.000000 -0.004009
# 5 -0.001615 -0.000317 -0.004823 0.000000 0.028320 0.000000
# 6 0.000000 0.000000 0.000000 -0.004009 0.000000 0.034333
#
#
# Mechanical properties :
#
#
# Convention : Reuss Voigt Hill
#
# Bulk Modulus (GPa) = 43.85865 47.92045 45.88955
# Shear Modulus (GPa) = 31.51089 35.18444 33.34766
#
# Velocity S-wave (km/s) = 3.53888 3.73948 3.64056
# Velocity P-wave (km/s) = 5.84204 6.13926 5.99249
#
# Compressibility (1/GPa) = 0.02280052
#
# Stress axis : x y z
#
# Youngs Moduli (GPa) = 67.61689 128.54986 67.23369
#
# Poissons Ratio (x) = 0.25344 0.36503
# Poissons Ratio (y) = 0.13331 -0.00539
# Poissons Ratio (z) = 0.36711 -0.01030
#
# Static dielectric constant tensor:
#      x y z
#    x 2.085190 0.000000 -0.090840 
#    y 0.000000 2.222380 0.000000 
#    z -0.090840 0.000000 1.979670 
# 
# From -- ./inp_files/61103.got.cif
#   From: 2010.05.17/outbox.cif.g08.bks.cpg/sg5_31_cif.got.tgz:61103.got - 2010.06.03 18:56:24.
