data_PCOD9124378
_publ_section_title
;
Structure prediction by ZEFSAII (Michael W. Deem and Ramdas Pophale) SiO2 
 PCOD9124378
Probable space group: C 2
;
_chemical_formula_sum "Si O2"
_cell_formula_units_Z 22
_cell_length_a 5.787446
_cell_length_b 22.227562
_cell_length_c 7.529162
_cell_angle_alpha 90.000000
_cell_angle_beta 99.738348
_cell_angle_gamma 90.000000
_cell_volume 954.601084
_symmetry_space_group_name_H-M "C 2"
_symmetry_group_IT_number 5
_symmetry_cell_setting 'monoclinic'
loop_
_space_group_symop_operation_xyz
x,y,z
-x,y,-z
1/2+x,1/2+y,z
1/2-x,1/2+y,-z
loop_
_atom_site_type_symbol
_atom_site_label
_atom_site_fract_x
_atom_site_fract_y
_atom_site_fract_z
Si Si1 0.049369 0.200150 0.802058
Si Si2 0.000000 0.722720 0.000000
Si Si3 0.500000 0.394984 0.500000
Si Si4 0.775466 0.096548 0.594643
Si Si5 0.722102 0.812556 0.221640
Si Si6 0.670734 0.477719 0.192594
Si Si7 0.500000 0.914126 0.000000
O O1 0.325485 0.186029 0.846234
O O2 0.867990 0.162160 0.664980
O O3 0.005264 0.271252 0.766807
O O4 0.000000 0.186283 0.000000
O O5 0.123474 0.765376 0.869856
O O6 0.307166 0.347449 0.405353
O O7 0.585299 0.437453 0.348582
O O8 0.500000 0.097315 0.500000
O O9 0.000000 0.077481 0.500000
O O10 0.793602 0.046594 0.749344
O O11 0.696685 0.867395 0.082321
O O12 0.500000 0.474093 0.000000
O O13 0.918394 0.452500 0.155227
#
# Coordination Sequence:
#
# PCOD9124378 Si02
#       7
#     4   2   2   4   4   4   2
#     4  10  24  46  76 109 153 211 260 329 404 481
#     4  10  20  44  77 108 157 206 266 308 426 474
#     4  12  26  44  76 110 160 200 264 328 396 480
#     4  12  31  53  78 115 160 208 281 338 401 479
#     4  11  23  42  71 117 150 204 254 328 398 488
#     4  12  28  52  76 110 155 219 263 336 399 479
#     4  12  24  46  81 108 163 202 266 324 408 478
#
# _framework density 23.046275999999999
#
# number of rings (size 3 to 8) (size 9 to 14) (size 15 to 20)
#    0.000    0.727    5.455    1.636   11.455    0.000 
#    0.000    0.000    0.000    0.000    0.000    0.000 
#    0.000    0.000    0.000    0.000    0.000    0.000 
#
# Total GULP energy -61255.451489 kJ/mol
# GULP energy per Si atom -5568.677408 kJ/mol
# Density = 2.299382 g / cm^3
# Si number density = 23.046276 Si / 1000 Ang^3
#
#
#
# Elastic Constant Matrix: (Units=GPa)
#
#
# Indices 1 2 3 4 5 6 
#
# 1 97.2335 34.0593 41.4014 0.0000 10.6645 0.0000
# 2 34.0593 96.8205 39.6245 0.0000 5.5454 0.0000
# 3 41.4014 39.6245 105.5149 0.0000 11.8311 0.0000
# 4 0.0000 0.0000 0.0000 38.7939 0.0000 -1.3789
# 5 10.6645 5.5454 11.8311 0.0000 42.9061 0.0000
# 6 0.0000 0.0000 0.0000 -1.3789 0.0000 19.7641
#
#
#
# Elastic Compliance Matrix: (Units=1/GPa)
#
#
# Indices 1 2 3 4 5 6 
#
# 1 0.013157 -0.002948 -0.003851 0.000000 -0.001828 0.000000
# 2 -0.002948 0.012869 -0.003686 0.000000 0.000086 0.000000
# 3 -0.003851 -0.003686 0.012601 0.000000 -0.002041 0.000000
# 4 0.000000 0.000000 0.000000 0.025841 0.000000 0.001803
# 5 -0.001828 0.000086 -0.002041 0.000000 0.024313 0.000000
# 6 0.000000 0.000000 0.000000 0.001803 0.000000 0.050722
#
#
# Mechanical properties :
#
#
# Convention : Reuss Voigt Hill
#
# Bulk Modulus (GPa) = 56.62847 58.85994 57.74421
# Shear Modulus (GPa) = 30.05564 32.59174 31.32369
#
# Velocity S-wave (km/s) = 3.61521 3.76465 3.69068
# Velocity P-wave (km/s) = 6.48470 6.67024 6.57812
#
# Compressibility (1/GPa) = 0.01765896
#
# Stress axis : x y z
#
# Youngs Moduli (GPa) = 76.00462 77.70711 79.35760
#
# Poissons Ratio (x) = 0.22907 0.30557
# Poissons Ratio (y) = 0.22405 0.29248
# Poissons Ratio (z) = 0.29266 0.28640
#
# Static dielectric constant tensor:
#      x y z
#    x 2.149510 0.000000 0.080280 
#    y 0.000000 1.803880 0.000000 
#    z 0.080280 0.000000 1.972070 
# 
# From -- ./inp_files/12595.got.cif
#   From: 2010.05.17/outbox.cif.g08.bks.cpg/sg5_7_cif.got.tgz:12595.got - 2010.06.03 18:56:24.
