data_PCOD9124382
_publ_section_title
;
Structure prediction by ZEFSAII (Michael W. Deem and Ramdas Pophale) SiO2 
 PCOD9124382
Probable space group: C 2
;
_chemical_formula_sum "Si O2"
_cell_formula_units_Z 16
_cell_length_a 10.342648
_cell_length_b 8.458185
_cell_length_c 7.240502
_cell_angle_alpha 90.000000
_cell_angle_beta 116.638863
_cell_angle_gamma 90.000000
_cell_volume 566.164198
_symmetry_space_group_name_H-M "C 2"
_symmetry_group_IT_number 5
_symmetry_cell_setting 'monoclinic'
loop_
_space_group_symop_operation_xyz
x,y,z
-x,y,-z
1/2+x,1/2+y,z
1/2-x,1/2+y,-z
loop_
_atom_site_type_symbol
_atom_site_label
_atom_site_fract_x
_atom_site_fract_y
_atom_site_fract_z
Si Si1 0.697718 0.161010 0.803416
Si Si2 0.581590 0.504288 0.822189
Si Si3 0.000000 0.273394 0.500000
Si Si4 0.308859 0.292478 0.599841
Si Si5 0.500000 0.108406 0.000000
O O1 0.679327 0.347069 0.848269
O O2 0.675164 0.184089 0.571334
O O3 0.585195 0.061386 0.862557
O O4 0.850198 0.078084 0.947040
O O5 0.576708 0.659258 0.695596
O O6 0.425695 0.431474 0.667243
O O7 0.143354 0.349393 0.504260
O O8 0.369735 0.201339 0.817647
#
# Coordination Sequence:
#
# PCOD9124382 Si02
#       5
#     4   4   2   4   2
#     4  11  24  47  87 124 173 223 275 358 425 503
#     4  11  24  53  85 124 172 219 291 348 421 519
#     4  12  24  50  86 122 172 224 280 356 422 508
#     4  11  25  47  85 123 172 224 275 355 425 500
#     4  10  20  44  80 124 156 210 282 338 406 504
#
# _framework density 28.260354
#
# number of rings (size 3 to 8) (size 9 to 14) (size 15 to 20)
#    0.000    1.000    5.000    2.250    0.000    9.000 
#    0.000    7.500    0.000    0.000    0.000    0.000 
#    0.000    0.000    0.000    0.000    0.000    0.000 
#
# Total GULP energy -44565.214106 kJ/mol
# GULP energy per Si atom -5570.651763 kJ/mol
# Density = 2.819603 g / cm^3
# Si number density = 28.260354 Si / 1000 Ang^3
#
#
#
# Elastic Constant Matrix: (Units=GPa)
#
#
# Indices 1 2 3 4 5 6 
#
# 1 204.7805 45.1206 70.6120 0.0000 44.8896 0.0000
# 2 45.1206 132.8471 64.3211 0.0000 15.7328 0.0000
# 3 70.6120 64.3211 200.8404 0.0000 -14.1747 0.0000
# 4 0.0000 0.0000 0.0000 59.1117 0.0000 18.9185
# 5 44.8896 15.7328 -14.1747 0.0000 71.0631 0.0000
# 6 0.0000 0.0000 0.0000 18.9185 0.0000 36.0896
#
#
#
# Elastic Compliance Matrix: (Units=1/GPa)
#
#
# Indices 1 2 3 4 5 6 
#
# 1 0.006952 -0.000528 -0.002614 0.000000 -0.004796 0.000000
# 2 -0.000528 0.009440 -0.003004 0.000000 -0.002356 0.000000
# 3 -0.002614 -0.003004 0.007124 0.000000 0.003737 0.000000
# 4 0.000000 0.000000 0.000000 0.020327 0.000000 -0.010656
# 5 -0.004796 -0.002356 0.003737 0.000000 0.018369 0.000000
# 6 0.000000 0.000000 0.000000 -0.010656 0.000000 0.033295
#
#
# Mechanical properties :
#
#
# Convention : Reuss Voigt Hill
#
# Bulk Modulus (GPa) = 89.08574 99.84171 94.46372
# Shear Modulus (GPa) = 44.82709 57.14716 50.98712
#
# Velocity S-wave (km/s) = 3.98706 4.50173 4.25219
# Velocity P-wave (km/s) = 7.26548 7.90106 7.58992
#
# Compressibility (1/GPa) = 0.01122514
#
# Stress axis : x y z
#
# Youngs Moduli (GPa) = 143.83987 105.93040 140.37376
#
# Poissons Ratio (x) = 0.05591 0.36690
# Poissons Ratio (y) = 0.07591 0.42168
# Poissons Ratio (z) = 0.37596 0.31822
#
# Static dielectric constant tensor:
#      x y z
#    x 2.185660 0.000000 -0.001360 
#    y 0.000000 2.203410 0.000000 
#    z -0.001360 0.000000 2.029820 
# 
# From -- ./inp_files/18428.got.cif
#   From: 2010.05.17/outbox.cif.g08.bks.cpg/sg5_10_cif.got.tgz:18428.got - 2010.06.03 18:56:24.
