data_PCOD9124915
_publ_section_title
;
Structure prediction by ZEFSAII (Michael W. Deem and Ramdas Pophale) SiO2 
 PCOD9124915
Probable space group: C 2
;
_chemical_formula_sum "Si O2"
_cell_formula_units_Z 26
_cell_length_a 16.368912
_cell_length_b 5.887159
_cell_length_c 21.815873
_cell_angle_alpha 90.000000
_cell_angle_beta 33.997927
_cell_angle_gamma 90.000000
_cell_volume 1175.537616
_symmetry_space_group_name_H-M "C 2"
_symmetry_group_IT_number 5
_symmetry_cell_setting 'monoclinic'
loop_
_space_group_symop_operation_xyz
x,y,z
-x,y,-z
1/2+x,1/2+y,z
1/2-x,1/2+y,-z
loop_
_atom_site_type_symbol
_atom_site_label
_atom_site_fract_x
_atom_site_fract_y
_atom_site_fract_z
Si Si1 0.549805 0.083600 0.141994
Si Si2 0.000000 0.580749 0.500000
Si Si3 0.599115 0.226151 0.307898
Si Si4 0.073809 0.188670 0.862979
Si Si5 0.273132 0.321382 0.312478
Si Si6 0.640524 0.713107 0.263444
Si Si7 0.311298 0.382876 0.048459
O O1 0.396544 0.167828 0.265600
O O2 0.499866 0.902144 0.122587
O O3 0.660467 0.002439 0.124200
O O4 0.640266 0.258077 0.043967
O O5 0.049823 0.723295 0.410083
O O6 0.135114 0.417355 0.434029
O O7 0.777077 0.232772 0.192957
O O8 0.555891 0.473163 0.307237
O O9 0.562910 0.964274 0.310253
O O10 0.134562 0.034774 0.769539
O O11 0.945267 0.051249 0.975277
O O12 0.209679 0.209945 0.289132
O O13 0.769913 0.730471 0.132541
#
# Coordination Sequence:
#
# PCOD9124915 Si02
#       7
#     4   2   4   4   4   4   4
#     4  11  20  36  56  84 126 167 221 234 302 388
#     4   8  18  38  66  92 118 158 198 278 326 364
#     4  10  21  39  60  93 123 150 213 261 324 365
#     4   9  19  36  50  83 117 161 210 245 291 378
#     4   9  20  38  58  92 119 149 215 261 319 364
#     4  10  22  38  55  91 125 158 200 264 310 370
#     4  11  23  34  56  84 128 180 201 255 305 375
#
# _framework density 22.117542
#
# number of rings (size 3 to 8) (size 9 to 14) (size 15 to 20)
#    0.000    2.462    3.077    0.000    2.154    8.000 
#    0.000    0.000    0.000    0.000   32.000    0.000 
#    0.000    0.000    0.000    0.000    0.000    0.000 
#
# Total GULP energy -72393.760687 kJ/mol
# GULP energy per Si atom -5568.750822 kJ/mol
# Density = 2.206720 g / cm^3
# Si number density = 22.117542 Si / 1000 Ang^3
#
#
#
# Elastic Constant Matrix: (Units=GPa)
#
#
# Indices 1 2 3 4 5 6 
#
# 1 45.6460 14.8152 20.3314 -0.0002 -10.8344 0.0011
# 2 14.8152 118.9018 33.5849 -0.0187 -7.7396 -0.0040
# 3 20.3314 33.5849 124.2271 -0.0016 -3.1147 -0.0028
# 4 -0.0002 -0.0187 -0.0016 26.2392 0.0027 -3.4256
# 5 -10.8344 -7.7396 -3.1147 0.0027 25.9508 0.0009
# 6 0.0011 -0.0040 -0.0028 -3.4256 0.0009 13.3176
#
#
#
# Elastic Compliance Matrix: (Units=1/GPa)
#
#
# Indices 1 2 3 4 5 6 
#
# 1 0.026456 -0.001609 -0.003641 -0.000003 0.010128 -0.000005
# 2 -0.001609 0.009359 -0.002220 0.000007 0.001853 0.000004
# 3 -0.003641 -0.002220 0.009219 -0.000001 -0.001076 0.000001
# 4 -0.000003 0.000007 -0.000001 0.039435 -0.000004 0.010144
# 5 0.010128 0.001853 -0.001076 -0.000004 0.043187 -0.000004
# 6 -0.000005 0.000004 0.000001 0.010144 -0.000004 0.077698
#
#
# Mechanical properties :
#
#
# Convention : Reuss Voigt Hill
#
# Bulk Modulus (GPa) = 33.23015 47.35976 40.29495
# Shear Modulus (GPa) = 21.70858 27.77108 24.73983
#
# Velocity S-wave (km/s) = 3.13630 3.54731 3.34812
# Velocity P-wave (km/s) = 5.30775 6.18362 5.76235
#
# Compressibility (1/GPa) = 0.03009315
#
# Stress axis : x y z
#
# Youngs Moduli (GPa) = 37.79917 106.85454 108.47205
#
# Poissons Ratio (x) = 0.17189 0.39494
# Poissons Ratio (y) = 0.06081 0.24085
# Poissons Ratio (z) = 0.13762 0.23725
#
# Static dielectric constant tensor:
#      x y z
#    x 1.845310 -0.000020 0.003150 
#    y -0.000020 1.946530 0.000000 
#    z 0.003150 0.000000 1.786920 
# 
# From -- ./inp_files/69312.got.cif
#   From: 2010.05.17/outbox.cif.g08.bks.cpg/sg5_35_cif.got.tgz:69312.got - 2010.06.03 18:56:24.
