data_PCOD9124396
_publ_section_title
;
Structure prediction by ZEFSAII (Michael W. Deem and Ramdas Pophale) SiO2 
 PCOD9124396
Probable space group: C 2
;
_chemical_formula_sum "Si O2"
_cell_formula_units_Z 26
_cell_length_a 14.939669
_cell_length_b 10.717257
_cell_length_c 7.434649
_cell_angle_alpha 90.000000
_cell_angle_beta 79.281248
_cell_angle_gamma 90.000000
_cell_volume 1169.608793
_symmetry_space_group_name_H-M "C 2"
_symmetry_group_IT_number 5
_symmetry_cell_setting 'monoclinic'
loop_
_space_group_symop_operation_xyz
x,y,z
-x,y,-z
1/2+x,1/2+y,z
1/2-x,1/2+y,-z
loop_
_atom_site_type_symbol
_atom_site_label
_atom_site_fract_x
_atom_site_fract_y
_atom_site_fract_z
Si Si1 0.197053 0.536090 0.746798
Si Si2 0.709694 0.542817 0.639760
Si Si3 0.845267 0.805276 0.161621
Si Si4 0.990956 0.150527 0.289854
Si Si5 0.500000 0.469603 0.000000
Si Si6 0.840527 0.614942 0.871178
Si Si7 0.995411 0.438046 0.287032
O O1 0.276178 0.514598 0.575294
O O2 0.165181 0.679296 0.724141
O O3 0.108090 0.455412 0.739040
O O4 0.216048 0.539550 0.952286
O O5 0.721027 0.410341 0.738625
O O6 0.615506 0.616115 0.708536
O O7 0.791215 0.619258 0.700029
O O8 0.843172 0.751976 0.959339
O O9 0.939223 0.877551 0.140000
O O10 0.018727 0.293314 0.240887
O O11 0.000000 0.128646 0.500000
O O12 0.044669 0.061012 0.131723
O O13 0.936133 0.540635 0.822264
O O14 0.000000 0.454423 0.500000
#
# Coordination Sequence:
#
# PCOD9124396 Si02
#       7
#     4   4   4   4   2   4   4
#     4  10  23  40  65  93 132 171 214 273 329 386
#     4  11  23  45  63  99 131 174 214 274 342 380
#     4   9  23  42  61  92 131 159 226 269 304 417
#     4  10  26  42  65  96 131 171 217 274 326 395
#     4  10  20  46  64  86 130 170 216 266 332 380
#     4  10  23  42  66  96 131 175 218 273 329 382
#     4  11  21  41  69 101 132 170 228 269 316 402
#
# _framework density 22.229652999999999
#
# number of rings (size 3 to 8) (size 9 to 14) (size 15 to 20)
#    0.923    0.923    1.538    1.385    4.308    3.692 
#    8.308    0.769    0.000    0.000    0.000    0.000 
#    0.000    0.000    0.000    0.000    0.000    0.000 
#
# Total GULP energy -72378.261320 kJ/mol
# GULP energy per Si atom -5567.558563 kJ/mol
# Density = 2.217906 g / cm^3
# Si number density = 22.229653 Si / 1000 Ang^3
#
#
#
# Elastic Constant Matrix: (Units=GPa)
#
#
# Indices 1 2 3 4 5 6 
#
# 1 32.7235 -10.4759 -4.1914 0.0000 -5.4449 0.0000
# 2 -10.4759 92.0795 20.3606 0.0000 -5.1690 0.0000
# 3 -4.1914 20.3606 89.8803 0.0000 -6.2923 0.0000
# 4 0.0000 0.0000 0.0000 11.6167 0.0000 6.4849
# 5 -5.4449 -5.1690 -6.2923 0.0000 31.4363 0.0000
# 6 0.0000 0.0000 0.0000 6.4849 0.0000 14.0033
#
#
#
# Elastic Compliance Matrix: (Units=1/GPa)
#
#
# Indices 1 2 3 4 5 6 
#
# 1 0.033041 0.003880 0.001123 0.000000 0.006586 0.000000
# 2 0.003880 0.011948 -0.002374 0.000000 0.002161 0.000000
# 3 0.001123 -0.002374 0.011869 0.000000 0.002180 0.000000
# 4 0.000000 0.000000 0.000000 0.116097 0.000000 -0.053765
# 5 0.006586 0.002161 0.002180 0.000000 0.033743 0.000000
# 6 0.000000 0.000000 0.000000 -0.053765 0.000000 0.096310
#
#
# Mechanical properties :
#
#
# Convention : Reuss Voigt Hill
#
# Bulk Modulus (GPa) = 16.09901 25.11887 20.60894
# Shear Modulus (GPa) = 15.70080 25.34391 20.52236
#
# Velocity S-wave (km/s) = 2.66051 3.38019 3.04171
# Velocity P-wave (km/s) = 4.08603 5.15350 4.65049
#
# Compressibility (1/GPa) = 0.06211564
#
# Stress axis : x y z
#
# Youngs Moduli (GPa) = 30.26547 83.69597 84.25510
#
# Poissons Ratio (x) = -0.32478 -0.09460
# Poissons Ratio (y) = -0.11744 0.20005
# Poissons Ratio (z) = -0.03398 0.19872
#
# Static dielectric constant tensor:
#      x y z
#    x 1.870380 0.000000 -0.049870 
#    y 0.000000 1.845820 0.000000 
#    z -0.049870 0.000000 1.832590 
# 
# From -- ./inp_files/23402.got.cif
#   From: 2010.05.17/outbox.cif.g08.bks.cpg/sg5_12_cif.got.tgz:23402.got - 2010.06.03 18:56:24.
