data_PCOD9124170
_publ_section_title
;
Structure prediction by ZEFSAII (Michael W. Deem and Ramdas Pophale) SiO2 
 PCOD9124170
Probable space group: C 2
;
_chemical_formula_sum "Si O2"
_cell_formula_units_Z 28
_cell_length_a 13.565770
_cell_length_b 6.879631
_cell_length_c 13.848262
_cell_angle_alpha 90.000000
_cell_angle_beta 55.520157
_cell_angle_gamma 90.000000
_cell_volume 1065.377571
_symmetry_space_group_name_H-M "C 2"
_symmetry_group_IT_number 5
_symmetry_cell_setting 'monoclinic'
loop_
_space_group_symop_operation_xyz
x,y,z
-x,y,-z
1/2+x,1/2+y,z
1/2-x,1/2+y,-z
loop_
_atom_site_type_symbol
_atom_site_label
_atom_site_fract_x
_atom_site_fract_y
_atom_site_fract_z
Si Si1 0.154013 0.050680 0.601962
Si Si2 0.597430 0.621802 0.328936
Si Si3 0.845056 0.008932 0.918097
Si Si4 0.000000 0.008250 0.000000
Si Si5 0.000000 0.770253 0.500000
Si Si6 0.265594 0.472452 0.245556
Si Si7 0.613008 0.077752 0.149193
Si Si8 0.607337 0.103331 0.626394
O O1 0.261087 0.027950 0.466679
O O2 0.044177 0.163496 0.613515
O O3 0.200173 0.107591 0.682447
O O4 0.112239 0.832149 0.649402
O O5 0.646610 0.593838 0.192997
O O6 0.587838 0.424301 0.396566
O O7 0.682375 0.789689 0.323359
O O8 0.927034 0.113399 0.953616
O O9 0.897483 0.793292 0.885226
O O10 0.708560 0.980414 0.026321
O O11 0.113417 0.912361 0.880062
O O12 0.948446 0.627139 0.448711
O O13 0.183533 0.580422 0.212116
O O14 0.481000 0.005198 0.248236
#
# Coordination Sequence:
#
# PCOD9124170 Si02
#       8
#     4   4   4   2   2   4   4   4
#     4  11  25  43  68 104 143 186 245 304 366 443
#     4  11  24  43  71 104 140 191 238 298 369 439
#     4  11  21  44  70 100 139 186 241 300 365 436
#     4  10  20  42  66  96 138 184 226 306 356 430
#     4  10  22  44  70  98 146 182 234 300 366 436
#     4  11  24  41  72 101 142 190 248 299 375 438
#     4  11  23  42  71  99 140 191 239 304 372 435
#     4  11  24  44  66 102 144 186 243 304 361 447
#
# _framework density 26.281763999999999
#
# number of rings (size 3 to 8) (size 9 to 14) (size 15 to 20)
#    0.000    1.143    4.286    2.571    6.000    0.000 
#    0.000    0.000    3.143    3.429    0.000    0.000 
#    0.000    0.000    0.000    0.000    0.000    0.000 
#
# Total GULP energy -78205.869224 kJ/mol
# GULP energy per Si atom -5586.133516 kJ/mol
# Density = 2.622195 g / cm^3
# Si number density = 26.281764 Si / 1000 Ang^3
#
#
#
# Elastic Constant Matrix: (Units=GPa)
#
#
# Indices 1 2 3 4 5 6 
#
# 1 117.4282 29.6582 58.6840 0.0000 -18.3561 0.0000
# 2 29.6582 51.8969 33.7442 0.0000 -11.6623 0.0000
# 3 58.6840 33.7442 228.1571 0.0000 -56.4806 0.0000
# 4 0.0000 0.0000 0.0000 39.0907 0.0000 -3.0289
# 5 -18.3561 -11.6623 -56.4806 0.0000 63.5272 0.0000
# 6 0.0000 0.0000 0.0000 -3.0289 0.0000 35.6629
#
#
#
# Elastic Compliance Matrix: (Units=1/GPa)
#
#
# Indices 1 2 3 4 5 6 
#
# 1 0.010771 -0.004781 -0.001936 0.000000 0.000513 0.000000
# 2 -0.004781 0.023542 -0.001954 0.000000 0.001203 0.000000
# 3 -0.001936 -0.001954 0.006338 0.000000 0.004716 0.000000
# 4 0.000000 0.000000 0.000000 0.025751 0.000000 0.002187
# 5 0.000513 0.001203 0.004716 0.000000 0.020304 0.000000
# 6 0.000000 0.000000 0.000000 0.002187 0.000000 0.028226
#
#
# Mechanical properties :
#
#
# Convention : Reuss Voigt Hill
#
# Bulk Modulus (GPa) = 42.90487 71.29498 57.09992
# Shear Modulus (GPa) = 35.70285 46.01589 40.85937
#
# Velocity S-wave (km/s) = 3.68973 4.18888 3.94720
# Velocity P-wave (km/s) = 5.87474 7.11208 6.52281
#
# Compressibility (1/GPa) = 0.02330738
#
# Stress axis : x y z
#
# Youngs Moduli (GPa) = 92.83947 42.47650 157.78960
#
# Poissons Ratio (x) = 0.20309 0.30553
# Poissons Ratio (y) = 0.44389 0.30838
# Poissons Ratio (z) = 0.17977 0.08301
#
# Static dielectric constant tensor:
#      x y z
#    x 2.220090 0.000000 0.064560 
#    y 0.000000 2.092160 0.000000 
#    z 0.064560 0.000000 2.118800 
# 
# From -- ./inp_files/54131.got.cif
#   From: 2010.05.17/outbox.cif.g08.bks.cpg/sg5_28_cif.got.tgz:54131.got - 2010.06.03 18:56:24.
