data_PCOD9124602
_publ_section_title
;
Structure prediction by ZEFSAII (Michael W. Deem and Ramdas Pophale) SiO2 
 PCOD9124602
Probable space group: C 2
;
_chemical_formula_sum "Si O2"
_cell_formula_units_Z 28
_cell_length_a 9.938509
_cell_length_b 10.520411
_cell_length_c 14.333538
_cell_angle_alpha 90.000000
_cell_angle_beta 60.922189
_cell_angle_gamma 90.000000
_cell_volume 1309.782397
_symmetry_space_group_name_H-M "C 2"
_symmetry_group_IT_number 5
_symmetry_cell_setting 'monoclinic'
loop_
_space_group_symop_operation_xyz
x,y,z
-x,y,-z
1/2+x,1/2+y,z
1/2-x,1/2+y,-z
loop_
_atom_site_type_symbol
_atom_site_label
_atom_site_fract_x
_atom_site_fract_y
_atom_site_fract_z
Si Si1 0.844583 0.478150 0.110456
Si Si2 0.963587 0.801906 0.620342
Si Si3 0.917755 0.185355 0.816799
Si Si4 0.215909 0.196891 0.827951
Si Si5 0.399555 0.057799 0.440114
Si Si6 0.954628 0.073201 0.408519
Si Si7 0.443268 0.970547 0.789827
O O1 0.720330 0.585481 0.129534
O O2 0.789147 0.331461 0.116105
O O3 0.909182 0.492085 0.193868
O O4 0.000000 0.495883 0.000000
O O5 0.805867 0.735000 0.701782
O O6 0.000000 0.820109 0.500000
O O7 0.090111 0.699551 0.609480
O O8 0.965150 0.943808 0.655805
O O9 0.873473 0.333729 0.839208
O O10 0.045440 0.159253 0.853618
O O11 0.998682 0.170292 0.687653
O O12 0.317555 0.083789 0.837118
O O13 0.500000 0.058649 0.500000
O O14 0.224412 0.035952 0.524582
O O15 0.483763 0.968982 0.338102
O O16 0.000000 0.107331 0.500000
#
# Coordination Sequence:
#
# PCOD9124602 Si02
#       7
#     4   4   4   4   4   4   4
#     4  11  25  46  68  93 124 162 212 273 332 383
#     4   9  18  34  58  84 126 170 207 245 300 368
#     4  11  23  41  65  94 128 166 211 268 317 380
#     4  10  22  45  67  92 126 171 209 259 320 382
#     4  10  21  37  56  89 130 173 210 253 301 371
#     4  11  21  33  58  89 127 172 212 253 307 369
#     4  10  24  42  65  95 135 162 214 265 311 377
#
# _framework density 21.377597000000002
#
# number of rings (size 3 to 8) (size 9 to 14) (size 15 to 20)
#    0.000    1.714    1.429    3.429    8.000    4.000 
#    7.714    0.714    0.000    0.000    0.000    0.000 
#    0.000    0.000    0.000    0.000    0.000    0.000 
#
# Total GULP energy -78089.847597 kJ/mol
# GULP energy per Si atom -5577.846257 kJ/mol
# Density = 2.132894 g / cm^3
# Si number density = 21.377597 Si / 1000 Ang^3
#
#
#
# Elastic Constant Matrix: (Units=GPa)
#
#
# Indices 1 2 3 4 5 6 
#
# 1 125.0942 72.8535 11.0689 0.0000 -17.4406 0.0000
# 2 72.8535 151.3757 2.8219 0.0000 -16.9466 0.0000
# 3 11.0689 2.8219 37.7540 0.0000 -15.7731 0.0000
# 4 0.0000 0.0000 0.0000 12.1539 0.0000 -8.8835
# 5 -17.4406 -16.9466 -15.7731 0.0000 29.5657 0.0000
# 6 0.0000 0.0000 0.0000 -8.8835 0.0000 32.0582
#
#
#
# Elastic Compliance Matrix: (Units=1/GPa)
#
#
# Indices 1 2 3 4 5 6 
#
# 1 0.011599 -0.005226 -0.001805 0.000000 0.002884 0.000000
# 2 -0.005226 0.009480 0.002324 0.000000 0.003591 0.000000
# 3 -0.001805 0.002324 0.034685 0.000000 0.018771 0.000000
# 4 0.000000 0.000000 0.000000 0.103176 0.000000 0.028591
# 5 0.002884 0.003591 0.018771 0.000000 0.047597 0.000000
# 6 0.000000 0.000000 0.000000 0.028591 0.000000 0.039116
#
#
# Mechanical properties :
#
#
# Convention : Reuss Voigt Hill
#
# Bulk Modulus (GPa) = 21.57526 54.19028 37.88277
# Shear Modulus (GPa) = 18.48306 29.92086 24.20196
#
# Velocity S-wave (km/s) = 2.94360 3.74523 3.36835
# Velocity P-wave (km/s) = 4.65483 6.64127 5.73471
#
# Compressibility (1/GPa) = 0.04634938
#
# Stress axis : x y z
#
# Youngs Moduli (GPa) = 86.21183 105.48658 28.83065
#
# Poissons Ratio (x) = 0.55127 0.05205
# Poissons Ratio (y) = 0.45054 -0.06699
# Poissons Ratio (z) = 0.15564 -0.24512
#
# Static dielectric constant tensor:
#      x y z
#    x 1.761870 0.000000 0.012580 
#    y 0.000000 1.855910 0.000000 
#    z 0.012580 0.000000 1.923790 
# 
# From -- ./inp_files/50261.got.cif
#   From: 2010.05.17/outbox.cif.g08.bks.cpg/sg5_26_cif.got.tgz:50261.got - 2010.06.03 18:56:24.
