data_PCOD9124114
_publ_section_title
;
Structure prediction by ZEFSAII (Michael W. Deem and Ramdas Pophale) SiO2 
 PCOD9124114
Probable space group: C 2
;
_chemical_formula_sum "Si O2"
_cell_formula_units_Z 32
_cell_length_a 11.515180
_cell_length_b 7.244436
_cell_length_c 17.791344
_cell_angle_alpha 90.000000
_cell_angle_beta 91.206586
_cell_angle_gamma 90.000000
_cell_volume 1483.842347
_symmetry_space_group_name_H-M "C 2"
_symmetry_group_IT_number 5
_symmetry_cell_setting 'monoclinic'
loop_
_space_group_symop_operation_xyz
x,y,z
-x,y,-z
1/2+x,1/2+y,z
1/2-x,1/2+y,-z
loop_
_atom_site_type_symbol
_atom_site_label
_atom_site_fract_x
_atom_site_fract_y
_atom_site_fract_z
Si Si1 0.071753 0.125000 0.257667
Si Si2 0.144032 0.985135 0.657603
Si Si3 0.874007 0.273918 0.470544
Si Si4 0.738042 0.119296 0.611405
Si Si5 0.866255 0.582017 0.992670
Si Si6 0.200142 0.834729 0.889935
Si Si7 0.570461 0.348708 0.135878
Si Si8 0.648555 0.004721 0.238406
O O1 0.167323 0.085657 0.322617
O O2 0.055444 0.345826 0.253939
O O3 0.952054 0.036234 0.282784
O O4 0.110700 0.031345 0.180075
O O5 0.114088 0.094139 0.581545
O O6 0.271991 0.047564 0.688412
O O7 0.147755 0.766932 0.643491
O O8 0.798603 0.222331 0.542094
O O9 0.816897 0.433514 0.420254
O O10 0.000000 0.335115 0.500000
O O11 0.781575 0.445310 0.948897
O O12 0.876709 0.766643 0.940394
O O13 0.815156 0.633012 0.073198
O O14 0.000000 0.513432 0.000000
O O15 0.064804 0.888343 0.882757
O O16 0.260931 0.889566 0.813069
O O17 0.595602 0.179634 0.194884
#
# Coordination Sequence:
#
# PCOD9124114 Si02
#       8
#     4   4   4   4   4   4   4   4
#     4  11  23  42  67  94 127 170 208 258 324 372
#     4  11  23  44  65  94 129 164 214 260 316 380
#     4  12  24  41  65  93 126 169 215 257 319 376
#     4  11  25  42  65  94 128 167 210 264 312 375
#     4   9  21  39  61  91 129 166 212 266 307 372
#     4  10  20  42  63  92 127 169 211 257 318 369
#     4  10  21  43  63  92 132 163 213 265 309 374
#     4  10  23  42  64  95 128 162 214 265 309 376
#
# _framework density 21.565632999999998
#
# number of rings (size 3 to 8) (size 9 to 14) (size 15 to 20)
#    0.000    1.500    3.750    0.750    1.750    2.500 
#    9.000    0.000    0.000    0.000    0.000    0.000 
#    0.000    0.000    0.000    0.000    0.000    0.000 
#
# Total GULP energy -89322.667824 kJ/mol
# GULP energy per Si atom -5582.666739 kJ/mol
# Density = 2.151655 g / cm^3
# Si number density = 21.565633 Si / 1000 Ang^3
#
#
#
# Elastic Constant Matrix: (Units=GPa)
#
#
# Indices 1 2 3 4 5 6 
#
# 1 69.5746 33.4314 10.5432 0.0000 5.9585 0.0000
# 2 33.4314 47.6918 -13.0691 0.0000 17.9174 0.0000
# 3 10.5432 -13.0691 48.8102 0.0000 13.9517 0.0000
# 4 0.0000 0.0000 0.0000 39.2283 0.0000 -6.0065
# 5 5.9585 17.9174 13.9517 0.0000 43.4615 0.0000
# 6 0.0000 0.0000 0.0000 -6.0065 0.0000 16.3276
#
#
#
# Elastic Compliance Matrix: (Units=1/GPa)
#
#
# Indices 1 2 3 4 5 6 
#
# 1 0.033392 -0.035793 -0.021697 0.000000 0.017143 0.000000
# 2 -0.035793 0.069313 0.036395 0.000000 -0.035351 0.000000
# 3 -0.021697 0.036395 0.042233 0.000000 -0.025587 0.000000
# 4 0.000000 0.000000 0.000000 0.027013 0.000000 0.009938
# 5 0.017143 -0.035351 -0.025587 0.000000 0.043446 0.000000
# 6 0.000000 0.000000 0.000000 0.009938 0.000000 0.064902
#
#
# Mechanical properties :
#
#
# Convention : Reuss Voigt Hill
#
# Bulk Modulus (GPa) = 9.73259 25.32082 17.52671
# Shear Modulus (GPa) = 14.01586 28.81489 21.41538
#
# Velocity S-wave (km/s) = 2.55211 3.65930 3.15466
# Velocity P-wave (km/s) = 3.63417 5.44250 4.62752
#
# Compressibility (1/GPa) = 0.10274754
#
# Stress axis : x y z
#
# Youngs Moduli (GPa) = 29.94735 14.42725 23.67833
#
# Poissons Ratio (x) = 0.51640 0.51374
# Poissons Ratio (y) = 1.07192 -0.86177
# Poissons Ratio (z) = 0.64976 -0.52508
#
# Static dielectric constant tensor:
#      x y z
#    x 1.778900 0.000000 -0.022560 
#    y 0.000000 1.768740 0.000000 
#    z -0.022560 0.000000 1.813250 
# 
# From -- ./inp_files/64982.got.cif
#   From: 2010.05.17/outbox.cif.g08.bks.cpg/sg5_33_cif.got.tgz:64982.got - 2010.06.03 18:56:24.
