data_PCOD9124429
_publ_section_title
;
Structure prediction by ZEFSAII (Michael W. Deem and Ramdas Pophale) SiO2 
 PCOD9124429
Probable space group: C 2
;
_chemical_formula_sum "Si O2"
_cell_formula_units_Z 32
_cell_length_a 25.670285
_cell_length_b 5.007615
_cell_length_c 21.124318
_cell_angle_alpha 90.000000
_cell_angle_beta 133.636254
_cell_angle_gamma 90.000000
_cell_volume 1965.278530
_symmetry_space_group_name_H-M "C 2"
_symmetry_group_IT_number 5
_symmetry_cell_setting 'monoclinic'
loop_
_space_group_symop_operation_xyz
x,y,z
-x,y,-z
1/2+x,1/2+y,z
1/2-x,1/2+y,-z
loop_
_atom_site_type_symbol
_atom_site_label
_atom_site_fract_x
_atom_site_fract_y
_atom_site_fract_z
Si Si1 0.311481 0.155260 0.180684
Si Si2 0.389199 0.492332 0.442986
Si Si3 0.158042 0.545565 0.435857
Si Si4 0.211719 0.028127 0.996987
Si Si5 0.387393 0.653608 0.187415
Si Si6 0.902242 0.500147 0.368472
Si Si7 0.276369 0.545135 0.444312
Si Si8 0.980552 0.292931 0.626243
O O1 0.232165 0.101265 0.086024
O O2 0.338471 0.451882 0.187937
O O3 0.332118 0.083204 0.269284
O O4 0.360246 0.952109 0.179582
O O5 0.411868 0.212051 0.432504
O O6 0.307895 0.484275 0.401964
O O7 0.439000 0.598790 0.542278
O O8 0.395002 0.710667 0.393039
O O9 0.194307 0.500992 0.397521
O O10 0.202364 0.347149 0.519799
O O11 0.076813 0.463839 0.381954
O O12 0.176668 0.845312 0.472105
O O13 0.262567 0.231095 0.998894
O O14 0.133041 0.080231 0.901742
O O15 0.467509 0.637289 0.281651
O O16 0.967955 0.477653 0.374183
#
# Coordination Sequence:
#
# PCOD9124429 Si02
#       8
#     4   4   4   4   4   4   4   4
#     4   9  17  29  41  57  83 114 146 174 202 246
#     4  11  22  32  43  60  89 123 150 174 202 249
#     4   9  18  31  48  61  79 109 147 187 219 245
#     4   8  14  26  42  57  76 108 141 173 209 245
#     4   9  17  27  42  61  83 109 141 174 213 258
#     4  11  22  31  42  63  90 121 148 171 206 256
#     4   9  18  33  46  60  77 111 155 185 210 239
#     4  10  21  31  44  65  91 117 142 175 218 256
#
# _framework density 16.282678000000001
#
# number of rings (size 3 to 8) (size 9 to 14) (size 15 to 20)
#    0.000    2.500    0.000    3.375    0.000   12.000 
#    0.000    0.000    0.000    0.000    0.000    0.000 
#    0.000    1.000    0.000   22.125    0.000    0.000 
#
# Total GULP energy -89081.859998 kJ/mol
# GULP energy per Si atom -5567.616250 kJ/mol
# Density = 1.624562 g / cm^3
# Si number density = 16.282678 Si / 1000 Ang^3
#
#
#
# Elastic Constant Matrix: (Units=GPa)
#
#
# Indices 1 2 3 4 5 6 
#
# 1 89.9333 4.5026 7.3434 0.0030 5.4364 0.0054
# 2 4.5026 45.9319 -9.0942 -0.0026 -1.0661 0.0432
# 3 7.3434 -9.0942 93.7921 -0.0002 -3.3500 -0.0012
# 4 0.0030 -0.0026 -0.0002 13.7281 -0.0018 0.4056
# 5 5.4364 -1.0661 -3.3500 -0.0018 2.0237 0.0019
# 6 0.0054 0.0432 -0.0012 0.4056 0.0019 15.8249
#
#
#
# Elastic Compliance Matrix: (Units=1/GPa)
#
#
# Indices 1 2 3 4 5 6 
#
# 1 0.014224 -0.003029 -0.003007 -0.000010 -0.044785 0.000009
# 2 -0.003029 0.023355 0.003435 0.000011 0.026127 -0.000066
# 3 -0.003007 0.003435 0.012311 0.000006 0.030268 -0.000011
# 4 -0.000010 0.000011 0.000006 0.072899 0.000109 -0.001868
# 5 -0.044785 0.026127 0.030268 0.000109 0.678334 -0.000139
# 6 0.000009 -0.000066 -0.000011 -0.001868 -0.000139 0.063240
#
#
# Mechanical properties :
#
#
# Convention : Reuss Voigt Hill
#
# Bulk Modulus (GPa) = 22.37755 26.12898 24.25327
# Shear Modulus (GPa) = 5.65317 21.44236 13.54776
#
# Velocity S-wave (km/s) = 1.86532 3.63282 2.88763
# Velocity P-wave (km/s) = 4.29095 5.80332 5.10347
#
# Compressibility (1/GPa) = 0.04468765
#
# Stress axis : x y z
#
# Youngs Moduli (GPa) = 70.30492 42.81768 81.22530
#
# Poissons Ratio (x) = 0.12970 0.24424
# Poissons Ratio (y) = 0.21296 -0.27900
# Poissons Ratio (z) = 0.21140 -0.14707
#
# Static dielectric constant tensor:
#      x y z
#    x 1.568880 0.000000 0.013450 
#    y 0.000000 1.567290 0.000000 
#    z 0.013450 0.000000 1.622630 
# 
# From -- ./inp_files/67204.got.cif
#   From: 2010.05.17/outbox.cif.g08.bks.cpg/sg5_34_cif.got.tgz:67204.got - 2010.06.03 18:56:24.
