data_PCOD9124042
_publ_section_title
;
Structure prediction by ZEFSAII (Michael W. Deem and Ramdas Pophale) SiO2 
 PCOD9124042
Probable space group: C 2
;
_chemical_formula_sum "Si O2"
_cell_formula_units_Z 30
_cell_length_a 14.985918
_cell_length_b 7.224912
_cell_length_c 20.705123
_cell_angle_alpha 90.000000
_cell_angle_beta 146.907410
_cell_angle_gamma 90.000000
_cell_volume 1223.999647
_symmetry_space_group_name_H-M "C 2"
_symmetry_group_IT_number 5
_symmetry_cell_setting 'monoclinic'
loop_
_space_group_symop_operation_xyz
x,y,z
-x,y,-z
1/2+x,1/2+y,z
1/2-x,1/2+y,-z
loop_
_atom_site_type_symbol
_atom_site_label
_atom_site_fract_x
_atom_site_fract_y
_atom_site_fract_z
Si Si1 0.448519 0.904730 0.866785
Si Si2 0.534988 0.745684 0.264166
Si Si3 0.775965 0.546475 0.109391
Si Si4 0.369775 0.384393 0.472934
Si Si5 0.541003 0.303487 0.872191
Si Si6 0.672438 0.772635 0.630916
Si Si7 0.000000 0.144867 0.000000
Si Si8 0.614618 0.535997 0.718579
O O1 0.444990 0.784804 0.799793
O O2 0.512261 0.111212 0.894765
O O3 0.554662 0.777031 0.976573
O O4 0.277585 0.921848 0.801132
O O5 0.720301 0.753302 0.399184
O O6 0.429021 0.588972 0.234895
O O7 0.433763 0.926124 0.222075
O O8 0.658601 0.439006 0.984926
O O9 0.860673 0.725157 0.129076
O O10 0.663600 0.532635 0.105771
O O11 0.500000 0.307223 0.500000
O O12 0.311412 0.576942 0.400897
O O13 0.463333 0.431595 0.594758
O O14 0.353920 0.364263 0.740450
O O15 0.500000 0.855524 0.500000
O O16 0.637250 0.710898 0.683397
#
# Coordination Sequence:
#
# PCOD9124042 Si02
#       8
#     4   4   4   4   4   4   2   4
#     4  10  22  44  65  94 131 177 224 281 352 413
#     4  11  20  39  69  95 132 177 232 277 350 423
#     4  11  24  39  63  95 130 173 224 283 336 422
#     4   9  15  37  62  91 132 169 219 271 350 403
#     4  10  20  41  67  94 126 175 217 271 346 417
#     4   8  15  34  64  91 124 166 211 269 342 400
#     4  12  28  42  58  96 136 172 228 294 340 414
#     4   9  19  34  68  98 119 180 224 272 340 419
#
# _framework density 24.509809000000001
#
# number of rings (size 3 to 8) (size 9 to 14) (size 15 to 20)
#    0.000    2.400    5.333    1.600    5.600    0.000 
#    4.800    0.000    0.000    0.000    0.000    0.000 
#    0.000    0.000    0.000    0.000    0.000    0.000 
#
# Total GULP energy -83569.005532 kJ/mol
# GULP energy per Si atom -5571.267035 kJ/mol
# Density = 2.445402 g / cm^3
# Si number density = 24.509809 Si / 1000 Ang^3
#
#
#
# Elastic Constant Matrix: (Units=GPa)
#
#
# Indices 1 2 3 4 5 6 
#
# 1 110.9679 32.9629 39.6561 0.0000 37.6658 0.0000
# 2 32.9629 61.2667 -0.5274 0.0000 2.6014 0.0000
# 3 39.6561 -0.5274 70.4639 -0.0001 35.7956 0.0000
# 4 0.0000 0.0000 -0.0001 12.4344 0.0000 -3.3511
# 5 37.6658 2.6014 35.7956 0.0000 43.1683 0.0000
# 6 0.0000 0.0000 0.0000 -3.3511 0.0000 17.3969
#
#
#
# Elastic Compliance Matrix: (Units=1/GPa)
#
#
# Indices 1 2 3 4 5 6 
#
# 1 0.016573 -0.008499 -0.003982 0.000000 -0.010646 0.000000
# 2 -0.008499 0.020770 0.003123 0.000000 0.003575 0.000000
# 3 -0.003982 0.003123 0.025549 0.000000 -0.017899 0.000000
# 4 0.000000 0.000000 0.000000 0.084826 0.000000 0.016339
# 5 -0.010646 0.003575 -0.017899 0.000000 0.047081 0.000000
# 6 0.000000 0.000000 0.000000 0.016339 0.000000 0.060629
#
#
# Mechanical properties :
#
#
# Convention : Reuss Voigt Hill
#
# Bulk Modulus (GPa) = 22.63774 42.98686 32.81230
# Shear Modulus (GPa) = 17.30890 25.97372 21.64131
#
# Velocity S-wave (km/s) = 2.66033 3.25888 2.97470
# Velocity P-wave (km/s) = 4.32351 5.63357 5.02144
#
# Compressibility (1/GPa) = 0.04417402
#
# Stress axis : x y z
#
# Youngs Moduli (GPa) = 60.33923 48.14691 39.14070
#
# Poissons Ratio (x) = 0.40919 0.15588
# Poissons Ratio (y) = 0.51282 -0.12222
# Poissons Ratio (z) = 0.24030 -0.15034
#
# Static dielectric constant tensor:
#      x y z
#    x 2.302670 0.000000 0.199480 
#    y 0.000000 2.011690 0.000000 
#    z 0.199480 0.000000 2.116890 
# 
# From -- ./inp_files/68720.got.cif
#   From: 2010.05.17/outbox.cif.g08.bks.cpg/sg5_35_cif.got.tgz:68720.got - 2010.06.03 18:56:24.
