data_PCOD9124651
_publ_section_title
;
Structure prediction by ZEFSAII (Michael W. Deem and Ramdas Pophale) SiO2 
 PCOD9124651
Probable space group: C 2
;
_chemical_formula_sum "Si O2"
_cell_formula_units_Z 26
_cell_length_a 14.773041
_cell_length_b 16.502619
_cell_length_c 5.038289
_cell_angle_alpha 90.000000
_cell_angle_beta 111.631382
_cell_angle_gamma 90.000000
_cell_volume 1141.800306
_symmetry_space_group_name_H-M "C 2"
_symmetry_group_IT_number 5
_symmetry_cell_setting 'monoclinic'
loop_
_space_group_symop_operation_xyz
x,y,z
-x,y,-z
1/2+x,1/2+y,z
1/2-x,1/2+y,-z
loop_
_atom_site_type_symbol
_atom_site_label
_atom_site_fract_x
_atom_site_fract_y
_atom_site_fract_z
Si Si1 0.192019 0.518100 0.569359
Si Si2 0.094082 0.023899 0.260175
Si Si3 0.350529 0.308562 0.032213
Si Si4 0.723313 0.844401 0.404431
Si Si5 0.892706 0.195706 0.477532
Si Si6 0.500000 0.406091 0.500000
Si Si7 0.303992 0.127368 0.947004
O O1 0.305449 0.509426 0.771792
O O2 0.169872 0.428993 0.426110
O O3 0.185744 0.582766 0.323963
O O4 0.155570 0.563519 0.792387
O O5 0.087092 0.117159 0.324285
O O6 0.086059 0.967626 0.508355
O O7 0.000000 0.000251 0.000000
O O8 0.265608 0.335243 0.152834
O O9 0.449841 0.349003 0.231413
O O10 0.314727 0.333980 0.702978
O O11 0.359479 0.211656 0.042003
O O12 0.656313 0.768177 0.411831
O O13 0.810385 0.160214 0.181189
O O14 0.000000 0.221894 0.500000
#
# Coordination Sequence:
#
# PCOD9124651 Si02
#       7
#     4   4   4   4   4   2   4
#     4  11  21  38  62  85 120 163 205 244 299 362
#     4  11  21  34  57  90 126 153 192 248 313 366
#     4  11  23  41  58  95 124 162 200 249 310 360
#     4  11  23  39  61  91 127 160 206 244 302 366
#     4  10  21  37  60  91 124 158 199 247 308 364
#     4  12  24  36  62  92 124 156 200 254 302 368
#     4  10  22  39  62  87 120 163 202 252 299 360
#
# _framework density 22.771056000000002
#
# number of rings (size 3 to 8) (size 9 to 14) (size 15 to 20)
#    0.000    1.231    2.308    5.538    4.308    1.231 
#    0.000    0.000    1.692    0.000    0.000    0.000 
#    0.000    0.000    0.000    0.000    0.000    0.000 
#
# Total GULP energy -72566.812062 kJ/mol
# GULP energy per Si atom -5582.062466 kJ/mol
# Density = 2.271923 g / cm^3
# Si number density = 22.771056 Si / 1000 Ang^3
#
#
#
# Elastic Constant Matrix: (Units=GPa)
#
#
# Indices 1 2 3 4 5 6 
#
# 1 34.7323 18.8330 2.4606 0.0000 -1.9735 0.0000
# 2 18.8330 160.5074 27.5711 0.0000 0.8538 0.0000
# 3 2.4606 27.5711 76.1098 0.0000 -12.3043 0.0000
# 4 0.0000 0.0000 0.0000 30.3723 0.0000 -0.7971
# 5 -1.9735 0.8538 -12.3043 0.0000 25.2454 0.0000
# 6 0.0000 0.0000 0.0000 -0.7971 0.0000 32.6769
#
#
#
# Elastic Compliance Matrix: (Units=1/GPa)
#
#
# Indices 1 2 3 4 5 6 
#
# 1 0.030957 -0.003795 0.000853 0.000000 0.002964 0.000000
# 2 -0.003795 0.007163 -0.002778 0.000000 -0.001893 0.000000
# 3 0.000853 -0.002778 0.015353 0.000000 0.007644 0.000000
# 4 0.000000 0.000000 0.000000 0.032946 0.000000 0.000804
# 5 0.002964 -0.001893 0.007644 0.000000 0.043632 0.000000
# 6 0.000000 0.000000 0.000000 0.000804 0.000000 0.030622
#
#
# Mechanical properties :
#
#
# Convention : Reuss Voigt Hill
#
# Bulk Modulus (GPa) = 23.79029 41.00876 32.39952
# Shear Modulus (GPa) = 26.86373 32.49125 29.67749
#
# Velocity S-wave (km/s) = 3.43845 3.78149 3.61404
# Velocity P-wave (km/s) = 5.12193 6.09216 5.62799
#
# Compressibility (1/GPa) = 0.04203395
#
# Stress axis : x y z
#
# Youngs Moduli (GPa) = 32.30263 139.61119 65.13204
#
# Poissons Ratio (x) = 0.52977 -0.05556
# Poissons Ratio (y) = 0.12258 0.18094
# Poissons Ratio (z) = -0.02755 0.38785
#
# Static dielectric constant tensor:
#      x y z
#    x 1.919600 0.000000 -0.024260 
#    y 0.000000 1.859180 0.000000 
#    z -0.024260 0.000000 1.909960 
# 
# From -- ./inp_files/8586.got.cif
#   From: 2010.05.17/outbox.cif.g08.bks.cpg/sg5_5_cif.got.tgz:8586.got - 2010.06.03 18:56:24.
