data_PCOD9124007
_publ_section_title
;
Structure prediction by ZEFSAII (Michael W. Deem and Ramdas Pophale) SiO2 
 PCOD9124007
Probable space group: C 2
;
_chemical_formula_sum "Si O2"
_cell_formula_units_Z 30
_cell_length_a 12.302110
_cell_length_b 12.572907
_cell_length_c 8.374663
_cell_angle_alpha 90.000000
_cell_angle_beta 95.498883
_cell_angle_gamma 90.000000
_cell_volume 1289.375584
_symmetry_space_group_name_H-M "C 2"
_symmetry_group_IT_number 5
_symmetry_cell_setting 'monoclinic'
loop_
_space_group_symop_operation_xyz
x,y,z
-x,y,-z
1/2+x,1/2+y,z
1/2-x,1/2+y,-z
loop_
_atom_site_type_symbol
_atom_site_label
_atom_site_fract_x
_atom_site_fract_y
_atom_site_fract_z
Si Si1 0.274298 0.940530 0.263866
Si Si2 0.761749 0.844689 0.294963
Si Si3 0.253473 0.020552 0.928239
Si Si4 0.607356 0.558558 0.413829
Si Si5 0.924704 0.652501 0.334003
Si Si6 0.116180 0.191572 0.081682
Si Si7 0.000000 0.600826 0.000000
Si Si8 0.627167 0.767860 0.552392
O O1 0.229322 0.949226 0.080127
O O2 0.341349 0.831953 0.287469
O O3 0.174298 0.955259 0.372731
O O4 0.348040 0.046708 0.305793
O O5 0.856857 0.761235 0.345702
O O6 0.691064 0.787549 0.147314
O O7 0.676987 0.845433 0.426992
O O8 0.788868 0.960099 0.233184
O O9 0.185082 0.125137 0.962060
O O10 0.384795 0.039648 0.949437
O O11 0.500000 0.532690 0.500000
O O12 0.593271 0.620355 0.240254
O O13 0.670240 0.649274 0.526963
O O14 0.000000 0.637642 0.500000
O O15 0.980407 0.660404 0.166237
O O16 0.000000 0.224811 0.000000
O O17 0.500000 0.759867 0.500000
#
# Coordination Sequence:
#
# PCOD9124007 Si02
#       8
#     4   4   4   4   4   4   2   4
#     4  10  20  41  64  93 130 166 221 278 330 393
#     4  11  23  44  62  99 135 165 232 278 335 416
#     4  10  23  40  66  96 131 171 223 283 332 403
#     4   9  19  39  61  85 127 159 210 265 318 398
#     4  11  23  46  70  96 139 185 220 288 341 405
#     4  10  21  43  62  89 133 175 210 278 341 392
#     4  10  22  46  72 102 130 180 242 278 350 394
#     4  10  21  36  61  93 123 163 213 270 326 391
#
# _framework density 23.267078999999999
#
# number of rings (size 3 to 8) (size 9 to 14) (size 15 to 20)
#    0.000    1.867    5.333    0.400    6.533    3.200 
#    3.600    2.000    0.000    0.000    0.000    0.000 
#    0.000    0.000    0.000    0.000    0.000    0.000 
#
# Total GULP energy -83734.870394 kJ/mol
# GULP energy per Si atom -5582.324693 kJ/mol
# Density = 2.321412 g / cm^3
# Si number density = 23.267079 Si / 1000 Ang^3
#
#
#
# Elastic Constant Matrix: (Units=GPa)
#
#
# Indices 1 2 3 4 5 6 
#
# 1 67.8306 12.9384 27.7005 0.0000 -26.3655 0.0000
# 2 12.9384 41.7789 26.4780 0.0000 -1.3210 0.0000
# 3 27.7005 26.4780 81.4674 0.0000 -12.4273 0.0000
# 4 0.0000 0.0000 0.0000 46.6796 0.0000 2.3201
# 5 -26.3655 -1.3210 -12.4273 0.0000 40.1904 0.0000
# 6 0.0000 0.0000 0.0000 2.3201 0.0000 7.0862
#
#
#
# Elastic Compliance Matrix: (Units=1/GPa)
#
#
# Indices 1 2 3 4 5 6 
#
# 1 0.022375 -0.003736 -0.004380 0.000000 0.013201 0.000000
# 2 -0.003736 0.030945 -0.009452 0.000000 -0.004356 0.000000
# 3 -0.004380 -0.009452 0.017160 0.000000 0.002122 0.000000
# 4 0.000000 0.000000 0.000000 0.021777 0.000000 -0.007130
# 5 0.013201 -0.004356 0.002122 0.000000 0.034055 0.000000
# 6 0.000000 0.000000 0.000000 -0.007130 0.000000 0.143455
#
#
# Mechanical properties :
#
#
# Convention : Reuss Voigt Hill
#
# Bulk Modulus (GPa) = 28.29298 36.14564 32.21931
# Shear Modulus (GPa) = 15.78862 27.05523 21.42193
#
# Velocity S-wave (km/s) = 2.60779 3.41370 3.03759
# Velocity P-wave (km/s) = 4.61019 5.57733 5.11667
#
# Compressibility (1/GPa) = 0.03534445
#
# Stress axis : x y z
#
# Youngs Moduli (GPa) = 44.69219 32.31542 58.27584
#
# Poissons Ratio (x) = 0.12073 0.25525
# Poissons Ratio (y) = 0.16697 0.55081
# Poissons Ratio (z) = 0.19575 0.30544
#
# Static dielectric constant tensor:
#      x y z
#    x 1.887380 0.000000 0.002910 
#    y 0.000000 1.870100 0.000000 
#    z 0.002910 0.000000 1.992690 
# 
# From -- ./inp_files/20396.got.cif
#   From: 2010.05.17/outbox.cif.g08.bks.cpg/sg5_11_cif.got.tgz:20396.got - 2010.06.03 18:56:24.
