data_PCOD9124208
_publ_section_title
;
Structure prediction by ZEFSAII (Michael W. Deem and Ramdas Pophale) SiO2 
 PCOD9124208
Probable space group: C 2
;
_chemical_formula_sum "Si O2"
_cell_formula_units_Z 28
_cell_length_a 5.288306
_cell_length_b 17.734878
_cell_length_c 13.347650
_cell_angle_alpha 90.000000
_cell_angle_beta 82.150554
_cell_angle_gamma 90.000000
_cell_volume 1240.112890
_symmetry_space_group_name_H-M "C 2"
_symmetry_group_IT_number 5
_symmetry_cell_setting 'monoclinic'
loop_
_space_group_symop_operation_xyz
x,y,z
-x,y,-z
1/2+x,1/2+y,z
1/2-x,1/2+y,-z
loop_
_atom_site_type_symbol
_atom_site_label
_atom_site_fract_x
_atom_site_fract_y
_atom_site_fract_z
Si Si1 0.215816 0.811260 0.406691
Si Si2 0.000569 0.188950 0.701526
Si Si3 0.606220 0.300076 0.765941
Si Si4 0.324323 0.768949 0.100342
Si Si5 0.760464 0.944298 0.937441
Si Si6 0.396175 0.513333 0.718513
Si Si7 0.099166 0.428072 0.323907
O O1 0.311127 0.725289 0.390521
O O2 0.457630 0.866708 0.400589
O O3 0.000000 0.822534 0.500000
O O4 0.102371 0.829609 0.302106
O O5 0.082434 0.223477 0.806039
O O6 0.957061 0.101193 0.704787
O O7 0.737364 0.232787 0.699143
O O8 0.483920 0.263579 0.871308
O O9 0.793025 0.371099 0.769315
O O10 0.323905 0.860535 0.094041
O O11 0.500000 0.742529 0.000000
O O12 0.500000 0.977469 0.000000
O O13 0.862743 0.990852 0.836928
O O14 0.000000 0.937977 0.000000
O O15 0.123947 0.487075 0.688807
O O16 0.644834 0.471516 0.658386
#
# Coordination Sequence:
#
# PCOD9124208 Si02
#       7
#     4   4   4   4   4   4   4
#     4  10  22  45  74 103 129 169 228 278 329 404
#     4  10  25  40  66  97 137 183 213 272 345 398
#     4  10  20  42  68  95 128 177 227 267 340 390
#     4  10  22  39  64  96 130 176 230 281 316 389
#     4  11  23  38  63  94 126 176 234 282 320 376
#     4  12  24  44  65  95 141 176 219 273 340 404
#     4  11  22  42  71  94 125 175 219 272 329 392
#
# _framework density 22.578592
#
# number of rings (size 3 to 8) (size 9 to 14) (size 15 to 20)
#    0.000    1.429    2.857    2.571    8.000    4.000 
#    2.571    1.429    0.000    0.000    0.000    0.000 
#    0.000    0.000    0.000    0.000    0.000    0.000 
#
# Total GULP energy -77989.458203 kJ/mol
# GULP energy per Si atom -5570.675586 kJ/mol
# Density = 2.252720 g / cm^3
# Si number density = 22.578592 Si / 1000 Ang^3
#
#
#
# Elastic Constant Matrix: (Units=GPa)
#
#
# Indices 1 2 3 4 5 6 
#
# 1 133.6418 41.0091 41.2350 0.0000 -27.1878 0.0000
# 2 41.0091 150.2444 15.6203 0.0000 -18.3322 0.0000
# 3 41.2350 15.6203 98.6952 0.0000 -37.7177 0.0000
# 4 0.0000 0.0000 0.0000 7.6821 0.0000 -8.2696
# 5 -27.1878 -18.3322 -37.7177 0.0000 49.5530 0.0000
# 6 0.0000 0.0000 0.0000 -8.2696 0.0000 20.1378
#
#
#
# Elastic Compliance Matrix: (Units=1/GPa)
#
#
# Indices 1 2 3 4 5 6 
#
# 1 0.009414 -0.001999 -0.002715 0.000000 0.002359 0.000000
# 2 -0.001999 0.007397 0.000411 0.000000 0.001952 0.000000
# 3 -0.002715 0.000411 0.015076 0.000000 0.010137 0.000000
# 4 0.000000 0.000000 0.000000 0.233312 0.000000 0.095810
# 5 0.002359 0.001952 0.010137 0.000000 0.029913 0.000000
# 6 0.000000 0.000000 0.000000 0.095810 0.000000 0.089003
#
#
# Mechanical properties :
#
#
# Convention : Reuss Voigt Hill
#
# Bulk Modulus (GPa) = 42.95814 64.25671 53.60743
# Shear Modulus (GPa) = 12.48498 34.45570 23.47034
#
# Velocity S-wave (km/s) = 2.35405 3.91069 3.22762
# Velocity P-wave (km/s) = 5.14355 6.99373 6.13874
#
# Compressibility (1/GPa) = 0.02327847
#
# Stress axis : x y z
#
# Youngs Moduli (GPa) = 106.22635 135.18888 66.33173
#
# Poissons Ratio (x) = 0.27030 0.18011
# Poissons Ratio (y) = 0.21239 -0.02724
# Poissons Ratio (z) = 0.28844 -0.05552
#
# Static dielectric constant tensor:
#      x y z
#    x 2.043560 0.000000 -0.024160 
#    y 0.000000 1.818860 0.000000 
#    z -0.024160 0.000000 1.932660 
# 
# From -- ./inp_files/49180.got.cif
#   From: 2010.05.17/outbox.cif.g08.bks.cpg/sg5_25_cif.got.tgz:49180.got - 2010.06.03 18:56:24.
