data_PCOD9124205
_publ_section_title
;
Structure prediction by ZEFSAII (Michael W. Deem and Ramdas Pophale) SiO2 
 PCOD9124205
Probable space group: C 2
;
_chemical_formula_sum "Si O2"
_cell_formula_units_Z 20
_cell_length_a 12.509531
_cell_length_b 10.379135
_cell_length_c 8.151468
_cell_angle_alpha 90.000000
_cell_angle_beta 50.245711
_cell_angle_gamma 90.000000
_cell_volume 813.669395
_symmetry_space_group_name_H-M "C 2"
_symmetry_group_IT_number 5
_symmetry_cell_setting 'monoclinic'
loop_
_space_group_symop_operation_xyz
x,y,z
-x,y,-z
1/2+x,1/2+y,z
1/2-x,1/2+y,-z
loop_
_atom_site_type_symbol
_atom_site_label
_atom_site_fract_x
_atom_site_fract_y
_atom_site_fract_z
Si Si1 0.856039 0.889240 0.051155
Si Si2 0.369648 0.740840 0.544709
Si Si3 0.235676 0.154236 0.692254
Si Si4 0.071183 0.508798 0.683132
Si Si5 0.287897 0.927604 0.127965
O O1 0.752814 0.772244 0.205791
O O2 0.808370 0.023099 0.179855
O O3 0.841559 0.921529 0.871588
O O4 0.000000 0.856394 0.000000
O O5 0.500000 0.674988 0.500000
O O6 0.346074 0.674295 0.395383
O O7 0.410449 0.884384 0.447063
O O8 0.201242 0.276418 0.836804
O O9 0.390854 0.132532 0.463814
O O10 0.184484 0.493267 0.720842
O O11 0.916411 0.491775 0.903249
#
# Coordination Sequence:
#
# PCOD9124205 Si02
#       5
#     4   4   4   4   4
#     4  11  25  42  63 105 138 176 239 290 344 430
#     4  10  20  42  68  94 140 182 229 290 345 425
#     4  10  24  41  71  99 134 186 230 286 358 407
#     4   9  20  41  69 102 127 181 240 278 346 429
#     4  10  21  43  70  97 142 177 231 297 343 419
#
# _framework density 24.580010000000001
#
# number of rings (size 3 to 8) (size 9 to 14) (size 15 to 20)
#    0.000    2.000    2.000    0.000    5.600    3.200 
#   10.800    7.000    0.000    0.000    0.000    0.000 
#    0.000    0.000    0.000    0.000    0.000    0.000 
#
# Total GULP energy -55752.160694 kJ/mol
# GULP energy per Si atom -5575.216069 kJ/mol
# Density = 2.452406 g / cm^3
# Si number density = 24.580010 Si / 1000 Ang^3
#
#
#
# Elastic Constant Matrix: (Units=GPa)
#
#
# Indices 1 2 3 4 5 6 
#
# 1 207.3316 16.7637 34.0391 0.0000 24.0175 0.0000
# 2 16.7637 41.8072 2.1521 0.0000 -4.6821 0.0000
# 3 34.0391 2.1521 49.5898 0.0000 -7.1747 0.0000
# 4 0.0000 0.0000 0.0000 13.0168 0.0000 3.3504
# 5 24.0175 -4.6821 -7.1747 0.0000 23.8635 0.0000
# 6 0.0000 0.0000 0.0000 3.3504 0.0000 -46.0782
#
#
#
# Elastic Compliance Matrix: (Units=1/GPa)
#
#
# Indices 1 2 3 4 5 6 
#
# 1 0.007318 -0.003729 -0.006307 0.000000 -0.009993 0.000000
# 2 -0.003729 0.026364 0.002830 0.000000 0.009776 0.000000
# 3 -0.006307 0.002830 0.026524 0.000000 0.014878 0.000000
# 4 0.000000 0.000000 0.000000 0.075412 0.000000 0.005483
# 5 -0.009993 0.009776 0.014878 0.000000 0.058353 0.000000
# 6 0.000000 0.000000 0.000000 0.005483 0.000000 -0.021304
#
#
# Mechanical properties :
#
#
# Convention : Reuss Voigt Hill
#
# Bulk Modulus (GPa) = 21.83697 44.95982 33.39840
# Shear Modulus (GPa) = 24.71040 14.54534 19.62787
#
# Velocity S-wave (km/s) = 3.17409 2.43524 2.82889
# Velocity P-wave (km/s) = 4.72615 5.12232 4.92821
#
# Compressibility (1/GPa) = 0.04579390
#
# Stress axis : x y z
#
# Youngs Moduli (GPa) = 136.65512 37.93105 37.70128
#
# Poissons Ratio (x) = 0.14143 0.23778
# Poissons Ratio (y) = 0.50954 -0.10668
# Poissons Ratio (z) = 0.86187 -0.10733
#
# Static dielectric constant tensor:
#      x y z
#    x 2.103000 0.000000 -0.075820 
#    y 0.000000 1.941000 0.000000 
#    z -0.075820 0.000000 2.046380 
# 
# From -- ./inp_files/19217.got.cif
#   From: 2010.05.17/outbox.cif.g08.bks.cpg/sg5_10_cif.got.tgz:19217.got - 2010.06.03 18:56:24.
