data_PCOD9124912
_publ_section_title
;
Structure prediction by ZEFSAII (Michael W. Deem and Ramdas Pophale) SiO2 
 PCOD9124912
Probable space group: C 2
;
_chemical_formula_sum "Si O2"
_cell_formula_units_Z 26
_cell_length_a 11.815251
_cell_length_b 7.884990
_cell_length_c 20.915866
_cell_angle_alpha 90.000000
_cell_angle_beta 40.172297
_cell_angle_gamma 90.000000
_cell_volume 1257.011127
_symmetry_space_group_name_H-M "C 2"
_symmetry_group_IT_number 5
_symmetry_cell_setting 'monoclinic'
loop_
_space_group_symop_operation_xyz
x,y,z
-x,y,-z
1/2+x,1/2+y,z
1/2-x,1/2+y,-z
loop_
_atom_site_type_symbol
_atom_site_label
_atom_site_fract_x
_atom_site_fract_y
_atom_site_fract_z
Si Si1 0.507981 0.878030 0.283632
Si Si2 0.316084 0.970198 0.598292
Si Si3 0.700440 0.583633 0.781335
Si Si4 0.667862 0.955674 0.774290
Si Si5 0.000000 0.150473 0.500000
Si Si6 0.072132 0.061543 0.597893
Si Si7 0.610879 0.260103 0.888473
O O1 0.398817 0.938558 0.269785
O O2 0.419278 0.747643 0.371886
O O3 0.680844 0.772506 0.184987
O O4 0.603319 0.035187 0.278417
O O5 0.500000 0.059095 0.500000
O O6 0.213176 0.056752 0.699658
O O7 0.202551 0.953315 0.584154
O O8 0.376748 0.781561 0.592448
O O9 0.641726 0.773569 0.818882
O O10 0.081305 0.939886 0.865363
O O11 0.875546 0.990720 0.686007
O O12 0.582379 0.108230 0.850883
O O13 0.889039 0.058077 0.494328
O O14 0.500000 0.242629 0.000000
#
# Coordination Sequence:
#
# PCOD9124912 Si02
#       7
#     4   4   4   4   2   4   4
#     4   9  20  42  62  93 123 160 216 259 305 395
#     4  10  21  39  60  89 129 169 213 267 302 369
#     4  10  21  42  67  89 127 171 208 263 319 365
#     4  11  22  40  68  91 123 172 209 257 326 374
#     4  10  22  40  54  90 126 162 206 270 320 348
#     4  11  22  39  63  88 127 164 220 264 306 384
#     4   9  22  45  62  97 133 157 210 266 316 391
#
# _framework density 20.683985
#
# number of rings (size 3 to 8) (size 9 to 14) (size 15 to 20)
#    1.385    0.615    3.077    0.000    0.000    6.769 
#    4.154    0.000    0.000    0.000    0.000    0.000 
#    0.000    0.000    0.000    0.000    0.000    0.000 
#
# Total GULP energy -72447.842501 kJ/mol
# GULP energy per Si atom -5572.910962 kJ/mol
# Density = 2.063691 g / cm^3
# Si number density = 20.683985 Si / 1000 Ang^3
#
#
#
# Elastic Constant Matrix: (Units=GPa)
#
#
# Indices 1 2 3 4 5 6 
#
# 1 136.8373 27.0008 17.7948 0.0000 24.2294 0.0000
# 2 27.0008 116.0039 18.1775 0.0000 19.4472 0.0000
# 3 17.7948 18.1775 75.0885 0.0000 21.6241 0.0000
# 4 0.0000 0.0000 0.0000 8.7854 0.0000 10.7279
# 5 24.2294 19.4472 21.6241 0.0000 23.1085 0.0000
# 6 0.0000 0.0000 0.0000 10.7279 0.0000 29.9512
#
#
#
# Elastic Compliance Matrix: (Units=1/GPa)
#
#
# Indices 1 2 3 4 5 6 
#
# 1 0.009045 -0.000600 0.000804 0.000000 -0.009731 0.000000
# 2 -0.000600 0.010076 -0.000050 0.000000 -0.007804 0.000000
# 3 0.000804 -0.000050 0.018302 0.000000 -0.017928 0.000000
# 4 0.000000 0.000000 0.000000 0.202311 0.000000 -0.072464
# 5 -0.009731 -0.007804 -0.017928 0.000000 0.076821 0.000000
# 6 0.000000 0.000000 0.000000 -0.072464 0.000000 0.059343
#
#
# Mechanical properties :
#
#
# Convention : Reuss Voigt Hill
#
# Bulk Modulus (GPa) = 26.50260 50.43064 38.46662
# Shear Modulus (GPa) = 12.88110 30.03279 21.45695
#
# Velocity S-wave (km/s) = 2.49822 3.81462 3.22432
# Velocity P-wave (km/s) = 4.60026 6.62089 5.70082
#
# Compressibility (1/GPa) = 0.03773215
#
# Stress axis : x y z
#
# Youngs Moduli (GPa) = 110.56056 99.24443 54.63914
#
# Poissons Ratio (x) = 0.05954 -0.04394
# Poissons Ratio (y) = 0.06633 0.00271
# Poissons Ratio (z) = -0.08891 0.00492
#
# Static dielectric constant tensor:
#      x y z
#    x 1.734200 0.000000 -0.006080 
#    y 0.000000 1.775930 0.000000 
#    z -0.006080 0.000000 1.738190 
# 
# From -- ./inp_files/65022.got.cif
#   From: 2010.05.17/outbox.cif.g08.bks.cpg/sg5_33_cif.got.tgz:65022.got - 2010.06.03 18:56:24.
