data_PCOD9124539
_publ_section_title
;
Structure prediction by ZEFSAII (Michael W. Deem and Ramdas Pophale) SiO2 
 PCOD9124539
Probable space group: C 2
;
_chemical_formula_sum "Si O2"
_cell_formula_units_Z 22
_cell_length_a 12.374356
_cell_length_b 13.983457
_cell_length_c 10.112063
_cell_angle_alpha 90.000000
_cell_angle_beta 34.842529
_cell_angle_gamma 90.000000
_cell_volume 999.674411
_symmetry_space_group_name_H-M "C 2"
_symmetry_group_IT_number 5
_symmetry_cell_setting 'monoclinic'
loop_
_space_group_symop_operation_xyz
x,y,z
-x,y,-z
1/2+x,1/2+y,z
1/2-x,1/2+y,-z
loop_
_atom_site_type_symbol
_atom_site_label
_atom_site_fract_x
_atom_site_fract_y
_atom_site_fract_z
Si Si1 0.500000 0.461800 0.000000
Si Si2 0.701294 0.642053 0.779186
Si Si3 0.741234 0.625392 0.047477
Si Si4 0.935927 0.751004 0.327097
Si Si5 0.961859 0.294673 0.387135
Si Si6 0.788702 0.909324 0.949817
O O1 0.641265 0.537308 0.785548
O O2 0.381566 0.412082 0.004888
O O3 0.766810 0.624656 0.862197
O O4 0.837216 0.693036 0.543585
O O5 0.500000 0.695798 0.000000
O O6 0.930041 0.682996 0.897585
O O7 0.561225 0.690716 0.264756
O O8 0.715911 0.514559 0.107806
O O9 0.759122 0.792580 0.423057
O O10 0.073241 0.831137 0.252063
O O11 0.000000 0.321389 0.500000
O O12 0.079882 0.366752 0.176370
#
# Coordination Sequence:
#
# PCOD9124539 Si02
#       6
#     2   4   4   4   4   4
#     4   8  16  34  58  84 120 144 190 246 280 344
#     4   9  17  36  66  85 112 151 192 236 294 342
#     4  10  22  40  59  88 117 151 197 239 290 350
#     4  11  21  36  62  87 120 154 187 249 291 333
#     4  11  23  38  59  85 119 158 195 231 289 349
#     4  10  21  36  58  91 115 147 201 238 287 348
#
# _framework density 22.007166000000002
#
# number of rings (size 3 to 8) (size 9 to 14) (size 15 to 20)
#    0.545    1.455    1.818    1.636    0.000    8.000 
#    0.000    3.636    0.000    2.182    0.000    0.000 
#    0.000    0.000    0.000    0.000    0.000    0.000 
#
# Total GULP energy -61361.359109 kJ/mol
# GULP energy per Si atom -5578.305374 kJ/mol
# Density = 2.195708 g / cm^3
# Si number density = 22.007166 Si / 1000 Ang^3
#
#
#
# Elastic Constant Matrix: (Units=GPa)
#
#
# Indices 1 2 3 4 5 6 
#
# 1 39.0513 -23.8490 6.9258 -0.0006 -21.8147 0.0003
# 2 -23.8490 109.2899 33.5620 -0.0009 -17.2918 0.0004
# 3 6.9258 33.5620 86.1125 -0.0013 -35.6623 0.0007
# 4 -0.0006 -0.0009 -0.0013 21.7971 0.0007 -4.1909
# 5 -21.8147 -17.2918 -35.6623 0.0007 40.6346 -0.0004
# 6 0.0003 0.0004 0.0007 -4.1909 -0.0004 21.8375
#
#
#
# Elastic Compliance Matrix: (Units=1/GPa)
#
#
# Indices 1 2 3 4 5 6 
#
# 1 0.063236 0.019172 0.007666 0.000001 0.048835 0.000000
# 2 0.019172 0.016255 -0.001178 0.000001 0.016175 0.000000
# 3 0.007666 -0.001178 0.020348 0.000001 0.021472 0.000000
# 4 0.000001 0.000001 0.000001 0.047635 0.000001 0.009142
# 5 0.048835 0.016175 0.021472 0.000001 0.076554 0.000000
# 6 0.000000 0.000000 0.000000 0.009142 0.000000 0.047547
#
#
# Mechanical properties :
#
#
# Convention : Reuss Voigt Hill
#
# Bulk Modulus (GPa) = 6.61564 29.74793 18.18178
# Shear Modulus (GPa) = 18.47460 31.37483 24.92471
#
# Velocity S-wave (km/s) = 2.90052 3.77989 3.36902
# Velocity P-wave (km/s) = 3.77227 5.70937 4.83874
#
# Compressibility (1/GPa) = 0.15115697
#
# Stress axis : x y z
#
# Youngs Moduli (GPa) = 15.81382 61.52087 49.14546
#
# Poissons Ratio (x) = -1.17945 -0.37676
# Poissons Ratio (y) = -0.30318 0.05791
# Poissons Ratio (z) = -0.12123 0.07250
#
# Static dielectric constant tensor:
#      x y z
#    x 1.890430 0.000000 -0.036990 
#    y 0.000000 1.885970 0.000000 
#    z -0.036990 0.000000 1.815980 
# 
# From -- ./inp_files/42878.got.cif
#   From: 2010.05.17/outbox.cif.g08.bks.cpg/sg5_22_cif.got.tgz:42878.got - 2010.06.03 18:56:24.
