data_PCOD9124599
_publ_section_title
;
Structure prediction by ZEFSAII (Michael W. Deem and Ramdas Pophale) SiO2 
 PCOD9124599
Probable space group: C 2
;
_chemical_formula_sum "Si O2"
_cell_formula_units_Z 30
_cell_length_a 15.701184
_cell_length_b 9.485970
_cell_length_c 21.240379
_cell_angle_alpha 90.000000
_cell_angle_beta 27.677357
_cell_angle_gamma 90.000000
_cell_volume 1469.449785
_symmetry_space_group_name_H-M "C 2"
_symmetry_group_IT_number 5
_symmetry_cell_setting 'monoclinic'
loop_
_space_group_symop_operation_xyz
x,y,z
-x,y,-z
1/2+x,1/2+y,z
1/2-x,1/2+y,-z
loop_
_atom_site_type_symbol
_atom_site_label
_atom_site_fract_x
_atom_site_fract_y
_atom_site_fract_z
Si Si1 0.442666 0.741300 0.625233
Si Si2 0.096385 0.704925 0.536360
Si Si3 0.279466 0.431263 0.743734
Si Si4 0.050364 0.453103 0.131299
Si Si5 0.369136 0.458289 0.826606
Si Si6 0.497731 0.763994 0.275307
Si Si7 0.879285 0.687556 0.334486
Si Si8 0.500000 0.975114 0.500000
O O1 0.346078 0.589904 0.682515
O O2 0.422017 0.800070 0.709386
O O3 0.660748 0.712108 0.472847
O O4 0.380586 0.865042 0.619197
O O5 0.282150 0.796685 0.412255
O O6 0.085068 0.647345 0.615350
O O7 0.096854 0.578304 0.486251
O O8 0.931170 0.812287 0.630405
O O9 0.099834 0.401825 0.820899
O O10 0.261175 0.430265 0.831616
O O11 0.096091 0.333676 0.152343
O O12 0.959126 0.576180 0.232852
O O13 0.229112 0.489202 0.974285
O O14 0.489073 0.596009 0.735888
O O15 0.504950 0.329891 0.750501
#
# Coordination Sequence:
#
# PCOD9124599 Si02
#       8
#     4   4   4   4   4   4   4   2
#     4  10  21  37  56  82 111 143 179 230 283 320
#     4  10  21  37  56  82 111 143 179 230 283 320
#     4  10  22  38  57  81 113 145 183 226 276 331
#     4  12  21  35  58  84 111 148 186 224 266 327
#     4  10  22  39  55  79 113 152 185 219 268 330
#     4  10  21  37  57  79 110 145 185 227 271 325
#     4  10  21  37  57  79 110 145 185 227 271 325
#     4  12  20  30  52  84 112 130 168 222 282 328
#
# _framework density 20.415806
#
# number of rings (size 3 to 8) (size 9 to 14) (size 15 to 20)
#    0.000    1.600    0.000    5.200    0.000    5.867 
#    0.000    0.000    0.000    0.000    0.000   20.533 
#    0.000    0.000    0.000    0.000    0.000    0.000 
#
# Total GULP energy -83783.202878 kJ/mol
# GULP energy per Si atom -5585.546859 kJ/mol
# Density = 2.036934 g / cm^3
# Si number density = 20.415806 Si / 1000 Ang^3
#
#
#
# Elastic Constant Matrix: (Units=GPa)
#
#
# Indices 1 2 3 4 5 6 
#
# 1 63.5349 18.1078 20.5999 -0.0005 17.2988 0.0001
# 2 18.1078 62.3272 3.2311 -0.0005 20.4868 0.0000
# 3 20.5999 3.2311 73.7294 -0.0006 17.4885 0.0000
# 4 -0.0005 -0.0005 -0.0006 23.7078 0.0002 9.8990
# 5 17.2988 20.4868 17.4885 0.0002 25.6498 0.0001
# 6 0.0001 0.0000 0.0000 9.8990 0.0001 32.2062
#
#
#
# Elastic Compliance Matrix: (Units=1/GPa)
#
#
# Indices 1 2 3 4 5 6 
#
# 1 0.020062 -0.002648 -0.003318 0.000000 -0.009153 0.000000
# 2 -0.002648 0.023026 0.004377 0.000001 -0.019590 0.000000
# 3 -0.003318 0.004377 0.017413 0.000001 -0.013131 0.000000
# 4 0.000000 0.000001 0.000001 0.048390 -0.000002 -0.014873
# 5 -0.009153 -0.019590 -0.013131 -0.000002 0.069759 0.000000
# 6 0.000000 0.000000 0.000000 -0.014873 0.000000 0.035621
#
#
# Mechanical properties :
#
#
# Convention : Reuss Voigt Hill
#
# Bulk Modulus (GPa) = 17.44489 31.49656 24.47072
# Shear Modulus (GPa) = 21.13652 26.82294 23.97973
#
# Velocity S-wave (km/s) = 3.22110 3.62861 3.43091
# Velocity P-wave (km/s) = 4.73258 5.74603 5.26375
#
# Compressibility (1/GPa) = 0.05732339
#
# Stress axis : x y z
#
# Youngs Moduli (GPa) = 49.84538 43.42934 57.42816
#
# Poissons Ratio (x) = 0.11500 0.19056
# Poissons Ratio (y) = 0.13199 -0.25139
# Poissons Ratio (z) = 0.16540 -0.19011
#
# Static dielectric constant tensor:
#      x y z
#    x 1.750660 0.000000 0.037850 
#    y 0.000000 1.724430 0.000000 
#    z 0.037850 0.000000 1.697880 
# 
# From -- ./inp_files/66607.got.cif
#   From: 2010.05.17/outbox.cif.g08.bks.cpg/sg5_34_cif.got.tgz:66607.got - 2010.06.03 18:56:24.
