data_PCOD9124852
_publ_section_title
;
Structure prediction by ZEFSAII (Michael W. Deem and Ramdas Pophale) SiO2 
 PCOD9124852
Probable space group: C 2
;
_chemical_formula_sum "Si O2"
_cell_formula_units_Z 20
_cell_length_a 19.532670
_cell_length_b 9.127968
_cell_length_c 5.455210
_cell_angle_alpha 90.000000
_cell_angle_beta 117.824455
_cell_angle_gamma 90.000000
_cell_volume 860.175378
_symmetry_space_group_name_H-M "C 2"
_symmetry_group_IT_number 5
_symmetry_cell_setting 'monoclinic'
loop_
_space_group_symop_operation_xyz
x,y,z
-x,y,-z
1/2+x,1/2+y,z
1/2-x,1/2+y,-z
loop_
_atom_site_type_symbol
_atom_site_label
_atom_site_fract_x
_atom_site_fract_y
_atom_site_fract_z
Si Si1 0.987765 0.421300 0.228910
Si Si2 0.185489 0.390632 0.065808
Si Si3 0.045148 0.105870 0.325778
Si Si4 0.165856 0.873269 0.418323
Si Si5 0.820640 0.730288 0.066013
O O1 0.000000 0.506116 0.500000
O O2 0.045563 0.282798 0.338280
O O3 0.903257 0.348271 0.065337
O O4 0.000000 0.508084 0.000000
O O5 0.240732 0.384270 0.396748
O O6 0.181817 0.558676 0.978357
O O7 0.233590 0.291632 0.959096
O O8 0.000000 0.059283 0.500000
O O9 0.126973 0.027217 0.423915
O O10 0.000000 0.066790 0.000000
O O11 0.145989 0.811252 0.118269
O O12 0.141909 0.770085 0.608354
#
# Coordination Sequence:
#
# PCOD9124852 Si02
#       5
#     4   4   4   4   4
#     4  10  24  39  65  96 134 174 222 274 335 397
#     4  10  26  43  72 100 141 175 234 275 342 403
#     4  10  21  38  65  97 129 172 224 273 328 396
#     4  10  24  40  68 100 137 173 231 274 334 402
#     4  10  25  40  72  98 135 176 231 280 333 392
#
# _framework density 23.251072000000001
#
# number of rings (size 3 to 8) (size 9 to 14) (size 15 to 20)
#    1.200    0.800    0.000    1.200   11.200    3.200 
#    0.000    6.000    0.000    0.000    0.000    0.000 
#    0.000    0.000    0.000    0.000    0.000    0.000 
#
# Total GULP energy -55743.883808 kJ/mol
# GULP energy per Si atom -5574.388381 kJ/mol
# Density = 2.319815 g / cm^3
# Si number density = 23.251072 Si / 1000 Ang^3
#
#
#
# Elastic Constant Matrix: (Units=GPa)
#
#
# Indices 1 2 3 4 5 6 
#
# 1 60.0679 4.8718 47.1375 0.0000 -21.3121 0.0000
# 2 4.8718 46.4575 -28.9855 0.0000 1.0475 0.0000
# 3 47.1375 -28.9855 123.8886 0.0000 -35.5949 0.0000
# 4 0.0000 0.0000 0.0000 6.4428 0.0000 9.5792
# 5 -21.3121 1.0475 -35.5949 0.0000 35.7573 0.0000
# 6 0.0000 0.0000 0.0000 9.5792 0.0000 19.3177
#
#
#
# Elastic Compliance Matrix: (Units=1/GPa)
#
#
# Indices 1 2 3 4 5 6 
#
# 1 0.028745 -0.010462 -0.011729 0.000000 0.005764 0.000000
# 2 -0.010462 0.030404 0.012670 0.000000 0.005486 0.000000
# 3 -0.011729 0.012670 0.018745 0.000000 0.011298 0.000000
# 4 0.000000 0.000000 0.000000 0.590798 0.000000 -0.292964
# 5 0.005764 0.005486 0.011298 0.000000 0.042487 0.000000
# 6 0.000000 0.000000 0.000000 -0.292964 0.000000 0.197041
#
#
# Mechanical properties :
#
#
# Convention : Reuss Voigt Hill
#
# Bulk Modulus (GPa) = 16.99160 30.71794 23.85477
# Shear Modulus (GPa) = 5.28050 26.12956 15.70503
#
# Velocity S-wave (km/s) = 1.50865 3.35595 2.60177
# Velocity P-wave (km/s) = 3.21845 5.31570 4.39403
#
# Compressibility (1/GPa) = 0.05885262
#
# Stress axis : x y z
#
# Youngs Moduli (GPa) = 34.78809 32.89061 53.34779
#
# Poissons Ratio (x) = 0.34411 0.62571
# Poissons Ratio (y) = 0.36396 -0.67594
# Poissons Ratio (z) = 0.40803 -0.41674
#
# Static dielectric constant tensor:
#      x y z
#    x 1.968270 0.000000 -0.029950 
#    y 0.000000 1.808670 0.000000 
#    z -0.029950 0.000000 1.952040 
# 
# From -- ./inp_files/6575.got.cif
#   From: 2010.05.17/outbox.cif.g08.bks.cpg/sg5_4_cif.got.tgz:6575.got - 2010.06.03 18:56:24.
