data_PCOD9124995
_publ_section_title
;
Structure prediction by ZEFSAII (Michael W. Deem and Ramdas Pophale) SiO2 
 PCOD9124995
Probable space group: C 2
;
_chemical_formula_sum "Si O2"
_cell_formula_units_Z 26
_cell_length_a 8.816840
_cell_length_b 12.063483
_cell_length_c 14.060082
_cell_angle_alpha 90.000000
_cell_angle_beta 68.649609
_cell_angle_gamma 90.000000
_cell_volume 1392.824584
_symmetry_space_group_name_H-M "C 2"
_symmetry_group_IT_number 5
_symmetry_cell_setting 'monoclinic'
loop_
_space_group_symop_operation_xyz
x,y,z
-x,y,-z
1/2+x,1/2+y,z
1/2-x,1/2+y,-z
loop_
_atom_site_type_symbol
_atom_site_label
_atom_site_fract_x
_atom_site_fract_y
_atom_site_fract_z
Si Si1 0.346596 0.298200 0.378152
Si Si2 0.139031 0.848908 0.849128
Si Si3 0.677231 0.239817 0.030095
Si Si4 0.416512 0.007736 0.855877
Si Si5 0.859214 0.545517 0.373814
Si Si6 0.000000 0.336851 0.000000
Si Si7 0.500000 0.457755 0.500000
Si Si8 0.500000 0.885703 0.500000
O O1 0.354162 0.321502 0.263664
O O2 0.396798 0.173006 0.387925
O O3 0.447116 0.382411 0.421652
O O4 0.157746 0.312982 0.446157
O O5 0.946001 0.841022 0.916015
O O6 0.250024 0.956665 0.846690
O O7 0.200452 0.754153 0.910719
O O8 0.612504 0.122361 0.081100
O O9 0.843221 0.261393 0.045914
O O10 0.560469 0.023913 0.747047
O O11 0.471845 0.915162 0.917115
O O12 0.665164 0.522936 0.431405
O O13 0.954764 0.464345 0.422569
#
# Coordination Sequence:
#
# PCOD9124995 Si02
#       8
#     4   4   4   4   4   2   2   2
#     4  11  21  41  63  88 125 159 202 259 298 364
#     4  10  21  39  64  89 121 163 200 248 308 358
#     4  10  22  41  60  89 123 156 202 249 304 361
#     4  11  22  39  64  90 122 163 201 249 307 361
#     4  11  22  39  64  89 120 165 204 248 314 355
#     4  10  24  38  60  90 122 156 204 248 296 372
#     4  10  26  40  60  94 126 160 208 256 298 362
#     4  10  22  40  62  86 124 160 206 250 304 368
#
# _framework density 18.667102
#
# number of rings (size 3 to 8) (size 9 to 14) (size 15 to 20)
#    0.000    1.538    3.077    1.846    2.154    2.462 
#    0.000    3.077    0.000    0.000    0.000    0.000 
#    0.000    0.000    0.000    0.000    0.000    0.000 
#
# Total GULP energy -72431.165182 kJ/mol
# GULP energy per Si atom -5571.628091 kJ/mol
# Density = 1.862461 g / cm^3
# Si number density = 18.667102 Si / 1000 Ang^3
#
#
#
# Elastic Constant Matrix: (Units=GPa)
#
#
# Indices 1 2 3 4 5 6 
#
# 1 80.1673 10.6803 10.3883 0.0000 -7.0617 0.0000
# 2 10.6803 62.3483 31.2911 0.0000 1.9187 0.0000
# 3 10.3883 31.2911 95.0813 0.0000 15.5953 0.0000
# 4 0.0000 0.0000 0.0000 236.5279 0.0000 -72.8410
# 5 -7.0617 1.9187 15.5953 0.0000 21.6597 0.0000
# 6 0.0000 0.0000 0.0000 -72.8410 0.0000 30.4370
#
#
#
# Elastic Compliance Matrix: (Units=1/GPa)
#
#
# Indices 1 2 3 4 5 6 
#
# 1 0.013448 -0.001511 -0.001943 0.000000 0.005917 0.000000
# 2 -0.001511 0.019584 -0.006707 0.000000 0.002601 0.000000
# 3 -0.001943 -0.006707 0.014676 0.000000 -0.010606 0.000000
# 4 0.000000 0.000000 0.000000 0.016075 0.000000 0.038471
# 5 0.005917 0.002601 -0.010606 0.000000 0.055504 0.000000
# 6 0.000000 0.000000 0.000000 0.038471 0.000000 0.124922
#
#
# Mechanical properties :
#
#
# Convention : Reuss Voigt Hill
#
# Bulk Modulus (GPa) = 36.51222 38.03514 37.27368
# Shear Modulus (GPa) = 18.27093 70.07407 44.17250
#
# Velocity S-wave (km/s) = 3.13194 6.13354 4.86977
# Velocity P-wave (km/s) = 5.71671 8.40120 7.18543
#
# Compressibility (1/GPa) = 0.02738809
#
# Stress axis : x y z
#
# Youngs Moduli (GPa) = 74.35972 51.06335 68.13688
#
# Poissons Ratio (x) = 0.07715 0.13236
# Poissons Ratio (y) = 0.11234 0.45696
# Poissons Ratio (z) = 0.14445 0.34246
#
# Static dielectric constant tensor:
#      x y z
#    x 1.647870 0.000000 -0.034660 
#    y 0.000000 1.613300 0.000000 
#    z -0.034660 0.000000 1.642880 
# 
# From -- ./inp_files/35470.got.cif
#   From: 2010.05.17/outbox.cif.g08.bks.cpg/sg5_18_cif.got.tgz:35470.got - 2010.06.03 18:56:24.
