data_PCOD9124291
_publ_section_title
;
Structure prediction by ZEFSAII (Michael W. Deem and Ramdas Pophale) SiO2 
 PCOD9124291
Probable space group: C 2
;
_chemical_formula_sum "Si O2"
_cell_formula_units_Z 24
_cell_length_a 13.579946
_cell_length_b 5.866800
_cell_length_c 12.751556
_cell_angle_alpha 90.000000
_cell_angle_beta 71.710797
_cell_angle_gamma 90.000000
_cell_volume 964.607086
_symmetry_space_group_name_H-M "C 2"
_symmetry_group_IT_number 5
_symmetry_cell_setting 'monoclinic'
loop_
_space_group_symop_operation_xyz
x,y,z
-x,y,-z
1/2+x,1/2+y,z
1/2-x,1/2+y,-z
loop_
_atom_site_type_symbol
_atom_site_label
_atom_site_fract_x
_atom_site_fract_y
_atom_site_fract_z
Si Si1 0.793803 0.155910 0.521638
Si Si2 0.805356 0.182527 0.760278
Si Si3 0.009918 0.668089 0.152360
Si Si4 0.130062 0.059688 0.837068
Si Si5 0.041535 0.321154 0.679385
Si Si6 0.155785 0.454308 0.955052
O O1 0.732092 0.402098 0.520233
O O2 0.787461 0.104689 0.647061
O O3 0.906334 0.243262 0.445194
O O4 0.730336 0.401471 0.794848
O O5 0.926646 0.224122 0.728975
O O6 0.764520 0.020736 0.866995
O O7 0.977139 0.922750 0.140021
O O8 0.978425 0.584561 0.279169
O O9 0.927364 0.548135 0.101933
O O10 0.119270 0.571181 0.074416
O O11 0.121716 0.222412 0.738946
O O12 0.139031 0.187855 0.944562
#
# Coordination Sequence:
#
# PCOD9124291 Si02
#       6
#     4   4   4   4   4   4
#     4  12  25  48  75 104 140 188 238 301 371 430
#     4  11  24  42  65 104 137 180 237 290 357 431
#     4   9  20  39  65  97 131 180 232 278 353 417
#     4  10  20  43  66  92 136 182 229 290 350 426
#     4  11  24  42  65 104 137 180 237 290 357 431
#     4   9  20  39  65  97 131 180 232 278 353 417
#
# _framework density 24.880595
#
# number of rings (size 3 to 8) (size 9 to 14) (size 15 to 20)
#    0.000    1.667    1.667    3.500    0.000   12.000 
#    6.000    1.667    0.000    0.000    0.000    0.000 
#    0.000    0.000    0.000    0.000    0.000    0.000 
#
# Total GULP energy -66872.785966 kJ/mol
# GULP energy per Si atom -5572.732164 kJ/mol
# Density = 2.482397 g / cm^3
# Si number density = 24.880595 Si / 1000 Ang^3
#
#
#
# Elastic Constant Matrix: (Units=GPa)
#
#
# Indices 1 2 3 4 5 6 
#
# 1 106.9470 43.2763 49.5318 0.0000 -22.0833 0.0000
# 2 43.2763 96.3584 51.4530 0.0000 -11.1045 0.0000
# 3 49.5318 51.4530 127.0537 0.0000 -36.3359 0.0000
# 4 0.0000 0.0000 0.0000 29.2322 0.0000 -2.1504
# 5 -22.0833 -11.1045 -36.3359 0.0000 50.8294 0.0000
# 6 0.0000 0.0000 0.0000 -2.1504 0.0000 19.8500
#
#
#
# Elastic Compliance Matrix: (Units=1/GPa)
#
#
# Indices 1 2 3 4 5 6 
#
# 1 0.012743 -0.004054 -0.002509 0.000000 0.002857 0.000000
# 2 -0.004054 0.014588 -0.004927 0.000000 -0.002096 0.000000
# 3 -0.002509 -0.004927 0.012852 0.000000 0.007021 0.000000
# 4 0.000000 0.000000 0.000000 0.034484 0.000000 0.003736
# 5 0.002857 -0.002096 0.007021 0.000000 0.025476 0.000000
# 6 0.000000 0.000000 0.000000 0.003736 0.000000 0.050783
#
#
# Mechanical properties :
#
#
# Convention : Reuss Voigt Hill
#
# Bulk Modulus (GPa) = 58.12877 68.76457 63.44667
# Shear Modulus (GPa) = 27.83368 32.38885 30.11127
#
# Velocity S-wave (km/s) = 3.34831 3.61192 3.48261
# Velocity P-wave (km/s) = 6.19371 6.71509 6.45966
#
# Compressibility (1/GPa) = 0.01720319
#
# Stress axis : x y z
#
# Youngs Moduli (GPa) = 78.47532 68.55027 77.80978
#
# Poissons Ratio (x) = 0.27791 0.19522
# Poissons Ratio (y) = 0.31815 0.38334
# Poissons Ratio (z) = 0.19689 0.33772
#
# Static dielectric constant tensor:
#      x y z
#    x 1.961320 0.000000 -0.013930 
#    y 0.000000 2.234120 0.000000 
#    z -0.013930 0.000000 2.021080 
# 
# From -- ./inp_files/53745.got.cif
#   From: 2010.05.17/outbox.cif.g08.bks.cpg/sg5_27_cif.got.tgz:53745.got - 2010.06.03 18:56:24.
