data_PCOD9124425
_publ_section_title
;
Structure prediction by ZEFSAII (Michael W. Deem and Ramdas Pophale) SiO2 
 PCOD9124425
Probable space group: C 2
;
_chemical_formula_sum "Si O2"
_cell_formula_units_Z 28
_cell_length_a 12.778665
_cell_length_b 9.233897
_cell_length_c 13.334962
_cell_angle_alpha 90.000000
_cell_angle_beta 42.050320
_cell_angle_gamma 90.000000
_cell_volume 1053.892766
_symmetry_space_group_name_H-M "C 2"
_symmetry_group_IT_number 5
_symmetry_cell_setting 'monoclinic'
loop_
_space_group_symop_operation_xyz
x,y,z
-x,y,-z
1/2+x,1/2+y,z
1/2-x,1/2+y,-z
loop_
_atom_site_type_symbol
_atom_site_label
_atom_site_fract_x
_atom_site_fract_y
_atom_site_fract_z
Si Si1 0.785455 0.426230 0.705724
Si Si2 0.795308 0.486560 0.265603
Si Si3 0.500000 0.540545 0.000000
Si Si4 0.439494 0.692339 0.834945
Si Si5 0.948337 0.736036 0.255963
Si Si6 0.761183 0.424629 0.062334
Si Si7 0.268843 0.188218 0.579467
Si Si8 0.500000 0.699162 0.500000
O O1 0.684493 0.345951 0.690640
O O2 0.819098 0.582091 0.633589
O O3 0.931404 0.323723 0.626445
O O4 0.657459 0.446422 0.883428
O O5 0.935241 0.598691 0.191262
O O6 0.809649 0.421719 0.144167
O O7 0.761836 0.350336 0.360474
O O8 0.644375 0.589069 0.389933
O O9 0.507470 0.636246 0.092812
O O10 0.297671 0.588175 0.908792
O O11 0.594151 0.652702 0.661684
O O12 0.383127 0.853697 0.898254
O O13 0.892666 0.681009 0.403474
O O14 0.107691 0.823144 0.155197
#
# Coordination Sequence:
#
# PCOD9124425 Si02
#       8
#     4   4   2   4   4   4   4   2
#     4  10  22  42  70 101 140 194 238 302 369 444
#     4  11  26  44  76 110 150 197 248 316 379 452
#     4  10  20  48  70  96 146 190 242 296 378 446
#     4  11  27  46  73 107 144 196 247 312 379 460
#     4  11  24  46  71 110 146 195 241 313 373 447
#     4  12  26  50  71 112 152 190 262 309 384 459
#     4  11  23  47  73 103 152 193 243 305 381 451
#     4  10  24  42  68 112 134 184 250 300 372 442
#
# _framework density 26.568168
#
# number of rings (size 3 to 8) (size 9 to 14) (size 15 to 20)
#    0.000    1.143    2.857    3.429    6.000    5.143 
#    0.000    0.000    0.000    0.000    0.000    0.000 
#    0.000    0.000    0.000    0.000    0.000    0.000 
#
# Total GULP energy -78325.848593 kJ/mol
# GULP energy per Si atom -5594.703471 kJ/mol
# Density = 2.650770 g / cm^3
# Si number density = 26.568168 Si / 1000 Ang^3
#
#
#
# Elastic Constant Matrix: (Units=GPa)
#
#
# Indices 1 2 3 4 5 6 
#
# 1 76.2855 20.8481 14.9319 0.0000 0.9831 0.0000
# 2 20.8481 135.0576 12.5400 0.0000 -18.9052 0.0000
# 3 14.9319 12.5400 88.0676 0.0000 -24.7001 0.0000
# 4 0.0000 0.0000 0.0000 50.3154 0.0000 -8.6869
# 5 0.9831 -18.9052 -24.7001 0.0000 37.8970 0.0000
# 6 0.0000 0.0000 0.0000 -8.6869 0.0000 31.0665
#
#
#
# Elastic Compliance Matrix: (Units=1/GPa)
#
#
# Indices 1 2 3 4 5 6 
#
# 1 0.014434 -0.002446 -0.003116 0.000000 -0.003626 0.000000
# 2 -0.002446 0.008375 0.000504 0.000000 0.004570 0.000000
# 3 -0.003116 0.000504 0.014568 0.000000 0.009827 0.000000
# 4 0.000000 0.000000 0.000000 0.020883 0.000000 0.005839
# 5 -0.003626 0.004570 0.009827 0.000000 0.035166 0.000000
# 6 0.000000 0.000000 0.000000 0.005839 0.000000 0.033822
#
#
# Mechanical properties :
#
#
# Convention : Reuss Voigt Hill
#
# Bulk Modulus (GPa) = 36.68393 44.00563 40.34478
# Shear Modulus (GPa) = 34.14149 40.59517 37.36833
#
# Velocity S-wave (km/s) = 3.58865 3.91316 3.75441
# Velocity P-wave (km/s) = 5.56854 6.08410 5.83202
#
# Compressibility (1/GPa) = 0.02725989
#
# Stress axis : x y z
#
# Youngs Moduli (GPa) = 69.28190 119.40668 68.64561
#
# Poissons Ratio (x) = 0.29210 0.21388
# Poissons Ratio (y) = 0.16948 -0.03459
# Poissons Ratio (z) = 0.21587 -0.06017
#
# Static dielectric constant tensor:
#      x y z
#    x 2.177300 0.000000 -0.006320 
#    y 0.000000 2.041160 0.000000 
#    z -0.006320 0.000000 2.185410 
# 
# From -- ./inp_files/54310.got.cif
#   From: 2010.05.17/outbox.cif.g08.bks.cpg/sg5_28_cif.got.tgz:54310.got - 2010.06.03 18:56:24.
