data_PCOD9124582
_publ_section_title
;
Structure prediction by ZEFSAII (Michael W. Deem and Ramdas Pophale) SiO2 
 PCOD9124582
Probable space group: C 2
;
_chemical_formula_sum "Si O2"
_cell_formula_units_Z 26
_cell_length_a 7.875440
_cell_length_b 22.674584
_cell_length_c 8.826574
_cell_angle_alpha 90.000000
_cell_angle_beta 50.551065
_cell_angle_gamma 90.000000
_cell_volume 1217.113726
_symmetry_space_group_name_H-M "C 2"
_symmetry_group_IT_number 5
_symmetry_cell_setting 'monoclinic'
loop_
_space_group_symop_operation_xyz
x,y,z
-x,y,-z
1/2+x,1/2+y,z
1/2-x,1/2+y,-z
loop_
_atom_site_type_symbol
_atom_site_label
_atom_site_fract_x
_atom_site_fract_y
_atom_site_fract_z
Si Si1 0.666467 0.462720 0.099689
Si Si2 0.125460 0.870656 0.587656
Si Si3 0.073323 0.603537 0.629862
Si Si4 0.629090 0.590873 0.064002
Si Si5 0.000000 0.284461 0.500000
Si Si6 0.264972 0.184473 0.217603
Si Si7 0.383072 0.977731 0.306415
O O1 0.541221 0.400857 0.195432
O O2 0.543113 0.524538 0.136516
O O3 0.777504 0.476162 0.199319
O O4 0.860324 0.461896 0.865123
O O5 0.294876 0.821952 0.551441
O O6 0.274882 0.926200 0.461080
O O7 0.000000 0.853949 0.500000
O O8 0.189669 0.659201 0.639888
O O9 0.181640 0.539296 0.578907
O O10 0.000000 0.614676 0.500000
O O11 0.875553 0.589681 0.860041
O O12 0.639911 0.631323 0.203625
O O13 0.500000 0.620480 0.000000
O O14 0.885390 0.241776 0.688383
O O15 0.500000 0.194805 0.000000
#
# Coordination Sequence:
#
# PCOD9124582 Si02
#       7
#     4   4   4   4   2   4   4
#     4   9  18  37  64  94 135 169 197 268 334 408
#     4  10  24  42  62  96 129 172 229 270 321 393
#     4  10  21  36  65 101 134 165 208 270 335 409
#     4  10  21  37  62 101 130 166 210 261 343 406
#     4  12  28  44  70  86 128 186 238 276 322 372
#     4  10  24  47  64  92 134 174 222 276 329 393
#     4   9  18  36  64  94 135 168 201 262 343 392
#
# _framework density 21.362015
#
# number of rings (size 3 to 8) (size 9 to 14) (size 15 to 20)
#    0.000    2.154    1.538    0.000    5.385    3.077 
#    2.769    0.000    0.000    0.000    0.000    0.000 
#    0.000    0.000    0.000    0.000    0.000    0.000 
#
# Total GULP energy -72498.604808 kJ/mol
# GULP energy per Si atom -5576.815754 kJ/mol
# Density = 2.131339 g / cm^3
# Si number density = 21.362015 Si / 1000 Ang^3
#
#
#
# Elastic Constant Matrix: (Units=GPa)
#
#
# Indices 1 2 3 4 5 6 
#
# 1 86.7527 56.8887 21.4623 0.0000 6.0137 0.0000
# 2 56.8887 95.3389 18.5270 0.0000 -1.0418 0.0000
# 3 21.4623 18.5270 73.4883 0.0000 -12.8465 0.0000
# 4 0.0000 0.0000 0.0000 14.9538 0.0000 -16.6715
# 5 6.0137 -1.0418 -12.8465 0.0000 31.1403 0.0000
# 6 0.0000 0.0000 0.0000 -16.6715 0.0000 11.3243
#
#
#
# Elastic Compliance Matrix: (Units=1/GPa)
#
#
# Indices 1 2 3 4 5 6 
#
# 1 0.020516 -0.011502 -0.004151 0.000000 -0.006059 0.000000
# 2 -0.011502 0.017497 -0.000605 0.000000 0.002557 0.000000
# 3 -0.004151 -0.000605 0.016284 0.000000 0.007499 0.000000
# 4 0.000000 0.000000 0.000000 -0.104278 0.000000 -0.153516
# 5 -0.006059 0.002557 0.007499 0.000000 0.036462 0.000000
# 6 0.000000 0.000000 0.000000 -0.153516 0.000000 -0.137698
#
#
# Mechanical properties :
#
#
# Convention : Reuss Voigt Hill
#
# Bulk Modulus (GPa) = 45.91197 49.92623 47.91910
# Shear Modulus (GPa) = -44.86729 22.06379 -11.40175
#
# Velocity S-wave (km/s) = -4.58791 3.21729 -2.31279
# Velocity P-wave (km/s) = 2.55464 6.10111 3.91773
#
# Compressibility (1/GPa) = 0.02178081
#
# Stress axis : x y z
#
# Youngs Moduli (GPa) = 48.74157 57.15113 61.41182
#
# Poissons Ratio (x) = 0.65733 0.25495
# Poissons Ratio (y) = 0.56061 0.03717
# Poissons Ratio (z) = 0.20235 0.03459
#
# Static dielectric constant tensor:
#      x y z
#    x 1.840970 0.000000 0.012140 
#    y 0.000000 1.763550 0.000000 
#    z 0.012140 0.000000 1.755360 
# 
# From -- ./inp_files/16996.got.cif
#   From: 2010.05.17/outbox.cif.g08.bks.cpg/sg5_9_cif.got.tgz:16996.got - 2010.06.03 18:56:24.
