data_PCOD9124600
_publ_section_title
;
Structure prediction by ZEFSAII (Michael W. Deem and Ramdas Pophale) SiO2 
 PCOD9124600
Probable space group: C 2
;
_chemical_formula_sum "Si O2"
_cell_formula_units_Z 24
_cell_length_a 24.154601
_cell_length_b 6.876476
_cell_length_c 8.474345
_cell_angle_alpha 90.000000
_cell_angle_beta 128.147927
_cell_angle_gamma 90.000000
_cell_volume 1106.944177
_symmetry_space_group_name_H-M "C 2"
_symmetry_group_IT_number 5
_symmetry_cell_setting 'monoclinic'
loop_
_space_group_symop_operation_xyz
x,y,z
-x,y,-z
1/2+x,1/2+y,z
1/2-x,1/2+y,-z
loop_
_atom_site_type_symbol
_atom_site_label
_atom_site_fract_x
_atom_site_fract_y
_atom_site_fract_z
Si Si1 0.687360 0.290310 0.045133
Si Si2 0.172909 0.372911 0.136148
Si Si3 0.445403 0.310793 0.017760
Si Si4 0.901207 0.460710 0.703300
Si Si5 0.699534 0.106627 0.745129
Si Si6 0.473833 0.956650 0.275359
O O1 0.757426 0.411445 0.137307
O O2 0.625213 0.401483 0.030874
O O3 0.664673 0.210042 0.833955
O O4 0.700458 0.095958 0.169616
O O5 0.103580 0.371923 0.900276
O O6 0.145612 0.330246 0.264189
O O7 0.238221 0.242240 0.207638
O O8 0.474980 0.183355 0.217858
O O9 0.500000 0.423564 0.000000
O O10 0.423202 0.136675 0.858501
O O11 0.856187 0.551733 0.484075
O O12 0.968905 0.363403 0.742723
O O13 0.500000 0.935923 0.500000
#
# Coordination Sequence:
#
# PCOD9124600 Si02
#       6
#     4   4   4   4   4   4
#     4  10  21  37  56  84 121 158 193 242 304 355
#     4  10  22  38  57  87 123 153 206 246 297 365
#     4   8  17  35  55  82 114 146 202 245 282 359
#     4   9  19  33  58  86 113 158 200 238 299 356
#     4  12  22  36  60  90 124 158 193 251 303 361
#     4   9  16  33  60  82 112 161 203 244 296 357
#
# _framework density 21.68131
#
# number of rings (size 3 to 8) (size 9 to 14) (size 15 to 20)
#    0.000    2.667    1.667    3.500    4.667    0.000 
#    0.000    1.667    0.000   14.000    0.000    0.000 
#    0.000    0.000    0.000    0.000    0.000    0.000 
#
# Total GULP energy -66847.640473 kJ/mol
# GULP energy per Si atom -5570.636706 kJ/mol
# Density = 2.163196 g / cm^3
# Si number density = 21.681310 Si / 1000 Ang^3
#
#
#
# Elastic Constant Matrix: (Units=GPa)
#
#
# Indices 1 2 3 4 5 6 
#
# 1 151.4640 6.1433 22.2827 0.0000 -2.3539 0.0000
# 2 6.1433 27.4113 7.6540 0.0000 5.1529 0.0000
# 3 22.2827 7.6540 86.9202 0.0000 -6.8426 0.0000
# 4 0.0000 0.0000 0.0000 4.8155 0.0000 -1.9788
# 5 -2.3539 5.1529 -6.8426 0.0000 33.9218 0.0000
# 6 0.0000 0.0000 0.0000 -1.9788 0.0000 21.3889
#
#
#
# Elastic Compliance Matrix: (Units=1/GPa)
#
#
# Indices 1 2 3 4 5 6 
#
# 1 0.006895 -0.001148 -0.001641 0.000000 0.000322 0.000000
# 2 -0.001148 0.039033 -0.003674 0.000000 -0.006750 0.000000
# 3 -0.001641 -0.003674 0.012482 0.000000 0.002962 0.000000
# 4 0.000000 0.000000 0.000000 0.215869 0.000000 0.019971
# 5 0.000322 -0.006750 0.002962 0.000000 0.031125 0.000000
# 6 0.000000 0.000000 0.000000 0.019971 0.000000 0.048601
#
#
# Mechanical properties :
#
#
# Convention : Reuss Voigt Hill
#
# Bulk Modulus (GPa) = 21.98548 37.55062 29.76805
# Shear Modulus (GPa) = 13.08578 27.33960 20.21269
#
# Velocity S-wave (km/s) = 2.45939 3.55487 3.05661
# Velocity P-wave (km/s) = 4.26932 5.84863 5.12023
#
# Compressibility (1/GPa) = 0.04548456
#
# Stress axis : x y z
#
# Youngs Moduli (GPa) = 145.02782 25.61907 80.11338
#
# Poissons Ratio (x) = 0.02940 0.13149
# Poissons Ratio (y) = 0.16642 0.29437
# Poissons Ratio (z) = 0.23803 0.09413
#
# Static dielectric constant tensor:
#      x y z
#    x 1.921450 0.000000 0.016950 
#    y 0.000000 1.842920 0.000000 
#    z 0.016950 0.000000 1.771360 
# 
# From -- ./inp_files/30612.got.cif
#   From: 2010.05.17/outbox.cif.g08.bks.cpg/sg5_16_cif.got.tgz:30612.got - 2010.06.03 18:56:24.
