data_PCOD9124301
_publ_section_title
;
Structure prediction by ZEFSAII (Michael W. Deem and Ramdas Pophale) SiO2 
 PCOD9124301
Probable space group: C 2
;
_chemical_formula_sum "Si O2"
_cell_formula_units_Z 24
_cell_length_a 10.725744
_cell_length_b 11.494721
_cell_length_c 9.827104
_cell_angle_alpha 90.000000
_cell_angle_beta 132.321985
_cell_angle_gamma 90.000000
_cell_volume 895.807889
_symmetry_space_group_name_H-M "C 2"
_symmetry_group_IT_number 5
_symmetry_cell_setting 'monoclinic'
loop_
_space_group_symop_operation_xyz
x,y,z
-x,y,-z
1/2+x,1/2+y,z
1/2-x,1/2+y,-z
loop_
_atom_site_type_symbol
_atom_site_label
_atom_site_fract_x
_atom_site_fract_y
_atom_site_fract_z
Si Si1 0.189842 0.031050 0.277134
Si Si2 0.000000 0.241966 0.000000
Si Si3 0.500000 0.680779 0.500000
Si Si4 0.000000 0.850939 0.000000
Si Si5 0.000000 0.788585 0.500000
Si Si6 0.667146 0.745347 0.872819
Si Si7 0.594097 0.091789 0.794219
Si Si8 0.767150 0.493371 0.645392
O O1 0.113948 0.155444 0.177134
O O2 0.335514 0.008756 0.273368
O O3 0.249959 0.017829 0.471805
O O4 0.046210 0.935789 0.156228
O O5 0.892696 0.309974 0.033114
O O6 0.514744 0.747929 0.652384
O O7 0.657735 0.595505 0.631249
O O8 0.165756 0.785009 0.080556
O O9 0.976220 0.703653 0.348521
O O10 0.835051 0.873912 0.395506
O O11 0.740337 0.628478 0.998333
O O12 0.461365 0.032639 0.797597
#
# Coordination Sequence:
#
# PCOD9124301 Si02
#       8
#     4   2   2   2   2   4   4   4
#     4  10  20  43  69  97 146 199 234 311 381 438
#     4   9  20  40  74  93 144 200 235 298 392 433
#     4  11  24  42  73 108 150 193 248 324 383 436
#     4  11  24  42  70 107 150 188 263 308 380 461
#     4  11  24  42  77 114 150 203 242 310 389 458
#     4  11  23  45  73 107 149 203 248 320 384 449
#     4  11  23  47  74 104 155 199 248 316 380 449
#     4  11  22  42  73 110 149 190 253 309 379 459
#
# _framework density 26.791459
#
# number of rings (size 3 to 8) (size 9 to 14) (size 15 to 20)
#    0.000    1.333    3.333    2.000    0.000    0.000 
#   12.000    0.000    0.000    0.000    0.000    0.000 
#    0.000    0.000    0.000    0.000    0.000    0.000 
#
# Total GULP energy -67013.770870 kJ/mol
# GULP energy per Si atom -5584.480906 kJ/mol
# Density = 2.673048 g / cm^3
# Si number density = 26.791459 Si / 1000 Ang^3
#
#
#
# Elastic Constant Matrix: (Units=GPa)
#
#
# Indices 1 2 3 4 5 6 
#
# 1 123.0703 59.9820 28.3894 0.0000 8.5799 0.0000
# 2 59.9820 105.4222 32.1527 0.0000 7.7957 0.0000
# 3 28.3894 32.1527 110.6357 0.0000 -18.9991 0.0000
# 4 0.0000 0.0000 0.0000 27.5593 0.0000 22.5237
# 5 8.5799 7.7957 -18.9991 0.0000 43.6309 0.0000
# 6 0.0000 0.0000 0.0000 22.5237 0.0000 20.8037
#
#
#
# Elastic Compliance Matrix: (Units=1/GPa)
#
#
# Indices 1 2 3 4 5 6 
#
# 1 0.011507 -0.005935 -0.001550 0.000000 -0.001877 0.000000
# 2 -0.005935 0.013969 -0.002988 0.000000 -0.002630 0.000000
# 3 -0.001550 -0.002988 0.011293 0.000000 0.005756 0.000000
# 4 0.000000 0.000000 0.000000 0.315123 0.000000 -0.341177
# 5 -0.001877 -0.002630 0.005756 0.000000 0.026265 0.000000
# 6 0.000000 0.000000 0.000000 -0.341177 0.000000 0.417454
#
#
# Mechanical properties :
#
#
# Convention : Reuss Voigt Hill
#
# Bulk Modulus (GPa) = 63.20529 64.46407 63.83468
# Shear Modulus (GPa) = 6.08397 32.97238 19.52818
#
# Velocity S-wave (km/s) = 1.50857 3.51195 2.70274
# Velocity P-wave (km/s) = 5.16500 6.36857 5.79810
#
# Compressibility (1/GPa) = 0.01582146
#
# Stress axis : x y z
#
# Youngs Moduli (GPa) = 86.90622 71.58963 88.54761
#
# Poissons Ratio (x) = 0.42491 0.13726
# Poissons Ratio (y) = 0.51582 0.26459
# Poissons Ratio (z) = 0.13471 0.21392
#
# Static dielectric constant tensor:
#      x y z
#    x 2.271920 0.000000 0.073110 
#    y 0.000000 2.200790 0.000000 
#    z 0.073110 0.000000 2.368070 
# 
# From -- ./inp_files/38972.got.cif
#   From: 2010.05.17/outbox.cif.g08.bks.cpg/sg5_20_cif.got.tgz:38972.got - 2010.06.03 18:56:24.
