data_PCOD9124224
_publ_section_title
;
Structure prediction by ZEFSAII (Michael W. Deem and Ramdas Pophale) SiO2 
 PCOD9124224
Probable space group: C 2
;
_chemical_formula_sum "Si O2"
_cell_formula_units_Z 20
_cell_length_a 21.731356
_cell_length_b 7.431253
_cell_length_c 14.517312
_cell_angle_alpha 90.000000
_cell_angle_beta 20.569171
_cell_angle_gamma 90.000000
_cell_volume 823.683048
_symmetry_space_group_name_H-M "C 2"
_symmetry_group_IT_number 5
_symmetry_cell_setting 'monoclinic'
loop_
_space_group_symop_operation_xyz
x,y,z
-x,y,-z
1/2+x,1/2+y,z
1/2-x,1/2+y,-z
loop_
_atom_site_type_symbol
_atom_site_label
_atom_site_fract_x
_atom_site_fract_y
_atom_site_fract_z
Si Si1 0.500000 0.090070 0.500000
Si Si2 0.580902 0.055060 0.129890
Si Si3 0.500000 0.751433 0.000000
Si Si4 0.248070 0.953970 0.706007
Si Si5 0.609694 0.382419 0.195109
Si Si6 0.738539 0.043741 0.711284
O O1 0.568304 0.230431 0.328668
O O2 0.362943 0.968909 0.637400
O O3 0.606553 0.269060 0.105801
O O4 0.382113 0.010495 0.435663
O O5 0.652335 0.995352 0.930981
O O6 0.709486 0.964527 0.024983
O O7 0.598132 0.605236 0.926808
O O8 0.655031 0.894975 0.760130
O O9 0.193701 0.751414 0.759074
O O10 0.447891 0.520365 0.421798
#
# Coordination Sequence:
#
# PCOD9124224 Si02
#       6
#     2   4   2   4   4   4
#     4  10  20  42  70 106 146 168 232 304 340 408
#     4  11  23  42  70 108 139 184 235 289 356 419
#     4  12  24  56  66 100 156 182 242 294 342 432
#     4  11  26  45  74 107 139 191 236 291 358 421
#     4  11  21  40  69 109 145 175 232 293 352 417
#     4  12  25  47  73  98 147 190 230 296 352 417
#
# _framework density 24.281185000000001
#
# number of rings (size 3 to 8) (size 9 to 14) (size 15 to 20)
#    0.000    0.800    6.000    1.800    8.400    0.000 
#   10.800    0.000    0.000    0.000    0.000    0.000 
#    0.000    0.000    0.000    0.000    0.000    0.000 
#
# Total GULP energy -55841.729159 kJ/mol
# GULP energy per Si atom -5584.172916 kJ/mol
# Density = 2.422592 g / cm^3
# Si number density = 24.281185 Si / 1000 Ang^3
#
#
#
# Elastic Constant Matrix: (Units=GPa)
#
#
# Indices 1 2 3 4 5 6 
#
# 1 46.6315 20.6333 30.3687 0.0000 -21.8005 0.0000
# 2 20.6333 187.1033 42.3672 0.0000 -16.9253 0.0000
# 3 30.3687 42.3672 53.9534 0.0000 -20.1675 0.0000
# 4 0.0000 0.0000 0.0000 59.6056 0.0000 1.8092
# 5 -21.8005 -16.9253 -20.1675 0.0000 25.4090 0.0000
# 6 0.0000 0.0000 0.0000 1.8092 0.0000 25.5574
#
#
#
# Elastic Compliance Matrix: (Units=1/GPa)
#
#
# Indices 1 2 3 4 5 6 
#
# 1 0.042859 0.001073 -0.015575 0.000000 0.025125 0.000000
# 2 0.001073 0.006530 -0.005349 0.000000 0.001025 0.000000
# 3 -0.015575 -0.005349 0.035794 0.000000 0.011484 0.000000
# 4 0.000000 0.000000 0.000000 0.016813 0.000000 -0.001190
# 5 0.025125 0.001025 0.011484 0.000000 0.070711 0.000000
# 6 0.000000 0.000000 0.000000 -0.001190 0.000000 0.039212
#
#
# Mechanical properties :
#
#
# Convention : Reuss Voigt Hill
#
# Bulk Modulus (GPa) = 21.98664 52.71409 37.35036
# Shear Modulus (GPa) = 18.74186 35.06900 26.90543
#
# Velocity S-wave (km/s) = 2.78126 3.80450 3.33239
# Velocity P-wave (km/s) = 4.40325 6.40749 5.49748
#
# Compressibility (1/GPa) = 0.04548216
#
# Stress axis : x y z
#
# Youngs Moduli (GPa) = 23.33207 153.13504 27.93739
#
# Poissons Ratio (x) = -0.16435 0.43514
# Poissons Ratio (y) = -0.02504 0.14943
# Poissons Ratio (z) = 0.36341 0.81907
#
# Static dielectric constant tensor:
#      x y z
#    x 1.987120 0.000000 -0.063550 
#    y 0.000000 1.919100 0.000000 
#    z -0.063550 0.000000 1.662900 
# 
# From -- ./inp_files/18382.got.cif
#   From: 2010.05.17/outbox.cif.g08.bks.cpg/sg5_10_cif.got.tgz:18382.got - 2010.06.03 18:56:24.
