data_PCOD9124817
_publ_section_title
;
Structure prediction by ZEFSAII (Michael W. Deem and Ramdas Pophale) SiO2 
 PCOD9124817
Probable space group: C 2
;
_chemical_formula_sum "Si O2"
_cell_formula_units_Z 30
_cell_length_a 27.033655
_cell_length_b 7.499513
_cell_length_c 16.459543
_cell_angle_alpha 90.000000
_cell_angle_beta 20.776207
_cell_angle_gamma 90.000000
_cell_volume 1183.694756
_symmetry_space_group_name_H-M "C 2"
_symmetry_group_IT_number 5
_symmetry_cell_setting 'monoclinic'
loop_
_space_group_symop_operation_xyz
x,y,z
-x,y,-z
1/2+x,1/2+y,z
1/2-x,1/2+y,-z
loop_
_atom_site_type_symbol
_atom_site_label
_atom_site_fract_x
_atom_site_fract_y
_atom_site_fract_z
Si Si1 0.045930 0.008220 0.835809
Si Si2 0.920371 0.569134 0.038593
Si Si3 0.500000 0.710275 0.500000
Si Si4 0.738374 0.830285 0.915328
Si Si5 0.661939 0.151671 0.574055
Si Si6 0.730639 0.715127 0.756789
Si Si7 0.074458 0.995252 0.237130
Si Si8 0.807767 0.735394 0.061397
O O1 0.183394 0.129001 0.629203
O O2 0.102156 0.834387 0.703575
O O3 0.000000 0.975647 0.000000
O O4 0.910940 0.107713 0.008463
O O5 0.048336 0.514531 0.783195
O O6 0.817955 0.403302 0.207660
O O7 0.832596 0.715622 0.120975
O O8 0.000000 0.610166 0.000000
O O9 0.476870 0.588761 0.454906
O O10 0.653568 0.803039 0.266940
O O11 0.800638 0.757501 0.734943
O O12 0.841231 0.870457 0.830071
O O13 0.679507 0.029201 0.987490
O O14 0.639249 0.674629 0.099263
O O15 0.677730 0.127835 0.453463
O O16 0.074776 0.859271 0.160701
#
# Coordination Sequence:
#
# PCOD9124817 Si02
#       8
#     4   4   2   4   4   4   4   4
#     4  10  21  38  63  94 133 176 232 281 322 409
#     4  11  23  43  68  97 140 181 229 286 340 410
#     4  10  22  44  76 106 130 188 236 278 374 416
#     4  10  21  42  70  95 140 174 223 294 353 404
#     4  11  22  40  66  92 132 186 223 271 352 393
#     4  10  23  42  62  96 136 176 225 287 334 416
#     4  11  21  44  69  99 141 173 228 294 344 426
#     4  10  24  44  71 103 140 182 235 291 346 426
#
# _framework density 25.344372
#
# number of rings (size 3 to 8) (size 9 to 14) (size 15 to 20)
#    0.000    1.600    2.667    3.200    1.867    3.200 
#    2.400    8.667    0.000    0.000    0.000    0.000 
#    0.000    0.000    0.000    0.000    0.000    0.000 
#
# Total GULP energy -83616.394624 kJ/mol
# GULP energy per Si atom -5574.426308 kJ/mol
# Density = 2.528669 g / cm^3
# Si number density = 25.344372 Si / 1000 Ang^3
#
#
#
# Elastic Constant Matrix: (Units=GPa)
#
#
# Indices 1 2 3 4 5 6 
#
# 1 155.1707 0.5427 19.2925 0.0000 7.8638 0.0000
# 2 0.5427 57.1254 -8.7908 0.0000 -6.2988 0.0000
# 3 19.2925 -8.7908 99.9312 0.0000 -0.3292 0.0000
# 4 0.0000 0.0000 0.0000 39.3551 0.0000 5.8319
# 5 7.8638 -6.2988 -0.3292 0.0000 39.4738 0.0000
# 6 0.0000 0.0000 0.0000 5.8319 0.0000 22.0360
#
#
#
# Elastic Compliance Matrix: (Units=1/GPa)
#
#
# Indices 1 2 3 4 5 6 
#
# 1 0.006683 -0.000424 -0.001332 0.000000 -0.001410 0.000000
# 2 -0.000424 0.018098 0.001684 0.000000 0.002986 0.000000
# 3 -0.001332 0.001684 0.010414 0.000000 0.000621 0.000000
# 4 0.000000 0.000000 0.000000 0.026447 0.000000 -0.006999
# 5 -0.001410 0.002986 0.000621 0.000000 0.026096 0.000000
# 6 0.000000 0.000000 0.000000 -0.006999 0.000000 0.047233
#
#
# Mechanical properties :
#
#
# Convention : Reuss Voigt Hill
#
# Bulk Modulus (GPa) = 28.53046 37.14623 32.83834
# Shear Modulus (GPa) = 34.06026 40.25186 37.15606
#
# Velocity S-wave (km/s) = 3.66990 3.98954 3.83305
# Velocity P-wave (km/s) = 5.40732 5.99252 5.70743
#
# Compressibility (1/GPa) = 0.03505025
#
# Stress axis : x y z
#
# Youngs Moduli (GPa) = 149.63143 55.25546 96.02250
#
# Poissons Ratio (x) = 0.02343 0.12792
# Poissons Ratio (y) = 0.06344 -0.16168
# Poissons Ratio (z) = 0.19933 -0.09304
#
# Static dielectric constant tensor:
#      x y z
#    x 2.132530 0.000000 0.015600 
#    y 0.000000 2.049200 0.000000 
#    z 0.015600 0.000000 2.064470 
# 
# From -- ./inp_files/63797.got.cif
#   From: 2010.05.17/outbox.cif.g08.bks.cpg/sg5_32_cif.got.tgz:63797.got - 2010.06.03 18:56:24.
