data_PCOD9124559
_publ_section_title
;
Structure prediction by ZEFSAII (Michael W. Deem and Ramdas Pophale) SiO2 
 PCOD9124559
Probable space group: C 2
;
_chemical_formula_sum "Si O2"
_cell_formula_units_Z 30
_cell_length_a 11.776874
_cell_length_b 16.570360
_cell_length_c 8.565249
_cell_angle_alpha 90.000000
_cell_angle_beta 118.880870
_cell_angle_gamma 90.000000
_cell_volume 1463.593706
_symmetry_space_group_name_H-M "C 2"
_symmetry_group_IT_number 5
_symmetry_cell_setting 'monoclinic'
loop_
_space_group_symop_operation_xyz
x,y,z
-x,y,-z
1/2+x,1/2+y,z
1/2-x,1/2+y,-z
loop_
_atom_site_type_symbol
_atom_site_label
_atom_site_fract_x
_atom_site_fract_y
_atom_site_fract_z
Si Si1 0.916414 0.232130 0.797775
Si Si2 0.193054 0.635418 0.824036
Si Si3 0.000000 0.025566 0.500000
Si Si4 0.768864 0.959924 0.799046
Si Si5 0.307709 0.801350 0.422086
Si Si6 0.017276 0.759722 0.329640
Si Si7 0.363802 0.653874 0.238465
Si Si8 0.950417 0.923085 0.164223
O O1 0.785438 0.194867 0.783218
O O2 0.886400 0.292771 0.636100
O O3 0.004725 0.160995 0.779062
O O4 0.000000 0.264443 0.000000
O O5 0.206309 0.547856 0.753630
O O6 0.050429 0.673464 0.735412
O O7 0.253215 0.636146 0.038651
O O8 0.117449 0.087810 0.613703
O O9 0.017979 0.965951 0.654065
O O10 0.694657 0.889569 0.657844
O O11 0.916550 0.950209 0.834160
O O12 0.809131 0.946585 0.006252
O O13 0.350694 0.738382 0.318295
O O14 0.164555 0.770936 0.375735
O O15 0.945691 0.826761 0.177670
O O16 0.000000 0.780844 0.500000
#
# Coordination Sequence:
#
# PCOD9124559 Si02
#       8
#     4   4   2   4   4   4   4   4
#     4  10  21  37  64  92 118 160 218 270 318 378
#     4  11  22  39  63  94 127 166 216 260 326 388
#     4  12  18  32  62  92 118 148 206 278 316 344
#     4  10  22  37  60  91 125 170 211 270 315 379
#     4  11  22  41  62  94 132 172 214 260 329 392
#     4  11  22  39  62  92 128 174 206 257 328 398
#     4  11  22  36  63  95 125 160 212 279 320 368
#     4  10  21  36  60  93 125 157 221 274 315 357
#
# _framework density 20.497492999999999
#
# number of rings (size 3 to 8) (size 9 to 14) (size 15 to 20)
#    0.000    1.333    4.667    1.600    3.733    1.600 
#    0.000    1.333    0.000    0.000    3.467    0.000 
#    0.000    0.000    0.000    0.000    0.000    0.000 
#
# Total GULP energy -83550.711753 kJ/mol
# GULP energy per Si atom -5570.047450 kJ/mol
# Density = 2.045084 g / cm^3
# Si number density = 20.497493 Si / 1000 Ang^3
#
#
#
# Elastic Constant Matrix: (Units=GPa)
#
#
# Indices 1 2 3 4 5 6 
#
# 1 50.8020 16.5309 5.3600 0.0000 0.8774 0.0000
# 2 16.5309 120.2933 39.6152 0.0000 -1.0990 0.0000
# 3 5.3600 39.6152 83.7898 0.0000 -13.1688 0.0000
# 4 0.0000 0.0000 0.0000 22.8915 0.0000 6.5911
# 5 0.8774 -1.0990 -13.1688 0.0000 15.7703 0.0000
# 6 0.0000 0.0000 0.0000 6.5911 0.0000 17.7343
#
#
#
# Elastic Compliance Matrix: (Units=1/GPa)
#
#
# Indices 1 2 3 4 5 6 
#
# 1 0.020638 -0.002766 -0.000257 0.000000 -0.001556 0.000000
# 2 -0.002766 0.010406 -0.005301 0.000000 -0.003547 0.000000
# 3 -0.000257 -0.005301 0.016577 0.000000 0.013487 0.000000
# 4 0.000000 0.000000 0.000000 0.048919 0.000000 -0.018181
# 5 -0.001556 -0.003547 0.013487 0.000000 0.074512 0.000000
# 6 0.000000 0.000000 0.000000 -0.018181 0.000000 0.063145
#
#
# Mechanical properties :
#
#
# Convention : Reuss Voigt Hill
#
# Bulk Modulus (GPa) = 32.28450 41.98858 37.13654
# Shear Modulus (GPa) = 19.14466 24.17115 21.65791
#
# Velocity S-wave (km/s) = 3.05946 3.43771 3.25408
# Velocity P-wave (km/s) = 5.31649 6.02381 5.68117
#
# Compressibility (1/GPa) = 0.03097462
#
# Stress axis : x y z
#
# Youngs Moduli (GPa) = 48.45380 96.09596 60.32501
#
# Poissons Ratio (x) = 0.26577 0.01551
# Poissons Ratio (y) = 0.13401 0.31976
# Poissons Ratio (z) = 0.01246 0.50936
#
# Static dielectric constant tensor:
#      x y z
#    x 1.770210 0.000000 -0.028890 
#    y 0.000000 1.784400 0.000000 
#    z -0.028890 0.000000 1.750900 
# 
# From -- ./inp_files/21473.got.cif
#   From: 2010.05.17/outbox.cif.g08.bks.cpg/sg5_11_cif.got.tgz:21473.got - 2010.06.03 18:56:24.
