data_PCOD9124679
_publ_section_title
;
Structure prediction by ZEFSAII (Michael W. Deem and Ramdas Pophale) SiO2 
 PCOD9124679
Probable space group: C 2
;
_chemical_formula_sum "Si O2"
_cell_formula_units_Z 16
_cell_length_a 8.117386
_cell_length_b 15.996376
_cell_length_c 5.559857
_cell_angle_alpha 90.000000
_cell_angle_beta 52.778283
_cell_angle_gamma 90.000000
_cell_volume 574.881747
_symmetry_space_group_name_H-M "C 2"
_symmetry_group_IT_number 5
_symmetry_cell_setting 'monoclinic'
loop_
_space_group_symop_operation_xyz
x,y,z
-x,y,-z
1/2+x,1/2+y,z
1/2-x,1/2+y,-z
loop_
_atom_site_type_symbol
_atom_site_label
_atom_site_fract_x
_atom_site_fract_y
_atom_site_fract_z
Si Si1 0.500000 0.986171 0.000000
Si Si2 0.244890 0.827399 0.798983
Si Si3 0.256418 0.241596 0.701007
Si Si4 0.000000 0.982687 0.500000
Si Si5 0.500000 0.582470 0.000000
Si Si6 0.500000 0.991750 0.500000
O O1 0.502938 0.036567 0.243921
O O2 0.252319 0.948235 0.256805
O O3 0.304511 0.773406 0.511563
O O4 0.322510 0.921593 0.695623
O O5 0.313739 0.790210 0.994675
O O6 0.000000 0.830537 0.000000
O O7 0.500000 0.251071 0.500000
O O8 0.187506 0.147266 0.804225
O O9 0.999642 0.032315 0.249829
#
# Coordination Sequence:
#
# PCOD9124679 Si02
#       6
#     2   4   4   2   2   2
#     4  12  30  49  72 100 134 177 242 298 336 396
#     4  10  21  37  63 102 139 172 217 268 334 421
#     4  10  21  37  63 102 139 172 217 268 334 421
#     4  12  30  49  72 100 134 177 242 298 336 396
#     4  12  24  43  74  94 138 181 226 280 356 396
#     4  12  24  43  74  94 138 181 226 280 356 396
#
# _framework density 27.831811999999999
#
# number of rings (size 3 to 8) (size 9 to 14) (size 15 to 20)
#    0.000    1.000    0.000    6.000    7.000    0.000 
#    0.000    0.000    0.000    0.000    0.000    0.000 
#    0.000    0.000    0.000    0.000    0.000    0.000 
#
# Total GULP energy -44534.182649 kJ/mol
# GULP energy per Si atom -5566.772831 kJ/mol
# Density = 2.776847 g / cm^3
# Si number density = 27.831812 Si / 1000 Ang^3
#
#
#
# Elastic Constant Matrix: (Units=GPa)
#
#
# Indices 1 2 3 4 5 6 
#
# 1 127.0442 52.5801 118.9338 0.0000 32.9764 0.0000
# 2 52.5801 56.0834 57.7630 0.0000 28.9582 0.0000
# 3 118.9338 57.7630 288.3541 0.0000 19.9673 0.0000
# 4 0.0000 0.0000 0.0000 58.0408 0.0000 -3.7465
# 5 32.9764 28.9582 19.9673 0.0000 118.3683 0.0000
# 6 0.0000 0.0000 0.0000 -3.7465 0.0000 36.5955
#
#
#
# Elastic Compliance Matrix: (Units=1/GPa)
#
#
# Indices 1 2 3 4 5 6 
#
# 1 0.017038 -0.010207 -0.004884 0.000000 -0.001426 0.000000
# 2 -0.010207 0.031634 -0.001809 0.000000 -0.004590 0.000000
# 3 -0.004884 -0.001809 0.005788 0.000000 0.000827 0.000000
# 4 0.000000 0.000000 0.000000 0.017344 0.000000 0.001776
# 5 -0.001426 -0.004590 0.000827 0.000000 0.009829 0.000000
# 6 0.000000 0.000000 0.000000 0.001776 0.000000 0.027508
#
#
# Mechanical properties :
#
#
# Convention : Reuss Voigt Hill
#
# Bulk Modulus (GPa) = 48.40614 103.33728 75.87171
# Shear Modulus (GPa) = 33.37200 58.74790 46.05995
#
# Velocity S-wave (km/s) = 3.46650 4.59935 4.07251
# Velocity P-wave (km/s) = 5.78380 8.08796 7.03091
#
# Compressibility (1/GPa) = 0.02065854
#
# Stress axis : x y z
#
# Youngs Moduli (GPa) = 58.69187 31.61205 172.78606
#
# Poissons Ratio (x) = 0.32268 0.84389
# Poissons Ratio (y) = 0.59909 0.31254
# Poissons Ratio (z) = 0.28665 0.05718
#
# Static dielectric constant tensor:
#      x y z
#    x 2.392670 0.000000 -0.177690 
#    y 0.000000 2.078900 0.000000 
#    z -0.177690 0.000000 2.208920 
# 
# From -- ./inp_files/2278.got.cif
#   From: 2010.05.17/outbox.cif.g08.bks.cpg/sg5_2_cif.got.tgz:2278.got - 2010.06.03 18:56:24.
