data_PCOD9124161
_publ_section_title
;
Structure prediction by ZEFSAII (Michael W. Deem and Ramdas Pophale) SiO2 
 PCOD9124161
Probable space group: C 2
;
_chemical_formula_sum "Si O2"
_cell_formula_units_Z 20
_cell_length_a 21.362170
_cell_length_b 5.497525
_cell_length_c 7.319117
_cell_angle_alpha 90.000000
_cell_angle_beta 57.928495
_cell_angle_gamma 90.000000
_cell_volume 728.370930
_symmetry_space_group_name_H-M "C 2"
_symmetry_group_IT_number 5
_symmetry_cell_setting 'monoclinic'
loop_
_space_group_symop_operation_xyz
x,y,z
-x,y,-z
1/2+x,1/2+y,z
1/2-x,1/2+y,-z
loop_
_atom_site_type_symbol
_atom_site_label
_atom_site_fract_x
_atom_site_fract_y
_atom_site_fract_z
Si Si1 0.081570 0.585080 0.623977
Si Si2 0.772995 0.684227 0.735529
Si Si3 0.343899 0.573663 0.802409
Si Si4 0.858603 0.897123 0.151478
Si Si5 0.500000 0.728034 0.000000
Si Si6 0.500000 0.477295 0.500000
O O1 0.152158 0.521101 0.386571
O O2 0.125034 0.677769 0.739344
O O3 0.032676 0.795615 0.604871
O O4 0.025949 0.388461 0.788759
O O5 0.810112 0.951245 0.674160
O O6 0.715548 0.550836 0.691610
O O7 0.717003 0.722797 0.994177
O O8 0.428750 0.640761 0.650742
O O9 0.353090 0.350182 0.942438
O O10 0.929319 0.068061 0.063801
#
# Coordination Sequence:
#
# PCOD9124161 Si02
#       6
#     4   4   4   4   2   2
#     4  11  24  44  68  95 139 170 220 280 318 399
#     4   9  23  42  64  96 132 177 216 264 334 378
#     4   9  20  42  61  94 131 168 217 266 319 390
#     4  10  24  43  66 100 132 172 220 276 319 393
#     4  12  24  42  70  98 126 184 218 268 340 390
#     4  10  20  42  66  92 134 174 210 278 330 364
#
# _framework density 27.458535000000001
#
# number of rings (size 3 to 8) (size 9 to 14) (size 15 to 20)
#    1.200    0.800    0.000    3.000    2.800    4.800 
#   14.400    1.000    0.000    0.000    0.000    0.000 
#    0.000    0.000    0.000    0.000    0.000    0.000 
#
# Total GULP energy -55784.156975 kJ/mol
# GULP energy per Si atom -5578.415697 kJ/mol
# Density = 2.739604 g / cm^3
# Si number density = 27.458535 Si / 1000 Ang^3
#
#
#
# Elastic Constant Matrix: (Units=GPa)
#
#
# Indices 1 2 3 4 5 6 
#
# 1 173.4867 41.6569 64.3882 0.0000 -47.3289 0.0000
# 2 41.6569 38.6742 30.2049 0.0000 -30.1086 0.0000
# 3 64.3882 30.2049 176.3301 0.0000 -52.0847 0.0000
# 4 0.0000 0.0000 0.0000 43.1005 0.0000 -3.9865
# 5 -47.3289 -30.1086 -52.0847 0.0000 80.5160 0.0000
# 6 0.0000 0.0000 0.0000 -3.9865 0.0000 53.8089
#
#
#
# Elastic Compliance Matrix: (Units=1/GPa)
#
#
# Indices 1 2 3 4 5 6 
#
# 1 0.008304 -0.006684 -0.001463 0.000000 0.001435 0.000000
# 2 -0.006684 0.042963 -0.001649 0.000000 0.011070 0.000000
# 3 -0.001463 -0.001649 0.007481 0.000000 0.003363 0.000000
# 4 0.000000 0.000000 0.000000 0.023362 0.000000 0.001731
# 5 0.001435 0.011070 0.003363 0.000000 0.019578 0.000000
# 6 0.000000 0.000000 0.000000 0.001731 0.000000 0.018713
#
#
# Mechanical properties :
#
#
# Convention : Reuss Voigt Hill
#
# Bulk Modulus (GPa) = 25.53934 73.44346 49.49140
# Shear Modulus (GPa) = 32.67034 52.30115 42.48574
#
# Velocity S-wave (km/s) = 3.45310 4.36906 3.93780
# Velocity P-wave (km/s) = 5.02193 7.22888 6.22400
#
# Compressibility (1/GPa) = 0.03915528
#
# Stress axis : x y z
#
# Youngs Moduli (GPa) = 120.42898 23.27607 133.66732
#
# Poissons Ratio (x) = 0.15558 0.19560
# Poissons Ratio (y) = 0.80495 0.22038
# Poissons Ratio (z) = 0.17622 0.03838
#
# Static dielectric constant tensor:
#      x y z
#    x 2.116490 0.000000 0.092180 
#    y 0.000000 2.218250 0.000000 
#    z 0.092180 0.000000 2.274100 
# 
# From -- ./inp_files/28185.got.cif
#   From: 2010.05.17/outbox.cif.g08.bks.cpg/sg5_15_cif.got.tgz:28185.got - 2010.06.03 18:56:24.
