data_PCOD9124128
_publ_section_title
;
Structure prediction by ZEFSAII (Michael W. Deem and Ramdas Pophale) SiO2 
 PCOD9124128
Probable space group: C 2
;
_chemical_formula_sum "Si O2"
_cell_formula_units_Z 24
_cell_length_a 17.135912
_cell_length_b 14.673939
_cell_length_c 9.551266
_cell_angle_alpha 90.000000
_cell_angle_beta 29.211287
_cell_angle_gamma 90.000000
_cell_volume 1172.095035
_symmetry_space_group_name_H-M "C 2"
_symmetry_group_IT_number 5
_symmetry_cell_setting 'monoclinic'
loop_
_space_group_symop_operation_xyz
x,y,z
-x,y,-z
1/2+x,1/2+y,z
1/2-x,1/2+y,-z
loop_
_atom_site_type_symbol
_atom_site_label
_atom_site_fract_x
_atom_site_fract_y
_atom_site_fract_z
Si Si1 0.660531 0.656840 0.566783
Si Si2 0.198485 0.523324 0.433315
Si Si3 0.388027 0.143020 0.953092
Si Si4 0.597234 0.294144 0.480789
Si Si5 0.830086 0.360414 0.330424
Si Si6 0.808065 0.130724 0.014971
O O1 0.686740 0.584063 0.648158
O O2 0.659182 0.755868 0.639009
O O3 0.495528 0.641847 0.743830
O O4 0.807341 0.648970 0.229709
O O5 0.207390 0.422177 0.477525
O O6 0.247818 0.543499 0.197435
O O7 0.021440 0.564644 0.733074
O O8 0.478829 0.236054 0.765811
O O9 0.253458 0.126539 0.046281
O O10 0.500000 0.331847 0.500000
O O11 0.696147 0.364469 0.419239
O O12 0.718474 0.217834 0.226903
O O13 0.000000 0.388557 0.000000
#
# Coordination Sequence:
#
# PCOD9124128 Si02
#       6
#     4   4   4   4   4   4
#     4  12  21  40  64  96 125 163 214 268 312 374
#     4  11  23  40  64  91 124 174 213 257 317 377
#     4  10  21  39  65  91 126 163 211 258 320 376
#     4   9  19  38  64  88 122 167 204 255 320 376
#     4  12  22  39  66  96 130 168 215 268 316 377
#     4  10  20  42  64  89 124 168 206 259 318 375
#
# _framework density 20.476156
#
# number of rings (size 3 to 8) (size 9 to 14) (size 15 to 20)
#    0.000    1.333    5.000    4.000    0.000    0.000 
#    6.000    6.667    0.000    0.000    0.000    0.000 
#    0.000    0.000    0.000    0.000    0.000    0.000 
#
# Total GULP energy -67105.130760 kJ/mol
# GULP energy per Si atom -5592.094230 kJ/mol
# Density = 2.042955 g / cm^3
# Si number density = 20.476156 Si / 1000 Ang^3
#
#
#
# Elastic Constant Matrix: (Units=GPa)
#
#
# Indices 1 2 3 4 5 6 
#
# 1 102.7768 -1.4324 4.3912 -0.0005 -22.7055 0.0002
# 2 -1.4324 31.3554 -8.1267 -0.0003 -1.3932 0.0003
# 3 4.3912 -8.1267 62.3816 -0.0006 -3.7952 0.0005
# 4 -0.0005 -0.0003 -0.0006 9.4804 0.0004 7.8304
# 5 -22.7055 -1.3932 -3.7952 0.0004 40.5777 -0.0002
# 6 0.0002 0.0003 0.0005 7.8304 -0.0002 25.3285
#
#
#
# Elastic Compliance Matrix: (Units=1/GPa)
#
#
# Indices 1 2 3 4 5 6 
#
# 1 0.011127 0.000704 -0.000313 0.000001 0.006221 0.000000
# 2 0.000704 0.033148 0.004387 0.000002 0.001942 -0.000001
# 3 -0.000313 0.004387 0.016718 0.000002 0.001539 -0.000001
# 4 0.000001 0.000002 0.000002 0.141651 -0.000001 -0.043792
# 5 0.006221 0.001942 0.001539 -0.000001 0.028336 0.000000
# 6 0.000000 -0.000001 -0.000001 -0.043792 0.000000 0.053020
#
#
# Mechanical properties :
#
#
# Convention : Reuss Voigt Hill
#
# Bulk Modulus (GPa) = 14.17484 20.68646 17.43065
# Shear Modulus (GPa) = 16.78075 28.52277 22.65176
#
# Velocity S-wave (km/s) = 2.86584 3.73631 3.32964
# Velocity P-wave (km/s) = 4.22947 5.36078 4.82837
#
# Compressibility (1/GPa) = 0.07054754
#
# Stress axis : x y z
#
# Youngs Moduli (GPa) = 89.86807 30.16789 59.81746
#
# Poissons Ratio (x) = -0.02123 0.01873
# Poissons Ratio (y) = -0.06323 -0.26241
# Poissons Ratio (z) = 0.02814 -0.13234
#
# Static dielectric constant tensor:
#      x y z
#    x 1.728360 0.000000 -0.020760 
#    y 0.000000 1.704200 0.000000 
#    z -0.020760 0.000000 1.712590 
# 
# From -- ./inp_files/27662.got.cif
#   From: 2010.05.17/outbox.cif.g08.bks.cpg/sg5_14_cif.got.tgz:27662.got - 2010.06.03 18:56:24.
