data_PCOD9124957
_publ_section_title
;
Structure prediction by ZEFSAII (Michael W. Deem and Ramdas Pophale) SiO2 
 PCOD9124957
Probable space group: C 2
;
_chemical_formula_sum "Si O2"
_cell_formula_units_Z 28
_cell_length_a 21.001280
_cell_length_b 4.882214
_cell_length_c 13.800807
_cell_angle_alpha 90.000000
_cell_angle_beta 76.377082
_cell_angle_gamma 90.000000
_cell_volume 1375.225244
_symmetry_space_group_name_H-M "C 2"
_symmetry_group_IT_number 5
_symmetry_cell_setting 'monoclinic'
loop_
_space_group_symop_operation_xyz
x,y,z
-x,y,-z
1/2+x,1/2+y,z
1/2-x,1/2+y,-z
loop_
_atom_site_type_symbol
_atom_site_label
_atom_site_fract_x
_atom_site_fract_y
_atom_site_fract_z
Si Si1 0.500000 0.208511 0.500000
Si Si2 0.528200 0.985725 0.688498
Si Si3 0.330702 0.852950 0.786549
Si Si4 0.000000 0.147414 0.000000
Si Si5 0.684303 0.465300 0.875449
Si Si6 0.404307 0.314692 0.690877
Si Si7 0.932567 0.966111 0.212228
Si Si8 0.135312 0.447364 0.005399
O O1 0.533795 0.025235 0.571383
O O2 0.444813 0.375788 0.578297
O O3 0.459052 0.142616 0.732133
O O4 0.575542 0.173495 0.735097
O O5 0.536443 0.679890 0.722571
O O6 0.371100 0.578552 0.748741
O O7 0.252583 0.835911 0.819327
O O8 0.148437 0.455620 0.114372
O O9 0.349306 0.082808 0.700918
O O10 0.020450 0.973996 0.898498
O O11 0.063375 0.328603 0.005851
O O12 0.638216 0.550688 0.802565
O O13 0.645746 0.238211 0.951690
O O14 0.688068 0.733692 0.941207
#
# Coordination Sequence:
#
# PCOD9124957 Si02
#       8
#     2   4   4   2   4   4   4   4
#     4   8  24  40  66  98 124 146 210 284 344 386
#     4  10  21  39  62  91 119 153 203 257 342 366
#     4  12  22  38  61  87 125 173 219 252 309 392
#     4  10  22  34  56  90 122 158 208 256 310 368
#     4  11  24  38  55  86 127 177 212 249 304 377
#     4  10  22  37  63  93 119 151 203 279 327 379
#     4  11  22  37  59  87 127 166 201 255 310 385
#     4  11  22  37  57  84 128 169 213 265 302 369
#
# _framework density 20.360299000000001
#
# number of rings (size 3 to 8) (size 9 to 14) (size 15 to 20)
#    0.857    0.571    0.000    6.857    0.000    8.571 
#    0.000    0.000    0.000    3.429    0.000    0.000 
#    0.000    0.000    0.000    0.000    0.000    0.000 
#
# Total GULP energy -78119.293282 kJ/mol
# GULP energy per Si atom -5579.949520 kJ/mol
# Density = 2.031396 g / cm^3
# Si number density = 20.360299 Si / 1000 Ang^3
#
#
#
# Elastic Constant Matrix: (Units=GPa)
#
#
# Indices 1 2 3 4 5 6 
#
# 1 76.9776 6.1541 40.3472 0.0000 -13.3435 0.0000
# 2 6.1541 81.8889 3.9711 0.0000 -8.4578 0.0000
# 3 40.3472 3.9711 74.2045 0.0000 -2.6952 0.0000
# 4 0.0000 0.0000 0.0000 20.2985 0.0000 -4.1690
# 5 -13.3435 -8.4578 -2.6952 0.0000 25.4277 0.0000
# 6 0.0000 0.0000 0.0000 -4.1690 0.0000 22.3590
#
#
#
# Elastic Compliance Matrix: (Units=1/GPa)
#
#
# Indices 1 2 3 4 5 6 
#
# 1 0.020214 -0.000025 -0.010646 0.000000 0.009471 0.000000
# 2 -0.000025 0.012667 -0.000514 0.000000 0.004146 0.000000
# 3 -0.010646 -0.000514 0.019157 0.000000 -0.003727 0.000000
# 4 0.000000 0.000000 0.000000 0.051227 0.000000 0.009551
# 5 0.009471 0.004146 -0.003727 0.000000 0.045281 0.000000
# 6 0.000000 0.000000 0.000000 0.009551 0.000000 0.046506
#
#
# Mechanical properties :
#
#
# Convention : Reuss Voigt Hill
#
# Bulk Modulus (GPa) = 33.70507 37.11288 35.40897
# Shear Modulus (GPa) = 21.99640 25.79027 23.89333
#
# Velocity S-wave (km/s) = 3.29044 3.56293 3.42939
# Velocity P-wave (km/s) = 5.57012 5.93242 5.75412
#
# Compressibility (1/GPa) = 0.02966913
#
# Stress axis : x y z
#
# Youngs Moduli (GPa) = 49.46949 78.94763 52.20055
#
# Poissons Ratio (x) = 0.00195 0.55572
# Poissons Ratio (y) = 0.00122 0.02682
# Poissons Ratio (z) = 0.52665 0.04057
#
# Static dielectric constant tensor:
#      x y z
#    x 1.807240 0.000000 -0.003180 
#    y 0.000000 1.757810 0.000000 
#    z -0.003180 0.000000 1.726180 
# 
# From -- ./inp_files/56394.got.cif
#   From: 2010.05.17/outbox.cif.g08.bks.cpg/sg5_29_cif.got.tgz:56394.got - 2010.06.03 18:56:24.
