data_PCOD9124820
_publ_section_title
;
Structure prediction by ZEFSAII (Michael W. Deem and Ramdas Pophale) SiO2 
 PCOD9124820
Probable space group: C 2
;
_chemical_formula_sum "Si O2"
_cell_formula_units_Z 28
_cell_length_a 17.846030
_cell_length_b 5.304932
_cell_length_c 21.452368
_cell_angle_alpha 90.000000
_cell_angle_beta 144.588947
_cell_angle_gamma 90.000000
_cell_volume 1176.803518
_symmetry_space_group_name_H-M "C 2"
_symmetry_group_IT_number 5
_symmetry_cell_setting 'monoclinic'
loop_
_space_group_symop_operation_xyz
x,y,z
-x,y,-z
1/2+x,1/2+y,z
1/2-x,1/2+y,-z
loop_
_atom_site_type_symbol
_atom_site_label
_atom_site_fract_x
_atom_site_fract_y
_atom_site_fract_z
Si Si1 0.476141 0.072620 0.245491
Si Si2 0.729264 0.813496 0.810088
Si Si3 0.032437 0.931598 0.641845
Si Si4 0.775555 0.996284 0.718522
Si Si5 0.500000 0.065470 0.000000
Si Si6 0.261436 0.660903 0.473643
Si Si7 0.937212 0.482136 0.821075
Si Si8 0.000000 0.579815 0.500000
O O1 0.462338 0.302550 0.285897
O O2 0.633756 0.056746 0.352455
O O3 0.377148 0.877851 0.210340
O O4 0.452776 0.042878 0.155873
O O5 0.660720 0.594629 0.723524
O O6 0.747462 0.037419 0.773107
O O7 0.870994 0.729011 0.925419
O O8 0.010497 0.743654 0.569916
O O9 0.907108 0.111329 0.551638
O O10 0.862219 0.747968 0.773649
O O11 0.850000 0.240234 0.744131
O O12 0.638527 0.945723 0.592766
O O13 0.482536 0.923241 0.922592
O O14 0.254911 0.459761 0.527119
#
# Coordination Sequence:
#
# PCOD9124820 Si02
#       8
#     4   4   4   4   2   4   4   2
#     4  11  24  44  72 106 145 184 243 305 360 433
#     4  11  24  49  72 105 148 193 247 313 355 440
#     4  11  24  42  68 106 152 189 243 295 357 439
#     4  11  26  46  70 107 151 191 242 291 374 438
#     4  10  26  52  74 102 140 198 244 306 376 422
#     4  10  21  38  63  96 142 186 219 282 353 420
#     4  11  27  49  74 104 142 194 243 313 363 439
#     4  12  22  40  68 108 142 204 232 290 354 450
#
# _framework density 23.793265999999999
#
# number of rings (size 3 to 8) (size 9 to 14) (size 15 to 20)
#    0.000    1.143    2.857    2.571    2.000   10.286 
#    2.571    0.000    0.000    0.000    0.000    0.000 
#    0.000    0.000    0.000    0.000    0.000    0.000 
#
# Total GULP energy -78050.295051 kJ/mol
# GULP energy per Si atom -5575.021075 kJ/mol
# Density = 2.373911 g / cm^3
# Si number density = 23.793266 Si / 1000 Ang^3
#
#
#
# Elastic Constant Matrix: (Units=GPa)
#
#
# Indices 1 2 3 4 5 6 
#
# 1 126.1373 34.6338 35.3745 0.0008 -27.0957 0.0003
# 2 34.6338 80.2674 17.6652 0.0015 -8.9763 0.0036
# 3 35.3745 17.6652 89.1560 0.0006 13.3384 -0.0002
# 4 0.0008 0.0015 0.0006 5.3586 -0.0001 2.3471
# 5 -27.0957 -8.9763 13.3384 -0.0001 42.4871 0.0001
# 6 0.0003 0.0036 -0.0002 2.3471 0.0001 31.1325
#
#
#
# Elastic Compliance Matrix: (Units=1/GPa)
#
#
# Indices 1 2 3 4 5 6 
#
# 1 0.012252 -0.003058 -0.005590 0.000000 0.008922 0.000000
# 2 -0.003058 0.014381 -0.001887 -0.000003 0.001680 -0.000001
# 3 -0.005590 -0.001887 0.015111 -0.000001 -0.008708 0.000000
# 4 0.000000 -0.000003 -0.000001 0.192987 0.000000 -0.014549
# 5 0.008922 0.001680 -0.008708 0.000000 0.032315 0.000000
# 6 0.000000 -0.000001 0.000000 -0.014549 0.000000 0.033218
#
#
# Mechanical properties :
#
#
# Convention : Reuss Voigt Hill
#
# Bulk Modulus (GPa) = 48.37358 52.32307 50.34833
# Shear Modulus (GPa) = 15.23336 29.65480 22.44408
#
# Velocity S-wave (km/s) = 2.53304 3.53420 3.07464
# Velocity P-wave (km/s) = 5.37866 6.22033 5.81475
#
# Compressibility (1/GPa) = 0.02067244
#
# Stress axis : x y z
#
# Youngs Moduli (GPa) = 81.61971 69.53469 66.17713
#
# Poissons Ratio (x) = 0.21267 0.36993
# Poissons Ratio (y) = 0.24963 0.12490
# Poissons Ratio (z) = 0.45626 0.13124
#
# Static dielectric constant tensor:
#      x y z
#    x 2.013120 0.000000 -0.072290 
#    y 0.000000 1.915440 0.000000 
#    z -0.072290 0.000000 1.964320 
# 
# From -- ./inp_files/66477.got.cif
#   From: 2010.05.17/outbox.cif.g08.bks.cpg/sg5_34_cif.got.tgz:66477.got - 2010.06.03 18:56:24.
