data_PCOD9124054
_publ_section_title
;
Structure prediction by ZEFSAII (Michael W. Deem and Ramdas Pophale) SiO2 
 PCOD9124054
Probable space group: C 2
;
_chemical_formula_sum "Si O2"
_cell_formula_units_Z 26
_cell_length_a 12.471112
_cell_length_b 7.379498
_cell_length_c 24.853515
_cell_angle_alpha 90.000000
_cell_angle_beta 154.271232
_cell_angle_gamma 90.000000
_cell_volume 992.935564
_symmetry_space_group_name_H-M "C 2"
_symmetry_group_IT_number 5
_symmetry_cell_setting 'monoclinic'
loop_
_space_group_symop_operation_xyz
x,y,z
-x,y,-z
1/2+x,1/2+y,z
1/2-x,1/2+y,-z
loop_
_atom_site_type_symbol
_atom_site_label
_atom_site_fract_x
_atom_site_fract_y
_atom_site_fract_z
Si Si1 0.730860 0.148010 0.820454
Si Si2 0.499688 0.770062 0.781761
Si Si3 0.068901 0.596859 0.639686
Si Si4 0.563885 0.680623 0.420295
Si Si5 0.812608 0.713316 0.835066
Si Si6 0.692498 0.139093 0.919063
Si Si7 0.000000 0.947820 0.500000
O O1 0.564031 0.196337 0.695374
O O2 0.617592 0.211361 0.825651
O O3 0.748125 0.927004 0.817791
O O4 0.019753 0.191191 0.948151
O O5 0.344623 0.631792 0.746874
O O6 0.715720 0.655853 0.849506
O O7 0.624664 0.928984 0.873999
O O8 0.261422 0.850406 0.638348
O O9 0.821647 0.681885 0.504276
O O10 0.016952 0.386544 0.608682
O O11 0.362551 0.612684 0.286904
O O12 0.560415 0.569638 0.474130
O O13 0.064490 0.696683 0.916319
#
# Coordination Sequence:
#
# PCOD9124054 Si02
#       7
#     4   4   4   4   4   4   2
#     4   9  22  41  66  94 130 172 227 277 330 394
#     4  11  23  41  66  97 140 175 221 277 339 399
#     4  11  24  43  63 100 135 177 225 276 333 408
#     4  11  23  39  66  94 131 173 220 277 337 398
#     4  10  21  39  66  92 126 173 221 273 330 399
#     4  10  20  41  68  95 125 180 222 275 334 393
#     4  12  22  42  66  96 134 176 218 282 346 400
#
# _framework density 26.184981000000001
#
# number of rings (size 3 to 8) (size 9 to 14) (size 15 to 20)
#    0.000    1.538    1.538    4.615    2.154    1.846 
#    0.000    0.000    0.000    0.000    0.000    0.000 
#    0.000    0.000    0.000    0.000    0.000    0.000 
#
# Total GULP energy -72370.730389 kJ/mol
# GULP energy per Si atom -5566.979261 kJ/mol
# Density = 2.612538 g / cm^3
# Si number density = 26.184981 Si / 1000 Ang^3
#
#
#
# Elastic Constant Matrix: (Units=GPa)
#
#
# Indices 1 2 3 4 5 6 
#
# 1 158.4518 15.2526 20.3170 -0.0001 31.5900 -0.0001
# 2 15.2526 72.0417 -10.5542 -0.0003 -10.7725 0.0001
# 3 20.3170 -10.5542 77.0252 0.0036 11.2365 0.0001
# 4 -0.0001 -0.0003 0.0036 56.4268 0.0002 -1.3657
# 5 31.5900 -10.7725 11.2365 0.0002 44.2531 -0.0001
# 6 -0.0001 0.0001 0.0001 -1.3657 -0.0001 33.9149
#
#
#
# Elastic Compliance Matrix: (Units=1/GPa)
#
#
# Indices 1 2 3 4 5 6 
#
# 1 0.007981 -0.002820 -0.001620 0.000000 -0.005972 0.000000
# 2 -0.002820 0.015575 0.002109 0.000000 0.005269 0.000000
# 3 -0.001620 0.002109 0.013973 -0.000001 -0.001878 0.000000
# 4 0.000000 0.000000 -0.000001 0.017739 0.000000 0.000714
# 5 -0.005972 0.005269 -0.001878 0.000000 0.028620 0.000000
# 6 0.000000 0.000000 0.000000 0.000714 0.000000 0.029514
#
#
# Mechanical properties :
#
#
# Convention : Reuss Voigt Hill
#
# Bulk Modulus (GPa) = 30.42598 39.72772 35.07685
# Shear Modulus (GPa) = 38.75353 45.75251 42.25302
#
# Velocity S-wave (km/s) = 3.85124 4.18458 4.02137
# Velocity P-wave (km/s) = 5.60544 6.20907 5.91496
#
# Compressibility (1/GPa) = 0.03286665
#
# Stress axis : x y z
#
# Youngs Moduli (GPa) = 125.29802 64.20619 71.56594
#
# Poissons Ratio (x) = 0.18107 0.11596
# Poissons Ratio (y) = 0.35336 -0.15096
# Poissons Ratio (z) = 0.20302 -0.13543
#
# Static dielectric constant tensor:
#      x y z
#    x 1.551090 0.000000 0.030770 
#    y 0.000000 2.176710 0.000000 
#    z 0.030770 0.000000 2.079150 
# 
# From -- ./inp_files/68315.got.cif
#   From: 2010.05.17/outbox.cif.g08.bks.cpg/sg5_35_cif.got.tgz:68315.got - 2010.06.03 18:56:24.
