data_PCOD9124490
_publ_section_title
;
Structure prediction by ZEFSAII (Michael W. Deem and Ramdas Pophale) SiO2 
 PCOD9124490
Probable space group: C 2
;
_chemical_formula_sum "Si O2"
_cell_formula_units_Z 32
_cell_length_a 20.499583
_cell_length_b 7.869924
_cell_length_c 26.307433
_cell_angle_alpha 90.000000
_cell_angle_beta 163.679390
_cell_angle_gamma 90.000000
_cell_volume 1192.665944
_symmetry_space_group_name_H-M "C 2"
_symmetry_group_IT_number 5
_symmetry_cell_setting 'monoclinic'
loop_
_space_group_symop_operation_xyz
x,y,z
-x,y,-z
1/2+x,1/2+y,z
1/2-x,1/2+y,-z
loop_
_atom_site_type_symbol
_atom_site_label
_atom_site_fract_x
_atom_site_fract_y
_atom_site_fract_z
Si Si1 0.217496 0.691770 0.758194
Si Si2 0.942875 0.978577 0.515190
Si Si3 0.657013 0.208985 0.164565
Si Si4 0.093463 0.278475 0.324031
Si Si5 0.066863 0.852801 0.909273
Si Si6 0.868596 0.671926 0.136855
Si Si7 0.576975 0.007273 0.396631
Si Si8 0.638117 0.866989 0.038681
O O1 0.469615 0.705753 0.923653
O O2 0.059203 0.789555 0.600685
O O3 0.129874 0.519040 0.717035
O O4 0.197892 0.833055 0.790272
O O5 0.707006 0.913666 0.368386
O O6 0.000000 0.036065 0.500000
O O7 0.084765 0.131086 0.650288
O O8 0.513997 0.033838 0.071861
O O9 0.500000 0.268527 0.000000
O O10 0.613133 0.332617 0.179462
O O11 0.221560 0.098894 0.421242
O O12 0.146067 0.335548 0.421696
O O13 0.818174 0.272042 0.112554
O O14 0.157897 0.042767 0.965585
O O15 0.983448 0.737766 0.799840
O O16 0.981526 0.598670 0.273243
O O17 0.750141 0.844322 0.068695
#
# Coordination Sequence:
#
# PCOD9124490 Si02
#       8
#     4   4   4   4   4   4   4   4
#     4   8  15  31  52  85 111 156 202 246 304 371
#     4  10  21  35  62  89 122 159 213 263 312 382
#     4  11  22  40  63  92 123 171 218 263 321 397
#     4  10  23  39  61  94 121 168 213 264 326 382
#     4  11  25  40  61  96 129 163 221 268 329 384
#     4  10  22  39  60  90 123 167 209 275 322 383
#     4   9  20  37  58  85 123 159 212 257 320 382
#     4   9  15  33  62  83 113 158 216 248 310 380
#
# _framework density 26.830646000000002
#
# number of rings (size 3 to 8) (size 9 to 14) (size 15 to 20)
#    0.000    2.250    2.500    0.750    8.750    1.000 
#    6.750    0.000    0.000    0.000    0.000    0.000 
#    0.000    0.000    0.000    0.000    0.000    0.000 
#
# Total GULP energy -89115.473849 kJ/mol
# GULP energy per Si atom -5569.717116 kJ/mol
# Density = 2.676958 g / cm^3
# Si number density = 26.830646 Si / 1000 Ang^3
#
#
#
# Elastic Constant Matrix: (Units=GPa)
#
#
# Indices 1 2 3 4 5 6 
#
# 1 133.9812 6.1331 4.9144 0.0110 9.4601 -0.0109
# 2 6.1331 54.4543 -0.1312 0.0187 -3.3072 -0.0052
# 3 4.9144 -0.1312 61.1203 0.1629 10.8170 0.0106
# 4 0.0110 0.0187 0.1629 42.8893 -0.0022 1.5039
# 5 9.4601 -3.3072 10.8170 -0.0022 30.3366 -0.0074
# 6 -0.0109 -0.0052 0.0106 1.5039 -0.0074 42.2488
#
#
#
# Elastic Compliance Matrix: (Units=1/GPa)
#
#
# Indices 1 2 3 4 5 6 
#
# 1 0.007689 -0.001015 -0.000188 -0.000001 -0.002441 0.000002
# 2 -0.001015 0.018627 -0.000314 -0.000007 0.002459 0.000003
# 3 -0.000188 -0.000314 0.017474 -0.000066 -0.006206 -0.000003
# 4 -0.000001 -0.000007 -0.000066 0.023345 0.000025 -0.000831
# 5 -0.002441 0.002459 -0.006206 0.000025 0.036206 0.000007
# 6 0.000002 0.000003 -0.000003 -0.000831 0.000007 0.023699
#
#
# Mechanical properties :
#
#
# Convention : Reuss Voigt Hill
#
# Bulk Modulus (GPa) = 24.53561 30.15426 27.34494
# Shear Modulus (GPa) = 34.80449 39.00425 36.90437
#
# Velocity S-wave (km/s) = 3.60556 3.81690 3.71274
# Velocity P-wave (km/s) = 5.14761 5.53969 5.34725
#
# Compressibility (1/GPa) = 0.04075708
#
# Stress axis : x y z
#
# Youngs Moduli (GPa) = 130.04799 53.68578 57.22729
#
# Poissons Ratio (x) = 0.05448 0.01078
# Poissons Ratio (y) = 0.13197 0.01795
# Poissons Ratio (z) = 0.02450 0.01683
#
# Static dielectric constant tensor:
#      x y z
#    x 2.158050 0.000020 0.015770 
#    y 0.000020 2.227240 0.000030 
#    z 0.015770 0.000030 2.327140 
# 
# From -- ./inp_files/71106.got.cif
#   From: 2010.05.17/outbox.cif.g08.bks.cpg/sg5_36_cif.got.tgz:71106.got - 2010.06.03 18:56:24.
