data_PCOD9124118
_publ_section_title
;
Structure prediction by ZEFSAII (Michael W. Deem and Ramdas Pophale) SiO2 
 PCOD9124118
Probable space group: C 2
;
_chemical_formula_sum "Si O2"
_cell_formula_units_Z 20
_cell_length_a 12.275469
_cell_length_b 14.996533
_cell_length_c 8.743917
_cell_angle_alpha 90.000000
_cell_angle_beta 35.247805
_cell_angle_gamma 90.000000
_cell_volume 928.958955
_symmetry_space_group_name_H-M "C 2"
_symmetry_group_IT_number 5
_symmetry_cell_setting 'monoclinic'
loop_
_space_group_symop_operation_xyz
x,y,z
-x,y,-z
1/2+x,1/2+y,z
1/2-x,1/2+y,-z
loop_
_atom_site_type_symbol
_atom_site_label
_atom_site_fract_x
_atom_site_fract_y
_atom_site_fract_z
Si Si1 0.428902 0.657250 0.754336
Si Si2 0.000000 0.490217 0.500000
Si Si3 0.033602 0.716858 0.280035
Si Si4 0.000000 0.458158 0.000000
Si Si5 0.772057 0.580785 0.495269
Si Si6 0.325996 0.853107 0.930640
O O1 0.500000 0.642144 0.500000
O O2 0.550960 0.593684 0.722727
O O3 0.450311 0.762758 0.768384
O O4 0.204145 0.648774 0.037491
O O5 0.145076 0.544657 0.440355
O O6 0.119612 0.426148 0.253875
O O7 0.000000 0.715982 0.500000
O O8 0.855746 0.681406 0.392305
O O9 0.116374 0.813935 0.149015
O O10 0.133482 0.519585 0.742132
O O11 0.869567 0.395993 0.043775
#
# Coordination Sequence:
#
# PCOD9124118 Si02
#       6
#     4   2   4   2   4   4
#     4  10  22  41  73  91 123 175 226 254 312 397
#     4  10  20  42  64 102 130 168 200 290 322 368
#     4  10  22  40  69  93 124 171 222 259 307 397
#     4  10  22  36  64 100 134 168 198 290 324 362
#     4  11  22  40  71  90 135 166 220 261 331 373
#     4   9  21  40  66  88 138 163 217 257 328 376
#
# _framework density 21.529477
#
# number of rings (size 3 to 8) (size 9 to 14) (size 15 to 20)
#    1.200    0.800    2.000    1.200    2.800    0.800 
#    0.000    5.000    4.400    0.000    0.000    0.000 
#    0.000    0.000    0.000    0.000    0.000    0.000 
#
# Total GULP energy -55768.083093 kJ/mol
# GULP energy per Si atom -5576.808309 kJ/mol
# Density = 2.148047 g / cm^3
# Si number density = 21.529477 Si / 1000 Ang^3
#
#
#
# Elastic Constant Matrix: (Units=GPa)
#
#
# Indices 1 2 3 4 5 6 
#
# 1 66.1569 23.4833 11.0066 0.0018 14.4944 -0.0015
# 2 23.4833 64.8644 -8.6525 0.0017 8.3502 -0.0013
# 3 11.0066 -8.6525 57.5724 0.0016 6.2803 -0.0006
# 4 0.0018 0.0017 0.0016 -16.6250 -0.0007 3.3185
# 5 14.4944 8.3502 6.2803 -0.0007 30.5673 0.0006
# 6 -0.0015 -0.0013 -0.0006 3.3185 0.0006 24.9840
#
#
#
# Elastic Compliance Matrix: (Units=1/GPa)
#
#
# Indices 1 2 3 4 5 6 
#
# 1 0.019659 -0.006805 -0.004058 0.000001 -0.006629 0.000001
# 2 -0.006805 0.018837 0.004441 0.000002 -0.002831 0.000000
# 3 -0.004058 0.004441 0.019165 0.000002 -0.003226 0.000000
# 4 0.000001 0.000002 0.000002 -0.058597 -0.000003 0.007783
# 5 -0.006629 -0.002831 -0.003226 -0.000003 0.037294 -0.000001
# 6 0.000001 0.000000 0.000000 0.007783 -0.000001 0.038992
#
#
# Mechanical properties :
#
#
# Convention : Reuss Voigt Hill
#
# Bulk Modulus (GPa) = 22.31326 26.69649 24.50488
# Shear Modulus (GPa) = 48.48115 18.63568 33.55841
#
# Velocity S-wave (km/s) = 4.75051 2.94528 3.95235
# Velocity P-wave (km/s) = 6.36211 4.89828 5.67757
#
# Compressibility (1/GPa) = 0.04481641
#
# Stress axis : x y z
#
# Youngs Moduli (GPa) = 50.86833 53.08606 52.17963
#
# Poissons Ratio (x) = 0.36125 0.21174
# Poissons Ratio (y) = 0.34616 -0.23172
# Poissons Ratio (z) = 0.20642 -0.23575
#
# Static dielectric constant tensor:
#      x y z
#    x 1.747700 0.000000 -0.001390 
#    y 0.000000 1.792630 0.000000 
#    z -0.001390 0.000000 1.787050 
# 
# From -- ./inp_files/2470.got.cif
#   From: 2010.05.17/outbox.cif.g08.bks.cpg/sg5_2_cif.got.tgz:2470.got - 2010.06.03 18:56:24.
