data_PCOD9124794
_publ_section_title
;
Structure prediction by ZEFSAII (Michael W. Deem and Ramdas Pophale) SiO2 
 PCOD9124794
Probable space group: C 2
;
_chemical_formula_sum "Si O2"
_cell_formula_units_Z 20
_cell_length_a 9.470704
_cell_length_b 5.418646
_cell_length_c 17.478499
_cell_angle_alpha 90.000000
_cell_angle_beta 56.232328
_cell_angle_gamma 90.000000
_cell_volume 745.648288
_symmetry_space_group_name_H-M "C 2"
_symmetry_group_IT_number 5
_symmetry_cell_setting 'monoclinic'
loop_
_space_group_symop_operation_xyz
x,y,z
-x,y,-z
1/2+x,1/2+y,z
1/2-x,1/2+y,-z
loop_
_atom_site_type_symbol
_atom_site_label
_atom_site_fract_x
_atom_site_fract_y
_atom_site_fract_z
Si Si1 0.177734 0.962630 0.232092
Si Si2 0.767111 0.464880 0.861368
Si Si3 0.198726 0.859345 0.426543
Si Si4 0.985987 0.299801 0.917521
Si Si5 0.674718 0.361363 0.606522
O O1 0.155189 0.739140 0.176260
O O2 0.379006 0.926897 0.180730
O O3 0.159068 0.245850 0.212929
O O4 0.274216 0.107436 0.369679
O O5 0.807128 0.360395 0.933508
O O6 0.570587 0.527082 0.899838
O O7 0.254349 0.602699 0.373252
O O8 0.265407 0.850642 0.495706
O O9 0.000000 0.871245 0.500000
O O10 0.027627 0.896862 0.335468
O O11 0.000000 0.398332 0.000000
#
# Coordination Sequence:
#
# PCOD9124794 Si02
#       5
#     4   4   4   4   4
#     4  10  24  41  66  98 138 175 233 286 350 414
#     4  10  25  43  67 100 133 182 231 288 349 418
#     4  10  21  38  62  91 126 172 214 265 337 401
#     4  10  26  45  73  98 142 183 238 287 358 423
#     4  10  21  39  61  93 128 166 220 271 329 412
#
# _framework density 26.822296000000001
#
# number of rings (size 3 to 8) (size 9 to 14) (size 15 to 20)
#    1.200    0.800    0.000    1.800    5.600    4.000 
#    0.000    0.000    0.000    0.000    0.000    0.000 
#    0.000    0.000    0.000    0.000    0.000    0.000 
#
# Total GULP energy -55741.011616 kJ/mol
# GULP energy per Si atom -5574.101162 kJ/mol
# Density = 2.676125 g / cm^3
# Si number density = 26.822296 Si / 1000 Ang^3
#
#
#
# Elastic Constant Matrix: (Units=GPa)
#
#
# Indices 1 2 3 4 5 6 
#
# 1 98.9518 49.1926 20.1034 0.0000 -6.1544 0.0000
# 2 49.1926 207.3814 30.9753 0.0000 -1.3507 0.0000
# 3 20.1034 30.9753 83.5407 0.0000 -13.2137 0.0000
# 4 0.0000 0.0000 0.0000 25.2802 0.0000 -1.8625
# 5 -6.1544 -1.3507 -13.2137 0.0000 42.0612 0.0000
# 6 0.0000 0.0000 0.0000 -1.8625 0.0000 44.4950
#
#
#
# Elastic Compliance Matrix: (Units=1/GPa)
#
#
# Indices 1 2 3 4 5 6 
#
# 1 0.011782 -0.002530 -0.001723 0.000000 0.001101 0.000000
# 2 -0.002530 0.005656 -0.001598 0.000000 -0.000690 0.000000
# 3 -0.001723 -0.001598 0.013605 0.000000 0.003971 0.000000
# 4 0.000000 0.000000 0.000000 0.039679 0.000000 0.001661
# 5 0.001101 -0.000690 0.003971 0.000000 0.025161 0.000000
# 6 0.000000 0.000000 0.000000 0.001661 0.000000 0.022544
#
#
# Mechanical properties :
#
#
# Convention : Reuss Voigt Hill
#
# Bulk Modulus (GPa) = 51.70015 65.60184 58.65099
# Shear Modulus (GPa) = 36.60925 41.67411 39.14168
#
# Velocity S-wave (km/s) = 3.69844 3.94599 3.82422
# Velocity P-wave (km/s) = 6.12820 6.72846 6.43533
#
# Compressibility (1/GPa) = 0.01934230
#
# Stress axis : x y z
#
# Youngs Moduli (GPa) = 84.87223 176.79140 73.50115
#
# Poissons Ratio (x) = 0.44735 0.12664
# Poissons Ratio (y) = 0.21476 0.11742
# Poissons Ratio (z) = 0.14623 0.28244
#
# Static dielectric constant tensor:
#      x y z
#    x 2.123350 0.000000 0.106670 
#    y 0.000000 2.132250 0.000000 
#    z 0.106670 0.000000 2.244410 
# 
# From -- ./inp_files/51932.got.cif
#   From: 2010.05.17/outbox.cif.g08.bks.cpg/sg5_26_cif.got.tgz:51932.got - 2010.06.03 18:56:24.
