data_PCOD9124482
_publ_section_title
;
Structure prediction by ZEFSAII (Michael W. Deem and Ramdas Pophale) SiO2 
 PCOD9124482
Probable space group: C 2
;
_chemical_formula_sum "Si O2"
_cell_formula_units_Z 32
_cell_length_a 28.713538
_cell_length_b 10.158985
_cell_length_c 10.475476
_cell_angle_alpha 90.000000
_cell_angle_beta 150.485159
_cell_angle_gamma 90.000000
_cell_volume 1505.387784
_symmetry_space_group_name_H-M "C 2"
_symmetry_group_IT_number 5
_symmetry_cell_setting 'monoclinic'
loop_
_space_group_symop_operation_xyz
x,y,z
-x,y,-z
1/2+x,1/2+y,z
1/2-x,1/2+y,-z
loop_
_atom_site_type_symbol
_atom_site_label
_atom_site_fract_x
_atom_site_fract_y
_atom_site_fract_z
Si Si1 0.164430 0.424310 0.435394
Si Si2 0.154663 0.422143 0.118539
Si Si3 0.993128 0.099505 0.636692
Si Si4 0.678117 0.110456 0.805511
Si Si5 0.556716 0.885809 0.426111
Si Si6 0.290858 0.648418 0.832668
Si Si7 0.309282 0.203243 0.874800
Si Si8 0.984490 0.807180 0.616580
O O1 0.138296 0.394190 0.228646
O O2 0.081128 0.426573 0.339896
O O3 0.219449 0.562566 0.578836
O O4 0.235327 0.312317 0.656406
O O5 0.214885 0.303768 0.203286
O O6 0.202699 0.562876 0.219957
O O7 0.051816 0.424475 0.804851
O O8 0.000000 0.106011 0.500000
O O9 0.937535 0.228573 0.547814
O O10 0.957635 0.955450 0.590963
O O11 0.101408 0.111279 0.941933
O O12 0.766494 0.111339 0.921040
O O13 0.597931 0.204354 0.552000
O O14 0.630054 0.966021 0.689312
O O15 0.696829 0.169141 0.989023
O O16 0.414013 0.258618 0.091960
O O17 0.000000 0.808958 0.500000
#
# Coordination Sequence:
#
# PCOD9124482 Si02
#       8
#     4   4   4   4   4   4   4   4
#     4  11  23  42  60  87 121 167 212 249 300 366
#     4  11  23  41  63  86 119 168 211 250 301 362
#     4  10  21  35  59  87 125 156 187 244 322 367
#     4  10  22  38  61  92 124 147 203 251 322 365
#     4  10  23  38  63  91 120 157 207 260 301 365
#     4  10  23  39  58  90 122 156 195 262 304 364
#     4  11  22  37  64  90 122 162 199 258 307 373
#     4   9  18  37  56  84 120 157 184 237 313 373
#
# _framework density 21.256981
#
# number of rings (size 3 to 8) (size 9 to 14) (size 15 to 20)
#    0.000    1.750    2.500    1.125    5.250    2.000 
#    0.000    0.000    0.000    0.000    0.000    0.000 
#    0.000    0.000    0.000    0.000    0.000    0.000 
#
# Total GULP energy -89429.513377 kJ/mol
# GULP energy per Si atom -5589.344586 kJ/mol
# Density = 2.120860 g / cm^3
# Si number density = 21.256981 Si / 1000 Ang^3
#
#
#
# Elastic Constant Matrix: (Units=GPa)
#
#
# Indices 1 2 3 4 5 6 
#
# 1 44.3793 12.6947 12.2052 0.0000 -3.9004 0.0000
# 2 12.6947 147.7850 25.5342 0.0000 15.9593 0.0000
# 3 12.2052 25.5342 53.0121 0.0000 6.7307 0.0000
# 4 0.0000 0.0000 0.0000 19.6679 0.0000 3.2444
# 5 -3.9004 15.9593 6.7307 0.0000 26.4085 0.0000
# 6 0.0000 0.0000 0.0000 3.2444 0.0000 20.9828
#
#
#
# Elastic Compliance Matrix: (Units=1/GPa)
#
#
# Indices 1 2 3 4 5 6 
#
# 1 0.025186 -0.001858 -0.005703 0.000000 0.006296 0.000000
# 2 -0.001858 0.007880 -0.002819 0.000000 -0.004318 0.000000
# 3 -0.005703 -0.002819 0.022142 0.000000 -0.004782 0.000000
# 4 0.000000 0.000000 0.000000 0.052175 0.000000 -0.008068
# 5 0.006296 -0.004318 -0.004782 0.000000 0.042625 0.000000
# 6 0.000000 0.000000 0.000000 -0.008068 0.000000 0.048906
#
#
# Mechanical properties :
#
#
# Convention : Reuss Voigt Hill
#
# Bulk Modulus (GPa) = 29.03050 38.44940 33.73995
# Shear Modulus (GPa) = 21.63037 26.39466 24.01252
#
# Velocity S-wave (km/s) = 3.19339 3.52759 3.36464
# Velocity P-wave (km/s) = 5.22337 5.89228 5.56788
#
# Compressibility (1/GPa) = 0.03444653
#
# Stress axis : x y z
#
# Youngs Moduli (GPa) = 39.70395 126.91030 45.16339
#
# Poissons Ratio (x) = 0.23581 0.25758
# Poissons Ratio (y) = 0.07377 0.12733
# Poissons Ratio (z) = 0.22644 0.35780
#
# Static dielectric constant tensor:
#      x y z
#    x 1.741560 0.000000 0.004760 
#    y 0.000000 1.770040 0.000000 
#    z 0.004760 0.000000 1.773150 
# 
# From -- ./inp_files/48410.got.cif
#   From: 2010.05.17/outbox.cif.g08.bks.cpg/sg5_25_cif.got.tgz:48410.got - 2010.06.03 18:56:24.
