data_PCOD9124937
_publ_section_title
;
Structure prediction by ZEFSAII (Michael W. Deem and Ramdas Pophale) SiO2 
 PCOD9124937
Probable space group: C 2
;
_chemical_formula_sum "Si O2"
_cell_formula_units_Z 20
_cell_length_a 19.396658
_cell_length_b 5.451919
_cell_length_c 7.562195
_cell_angle_alpha 90.000000
_cell_angle_beta 104.970943
_cell_angle_gamma 90.000000
_cell_volume 772.550555
_symmetry_space_group_name_H-M "C 2"
_symmetry_group_IT_number 5
_symmetry_cell_setting 'monoclinic'
loop_
_space_group_symop_operation_xyz
x,y,z
-x,y,-z
1/2+x,1/2+y,z
1/2-x,1/2+y,-z
loop_
_atom_site_type_symbol
_atom_site_label
_atom_site_fract_x
_atom_site_fract_y
_atom_site_fract_z
Si Si1 0.708583 0.098770 0.933810
Si Si2 0.846349 0.631182 0.741126
Si Si3 0.500533 0.073880 0.286042
Si Si4 0.053586 0.084223 0.702836
Si Si5 0.690480 0.397955 0.604827
O O1 0.652662 0.164541 0.049583
O O2 0.764039 0.325041 0.008806
O O3 0.688508 0.143068 0.716420
O O4 0.919622 0.517189 0.723741
O O5 0.771213 0.492917 0.654933
O O6 0.837713 0.869828 0.611985
O O7 0.500000 0.093686 0.500000
O O8 0.453027 0.841310 0.202674
O O9 0.473894 0.343375 0.213308
O O10 0.132768 0.050584 0.677812
O O11 0.000000 0.103989 0.500000
#
# Coordination Sequence:
#
# PCOD9124937 Si02
#       5
#     4   4   4   4   4
#     4  10  24  44  63 102 141 162 220 290 322 388
#     4  11  23  40  71 100 129 181 224 270 334 395
#     4  10  21  39  61  92 134 166 211 274 316 383
#     4  10  21  39  61  92 134 166 211 274 316 383
#     4  11  23  40  71 100 129 181 224 270 334 395
#
# _framework density 25.888273000000002
#
# number of rings (size 3 to 8) (size 9 to 14) (size 15 to 20)
#    0.000    1.600    4.000    1.200    5.600    6.400 
#    0.000    1.000    0.000    4.800    0.000    0.000 
#    0.000    0.000    0.000    0.000    0.000    0.000 
#
# Total GULP energy -55899.369760 kJ/mol
# GULP energy per Si atom -5589.936976 kJ/mol
# Density = 2.582935 g / cm^3
# Si number density = 25.888273 Si / 1000 Ang^3
#
#
#
# Elastic Constant Matrix: (Units=GPa)
#
#
# Indices 1 2 3 4 5 6 
#
# 1 184.5387 38.9528 48.5384 0.0000 -33.2493 0.0000
# 2 38.9528 143.3723 5.6782 0.0000 10.7237 0.0000
# 3 48.5384 5.6782 65.3970 0.0000 4.4747 0.0000
# 4 0.0000 0.0000 0.0000 11.3213 0.0000 23.0360
# 5 -33.2493 10.7237 4.4747 0.0000 37.5062 0.0000
# 6 0.0000 0.0000 0.0000 23.0360 0.0000 24.0568
#
#
#
# Elastic Compliance Matrix: (Units=1/GPa)
#
#
# Indices 1 2 3 4 5 6 
#
# 1 0.010187 -0.003267 -0.008025 0.000000 0.010922 0.000000
# 2 -0.003267 0.008190 0.002089 0.000000 -0.005487 0.000000
# 3 -0.008025 0.002089 0.021771 0.000000 -0.010309 0.000000
# 4 0.000000 0.000000 0.000000 -0.093134 0.000000 0.089182
# 5 0.010922 -0.005487 -0.010309 0.000000 0.039144 0.000000
# 6 0.000000 0.000000 0.000000 0.089182 0.000000 -0.043830
#
#
# Mechanical properties :
#
#
# Convention : Reuss Voigt Hill
#
# Bulk Modulus (GPa) = 45.99103 64.40518 55.19811
# Shear Modulus (GPa) = -156.15805 34.58610 -60.78598
#
# Velocity S-wave (km/s) = -7.77502 3.65907 -4.85089
# Velocity P-wave (km/s) = 7.92449 6.54093 3.16336
#
# Compressibility (1/GPa) = 0.02174337
#
# Stress axis : x y z
#
# Youngs Moduli (GPa) = 98.16289 122.09859 45.93220
#
# Poissons Ratio (x) = 0.39888 0.36859
# Poissons Ratio (y) = 0.32069 -0.09595
# Poissons Ratio (z) = 0.78773 -0.25507
#
# Static dielectric constant tensor:
#      x y z
#    x 2.034930 0.000000 0.029020 
#    y 0.000000 2.142420 0.000000 
#    z 0.029020 0.000000 2.033810 
# 
# From -- ./inp_files/25931.got.cif
#   From: 2010.05.17/outbox.cif.g08.bks.cpg/sg5_13_cif.got.tgz:25931.got - 2010.06.03 18:56:24.
