data_PCOD9124728
_publ_section_title
;
Structure prediction by ZEFSAII (Michael W. Deem and Ramdas Pophale) SiO2 
 PCOD9124728
Probable space group: C 2
;
_chemical_formula_sum "Si O2"
_cell_formula_units_Z 28
_cell_length_a 14.131549
_cell_length_b 5.518622
_cell_length_c 20.637117
_cell_angle_alpha 90.000000
_cell_angle_beta 43.280434
_cell_angle_gamma 90.000000
_cell_volume 1103.369848
_symmetry_space_group_name_H-M "C 2"
_symmetry_group_IT_number 5
_symmetry_cell_setting 'monoclinic'
loop_
_space_group_symop_operation_xyz
x,y,z
-x,y,-z
1/2+x,1/2+y,z
1/2-x,1/2+y,-z
loop_
_atom_site_type_symbol
_atom_site_label
_atom_site_fract_x
_atom_site_fract_y
_atom_site_fract_z
Si Si1 0.341316 0.336350 0.904264
Si Si2 0.590071 0.335500 0.344929
Si Si3 0.661559 0.836407 0.122514
Si Si4 0.828780 0.335382 0.638186
Si Si5 0.640036 0.336277 0.854276
Si Si6 0.856765 0.336330 0.118319
Si Si7 0.706210 0.305434 0.556769
O O1 0.416773 0.585995 0.849777
O O2 0.211975 0.336238 0.918341
O O3 0.416821 0.086652 0.849873
O O4 0.279702 0.336381 0.007360
O O5 0.588867 0.588306 0.385112
O O6 0.727923 0.336577 0.232439
O O7 0.459243 0.323173 0.363302
O O8 0.594047 0.089902 0.385696
O O9 0.732261 0.836452 0.157655
O O10 0.703177 0.336071 0.752020
O O11 0.771979 0.323620 0.594575
O O12 0.565454 0.587692 0.905838
O O13 0.565414 0.084971 0.905917
O O14 0.756447 0.542745 0.491913
#
# Coordination Sequence:
#
# PCOD9124728 Si02
#       7
#     4   4   4   4   4   4   4
#     4   8  12  18  31  55  87 119 154 197 237 278
#     4  10  21  38  58  79 107 140 173 214 260 308
#     4   8  12  18  31  55  87 119 154 197 237 278
#     4  10  21  38  58  79 107 140 173 214 260 308
#     4   8  14  25  42  64  91 126 164 199 242 294
#     4   8  14  25  42  64  91 126 164 199 242 294
#     4  12  26  40  58  84 107 134 175 214 262 324
#
# _framework density 25.376802999999999
#
# number of rings (size 3 to 8) (size 9 to 14) (size 15 to 20)
#    0.000    2.857    0.000    1.714    0.000    3.429 
#    0.000    0.000    0.000    0.000    0.000    1.000 
#    0.000    0.000    0.000   98.571    0.000    6.857 
#
# Total GULP energy -78332.843413 kJ/mol
# GULP energy per Si atom -5595.203101 kJ/mol
# Density = 2.531904 g / cm^3
# Si number density = 25.376803 Si / 1000 Ang^3
#
#
#
# Elastic Constant Matrix: (Units=GPa)
#
#
# Indices 1 2 3 4 5 6 
#
# 1 115.0170 11.7395 17.8259 0.0136 22.5866 -0.0142
# 2 11.7395 227.2490 1.7269 0.0005 -9.5824 -0.0487
# 3 17.8259 1.7269 80.3284 0.0139 19.2784 0.0059
# 4 0.0136 0.0005 0.0139 10.7463 0.0049 9.6575
# 5 22.5866 -9.5824 19.2784 0.0049 45.2077 0.0014
# 6 -0.0142 -0.0487 0.0059 9.6575 0.0014 0.1617
#
#
#
# Elastic Compliance Matrix: (Units=1/GPa)
#
#
# Indices 1 2 3 4 5 6 
#
# 1 0.009835 -0.000694 -0.001062 0.000013 -0.004608 -0.000024
# 2 -0.000694 0.004498 -0.000284 0.000022 0.001421 -0.000024
# 3 -0.001062 -0.000284 0.014012 -0.000011 -0.005505 -0.000004
# 4 0.000013 0.000022 -0.000011 -0.001767 0.000000 0.105512
# 5 -0.004608 0.001421 -0.005505 0.000000 0.027071 0.000001
# 6 -0.000024 -0.000024 -0.000004 0.105512 0.000001 -0.117408
#
#
# Mechanical properties :
#
#
# Convention : Reuss Voigt Hill
#
# Bulk Modulus (GPa) = 41.21081 53.90877 47.55979
# Shear Modulus (GPa) = -96.91664 37.30995 -29.80334
#
# Velocity S-wave (km/s) = -6.18659 3.83853 -3.43072
# Velocity P-wave (km/s) = 5.89552 6.39806 1.75757
#
# Compressibility (1/GPa) = 0.02426548
#
# Stress axis : x y z
#
# Youngs Moduli (GPa) = 101.68113 222.30061 71.36879
#
# Poissons Ratio (x) = 0.15434 0.07577
# Poissons Ratio (y) = 0.07060 0.02025
# Poissons Ratio (z) = 0.10795 0.06308
#
# Static dielectric constant tensor:
#      x y z
#    x 1.906500 0.000000 0.026740 
#    y 0.000000 2.129660 0.000000 
#    z 0.026740 0.000000 1.931110 
# 
# From -- ./inp_files/65541.got.cif
#   From: 2010.05.17/outbox.cif.g08.bks.cpg/sg5_33_cif.got.tgz:65541.got - 2010.06.03 18:56:24.
