data_PCOD9124116
_publ_section_title
;
Structure prediction by ZEFSAII (Michael W. Deem and Ramdas Pophale) SiO2 
 PCOD9124116
Probable space group: C 2
;
_chemical_formula_sum "Si O2"
_cell_formula_units_Z 18
_cell_length_a 19.064777
_cell_length_b 7.367976
_cell_length_c 8.919568
_cell_angle_alpha 90.000000
_cell_angle_beta 43.100384
_cell_angle_gamma 90.000000
_cell_volume 856.094318
_symmetry_space_group_name_H-M "C 2"
_symmetry_group_IT_number 5
_symmetry_cell_setting 'monoclinic'
loop_
_space_group_symop_operation_xyz
x,y,z
-x,y,-z
1/2+x,1/2+y,z
1/2-x,1/2+y,-z
loop_
_atom_site_type_symbol
_atom_site_label
_atom_site_fract_x
_atom_site_fract_y
_atom_site_fract_z
Si Si1 0.160330 0.469840 0.810885
Si Si2 0.205370 0.275695 0.251609
Si Si3 0.224470 0.704704 0.180060
Si Si4 0.546432 0.922559 0.690150
Si Si5 0.500000 0.202986 0.500000
O O1 0.206736 0.655860 0.806032
O O2 0.242174 0.318381 0.728446
O O3 0.129378 0.480388 0.686427
O O4 0.058754 0.398683 0.055692
O O5 0.222987 0.492486 0.221186
O O6 0.099126 0.261919 0.511432
O O7 0.204220 0.225225 0.078085
O O8 0.112870 0.785787 0.305753
O O9 0.517177 0.077929 0.618269
#
# Coordination Sequence:
#
# PCOD9124116 Si02
#       5
#     4   4   4   4   2
#     4  11  23  45  65 101 140 177 224 290 334 406
#     4  11  22  41  68  96 133 183 220 279 343 400
#     4  11  22  42  67  98 136 179 234 271 341 413
#     4  10  23  41  70  97 136 176 225 282 341 395
#     4  10  20  42  64 100 132 176 224 282 334 398
#
# _framework density 21.025721000000001
#
# number of rings (size 3 to 8) (size 9 to 14) (size 15 to 20)
#    0.000    1.333    4.444    1.333    6.222    0.000 
#    4.000    5.556    0.000    0.000    0.000    0.000 
#    0.000    0.000    0.000    0.000    0.000    0.000 
#
# Total GULP energy -50142.940438 kJ/mol
# GULP energy per Si atom -5571.437826 kJ/mol
# Density = 2.097787 g / cm^3
# Si number density = 21.025721 Si / 1000 Ang^3
#
#
#
# Elastic Constant Matrix: (Units=GPa)
#
#
# Indices 1 2 3 4 5 6 
#
# 1 119.5415 25.9148 13.4214 0.0000 6.5561 0.0000
# 2 25.9148 78.5594 5.2237 0.0000 -9.2306 0.0000
# 3 13.4214 5.2237 108.8815 0.0000 -3.1397 0.0000
# 4 0.0000 0.0000 0.0000 21.3864 0.0000 -5.0742
# 5 6.5561 -9.2306 -3.1397 0.0000 37.5449 0.0000
# 6 0.0000 0.0000 0.0000 -5.0742 0.0000 18.3136
#
#
#
# Elastic Compliance Matrix: (Units=1/GPa)
#
#
# Indices 1 2 3 4 5 6 
#
# 1 0.009341 -0.003308 -0.001066 0.000000 -0.002534 0.000000
# 2 -0.003308 0.014311 -0.000161 0.000000 0.004083 0.000000
# 3 -0.001066 -0.000161 0.009350 0.000000 0.000928 0.000000
# 4 0.000000 0.000000 0.000000 0.050049 0.000000 0.013867
# 5 -0.002534 0.004083 0.000928 0.000000 0.028159 0.000000
# 6 0.000000 0.000000 0.000000 0.013867 0.000000 0.058446
#
#
# Mechanical properties :
#
#
# Convention : Reuss Voigt Hill
#
# Bulk Modulus (GPa) = 41.78494 44.01133 42.89813
# Shear Modulus (GPa) = 26.78044 32.94382 29.86213
#
# Velocity S-wave (km/s) = 3.57276 3.96262 3.77273
# Velocity P-wave (km/s) = 6.07749 6.47411 6.27893
#
# Compressibility (1/GPa) = 0.02393207
#
# Stress axis : x y z
#
# Youngs Moduli (GPa) = 107.05406 69.87665 106.94993
#
# Poissons Ratio (x) = 0.23117 0.11399
# Poissons Ratio (y) = 0.35416 0.01723
# Poissons Ratio (z) = 0.11410 0.01125
#
# Static dielectric constant tensor:
#      x y z
#    x 1.767330 0.000000 -0.064520 
#    y 0.000000 1.743700 0.000000 
#    z -0.064520 0.000000 1.912180 
# 
# From -- ./inp_files/22452.got.cif
#   From: 2010.05.17/outbox.cif.g08.bks.cpg/sg5_12_cif.got.tgz:22452.got - 2010.06.03 18:56:24.
