data_PCOD9124103
_publ_section_title
;
Structure prediction by ZEFSAII (Michael W. Deem and Ramdas Pophale) SiO2 
 PCOD9124103
Probable space group: C 2
;
_chemical_formula_sum "Si O2"
_cell_formula_units_Z 26
_cell_length_a 24.720216
_cell_length_b 8.251731
_cell_length_c 12.229273
_cell_angle_alpha 90.000000
_cell_angle_beta 27.422731
_cell_angle_gamma 90.000000
_cell_volume 1148.885133
_symmetry_space_group_name_H-M "C 2"
_symmetry_group_IT_number 5
_symmetry_cell_setting 'monoclinic'
loop_
_space_group_symop_operation_xyz
x,y,z
-x,y,-z
1/2+x,1/2+y,z
1/2-x,1/2+y,-z
loop_
_atom_site_type_symbol
_atom_site_label
_atom_site_fract_x
_atom_site_fract_y
_atom_site_fract_z
Si Si1 0.433989 0.632770 0.840880
Si Si2 0.640769 0.454186 0.563085
Si Si3 0.500000 0.800714 0.500000
Si Si4 0.707349 0.944576 0.238433
Si Si5 0.170061 0.669433 0.872241
Si Si6 0.042743 0.441247 0.747765
Si Si7 0.723312 0.752068 0.539279
O O1 0.510924 0.483600 0.751530
O O2 0.485713 0.689508 0.631973
O O3 0.461830 0.783019 0.870515
O O4 0.290017 0.286094 0.102821
O O5 0.659760 0.580087 0.632174
O O6 0.298548 0.590208 0.069834
O O7 0.730745 0.528914 0.313211
O O8 0.614751 0.912948 0.308647
O O9 0.628069 0.953830 0.489902
O O10 0.043059 0.591995 0.096249
O O11 0.805811 0.784979 0.493688
O O12 0.192853 0.763071 0.717444
O O13 0.124334 0.392215 0.704117
#
# Coordination Sequence:
#
# PCOD9124103 Si02
#       7
#     4   4   2   4   4   4   4
#     4  10  21  41  65  91 123 164 201 256 310 366
#     4   9  18  39  59  90 124 163 206 246 304 356
#     4  10  20  42  62  90 132 152 198 266 318 356
#     4  10  21  41  64  89 118 159 206 252 312 369
#     4   9  19  39  60  87 123 164 200 256 302 352
#     4   9  19  41  59  85 124 160 200 254 302 356
#     4   8  18  35  59  86 120 163 205 242 299 352
#
# _framework density 22.630634000000001
#
# number of rings (size 3 to 8) (size 9 to 14) (size 15 to 20)
#    0.923    1.846    3.077    0.000    0.000    4.308 
#   11.077    2.308    0.000    0.000    0.000    0.000 
#    0.000    0.000    0.000    0.000    0.000    0.000 
#
# Total GULP energy -72506.007288 kJ/mol
# GULP energy per Si atom -5577.385176 kJ/mol
# Density = 2.257913 g / cm^3
# Si number density = 22.630634 Si / 1000 Ang^3
#
#
#
# Elastic Constant Matrix: (Units=GPa)
#
#
# Indices 1 2 3 4 5 6 
#
# 1 71.6241 25.3239 29.4227 0.0000 -36.9375 0.0000
# 2 25.3239 46.3252 42.9950 0.0000 -19.8841 0.0000
# 3 29.4227 42.9950 122.8107 0.0000 -41.5278 0.0000
# 4 0.0000 0.0000 0.0000 54.0612 0.0000 -17.5464
# 5 -36.9375 -19.8841 -41.5278 0.0000 32.8388 0.0000
# 6 0.0000 0.0000 0.0000 -17.5464 0.0000 22.4938
#
#
#
# Elastic Compliance Matrix: (Units=1/GPa)
#
#
# Indices 1 2 3 4 5 6 
#
# 1 0.041650 -0.010286 0.012855 0.000000 0.056876 0.000000
# 2 -0.010286 0.036151 -0.011709 0.000000 -0.004488 0.000000
# 3 0.012855 -0.011709 0.020361 0.000000 0.033118 0.000000
# 4 0.000000 0.000000 0.000000 0.024768 0.000000 0.019321
# 5 0.056876 -0.004488 0.033118 0.000000 0.133590 0.000000
# 6 0.000000 0.000000 0.000000 0.019321 0.000000 0.059528
#
#
# Mechanical properties :
#
#
# Convention : Reuss Voigt Hill
#
# Bulk Modulus (GPa) = 12.51865 48.47145 30.49505
# Shear Modulus (GPa) = 13.85215 31.41332 22.63273
#
# Velocity S-wave (km/s) = 2.47674 3.72975 3.16586
# Velocity P-wave (km/s) = 3.70442 6.32559 5.18342
#
# Compressibility (1/GPa) = 0.07988080
#
# Stress axis : x y z
#
# Youngs Moduli (GPa) = 24.00982 27.66200 49.11410
#
# Poissons Ratio (x) = 0.28453 -0.63137
# Poissons Ratio (y) = 0.24697 0.57509
# Poissons Ratio (z) = -0.30865 0.32390
#
# Static dielectric constant tensor:
#      x y z
#    x 1.839220 0.000000 -0.011430 
#    y 0.000000 1.906940 0.000000 
#    z -0.011430 0.000000 1.847540 
# 
# From -- ./inp_files/58135.got.cif
#   From: 2010.05.17/outbox.cif.g08.bks.cpg/sg5_30_cif.got.tgz:58135.got - 2010.06.03 18:56:24.
