data_PCOD9124471
_publ_section_title
;
Structure prediction by ZEFSAII (Michael W. Deem and Ramdas Pophale) SiO2 
 PCOD9124471
Probable space group: C 2
;
_chemical_formula_sum "Si O2"
_cell_formula_units_Z 28
_cell_length_a 11.703517
_cell_length_b 8.295874
_cell_length_c 17.345576
_cell_angle_alpha 90.000000
_cell_angle_beta 138.362397
_cell_angle_gamma 90.000000
_cell_volume 1118.942834
_symmetry_space_group_name_H-M "C 2"
_symmetry_group_IT_number 5
_symmetry_cell_setting 'monoclinic'
loop_
_space_group_symop_operation_xyz
x,y,z
-x,y,-z
1/2+x,1/2+y,z
1/2-x,1/2+y,-z
loop_
_atom_site_type_symbol
_atom_site_label
_atom_site_fract_x
_atom_site_fract_y
_atom_site_fract_z
Si Si1 0.338629 0.445710 0.616462
Si Si2 0.778141 0.567437 0.766800
Si Si3 0.600939 0.280232 0.628110
Si Si4 0.785095 0.529905 0.200483
Si Si5 0.800335 0.359673 0.921983
Si Si6 0.463107 0.782240 0.624243
Si Si7 0.501199 0.349106 0.863260
O O1 0.467351 0.357595 0.621335
O O2 0.355955 0.637412 0.609897
O O3 0.154631 0.377411 0.496036
O O4 0.409554 0.396698 0.735875
O O5 0.755491 0.409624 0.703712
O O6 0.746108 0.505031 0.837619
O O7 0.625714 0.690080 0.667681
O O8 0.955703 0.661906 0.853384
O O9 0.500000 0.263729 0.500000
O O10 0.668579 0.114480 0.694825
O O11 0.770846 0.683345 0.138294
O O12 0.604402 0.442019 0.124215
O O13 0.939663 0.403619 0.268128
O O14 0.702909 0.386467 0.953803
O O15 0.000000 0.347995 0.000000
#
# Coordination Sequence:
#
# PCOD9124471 Si02
#       7
#     4   4   4   4   4   4   4
#     4  11  22  36  62  92 135 191 210 257 337 385
#     4   9  22  41  62  97 131 170 221 269 325 400
#     4  10  21  35  55  91 134 172 221 264 311 394
#     4  10  23  41  61  95 132 167 228 270 323 399
#     4  11  24  49  70  93 130 168 225 289 337 387
#     4  10  21  37  57  92 138 167 229 250 315 399
#     4  11  23  42  66  92 137 171 213 276 333 391
#
# _framework density 25.023620000000001
#
# number of rings (size 3 to 8) (size 9 to 14) (size 15 to 20)
#    0.000    1.714    4.286    0.857    8.000    2.286 
#    2.571    2.857    0.000    0.000    0.000    0.000 
#    0.000    0.000    0.000    0.000    0.000    0.000 
#
# Total GULP energy -78231.220399 kJ/mol
# GULP energy per Si atom -5587.944314 kJ/mol
# Density = 2.496667 g / cm^3
# Si number density = 25.023620 Si / 1000 Ang^3
#
#
#
# Elastic Constant Matrix: (Units=GPa)
#
#
# Indices 1 2 3 4 5 6 
#
# 1 84.5727 30.4067 12.4143 0.0000 31.0677 0.0000
# 2 30.4067 128.1089 26.9989 0.0000 19.8732 0.0000
# 3 12.4143 26.9989 44.5418 0.0000 17.0251 0.0000
# 4 0.0000 0.0000 0.0000 22.1546 0.0000 10.9127
# 5 31.0677 19.8732 17.0251 0.0000 38.7406 0.0000
# 6 0.0000 0.0000 0.0000 10.9127 0.0000 26.5238
#
#
#
# Elastic Compliance Matrix: (Units=1/GPa)
#
#
# Indices 1 2 3 4 5 6 
#
# 1 0.017383 -0.002407 0.001767 0.000000 -0.013482 0.000000
# 2 -0.002407 0.009515 -0.004770 0.000000 -0.000855 0.000000
# 3 0.001767 -0.004770 0.029393 0.000000 -0.011888 0.000000
# 4 0.000000 0.000000 0.000000 0.056610 0.000000 -0.023291
# 5 -0.013482 -0.000855 -0.011888 0.000000 0.042287 0.000000
# 6 0.000000 0.000000 0.000000 -0.023291 0.000000 0.047285
#
#
# Mechanical properties :
#
#
# Convention : Reuss Voigt Hill
#
# Bulk Modulus (GPa) = 21.99162 44.09591 33.04377
# Shear Modulus (GPa) = 21.88676 29.97737 25.93207
#
# Velocity S-wave (km/s) = 2.96065 3.46491 3.22266
# Velocity P-wave (km/s) = 4.52710 5.80237 5.20395
#
# Compressibility (1/GPa) = 0.04547186
#
# Stress axis : x y z
#
# Youngs Moduli (GPa) = 57.52887 105.09748 34.02124
#
# Poissons Ratio (x) = 0.25295 -0.06013
# Poissons Ratio (y) = 0.13846 0.16228
# Poissons Ratio (z) = -0.10167 0.50132
#
# Static dielectric constant tensor:
#      x y z
#    x 2.009540 0.000000 0.072820 
#    y 0.000000 1.962250 0.000000 
#    z 0.072820 0.000000 2.055540 
# 
# From -- ./inp_files/65149.got.cif
#   From: 2010.05.17/outbox.cif.g08.bks.cpg/sg5_33_cif.got.tgz:65149.got - 2010.06.03 18:56:24.
