data_PCOD9124996
_publ_section_title
;
Structure prediction by ZEFSAII (Michael W. Deem and Ramdas Pophale) SiO2 
 PCOD9124996
Probable space group: C 2
;
_chemical_formula_sum "Si O2"
_cell_formula_units_Z 28
_cell_length_a 17.162616
_cell_length_b 5.098659
_cell_length_c 29.281503
_cell_angle_alpha 90.000000
_cell_angle_beta 152.562058
_cell_angle_gamma 90.000000
_cell_volume 1180.683808
_symmetry_space_group_name_H-M "C 2"
_symmetry_group_IT_number 5
_symmetry_cell_setting 'monoclinic'
loop_
_space_group_symop_operation_xyz
x,y,z
-x,y,-z
1/2+x,1/2+y,z
1/2-x,1/2+y,-z
loop_
_atom_site_type_symbol
_atom_site_label
_atom_site_fract_x
_atom_site_fract_y
_atom_site_fract_z
Si Si1 0.493448 0.729570 0.043515
Si Si2 0.214112 0.113180 0.801032
Si Si3 0.502957 0.100623 0.300031
Si Si4 0.131977 0.124913 0.527341
Si Si5 0.022874 0.624155 0.417489
Si Si6 0.329858 0.419875 0.780726
Si Si7 0.308993 0.372308 0.057742
O O1 0.581782 0.581334 0.131687
O O2 0.302461 0.794303 0.957182
O O3 0.604917 0.989509 0.093635
O O4 0.500000 0.573355 0.000000
O O5 0.239199 0.180076 0.759973
O O6 0.135215 0.375619 0.781345
O O7 0.083752 0.883277 0.744833
O O8 0.671913 0.078719 0.358495
O O9 0.554230 0.069277 0.380344
O O10 0.117778 0.410331 0.497379
O O11 0.000000 0.105580 0.500000
O O12 0.079094 0.908142 0.462760
O O13 0.821558 0.580481 0.320230
O O14 0.489745 0.352889 0.832739
O O15 0.248480 0.660681 0.010580
#
# Coordination Sequence:
#
# PCOD9124996 Si02
#       7
#     4   4   4   4   4   4   4
#     4  11  23  42  67  98 134 173 220 274 329 371
#     4  11  20  41  66  95 129 167 219 272 313 381
#     4  11  23  42  72  93 126 174 223 260 321 400
#     4  12  26  45  65 101 134 165 213 277 334 389
#     4  11  22  41  73  93 129 175 219 260 325 393
#     4  10  22  42  69  97 133 171 227 266 320 391
#     4  10  21  39  64  89 126 173 215 264 317 387
#
# _framework density 23.715067999999999
#
# number of rings (size 3 to 8) (size 9 to 14) (size 15 to 20)
#    0.000    1.143    4.286    3.857    0.000    0.571 
#    5.143    0.000    0.000    0.000    0.000    0.000 
#    0.000    0.000    0.000    0.000    0.000    0.000 
#
# Total GULP energy -78303.943277 kJ/mol
# GULP energy per Si atom -5593.138805 kJ/mol
# Density = 2.366109 g / cm^3
# Si number density = 23.715068 Si / 1000 Ang^3
#
#
#
# Elastic Constant Matrix: (Units=GPa)
#
#
# Indices 1 2 3 4 5 6 
#
# 1 106.2023 12.5544 35.8996 -0.0063 45.4883 -0.0138
# 2 12.5544 98.8013 26.0316 -0.0068 13.0630 -0.0160
# 3 35.8996 26.0316 77.5075 0.0138 38.7975 -0.0090
# 4 -0.0063 -0.0068 0.0138 28.9371 0.0042 9.3987
# 5 45.4883 13.0630 38.7975 0.0042 55.8781 0.0014
# 6 -0.0138 -0.0160 -0.0090 9.3987 0.0014 7.9587
#
#
#
# Elastic Compliance Matrix: (Units=1/GPa)
#
#
# Indices 1 2 3 4 5 6 
#
# 1 0.014535 -0.000076 -0.001215 -0.000005 -0.010971 0.000031
# 2 -0.000076 0.011104 -0.003718 -0.000002 0.000048 0.000021
# 3 -0.001215 -0.003718 0.021126 -0.000024 -0.012810 0.000045
# 4 -0.000005 -0.000002 -0.000024 0.056060 0.000018 -0.066204
# 5 -0.010971 0.000048 -0.012810 0.000018 0.035710 -0.000061
# 6 0.000031 0.000021 0.000045 -0.066204 -0.000061 0.203832
#
#
# Mechanical properties :
#
#
# Convention : Reuss Voigt Hill
#
# Bulk Modulus (GPa) = 27.21375 47.94248 37.57811
# Shear Modulus (GPa) = 13.71237 32.42314 23.06775
#
# Velocity S-wave (km/s) = 2.40722 3.70157 3.12220
# Velocity P-wave (km/s) = 4.38480 6.20716 5.37379
#
# Compressibility (1/GPa) = 0.03674613
#
# Stress axis : x y z
#
# Youngs Moduli (GPa) = 68.80110 90.05505 47.33599
#
# Poissons Ratio (x) = 0.00687 0.05751
# Poissons Ratio (y) = 0.00525 0.17600
# Poissons Ratio (z) = 0.08359 0.33483
#
# Static dielectric constant tensor:
#      x y z
#    x 1.924240 0.000000 0.005870 
#    y 0.000000 1.895110 0.000000 
#    z 0.005870 0.000000 1.910220 
# 
# From -- ./inp_files/71963.got.cif
#   From: 2010.05.17/outbox.cif.g08.bks.cpg/sg5_36_cif.got.tgz:71963.got - 2010.06.03 18:56:24.
