data_PCOD9124310
_publ_section_title
;
Structure prediction by ZEFSAII (Michael W. Deem and Ramdas Pophale) SiO2 
 PCOD9124310
Probable space group: C 2
;
_chemical_formula_sum "Si O2"
_cell_formula_units_Z 26
_cell_length_a 11.975336
_cell_length_b 13.999864
_cell_length_c 7.371979
_cell_angle_alpha 90.000000
_cell_angle_beta 119.547363
_cell_angle_gamma 90.000000
_cell_volume 1075.199561
_symmetry_space_group_name_H-M "C 2"
_symmetry_group_IT_number 5
_symmetry_cell_setting 'monoclinic'
loop_
_space_group_symop_operation_xyz
x,y,z
-x,y,-z
1/2+x,1/2+y,z
1/2-x,1/2+y,-z
loop_
_atom_site_type_symbol
_atom_site_label
_atom_site_fract_x
_atom_site_fract_y
_atom_site_fract_z
Si Si1 0.500000 0.853770 0.000000
Si Si2 0.168545 0.614004 0.484312
Si Si3 0.462516 0.378612 0.274254
Si Si4 0.897497 0.676093 0.156553
Si Si5 0.227796 0.492023 0.053581
Si Si6 0.102095 0.241494 0.430835
Si Si7 0.736934 0.422794 0.330258
O O1 0.381435 0.922236 0.957434
O O2 0.537020 0.787104 0.200027
O O3 0.143139 0.651197 0.669018
O O4 0.305391 0.655423 0.543282
O O5 0.182495 0.500264 0.489500
O O6 0.047856 0.648566 0.270434
O O7 0.500000 0.336762 0.500000
O O8 0.391391 0.289445 0.118455
O O9 0.589112 0.412332 0.271461
O O10 0.365092 0.463588 0.242768
O O11 0.814384 0.602177 0.972347
O O12 0.248473 0.463185 0.859666
O O13 0.194029 0.323017 0.586593
O O14 0.000000 0.215358 0.500000
#
# Coordination Sequence:
#
# PCOD9124310 Si02
#       7
#     2   4   4   4   4   4   4
#     4  12  24  44  70 112 148 198 246 314 370 454
#     4  10  21  41  73 102 137 197 241 304 370 442
#     4  12  23  46  75 106 146 198 249 313 377 446
#     4  10  20  43  72 103 141 194 246 298 377 445
#     4  11  25  43  70 111 145 195 247 311 374 445
#     4  12  24  46  74 108 151 196 247 313 379 450
#     4  11  23  45  72 103 147 190 250 306 373 442
#
# _framework density 24.181556
#
# number of rings (size 3 to 8) (size 9 to 14) (size 15 to 20)
#    0.000    0.923    4.615    3.231    2.154    0.615 
#   11.077    1.538    0.000    0.000    0.000    0.000 
#    0.000    0.000    0.000    0.000    0.000    0.000 
#
# Total GULP energy -72860.023236 kJ/mol
# GULP energy per Si atom -5604.617172 kJ/mol
# Density = 2.412652 g / cm^3
# Si number density = 24.181556 Si / 1000 Ang^3
#
#
#
# Elastic Constant Matrix: (Units=GPa)
#
#
# Indices 1 2 3 4 5 6 
#
# 1 195.5924 16.4660 31.6998 0.0000 -5.5321 0.0000
# 2 16.4660 51.7968 21.6564 0.0000 -7.4930 0.0000
# 3 31.6998 21.6564 57.9335 0.0000 0.3222 0.0000
# 4 0.0000 0.0000 0.0000 14.3030 0.0000 1.9547
# 5 -5.5321 -7.4930 0.3222 0.0000 31.6665 0.0000
# 6 0.0000 0.0000 0.0000 1.9547 0.0000 26.9097
#
#
#
# Elastic Compliance Matrix: (Units=1/GPa)
#
#
# Indices 1 2 3 4 5 6 
#
# 1 0.005651 -0.000438 -0.002933 0.000000 0.000913 0.000000
# 2 -0.000438 0.023917 -0.008733 0.000000 0.005672 0.000000
# 3 -0.002933 -0.008733 0.022146 0.000000 -0.002804 0.000000
# 4 0.000000 0.000000 0.000000 0.070616 0.000000 -0.005130
# 5 0.000913 0.005672 -0.002804 0.000000 0.033109 0.000000
# 6 0.000000 0.000000 0.000000 -0.005130 0.000000 0.037534
#
#
# Mechanical properties :
#
#
# Convention : Reuss Voigt Hill
#
# Bulk Modulus (GPa) = 36.35500 49.44081 42.89790
# Shear Modulus (GPa) = 22.08970 30.27587 26.18278
#
# Velocity S-wave (km/s) = 3.02568 3.54223 3.29410
# Velocity P-wave (km/s) = 5.22237 6.10081 5.67861
#
# Compressibility (1/GPa) = 0.02750653
#
# Stress axis : x y z
#
# Youngs Moduli (GPa) = 176.96663 41.81139 45.15440
#
# Poissons Ratio (x) = 0.01830 0.13246
# Poissons Ratio (y) = 0.07747 0.39431
# Poissons Ratio (z) = 0.51912 0.36512
#
# Static dielectric constant tensor:
#      x y z
#    x 1.917310 0.000000 -0.109900 
#    y 0.000000 1.889900 0.000000 
#    z -0.109900 0.000000 2.117640 
# 
# From -- ./inp_files/20479.got.cif
#   From: 2010.05.17/outbox.cif.g08.bks.cpg/sg5_11_cif.got.tgz:20479.got - 2010.06.03 18:56:24.
