data_PCOD9124601
_publ_section_title
;
Structure prediction by ZEFSAII (Michael W. Deem and Ramdas Pophale) SiO2 
 PCOD9124601
Probable space group: C 2
;
_chemical_formula_sum "Si O2"
_cell_formula_units_Z 26
_cell_length_a 9.608039
_cell_length_b 9.777334
_cell_length_c 12.544779
_cell_angle_alpha 90.000000
_cell_angle_beta 92.649258
_cell_angle_gamma 90.000000
_cell_volume 1177.209618
_symmetry_space_group_name_H-M "C 2"
_symmetry_group_IT_number 5
_symmetry_cell_setting 'monoclinic'
loop_
_space_group_symop_operation_xyz
x,y,z
-x,y,-z
1/2+x,1/2+y,z
1/2-x,1/2+y,-z
loop_
_atom_site_type_symbol
_atom_site_label
_atom_site_fract_x
_atom_site_fract_y
_atom_site_fract_z
Si Si1 0.149932 0.431830 0.527401
Si Si2 0.862424 0.456887 0.223676
Si Si3 0.000000 0.166974 0.500000
Si Si4 0.182698 0.712357 0.161016
Si Si5 0.666706 0.522759 0.656743
Si Si6 0.860993 0.771941 0.186567
Si Si7 0.882353 0.434530 0.910363
O O1 0.169416 0.431830 0.653780
O O2 0.127126 0.274039 0.493270
O O3 0.258831 0.498077 0.453241
O O4 0.000000 0.500954 0.500000
O O5 0.777196 0.345644 0.153458
O O6 0.823845 0.614051 0.203207
O O7 0.025493 0.437417 0.196714
O O8 0.021520 0.085459 0.610174
O O9 0.250456 0.629470 0.264897
O O10 0.024575 0.765170 0.165067
O O11 0.173581 0.589318 0.075195
O O12 0.651152 0.379248 0.716314
O O13 0.748662 0.835528 0.101570
O O14 0.000000 0.401724 0.000000
#
# Coordination Sequence:
#
# PCOD9124601 Si02
#       7
#     4   4   2   4   4   4   4
#     4  10  21  37  56  84 126 165 207 248 296 348
#     4  11  23  40  63  91 127 162 205 261 310 363
#     4  10  24  36  56  90 126 178 208 248 300 346
#     4  10  22  43  65  92 127 166 206 255 310 368
#     4  11  23  38  60  90 130 173 210 248 296 363
#     4  10  24  39  64  95 123 162 209 255 312 369
#     4  10  24  46  66  90 122 158 204 262 323 381
#
# _framework density 22.086124000000002
#
# number of rings (size 3 to 8) (size 9 to 14) (size 15 to 20)
#    0.462    1.231    1.538    2.769    4.308    4.923 
#    1.385    0.769    0.000    0.000    0.000    0.000 
#    0.000    0.000    0.000    0.000    0.000    0.000 
#
# Total GULP energy -72509.200954 kJ/mol
# GULP energy per Si atom -5577.630843 kJ/mol
# Density = 2.203586 g / cm^3
# Si number density = 22.086124 Si / 1000 Ang^3
#
#
#
# Elastic Constant Matrix: (Units=GPa)
#
#
# Indices 1 2 3 4 5 6 
#
# 1 78.8021 73.3519 32.7590 0.0000 24.1471 0.0000
# 2 73.3519 160.6740 29.3063 0.0000 18.4171 0.0000
# 3 32.7590 29.3063 88.2451 0.0000 20.9912 0.0000
# 4 0.0000 0.0000 0.0000 12.4997 0.0000 13.8402
# 5 24.1471 18.4171 20.9912 0.0000 35.4904 0.0000
# 6 0.0000 0.0000 0.0000 13.8402 0.0000 36.4764
#
#
#
# Elastic Compliance Matrix: (Units=1/GPa)
#
#
# Indices 1 2 3 4 5 6 
#
# 1 0.027602 -0.010603 -0.004151 0.000000 -0.010822 0.000000
# 2 -0.010603 0.010892 -0.000061 0.000000 0.001598 0.000000
# 3 -0.004151 -0.000061 0.014214 0.000000 -0.005551 0.000000
# 4 0.000000 0.000000 0.000000 0.137962 0.000000 -0.052346
# 5 -0.010822 0.001598 -0.005551 0.000000 0.037994 0.000000
# 6 0.000000 0.000000 0.000000 -0.052346 0.000000 0.047277
#
#
# Mechanical properties :
#
#
# Convention : Reuss Voigt Hill
#
# Bulk Modulus (GPa) = 43.33298 66.50617 54.91958
# Shear Modulus (GPa) = 15.96100 29.71356 22.83728
#
# Velocity S-wave (km/s) = 2.69117 3.67188 3.21909
# Velocity P-wave (km/s) = 5.41471 6.93934 6.22389
#
# Compressibility (1/GPa) = 0.02307711
#
# Stress axis : x y z
#
# Youngs Moduli (GPa) = 36.22946 91.80632 70.35442
#
# Poissons Ratio (x) = 0.97346 0.29203
# Poissons Ratio (y) = 0.38415 0.00431
# Poissons Ratio (z) = 0.15038 0.00563
#
# Static dielectric constant tensor:
#      x y z
#    x 1.819470 0.000000 -0.009560 
#    y 0.000000 1.824520 0.000000 
#    z -0.009560 0.000000 1.912980 
# 
# From -- ./inp_files/50175.got.cif
#   From: 2010.05.17/outbox.cif.g08.bks.cpg/sg5_26_cif.got.tgz:50175.got - 2010.06.03 18:56:24.
