data_PCOD9124345
_publ_section_title
;
Structure prediction by ZEFSAII (Michael W. Deem and Ramdas Pophale) SiO2 
 PCOD9124345
Probable space group: C 2
;
_chemical_formula_sum "Si O2"
_cell_formula_units_Z 26
_cell_length_a 17.781969
_cell_length_b 9.214704
_cell_length_c 11.111894
_cell_angle_alpha 90.000000
_cell_angle_beta 42.784359
_cell_angle_gamma 90.000000
_cell_volume 1236.725193
_symmetry_space_group_name_H-M "C 2"
_symmetry_group_IT_number 5
_symmetry_cell_setting 'monoclinic'
loop_
_space_group_symop_operation_xyz
x,y,z
-x,y,-z
1/2+x,1/2+y,z
1/2-x,1/2+y,-z
loop_
_atom_site_type_symbol
_atom_site_label
_atom_site_fract_x
_atom_site_fract_y
_atom_site_fract_z
Si Si1 0.474182 0.318970 0.663031
Si Si2 0.161952 0.756036 0.631716
Si Si3 0.079927 0.156421 0.300569
Si Si4 0.900758 0.358946 0.947960
Si Si5 0.152723 0.422392 0.721970
Si Si6 0.331000 0.156602 0.001758
Si Si7 0.500000 0.276786 0.000000
O O1 0.500000 0.265625 0.500000
O O2 0.575849 0.260862 0.622839
O O3 0.463282 0.492773 0.670235
O O4 0.362006 0.262051 0.856305
O O5 0.176855 0.593461 0.667437
O O6 0.272018 0.828636 0.455217
O O7 0.094729 0.851696 0.810168
O O8 0.089123 0.228041 0.157407
O O9 0.207061 0.165859 0.196149
O O10 0.000000 0.218859 0.500000
O O11 0.026064 0.395476 0.837235
O O12 0.835012 0.366678 0.153572
O O13 0.850682 0.494037 0.934117
O O14 0.424712 0.188181 0.993190
#
# Coordination Sequence:
#
# PCOD9124345 Si02
#       7
#     4   4   4   4   4   4   2
#     4  10  24  44  65  97 138 179 223 276 345 408
#     4  11  23  43  72  94 132 182 224 283 347 401
#     4  11  27  41  68 104 138 177 227 285 333 408
#     4  11  23  46  67  97 136 179 224 284 342 398
#     4  11  24  44  69  98 133 177 229 288 340 402
#     4  11  21  45  69  91 138 184 224 274 345 401
#     4  10  20  44  68  94 128 186 216 270 342 396
#
# _framework density 21.023264999999999
#
# number of rings (size 3 to 8) (size 9 to 14) (size 15 to 20)
#    0.000    1.231    4.615    0.923   10.769    0.615 
#    5.538    0.000    0.000    0.000    0.000    0.000 
#    0.000    0.000    0.000    0.000    0.000    0.000 
#
# Total GULP energy -72422.977578 kJ/mol
# GULP energy per Si atom -5570.998275 kJ/mol
# Density = 2.097541 g / cm^3
# Si number density = 21.023265 Si / 1000 Ang^3
#
#
#
# Elastic Constant Matrix: (Units=GPa)
#
#
# Indices 1 2 3 4 5 6 
#
# 1 66.0187 20.4578 41.3227 0.0000 8.7833 0.0000
# 2 20.4578 55.7457 52.8281 0.0000 13.2485 0.0000
# 3 41.3227 52.8281 189.1386 0.0000 5.6039 0.0000
# 4 0.0000 0.0000 0.0000 33.9144 0.0000 -0.7578
# 5 8.7833 13.2485 5.6039 0.0000 38.6019 0.0000
# 6 0.0000 0.0000 0.0000 -0.7578 0.0000 21.3522
#
#
#
# Elastic Compliance Matrix: (Units=1/GPa)
#
#
# Indices 1 2 3 4 5 6 
#
# 1 0.018405 -0.003254 -0.003034 0.000000 -0.002631 0.000000
# 2 -0.003254 0.027285 -0.006683 0.000000 -0.007654 0.000000
# 3 -0.003034 -0.006683 0.007762 0.000000 0.001857 0.000000
# 4 0.000000 0.000000 0.000000 0.029509 0.000000 0.001047
# 5 -0.002631 -0.007654 0.001857 0.000000 0.028861 0.000000
# 6 0.000000 0.000000 0.000000 0.001047 0.000000 0.046871
#
#
# Mechanical properties :
#
#
# Convention : Reuss Voigt Hill
#
# Bulk Modulus (GPa) = 36.35152 60.01333 48.18243
# Shear Modulus (GPa) = 25.79908 31.86001 28.82954
#
# Velocity S-wave (km/s) = 3.50690 3.89712 3.70715
# Velocity P-wave (km/s) = 5.80744 6.98986 6.42591
#
# Compressibility (1/GPa) = 0.02750916
#
# Stress axis : x y z
#
# Youngs Moduli (GPa) = 54.33406 36.64979 128.83661
#
# Poissons Ratio (x) = 0.11924 0.39093
# Poissons Ratio (y) = 0.17678 0.86107
# Poissons Ratio (z) = 0.16487 0.24495
#
# Static dielectric constant tensor:
#      x y z
#    x 1.802040 0.000000 0.015410 
#    y 0.000000 1.764640 0.000000 
#    z 0.015410 0.000000 1.808380 
# 
# From -- ./inp_files/45962.got.cif
#   From: 2010.05.17/outbox.cif.g08.bks.cpg/sg5_23_cif.got.tgz:45962.got - 2010.06.03 18:56:24.
