data_PCOD9124285
_publ_section_title
;
Structure prediction by ZEFSAII (Michael W. Deem and Ramdas Pophale) SiO2 
 PCOD9124285
Probable space group: C 2
;
_chemical_formula_sum "Si O2"
_cell_formula_units_Z 30
_cell_length_a 13.840054
_cell_length_b 5.352881
_cell_length_c 16.957025
_cell_angle_alpha 90.000000
_cell_angle_beta 110.063257
_cell_angle_gamma 90.000000
_cell_volume 1180.010941
_symmetry_space_group_name_H-M "C 2"
_symmetry_group_IT_number 5
_symmetry_cell_setting 'monoclinic'
loop_
_space_group_symop_operation_xyz
x,y,z
-x,y,-z
1/2+x,1/2+y,z
1/2-x,1/2+y,-z
loop_
_atom_site_type_symbol
_atom_site_label
_atom_site_fract_x
_atom_site_fract_y
_atom_site_fract_z
Si Si1 0.313892 0.894500 0.509296
Si Si2 0.614229 0.490322 0.261479
Si Si3 0.258458 0.360326 0.207905
Si Si4 0.227176 0.116086 0.041462
Si Si5 0.447921 0.105673 0.847458
Si Si6 0.175593 0.245657 0.658427
Si Si7 0.000000 0.268524 0.000000
Si Si8 0.513981 0.893762 0.316722
O O1 0.246830 0.657374 0.524199
O O2 0.357886 0.772454 0.441156
O O3 0.403586 0.970245 0.594729
O O4 0.542639 0.396023 0.169848
O O5 0.702025 0.296602 0.313020
O O6 0.546398 0.604305 0.310740
O O7 0.688843 0.690366 0.243824
O O8 0.287127 0.207791 0.137722
O O9 0.171318 0.566209 0.158059
O O10 0.332628 0.501306 0.289029
O O11 0.106046 0.116849 0.030450
O O12 0.255332 0.845047 0.015134
O O13 0.472863 0.005077 0.766526
O O14 0.509893 0.956441 0.928575
O O15 0.100834 0.431048 0.684741
#
# Coordination Sequence:
#
# PCOD9124285 Si02
#       8
#     4   4   4   4   4   4   2   4
#     4  12  25  48  73 103 147 191 234 300 367 430
#     4  10  20  43  65  91 137 183 227 296 362 419
#     4   9  22  42  67  96 138 184 234 297 363 423
#     4  11  27  45  71 104 143 189 245 302 362 437
#     4   9  21  42  67  98 137 188 236 300 360 430
#     4  11  24  41  70 101 137 185 238 294 360 433
#     4  10  24  46  70 104 144 194 246 304 368 432
#     4  11  24  41  67 105 135 183 244 292 358 441
#
# _framework density 25.423494000000002
#
# number of rings (size 3 to 8) (size 9 to 14) (size 15 to 20)
#    0.000    1.600    1.333    2.800    7.467    2.667 
#    2.400    1.333    0.000    0.000    0.000    0.000 
#    0.000    0.000    0.000    0.000    0.000    0.000 
#
# Total GULP energy -83684.301416 kJ/mol
# GULP energy per Si atom -5578.953428 kJ/mol
# Density = 2.536563 g / cm^3
# Si number density = 25.423494 Si / 1000 Ang^3
#
#
#
# Elastic Constant Matrix: (Units=GPa)
#
#
# Indices 1 2 3 4 5 6 
#
# 1 116.7733 20.9508 39.2159 0.0000 -4.4513 0.0000
# 2 20.9508 59.4253 11.8265 0.0000 8.2179 0.0000
# 3 39.2159 11.8265 133.3589 0.0000 -22.6981 0.0000
# 4 0.0000 0.0000 0.0000 15.4297 0.0000 -8.3788
# 5 -4.4513 8.2179 -22.6981 0.0000 27.2996 0.0000
# 6 0.0000 0.0000 0.0000 -8.3788 0.0000 25.6724
#
#
#
# Elastic Compliance Matrix: (Units=1/GPa)
#
#
# Indices 1 2 3 4 5 6 
#
# 1 0.010002 -0.003062 -0.002604 0.000000 0.000388 0.000000
# 2 -0.003062 0.019487 -0.002226 0.000000 -0.008216 0.000000
# 3 -0.002604 -0.002226 0.009905 0.000000 0.008481 0.000000
# 4 0.000000 0.000000 0.000000 0.078771 0.000000 0.025709
# 5 0.000388 -0.008216 0.008481 0.000000 0.046219 0.000000
# 6 0.000000 0.000000 0.000000 0.025709 0.000000 0.047343
#
#
# Mechanical properties :
#
#
# Convention : Reuss Voigt Hill
#
# Bulk Modulus (GPa) = 42.35402 50.39376 46.37389
# Shear Modulus (GPa) = 21.24224 29.51795 25.38010
#
# Velocity S-wave (km/s) = 2.89370 3.41112 3.16301
# Velocity P-wave (km/s) = 5.27828 5.94803 5.62313
#
# Compressibility (1/GPa) = 0.02361051
#
# Stress axis : x y z
#
# Youngs Moduli (GPa) = 99.97880 51.31746 100.95735
#
# Poissons Ratio (x) = 0.15712 0.26287
# Poissons Ratio (y) = 0.30611 0.22475
# Poissons Ratio (z) = 0.26032 0.11424
#
# Static dielectric constant tensor:
#      x y z
#    x 1.988180 0.000000 0.104440 
#    y 0.000000 2.300720 0.000000 
#    z 0.104440 0.000000 2.127570 
# 
# From -- ./inp_files/61133.got.cif
#   From: 2010.05.17/outbox.cif.g08.bks.cpg/sg5_31_cif.got.tgz:61133.got - 2010.06.03 18:56:24.
