data_PCOD9124814
_publ_section_title
;
Structure prediction by ZEFSAII (Michael W. Deem and Ramdas Pophale) SiO2 
 PCOD9124814
Probable space group: C 2
;
_chemical_formula_sum "Si O2"
_cell_formula_units_Z 28
_cell_length_a 11.078880
_cell_length_b 9.865362
_cell_length_c 11.360076
_cell_angle_alpha 90.000000
_cell_angle_beta 75.015944
_cell_angle_gamma 90.000000
_cell_volume 1199.406129
_symmetry_space_group_name_H-M "C 2"
_symmetry_group_IT_number 5
_symmetry_cell_setting 'monoclinic'
loop_
_space_group_symop_operation_xyz
x,y,z
-x,y,-z
1/2+x,1/2+y,z
1/2-x,1/2+y,-z
loop_
_atom_site_type_symbol
_atom_site_label
_atom_site_fract_x
_atom_site_fract_y
_atom_site_fract_z
Si Si1 0.420307 0.839780 0.327745
Si Si2 0.864381 0.268813 0.967602
Si Si3 0.000000 0.993968 0.500000
Si Si4 0.673233 0.264139 0.467500
Si Si5 0.000000 0.515168 0.500000
Si Si6 0.129896 0.789888 0.199333
Si Si7 0.509456 0.029714 0.134463
Si Si8 0.929398 0.087595 0.759147
O O1 0.316261 0.798703 0.448940
O O2 0.521379 0.920239 0.381621
O O3 0.459048 0.697134 0.261555
O O4 0.397325 0.948538 0.228578
O O5 0.884089 0.412910 0.897405
O O6 0.834449 0.160466 0.872477
O O7 0.751760 0.274586 0.087282
O O8 0.000000 0.243930 0.000000
O O9 0.906849 0.887747 0.459579
O O10 0.922638 0.073707 0.618462
O O11 0.664594 0.280045 0.327773
O O12 0.612632 0.118546 0.506357
O O13 0.040960 0.664613 0.194474
O O14 0.064643 0.934808 0.196668
O O15 0.500000 0.064816 0.000000
#
# Coordination Sequence:
#
# PCOD9124814 Si02
#       8
#     4   4   2   4   2   4   4   4
#     4  11  23  42  67  99 135 179 226 283 349 410
#     4  10  21  38  63  92 128 174 217 277 347 402
#     4   9  21  40  60  96 130 174 220 268 342 404
#     4  10  22  40  68  94 137 180 222 286 339 403
#     4  11  23  44  68 106 136 180 240 276 344 428
#     4  11  20  40  65  94 131 176 227 284 344 405
#     4  10  21  39  62  94 132 176 227 275 346 416
#     4  10  22  38  64  93 131 169 220 282 336 407
#
# _framework density 23.344885000000001
#
# number of rings (size 3 to 8) (size 9 to 14) (size 15 to 20)
#    0.000    1.714    1.429    3.857    2.000    1.714 
#    0.000    1.429    6.286    0.000    0.000    0.000 
#    0.000    0.000    0.000    0.000    0.000    0.000 
#
# Total GULP energy -77994.012237 kJ/mol
# GULP energy per Si atom -5571.000874 kJ/mol
# Density = 2.329175 g / cm^3
# Si number density = 23.344885 Si / 1000 Ang^3
#
#
#
# Elastic Constant Matrix: (Units=GPa)
#
#
# Indices 1 2 3 4 5 6 
#
# 1 35.2072 31.1396 18.9155 0.0000 -13.2057 0.0000
# 2 31.1396 158.1667 39.1834 0.0000 0.1771 0.0000
# 3 18.9155 39.1834 133.9840 0.0000 -11.9010 0.0000
# 4 0.0000 0.0000 0.0000 35.5369 0.0000 -4.8683
# 5 -13.2057 0.1771 -11.9010 0.0000 36.7146 0.0000
# 6 0.0000 0.0000 0.0000 -4.8683 0.0000 15.1275
#
#
#
# Elastic Compliance Matrix: (Units=1/GPa)
#
#
# Indices 1 2 3 4 5 6 
#
# 1 0.041829 -0.007658 -0.002395 0.000000 0.014306 0.000000
# 2 -0.007658 0.008236 -0.001622 0.000000 -0.003320 0.000000
# 3 -0.002395 -0.001622 0.008443 0.000000 0.001883 0.000000
# 4 0.000000 0.000000 0.000000 0.029438 0.000000 0.009474
# 5 0.014306 -0.003320 0.001883 0.000000 0.033009 0.000000
# 6 0.000000 0.000000 0.000000 0.009474 0.000000 0.069153
#
#
# Mechanical properties :
#
#
# Convention : Reuss Voigt Hill
#
# Bulk Modulus (GPa) = 28.44327 56.20387 42.32357
# Shear Modulus (GPa) = 22.20463 33.35043 27.77753
#
# Velocity S-wave (km/s) = 3.08743 3.78378 3.45320
# Velocity P-wave (km/s) = 4.99199 6.57397 5.83682
#
# Compressibility (1/GPa) = 0.03515771
#
# Stress axis : x y z
#
# Youngs Moduli (GPa) = 23.90679 121.42194 118.43536
#
# Poissons Ratio (x) = 0.92984 0.28366
# Poissons Ratio (y) = 0.18308 0.19214
# Poissons Ratio (z) = 0.05726 0.19698
#
# Static dielectric constant tensor:
#      x y z
#    x 2.037220 0.000000 -0.045930 
#    y 0.000000 1.874240 0.000000 
#    z -0.045930 0.000000 1.989660 
# 
# From -- ./inp_files/41658.got.cif
#   From: 2010.05.17/outbox.cif.g08.bks.cpg/sg5_21_cif.got.tgz:41658.got - 2010.06.03 18:56:24.
