data_PCOD9124614
_publ_section_title
;
Structure prediction by ZEFSAII (Michael W. Deem and Ramdas Pophale) SiO2 
 PCOD9124614
Probable space group: C 2
;
_chemical_formula_sum "Si O2"
_cell_formula_units_Z 28
_cell_length_a 4.952857
_cell_length_b 13.656636
_cell_length_c 18.980823
_cell_angle_alpha 90.000000
_cell_angle_beta 92.016064
_cell_angle_gamma 90.000000
_cell_volume 1283.056119
_symmetry_space_group_name_H-M "C 2"
_symmetry_group_IT_number 5
_symmetry_cell_setting 'monoclinic'
loop_
_space_group_symop_operation_xyz
x,y,z
-x,y,-z
1/2+x,1/2+y,z
1/2-x,1/2+y,-z
loop_
_atom_site_type_symbol
_atom_site_label
_atom_site_fract_x
_atom_site_fract_y
_atom_site_fract_z
Si Si1 0.272288 0.236900 0.342989
Si Si2 0.738557 0.558313 0.449251
Si Si3 0.333048 0.412992 0.796196
Si Si4 0.427840 0.559211 0.923797
Si Si5 0.715042 0.873199 0.643471
Si Si6 0.678778 0.788495 0.192723
Si Si7 0.053329 0.693690 0.075472
O O1 0.706633 0.451559 0.414150
O O2 0.069202 0.319621 0.370835
O O3 0.173618 0.218602 0.261030
O O4 0.569203 0.284930 0.347288
O O5 0.500000 0.582825 0.500000
O O6 0.240046 0.639759 0.611221
O O7 0.000000 0.558428 0.500000
O O8 0.398804 0.492936 0.855280
O O9 0.632482 0.376772 0.779548
O O10 0.204918 0.430931 0.718364
O O11 0.116136 0.333245 0.826271
O O12 0.641818 0.650224 0.913912
O O13 0.126887 0.596890 0.932278
O O14 0.500000 0.511934 0.000000
O O15 0.877331 0.747865 0.133905
O O16 0.000000 0.746880 0.000000
#
# Coordination Sequence:
#
# PCOD9124614 Si02
#       7
#     4   4   4   4   4   4   4
#     4  10  23  43  64  94 132 165 210 267 315 373
#     4  12  26  42  66 100 126 168 216 246 322 398
#     4  10  21  39  61  89 119 161 212 256 316 377
#     4  10  21  37  57  87 123 161 207 261 321 374
#     4  10  23  43  64  94 132 165 210 267 315 373
#     4  10  21  39  61  89 119 161 212 256 316 377
#     4  10  21  37  57  87 123 161 207 261 321 374
#
# _framework density 21.822894000000002
#
# number of rings (size 3 to 8) (size 9 to 14) (size 15 to 20)
#    0.000    1.714    0.000    3.429    2.000    4.000 
#    2.571    1.429    0.000    0.000    0.000    0.000 
#    0.000    0.000    0.000    0.000    0.000    0.000 
#
# Total GULP energy -77987.011459 kJ/mol
# GULP energy per Si atom -5570.500819 kJ/mol
# Density = 2.177322 g / cm^3
# Si number density = 21.822894 Si / 1000 Ang^3
#
#
#
# Elastic Constant Matrix: (Units=GPa)
#
#
# Indices 1 2 3 4 5 6 
#
# 1 128.2221 6.7463 13.6739 0.0000 0.9851 0.0000
# 2 6.7463 31.6061 26.1591 0.0000 -5.6123 0.0000
# 3 13.6739 26.1591 65.0795 0.0000 -20.2744 0.0000
# 4 0.0000 0.0000 0.0000 68.6604 0.0000 -23.0357
# 5 0.9851 -5.6123 -20.2744 0.0000 35.5350 0.0000
# 6 0.0000 0.0000 0.0000 -23.0357 0.0000 25.5036
#
#
#
# Elastic Compliance Matrix: (Units=1/GPa)
#
#
# Indices 1 2 3 4 5 6 
#
# 1 0.008040 -0.000306 -0.002008 0.000000 -0.001417 0.000000
# 2 -0.000306 0.047925 -0.020479 0.000000 -0.004107 0.000000
# 3 -0.002008 -0.020479 0.028007 0.000000 0.012801 0.000000
# 4 0.000000 0.000000 0.000000 0.020897 0.000000 0.018875
# 5 -0.001417 -0.004107 0.012801 0.000000 0.034835 0.000000
# 6 0.000000 0.000000 0.000000 0.018875 0.000000 0.056259
#
#
# Mechanical properties :
#
#
# Convention : Reuss Voigt Hill
#
# Bulk Modulus (GPa) = 26.05032 35.34070 30.69551
# Shear Modulus (GPa) = 19.65841 37.82836 28.74338
#
# Velocity S-wave (km/s) = 3.00462 4.16796 3.63315
# Velocity P-wave (km/s) = 4.89898 6.27630 5.62992
#
# Compressibility (1/GPa) = 0.03838724
#
# Stress axis : x y z
#
# Youngs Moduli (GPa) = 124.37735 20.86586 35.70523
#
# Poissons Ratio (x) = 0.00639 0.07168
# Poissons Ratio (y) = 0.03807 0.73120
# Poissons Ratio (z) = 0.24970 0.42731
#
# Static dielectric constant tensor:
#      x y z
#    x 1.733240 0.000000 -0.024640 
#    y 0.000000 1.838240 0.000000 
#    z -0.024640 0.000000 1.966460 
# 
# From -- ./inp_files/58755.got.cif
#   From: 2010.05.17/outbox.cif.g08.bks.cpg/sg5_30_cif.got.tgz:58755.got - 2010.06.03 18:56:24.
