data_PCOD9124797
_publ_section_title
;
Structure prediction by ZEFSAII (Michael W. Deem and Ramdas Pophale) SiO2 
 PCOD9124797
Probable space group: C 2
;
_chemical_formula_sum "Si O2"
_cell_formula_units_Z 20
_cell_length_a 11.224957
_cell_length_b 9.606898
_cell_length_c 18.265870
_cell_angle_alpha 90.000000
_cell_angle_beta 153.388652
_cell_angle_gamma 90.000000
_cell_volume 882.316428
_symmetry_space_group_name_H-M "C 2"
_symmetry_group_IT_number 5
_symmetry_cell_setting 'monoclinic'
loop_
_space_group_symop_operation_xyz
x,y,z
-x,y,-z
1/2+x,1/2+y,z
1/2-x,1/2+y,-z
loop_
_atom_site_type_symbol
_atom_site_label
_atom_site_fract_x
_atom_site_fract_y
_atom_site_fract_z
Si Si1 0.408496 0.501860 0.865564
Si Si2 0.002648 0.521258 0.811667
Si Si3 0.438153 0.812699 0.643901
Si Si4 0.254809 0.550195 0.177961
Si Si5 0.078544 0.753899 0.733552
O O1 0.267663 0.653421 0.788175
O O2 0.180187 0.385473 0.730236
O O3 0.500000 0.481573 0.000000
O O4 0.700473 0.498883 0.990421
O O5 0.009054 0.659263 0.765136
O O6 0.924105 0.401871 0.710565
O O7 0.799307 0.534709 0.765635
O O8 0.505782 0.654777 0.701478
O O9 0.174072 0.804982 0.451223
O O10 0.288963 0.395475 0.167575
O O11 0.000000 0.618605 0.000000
#
# Coordination Sequence:
#
# PCOD9124797 Si02
#       5
#     4   4   4   4   4
#     4   8  17  37  59  82 124 165 191 241 306 355
#     4  10  23  44  61  85 131 162 191 257 305 346
#     4  10  21  38  62  92 123 157 200 248 304 364
#     4  12  24  39  66  93 114 162 217 244 291 364
#     4  10  21  38  62  92 123 157 200 248 304 364
#
# _framework density 22.667607
#
# number of rings (size 3 to 8) (size 9 to 14) (size 15 to 20)
#    0.000    2.400    0.000    6.000    0.000    9.600 
#    0.000    2.000    0.000   14.400    0.000    0.000 
#    0.000    0.000    0.000    0.000    0.000    0.000 
#
# Total GULP energy -55846.475461 kJ/mol
# GULP energy per Si atom -5584.647546 kJ/mol
# Density = 2.261601 g / cm^3
# Si number density = 22.667607 Si / 1000 Ang^3
#
#
#
# Elastic Constant Matrix: (Units=GPa)
#
#
# Indices 1 2 3 4 5 6 
#
# 1 79.1464 40.3557 3.2259 0.0094 -17.8982 0.0059
# 2 40.3557 135.6568 22.8729 0.0144 -0.8640 0.0052
# 3 3.2259 22.8729 141.0173 0.0268 -4.7081 0.0134
# 4 0.0094 0.0144 0.0268 76.9268 0.0099 10.5879
# 5 -17.8982 -0.8640 -4.7081 0.0099 7.8385 0.0067
# 6 0.0059 0.0052 0.0134 10.5879 0.0067 10.8992
#
#
#
# Elastic Compliance Matrix: (Units=1/GPa)
#
#
# Indices 1 2 3 4 5 6 
#
# 1 0.038486 -0.011551 0.003964 -0.000006 0.088987 -0.000069
# 2 -0.011551 0.011045 -0.002416 0.000001 -0.026608 0.000019
# 3 0.003964 -0.002416 0.007843 -0.000002 0.013496 -0.000017
# 4 -0.000006 0.000001 -0.000002 0.015006 -0.000021 -0.014577
# 5 0.088987 -0.026608 0.013496 -0.000021 0.335940 -0.000239
# 6 -0.000069 0.000019 -0.000017 -0.014577 -0.000239 0.105911
#
#
# Mechanical properties :
#
#
# Convention : Reuss Voigt Hill
#
# Bulk Modulus (GPa) = 26.75925 54.30329 40.53127
# Shear Modulus (GPa) = 9.14591 38.42397 23.78494
#
# Velocity S-wave (km/s) = 2.01086 4.12163 3.24279
# Velocity P-wave (km/s) = 4.14995 6.83073 5.65159
#
# Compressibility (1/GPa) = 0.03737025
#
# Stress axis : x y z
#
# Youngs Moduli (GPa) = 25.98334 90.53461 127.50130
#
# Poissons Ratio (x) = 1.04573 -0.50542
# Poissons Ratio (y) = 0.30012 0.30800
# Poissons Ratio (z) = -0.10300 0.21870
#
# Static dielectric constant tensor:
#      x y z
#    x 1.886680 0.000000 0.095280 
#    y 0.000000 1.817450 -0.000020 
#    z 0.095280 -0.000020 1.662230 
# 
# From -- ./inp_files/44281.got.cif
#   From: 2010.05.17/outbox.cif.g08.bks.cpg/sg5_23_cif.got.tgz:44281.got - 2010.06.03 18:56:24.
