data_PCOD9124377
_publ_section_title
;
Structure prediction by ZEFSAII (Michael W. Deem and Ramdas Pophale) SiO2 
 PCOD9124377
Probable space group: C 2
;
_chemical_formula_sum "Si O2"
_cell_formula_units_Z 14
_cell_length_a 6.826699
_cell_length_b 13.546166
_cell_length_c 7.252309
_cell_angle_alpha 90.000000
_cell_angle_beta 61.916136
_cell_angle_gamma 90.000000
_cell_volume 591.697564
_symmetry_space_group_name_H-M "C 2"
_symmetry_group_IT_number 5
_symmetry_cell_setting 'monoclinic'
loop_
_space_group_symop_operation_xyz
x,y,z
-x,y,-z
1/2+x,1/2+y,z
1/2-x,1/2+y,-z
loop_
_atom_site_type_symbol
_atom_site_label
_atom_site_fract_x
_atom_site_fract_y
_atom_site_fract_z
Si Si1 0.955738 0.229940 0.231161
Si Si2 0.000000 0.918925 0.000000
Si Si3 0.157889 0.562320 0.273735
Si Si4 0.370519 0.255772 0.315899
O O1 0.873201 0.116266 0.265125
O O2 0.752086 0.277445 0.435886
O O3 0.174368 0.239030 0.255115
O O4 0.000000 0.258822 0.000000
O O5 0.003883 0.849277 0.819707
O O6 0.228032 0.981396 0.902372
O O7 0.000000 0.517038 0.500000
O O8 0.017913 0.655645 0.257198
#
# Coordination Sequence:
#
# PCOD9124377 Si02
#       4
#     4   2   4   4
#     4  10  20  44  77 100 144 189 229 296 354 412
#     4  12  24  42  78 108 138 190 244 284 354 434
#     4  10  23  45  70 104 147 182 237 299 346 423
#     4  10  24  43  74 105 144 191 230 297 362 406
#
# _framework density 23.660736
#
# number of rings (size 3 to 8) (size 9 to 14) (size 15 to 20)
#    0.000    1.714    1.429    1.714    4.000    0.000 
#    0.000    8.571   31.429    0.000    0.000    0.000 
#    0.000    0.000    0.000    0.000    0.000    0.000 
#
# Total GULP energy -39102.688465 kJ/mol
# GULP energy per Si atom -5586.098352 kJ/mol
# Density = 2.360688 g / cm^3
# Si number density = 23.660736 Si / 1000 Ang^3
#
#
#
# Elastic Constant Matrix: (Units=GPa)
#
#
# Indices 1 2 3 4 5 6 
#
# 1 99.7886 46.4545 63.2651 0.0000 -14.9936 0.0000
# 2 46.4545 103.0338 101.0820 0.0000 -25.4384 0.0000
# 3 63.2651 101.0820 265.0344 0.0000 -15.3161 0.0000
# 4 0.0000 0.0000 0.0000 55.5067 0.0000 -1.5573
# 5 -14.9936 -25.4384 -15.3161 0.0000 39.2432 0.0000
# 6 0.0000 0.0000 0.0000 -1.5573 0.0000 17.5280
#
#
#
# Elastic Compliance Matrix: (Units=1/GPa)
#
#
# Indices 1 2 3 4 5 6 
#
# 1 0.013103 -0.003977 -0.001505 0.000000 0.001841 0.000000
# 2 -0.003977 0.019566 -0.006003 0.000000 0.008821 0.000000
# 3 -0.001505 -0.006003 0.006306 0.000000 -0.002005 0.000000
# 4 0.000000 0.000000 0.000000 0.018061 0.000000 0.001605
# 5 0.001841 0.008821 -0.002005 0.000000 0.031121 0.000000
# 6 0.000000 0.000000 0.000000 0.001605 0.000000 0.057194
#
#
# Mechanical properties :
#
#
# Convention : Reuss Voigt Hill
#
# Bulk Modulus (GPa) = 62.47974 98.82889 80.65432
# Shear Modulus (GPa) = 28.79260 39.59260 34.19260
#
# Velocity S-wave (km/s) = 3.49218 4.09509 3.80560
# Velocity P-wave (km/s) = 6.53638 8.01371 7.31245
#
# Compressibility (1/GPa) = 0.01600519
#
# Stress axis : x y z
#
# Youngs Moduli (GPa) = 76.31738 51.10908 158.58098
#
# Poissons Ratio (x) = 0.20327 0.23859
# Poissons Ratio (y) = 0.30353 0.95199
# Poissons Ratio (z) = 0.11482 0.30682
#
# Static dielectric constant tensor:
#      x y z
#    x 1.928520 0.000000 -0.007890 
#    y 0.000000 1.913700 0.000000 
#    z -0.007890 0.000000 1.978270 
# 
# From -- ./inp_files/14142.got.cif
#   From: 2010.05.17/outbox.cif.g08.bks.cpg/sg5_8_cif.got.tgz:14142.got - 2010.06.03 18:56:24.
