data_PCOD9124064
_publ_section_title
;
Structure prediction by ZEFSAII (Michael W. Deem and Ramdas Pophale) SiO2 
 PCOD9124064
Probable space group: C 2
;
_chemical_formula_sum "Si O2"
_cell_formula_units_Z 28
_cell_length_a 14.752881
_cell_length_b 11.491943
_cell_length_c 7.579203
_cell_angle_alpha 90.000000
_cell_angle_beta 73.817614
_cell_angle_gamma 90.000000
_cell_volume 1234.061153
_symmetry_space_group_name_H-M "C 2"
_symmetry_group_IT_number 5
_symmetry_cell_setting 'monoclinic'
loop_
_space_group_symop_operation_xyz
x,y,z
-x,y,-z
1/2+x,1/2+y,z
1/2-x,1/2+y,-z
loop_
_atom_site_type_symbol
_atom_site_label
_atom_site_fract_x
_atom_site_fract_y
_atom_site_fract_z
Si Si1 0.099857 0.616310 0.528932
Si Si2 0.298691 0.592341 0.856908
Si Si3 0.239562 0.358903 0.077666
Si Si4 0.926207 0.797925 0.168953
Si Si5 0.301049 0.645581 0.434762
Si Si6 0.103052 0.358269 0.477132
Si Si7 0.506908 0.527984 0.706967
O O1 0.113824 0.702484 0.681372
O O2 0.203684 0.623997 0.384567
O O3 0.086354 0.481231 0.577794
O O4 0.000000 0.653332 0.500000
O O5 0.267962 0.717756 0.958179
O O6 0.292250 0.600351 0.644375
O O7 0.410944 0.581404 0.833506
O O8 0.246991 0.471937 0.945079
O O9 0.339542 0.360159 0.122873
O O10 0.154009 0.376910 0.262085
O O11 0.985647 0.895504 0.236427
O O12 0.000000 0.737567 0.000000
O O13 0.328415 0.779762 0.444255
O O14 0.393638 0.587652 0.300997
O O15 0.000000 0.302202 0.500000
O O16 0.500000 0.530659 0.500000
#
# Coordination Sequence:
#
# PCOD9124064 Si02
#       7
#     4   4   4   4   4   4   4
#     4  11  24  42  65 100 130 179 234 276 352 407
#     4  10  21  41  68 106 140 186 225 285 361 408
#     4  11  22  42  69  99 146 181 226 291 349 412
#     4  12  23  42  65  95 143 176 225 292 339 407
#     4  10  20  41  69  96 136 174 235 291 334 411
#     4  10  21  41  65  94 134 178 226 282 353 406
#     4  10  21  40  71  98 128 184 243 279 333 421
#
# _framework density 22.689314
#
# number of rings (size 3 to 8) (size 9 to 14) (size 15 to 20)
#    0.000    1.429    4.286    3.429    0.000    2.286 
#    5.143    1.429    0.000    0.000    0.000    0.000 
#    0.000    0.000    0.000    0.000    0.000    0.000 
#
# Total GULP energy -78085.471181 kJ/mol
# GULP energy per Si atom -5577.533656 kJ/mol
# Density = 2.263767 g / cm^3
# Si number density = 22.689314 Si / 1000 Ang^3
#
#
#
# Elastic Constant Matrix: (Units=GPa)
#
#
# Indices 1 2 3 4 5 6 
#
# 1 152.3561 24.5462 18.5859 0.0000 -29.8835 0.0000
# 2 24.5462 127.6190 32.0339 0.0000 2.9229 0.0000
# 3 18.5859 32.0339 48.2093 0.0000 -17.5029 0.0000
# 4 0.0000 0.0000 0.0000 80.3507 0.0000 22.6428
# 5 -29.8835 2.9229 -17.5029 0.0000 24.2584 0.0000
# 6 0.0000 0.0000 0.0000 22.6428 0.0000 65.8132
#
#
#
# Elastic Compliance Matrix: (Units=1/GPa)
#
#
# Indices 1 2 3 4 5 6 
#
# 1 0.009513 -0.003121 0.003790 0.000000 0.014829 0.000000
# 2 -0.003121 0.011605 -0.011397 0.000000 -0.013466 0.000000
# 3 0.003790 -0.011397 0.039359 0.000000 0.034440 0.000000
# 4 0.000000 0.000000 0.000000 0.013782 0.000000 -0.004741
# 5 0.014829 -0.013466 0.034440 0.000000 0.085962 0.000000
# 6 0.000000 0.000000 0.000000 -0.004741 0.000000 0.016826
#
#
# Mechanical properties :
#
#
# Convention : Reuss Voigt Hill
#
# Bulk Modulus (GPa) = 25.62723 53.16849 39.39786
# Shear Modulus (GPa) = 23.63961 50.95237 37.29599
#
# Velocity S-wave (km/s) = 3.23132 4.74398 4.05874
# Velocity P-wave (km/s) = 5.02407 7.31377 6.27425
#
# Compressibility (1/GPa) = 0.03902100
#
# Stress axis : x y z
#
# Youngs Moduli (GPa) = 105.12392 86.16721 25.40720
#
# Poissons Ratio (x) = 0.26890 -0.09630
# Poissons Ratio (y) = 0.32805 0.28958
# Poissons Ratio (z) = -0.39843 0.98208
#
# Static dielectric constant tensor:
#      x y z
#    x 1.930250 0.000000 -0.023240 
#    y 0.000000 1.860530 0.000000 
#    z -0.023240 0.000000 1.759680 
# 
# From -- ./inp_files/23579.got.cif
#   From: 2010.05.17/outbox.cif.g08.bks.cpg/sg5_12_cif.got.tgz:23579.got - 2010.06.03 18:56:24.
