data_PCOD9124222
_publ_section_title
;
Structure prediction by ZEFSAII (Michael W. Deem and Ramdas Pophale) SiO2 
 PCOD9124222
Probable space group: C 2
;
_chemical_formula_sum "Si O2"
_cell_formula_units_Z 26
_cell_length_a 24.547528
_cell_length_b 8.649507
_cell_length_c 12.126831
_cell_angle_alpha 90.000000
_cell_angle_beta 29.365400
_cell_angle_gamma 90.000000
_cell_volume 1262.632678
_symmetry_space_group_name_H-M "C 2"
_symmetry_group_IT_number 5
_symmetry_cell_setting 'monoclinic'
loop_
_space_group_symop_operation_xyz
x,y,z
-x,y,-z
1/2+x,1/2+y,z
1/2-x,1/2+y,-z
loop_
_atom_site_type_symbol
_atom_site_label
_atom_site_fract_x
_atom_site_fract_y
_atom_site_fract_z
Si Si1 0.051761 0.431470 0.082598
Si Si2 0.878276 0.973115 0.768107
Si Si3 0.020328 0.748072 0.250718
Si Si4 0.162320 0.480773 0.660900
Si Si5 0.163847 0.317676 0.093668
Si Si6 0.000000 0.547105 0.500000
Si Si7 0.896181 0.839087 0.260174
O O1 0.071868 0.608413 0.087789
O O2 0.093478 0.323316 0.105817
O O3 0.920823 0.418680 0.287048
O O4 0.118389 0.408715 0.852618
O O5 0.835760 0.145339 0.862317
O O6 0.000000 0.982091 0.500000
O O7 0.894351 0.872683 0.851026
O O8 0.786759 0.883018 0.858816
O O9 0.975703 0.655418 0.437201
O O10 0.934220 0.832131 0.321121
O O11 0.138640 0.663267 0.706562
O O12 0.290722 0.444716 0.422458
O O13 0.101373 0.435395 0.287285
O O14 0.000000 0.881410 0.000000
#
# Coordination Sequence:
#
# PCOD9124222 Si02
#       7
#     4   4   4   4   4   2   4
#     4   9  20  44  67  94 131 181 210 279 331 383
#     4  12  26  44  66 101 128 177 221 272 331 406
#     4  10  21  42  68  93 141 166 223 270 327 390
#     4  10  21  43  69  92 135 169 224 269 332 384
#     4  11  24  44  66  98 141 170 226 272 331 395
#     4  10  20  42  70 100 130 186 214 268 336 394
#     4  11  23  46  65  99 131 174 216 277 324 392
#
# _framework density 20.591895000000001
#
# number of rings (size 3 to 8) (size 9 to 14) (size 15 to 20)
#    0.000    1.538    4.615    1.846    2.154    1.231 
#   13.846    0.000    0.000    0.000    0.000    0.000 
#    0.000    0.000    0.000    0.000    0.000    0.000 
#
# Total GULP energy -72602.083659 kJ/mol
# GULP energy per Si atom -5584.775666 kJ/mol
# Density = 2.054503 g / cm^3
# Si number density = 20.591895 Si / 1000 Ang^3
#
#
#
# Elastic Constant Matrix: (Units=GPa)
#
#
# Indices 1 2 3 4 5 6 
#
# 1 109.9201 24.8269 42.2516 0.0000 3.2077 0.0000
# 2 24.8269 66.9298 26.2493 0.0000 -2.5431 0.0000
# 3 42.2516 26.2493 105.9680 0.0000 -17.5529 0.0000
# 4 0.0000 0.0000 0.0000 24.3649 0.0000 -15.8374
# 5 3.2077 -2.5431 -17.5529 0.0000 23.2970 0.0000
# 6 0.0000 0.0000 0.0000 -15.8374 0.0000 29.9371
#
#
#
# Elastic Compliance Matrix: (Units=1/GPa)
#
#
# Indices 1 2 3 4 5 6 
#
# 1 0.011770 -0.002628 -0.004979 0.000000 -0.005659 0.000000
# 2 -0.002628 0.017179 -0.003242 0.000000 -0.000205 0.000000
# 3 -0.004979 -0.003242 0.014031 0.000000 0.010903 0.000000
# 4 0.000000 0.000000 0.000000 0.062553 0.000000 0.033092
# 5 -0.005659 -0.000205 0.010903 0.000000 0.051896 0.000000
# 6 0.000000 0.000000 0.000000 0.033092 0.000000 0.050910
#
#
# Mechanical properties :
#
#
# Convention : Reuss Voigt Hill
#
# Bulk Modulus (GPa) = 46.98678 52.16373 49.57525
# Shear Modulus (GPa) = 21.08528 28.15246 24.61887
#
# Velocity S-wave (km/s) = 3.20341 3.70153 3.46144
# Velocity P-wave (km/s) = 6.04567 6.60724 6.33268
#
# Compressibility (1/GPa) = 0.02128258
#
# Stress axis : x y z
#
# Youngs Moduli (GPa) = 84.95964 58.20905 71.26935
#
# Poissons Ratio (x) = 0.15298 0.35488
# Poissons Ratio (y) = 0.22329 0.23103
# Poissons Ratio (z) = 0.42305 0.18869
#
# Static dielectric constant tensor:
#      x y z
#    x 1.755830 0.000000 0.016520 
#    y 0.000000 1.729040 0.000000 
#    z 0.016520 0.000000 1.740100 
# 
# From -- ./inp_files/47261.got.cif
#   From: 2010.05.17/outbox.cif.g08.bks.cpg/sg5_24_cif.got.tgz:47261.got - 2010.06.03 18:56:24.
