data_PCOD9124375
_publ_section_title
;
Structure prediction by ZEFSAII (Michael W. Deem and Ramdas Pophale) SiO2 
 PCOD9124375
Probable space group: C 2
;
_chemical_formula_sum "Si O2"
_cell_formula_units_Z 18
_cell_length_a 5.285300
_cell_length_b 25.093030
_cell_length_c 5.326469
_cell_angle_alpha 90.000000
_cell_angle_beta 88.136215
_cell_angle_gamma 90.000000
_cell_volume 706.044930
_symmetry_space_group_name_H-M "C 2"
_symmetry_group_IT_number 5
_symmetry_cell_setting 'monoclinic'
loop_
_space_group_symop_operation_xyz
x,y,z
-x,y,-z
1/2+x,1/2+y,z
1/2-x,1/2+y,-z
loop_
_atom_site_type_symbol
_atom_site_label
_atom_site_fract_x
_atom_site_fract_y
_atom_site_fract_z
Si Si1 0.171665 0.672040 0.245880
Si Si2 0.171012 0.557436 0.243546
Si Si3 0.261788 0.439864 0.336153
Si Si4 0.646712 0.789733 0.741589
Si Si5 0.500000 0.359234 0.000000
O O1 0.311159 0.614603 0.236794
O O2 0.328366 0.725857 0.261951
O O3 0.000000 0.671906 0.500000
O O4 0.000000 0.675670 0.000000
O O5 0.308738 0.501004 0.249126
O O6 0.000000 0.557944 0.500000
O O7 0.000000 0.556522 0.000000
O O8 0.500000 0.425689 0.500000
O O9 0.283845 0.399559 0.104227
O O10 0.000000 0.437143 0.500000
O O11 0.500000 0.807534 0.500000
O O12 0.500000 0.801990 0.000000
O O13 0.909522 0.819741 0.782303
#
# Coordination Sequence:
#
# PCOD9124375 Si02
#       5
#     4   4   4   4   2
#     4  10  20  44  75 108 153 197 250 327 398 473
#     4   9  21  43  75 111 153 196 254 324 398 475
#     4  11  29  51  79 115 158 212 268 331 402 477
#     4  12  29  48  76 113 154 206 268 328 402 473
#     4  12  32  50  76 110 166 210 274 332 394 484
#
# _framework density 25.494125
#
# number of rings (size 3 to 8) (size 9 to 14) (size 15 to 20)
#    0.000    1.333    1.111    1.333   12.444    0.889 
#    2.000    0.000    0.000    0.000    0.000    0.000 
#    0.000    0.000    0.000    0.000    0.000    0.000 
#
# Total GULP energy -50406.705442 kJ/mol
# GULP energy per Si atom -5600.745049 kJ/mol
# Density = 2.543610 g / cm^3
# Si number density = 25.494125 Si / 1000 Ang^3
#
#
#
# Elastic Constant Matrix: (Units=GPa)
#
#
# Indices 1 2 3 4 5 6 
#
# 1 80.3897 28.5025 45.1431 0.0000 1.7395 0.0000
# 2 28.5025 223.8459 31.1745 0.0000 5.5767 0.0000
# 3 45.1431 31.1745 188.7135 0.0000 8.7940 0.0000
# 4 0.0000 0.0000 0.0000 -6.6931 0.0000 -50.9519
# 5 1.7395 5.5767 8.7940 0.0000 52.5960 0.0000
# 6 0.0000 0.0000 0.0000 -50.9519 0.0000 -18.6124
#
#
#
# Elastic Compliance Matrix: (Units=1/GPa)
#
#
# Indices 1 2 3 4 5 6 
#
# 1 0.014803 -0.001429 -0.003315 0.000000 0.000216 0.000000
# 2 -0.001429 0.004717 -0.000420 0.000000 -0.000383 0.000000
# 3 -0.003315 -0.000420 0.006203 0.000000 -0.000883 0.000000
# 4 0.000000 0.000000 0.000000 0.007531 0.000000 -0.020616
# 5 0.000216 -0.000383 -0.000883 0.000000 0.019194 0.000000
# 6 0.000000 0.000000 0.000000 -0.020616 0.000000 0.002708
#
#
# Mechanical properties :
#
#
# Convention : Reuss Voigt Hill
#
# Bulk Modulus (GPa) = 64.95258 78.06549 71.50903
# Shear Modulus (GPa) = 70.80737 31.33338 51.07038
#
# Velocity S-wave (km/s) = 5.27582 3.50957 4.48059
# Velocity P-wave (km/s) = 7.91487 6.86369 7.40795
#
# Compressibility (1/GPa) = 0.01539585
#
# Stress axis : x y z
#
# Youngs Moduli (GPa) = 67.55449 211.98821 161.22409
#
# Poissons Ratio (x) = 0.30284 0.53448
# Poissons Ratio (y) = 0.09651 0.06767
# Poissons Ratio (z) = 0.22395 0.08897
#
# Static dielectric constant tensor:
#      x y z
#    x 2.481890 0.000000 -0.053480 
#    y 0.000000 2.007330 0.000000 
#    z -0.053480 0.000000 2.033450 
# 
# From -- ./inp_files/831.got.cif
#   From: 2010.05.17/outbox.cif.g08.bks.cpg/sg5_1_cif.got.tgz:831.got - 2010.06.03 18:56:24.
