data_PCOD9124087
_publ_section_title
;
Structure prediction by ZEFSAII (Michael W. Deem and Ramdas Pophale) SiO2 
 PCOD9124087
Probable space group: C 2
;
_chemical_formula_sum "Si O2"
_cell_formula_units_Z 24
_cell_length_a 9.240003
_cell_length_b 17.855801
_cell_length_c 9.673670
_cell_angle_alpha 90.000000
_cell_angle_beta 45.460510
_cell_angle_gamma 90.000000
_cell_volume 1137.602188
_symmetry_space_group_name_H-M "C 2"
_symmetry_group_IT_number 5
_symmetry_cell_setting 'monoclinic'
loop_
_space_group_symop_operation_xyz
x,y,z
-x,y,-z
1/2+x,1/2+y,z
1/2-x,1/2+y,-z
loop_
_atom_site_type_symbol
_atom_site_label
_atom_site_fract_x
_atom_site_fract_y
_atom_site_fract_z
Si Si1 0.066267 0.210590 0.807608
Si Si2 0.868753 0.590474 0.717152
Si Si3 0.784526 0.857588 0.562143
Si Si4 0.470015 0.373581 0.861829
Si Si5 0.577320 0.965353 0.092521
Si Si6 0.386000 0.198026 0.941000
O O1 0.180550 0.134265 0.773487
O O2 0.198272 0.272927 0.640734
O O3 0.855433 0.188914 0.877843
O O4 0.000000 0.246200 0.000000
O O5 0.851890 0.524156 0.838587
O O6 0.000000 0.565227 0.500000
O O7 0.958798 0.656311 0.754263
O O8 0.607328 0.913237 0.730929
O O9 0.000000 0.862532 0.500000
O O10 0.839750 0.879689 0.367715
O O11 0.500000 0.398866 0.000000
O O12 0.274739 0.415099 0.932473
O O13 0.422614 0.285707 0.898689
O O14 0.500000 0.999644 0.000000
O O15 0.500000 0.171945 0.000000
#
# Coordination Sequence:
#
# PCOD9124087 Si02
#       6
#     4   4   4   4   4   4
#     4  10  20  41  75 105 138 189 242 296 350 424
#     4  11  25  43  68 101 145 189 240 291 362 430
#     4  12  22  42  75 103 137 191 251 286 352 434
#     4  11  25  42  71 105 147 183 241 298 355 418
#     4  12  26  47  69 103 147 190 236 299 363 422
#     4  10  21  44  69 106 140 188 239 298 351 417
#
# _framework density 21.097006
#
# number of rings (size 3 to 8) (size 9 to 14) (size 15 to 20)
#    0.000    1.000    3.333    4.500    2.333    2.000 
#    0.000    2.500    0.000    0.000    0.000    0.000 
#    0.000    0.000    0.000    0.000    0.000    0.000 
#
# Total GULP energy -66999.962106 kJ/mol
# GULP energy per Si atom -5583.330175 kJ/mol
# Density = 2.104899 g / cm^3
# Si number density = 21.097006 Si / 1000 Ang^3
#
#
#
# Elastic Constant Matrix: (Units=GPa)
#
#
# Indices 1 2 3 4 5 6 
#
# 1 111.2922 34.6761 41.4125 0.0000 5.2473 0.0000
# 2 34.6761 98.3288 40.3048 0.0000 -5.7633 0.0000
# 3 41.4125 40.3048 133.3608 0.0000 4.1414 0.0000
# 4 0.0000 0.0000 0.0000 14.4304 0.0000 0.0688
# 5 5.2473 -5.7633 4.1414 0.0000 25.2116 0.0000
# 6 0.0000 0.0000 0.0000 0.0688 0.0000 17.1885
#
#
#
# Elastic Compliance Matrix: (Units=1/GPa)
#
#
# Indices 1 2 3 4 5 6 
#
# 1 0.010944 -0.003025 -0.002404 0.000000 -0.002574 0.000000
# 2 -0.003025 0.012714 -0.003029 0.000000 0.004034 0.000000
# 3 -0.002404 -0.003029 0.009213 0.000000 -0.001705 0.000000
# 4 0.000000 0.000000 0.000000 0.069299 0.000000 -0.000277
# 5 -0.002574 0.004034 -0.001705 0.000000 0.041402 0.000000
# 6 0.000000 0.000000 0.000000 -0.000277 0.000000 0.058180
#
#
# Mechanical properties :
#
#
# Convention : Reuss Voigt Hill
#
# Bulk Modulus (GPa) = 62.67095 63.97426 63.32261
# Shear Modulus (GPa) = 22.32272 26.47199 24.39735
#
# Velocity S-wave (km/s) = 3.25637 3.54612 3.40433
# Velocity P-wave (km/s) = 6.62640 6.86705 6.74780
#
# Compressibility (1/GPa) = 0.01595636
#
# Stress axis : x y z
#
# Youngs Moduli (GPa) = 91.37577 78.65037 108.53831
#
# Poissons Ratio (x) = 0.23790 0.26096
# Poissons Ratio (y) = 0.27639 0.32872
# Poissons Ratio (z) = 0.21969 0.23820
#
# Static dielectric constant tensor:
#      x y z
#    x 1.805240 0.000000 0.025030 
#    y 0.000000 1.759300 0.000000 
#    z 0.025030 0.000000 1.782430 
# 
# From -- ./inp_files/16700.got.cif
#   From: 2010.05.17/outbox.cif.g08.bks.cpg/sg5_9_cif.got.tgz:16700.got - 2010.06.03 18:56:24.
