data_PCOD9124051
_publ_section_title
;
Structure prediction by ZEFSAII (Michael W. Deem and Ramdas Pophale) SiO2 
 PCOD9124051
Probable space group: C 2
;
_chemical_formula_sum "Si O2"
_cell_formula_units_Z 20
_cell_length_a 9.674202
_cell_length_b 11.116273
_cell_length_c 7.965638
_cell_angle_alpha 90.000000
_cell_angle_beta 79.060734
_cell_angle_gamma 90.000000
_cell_volume 841.067262
_symmetry_space_group_name_H-M "C 2"
_symmetry_group_IT_number 5
_symmetry_cell_setting 'monoclinic'
loop_
_space_group_symop_operation_xyz
x,y,z
-x,y,-z
1/2+x,1/2+y,z
1/2-x,1/2+y,-z
loop_
_atom_site_type_symbol
_atom_site_label
_atom_site_fract_x
_atom_site_fract_y
_atom_site_fract_z
Si Si1 0.500000 0.223450 0.000000
Si Si2 0.393292 0.838847 0.215416
Si Si3 0.291640 0.999058 0.541613
Si Si4 0.500000 0.429458 0.500000
Si Si5 0.121409 0.704186 0.299519
Si Si6 0.205168 0.369145 0.103803
O O1 0.462613 0.152362 0.839036
O O2 0.644650 0.300639 0.938506
O O3 0.366083 0.908027 0.396050
O O4 0.285974 0.728072 0.222579
O O5 0.555706 0.799733 0.166657
O O6 0.334443 0.920282 0.072585
O O7 0.131487 0.006663 0.522586
O O8 0.290676 0.952937 0.733639
O O9 0.364424 0.127674 0.534444
O O10 0.554292 0.335292 0.347267
#
# Coordination Sequence:
#
# PCOD9124051 Si02
#       6
#     2   4   4   2   4   4
#     4  10  20  42  68  94 134 180 222 286 334 398
#     4   9  22  41  66  97 135 173 222 282 335 400
#     4  11  22  42  68  98 134 177 228 272 344 404
#     4  10  22  44  62  98 140 168 222 288 322 400
#     4  10  22  41  67  96 131 180 220 275 343 397
#     4  10  20  41  68  91 136 174 215 285 337 388
#
# _framework density 23.779311
#
# number of rings (size 3 to 8) (size 9 to 14) (size 15 to 20)
#    0.000    2.000    2.000    0.600    2.800    1.600 
#    7.200    4.000    0.000    0.000    0.000    0.000 
#    0.000    0.000    0.000    0.000    0.000    0.000 
#
# Total GULP energy -55739.329910 kJ/mol
# GULP energy per Si atom -5573.932991 kJ/mol
# Density = 2.372519 g / cm^3
# Si number density = 23.779311 Si / 1000 Ang^3
#
#
#
# Elastic Constant Matrix: (Units=GPa)
#
#
# Indices 1 2 3 4 5 6 
#
# 1 236.8394 39.4508 38.1335 0.0000 7.3726 0.0000
# 2 39.4508 32.2701 26.7350 0.0000 16.7009 0.0000
# 3 38.1335 26.7350 133.8176 0.0000 21.1791 0.0000
# 4 0.0000 0.0000 0.0000 20.9421 0.0000 12.1737
# 5 7.3726 16.7009 21.1791 0.0000 46.4979 0.0000
# 6 0.0000 0.0000 0.0000 12.1737 0.0000 20.7615
#
#
#
# Elastic Compliance Matrix: (Units=1/GPa)
#
#
# Indices 1 2 3 4 5 6 
#
# 1 0.005448 -0.007345 -0.000394 0.000000 0.001954 0.000000
# 2 -0.007345 0.052775 -0.006073 0.000000 -0.015025 0.000000
# 3 -0.000394 -0.006073 0.009099 0.000000 -0.001901 0.000000
# 4 0.000000 0.000000 0.000000 0.072443 0.000000 -0.042478
# 5 0.001954 -0.015025 -0.001901 0.000000 0.027459 0.000000
# 6 0.000000 0.000000 0.000000 -0.042478 0.000000 0.073073
#
#
# Mechanical properties :
#
#
# Convention : Reuss Voigt Hill
#
# Bulk Modulus (GPa) = 25.19003 67.95175 46.57089
# Shear Modulus (GPa) = 17.78369 37.54748 27.66558
#
# Velocity S-wave (km/s) = 2.73768 3.97797 3.41461
# Velocity P-wave (km/s) = 4.53976 7.05245 5.93070
#
# Compressibility (1/GPa) = 0.03969825
#
# Stress axis : x y z
#
# Youngs Moduli (GPa) = 183.53730 18.94823 109.89805
#
# Poissons Ratio (x) = 0.13918 0.04334
# Poissons Ratio (y) = 1.34816 0.66738
# Poissons Ratio (z) = 0.07238 0.11507
#
# Static dielectric constant tensor:
#      x y z
#    x 1.895980 0.000000 -0.074680 
#    y 0.000000 1.910210 0.000000 
#    z -0.074680 0.000000 2.049560 
# 
# From -- ./inp_files/14318.got.cif
#   From: 2010.05.17/outbox.cif.g08.bks.cpg/sg5_8_cif.got.tgz:14318.got - 2010.06.03 18:56:24.
