data_PCOD9124480
_publ_section_title
;
Structure prediction by ZEFSAII (Michael W. Deem and Ramdas Pophale) SiO2 
 PCOD9124480
Probable space group: C 2
;
_chemical_formula_sum "Si O2"
_cell_formula_units_Z 32
_cell_length_a 26.514168
_cell_length_b 5.113621
_cell_length_c 11.146677
_cell_angle_alpha 90.000000
_cell_angle_beta 65.330363
_cell_angle_gamma 90.000000
_cell_volume 1373.366913
_symmetry_space_group_name_H-M "C 2"
_symmetry_group_IT_number 5
_symmetry_cell_setting 'monoclinic'
loop_
_space_group_symop_operation_xyz
x,y,z
-x,y,-z
1/2+x,1/2+y,z
1/2-x,1/2+y,-z
loop_
_atom_site_type_symbol
_atom_site_label
_atom_site_fract_x
_atom_site_fract_y
_atom_site_fract_z
Si Si1 0.747120 0.537270 0.586834
Si Si2 0.353639 0.012558 0.637639
Si Si3 0.949894 0.005624 0.975314
Si Si4 0.105650 0.734916 0.180911
Si Si5 0.494860 0.872940 0.731168
Si Si6 0.598199 0.228487 0.639648
Si Si7 0.548566 0.591572 0.432096
Si Si8 0.870998 0.228461 0.247988
O O1 0.736669 0.293528 0.507908
O O2 0.795585 0.456297 0.630011
O O3 0.691160 0.624986 0.710148
O O4 0.345238 0.126959 0.780695
O O5 0.382392 0.221753 0.517516
O O6 0.397846 0.777576 0.585327
O O7 0.904954 0.833407 0.945083
O O8 0.986733 0.179801 0.849209
O O9 0.000000 0.863021 0.000000
O O10 0.911559 0.192965 0.095423
O O11 0.064624 0.493658 0.228057
O O12 0.080126 0.960531 0.286793
O O13 0.508135 0.725605 0.593359
O O14 0.537389 0.105513 0.710305
O O15 0.604636 0.519783 0.680365
O O16 0.630347 0.015027 0.690795
O O17 0.500000 0.352225 0.500000
#
# Coordination Sequence:
#
# PCOD9124480 Si02
#       8
#     4   4   4   4   4   4   4   4
#     4  12  25  47  72 106 138 179 238 301 359 414
#     4  11  24  40  68  97 143 176 230 299 353 427
#     4  11  23  43  68  98 143 186 235 289 340 437
#     4  10  25  39  63  96 138 192 224 285 358 414
#     4  10  22  38  57  98 137 185 223 278 347 416
#     4  12  24  40  70 105 140 182 233 285 360 414
#     4  10  21  35  58  93 135 177 226 272 349 424
#     4  12  26  44  71 106 134 190 236 292 353 421
#
# _framework density 23.3004
#
# number of rings (size 3 to 8) (size 9 to 14) (size 15 to 20)
#    0.000    1.000    5.000    0.750    8.750    0.500 
#    0.000    0.000    8.250    0.000    0.000    0.000 
#    0.000    0.000    0.000    0.000    0.000    0.000 
#
# Total GULP energy -89098.434032 kJ/mol
# GULP energy per Si atom -5568.652127 kJ/mol
# Density = 2.324737 g / cm^3
# Si number density = 23.300400 Si / 1000 Ang^3
#
#
#
# Elastic Constant Matrix: (Units=GPa)
#
#
# Indices 1 2 3 4 5 6 
#
# 1 144.0991 7.6389 30.3768 0.0000 11.0582 0.0000
# 2 7.6389 83.7822 20.8292 0.0000 12.5282 0.0000
# 3 30.3768 20.8292 94.2374 0.0000 11.9229 0.0000
# 4 0.0000 0.0000 0.0000 23.5758 0.0000 14.7243
# 5 11.0582 12.5282 11.9229 0.0000 34.0895 0.0000
# 6 0.0000 0.0000 0.0000 14.7243 0.0000 29.9802
#
#
#
# Elastic Compliance Matrix: (Units=1/GPa)
#
#
# Indices 1 2 3 4 5 6 
#
# 1 0.007536 0.000125 -0.002241 0.000000 -0.001707 0.000000
# 2 0.000125 0.013130 -0.002435 0.000000 -0.004014 0.000000
# 3 -0.002241 -0.002435 0.012207 0.000000 -0.002648 0.000000
# 4 0.000000 0.000000 0.000000 0.061184 0.000000 -0.030049
# 5 -0.001707 -0.004014 -0.002648 0.000000 0.032290 0.000000
# 6 0.000000 0.000000 0.000000 -0.030049 0.000000 0.048114
#
#
# Mechanical properties :
#
#
# Convention : Reuss Voigt Hill
#
# Bulk Modulus (GPa) = 42.06522 48.86761 45.46641
# Shear Modulus (GPa) = 26.11169 35.08068 30.59619
#
# Velocity S-wave (km/s) = 3.35125 3.88439 3.62763
# Velocity P-wave (km/s) = 5.75040 6.41377 6.09112
#
# Compressibility (1/GPa) = 0.02377261
#
# Stress axis : x y z
#
# Youngs Moduli (GPa) = 132.68863 76.16238 81.92031
#
# Poissons Ratio (x) = -0.00954 0.18359
# Poissons Ratio (y) = -0.01662 0.19944
# Poissons Ratio (z) = 0.29736 0.18542
#
# Static dielectric constant tensor:
#      x y z
#    x 2.303920 0.000000 0.305620 
#    y 0.000000 1.949630 0.000000 
#    z 0.305620 0.000000 2.097510 
# 
# From -- ./inp_files/47028.got.cif
#   From: 2010.05.17/outbox.cif.g08.bks.cpg/sg5_24_cif.got.tgz:47028.got - 2010.06.03 18:56:24.
