data_PCOD9124699
_publ_section_title
;
Structure prediction by ZEFSAII (Michael W. Deem and Ramdas Pophale) SiO2 
 PCOD9124699
Probable space group: C 2
;
_chemical_formula_sum "Si O2"
_cell_formula_units_Z 24
_cell_length_a 14.021164
_cell_length_b 9.988290
_cell_length_c 12.675426
_cell_angle_alpha 90.000000
_cell_angle_beta 142.419466
_cell_angle_gamma 90.000000
_cell_volume 1082.628075
_symmetry_space_group_name_H-M "C 2"
_symmetry_group_IT_number 5
_symmetry_cell_setting 'monoclinic'
loop_
_space_group_symop_operation_xyz
x,y,z
-x,y,-z
1/2+x,1/2+y,z
1/2-x,1/2+y,-z
loop_
_atom_site_type_symbol
_atom_site_label
_atom_site_fract_x
_atom_site_fract_y
_atom_site_fract_z
Si Si1 0.282658 0.330640 0.943110
Si Si2 0.137941 0.777845 0.544160
Si Si3 0.697854 0.035185 0.045253
Si Si4 0.675082 0.526492 0.203211
Si Si5 0.120019 0.793600 0.295271
Si Si6 0.329586 0.028071 0.730103
O O1 0.271132 0.420038 0.037613
O O2 0.464549 0.293522 0.086685
O O3 0.218300 0.179764 0.899808
O O4 0.241191 0.428912 0.809775
O O5 0.233049 0.661527 0.687509
O O6 0.072367 0.747916 0.370560
O O7 0.249756 0.900045 0.611726
O O8 0.000000 0.821369 0.500000
O O9 0.699540 0.010653 0.171219
O O10 0.511828 0.027894 0.858651
O O11 0.675786 0.441328 0.312822
O O12 0.500000 0.554333 0.000000
O O13 0.232259 0.674783 0.354905
#
# Coordination Sequence:
#
# PCOD9124699 Si02
#       6
#     4   4   4   4   4   4
#     4  10  21  38  68  98 127 164 219 274 315 380
#     4  12  26  40  66  97 134 167 219 271 324 388
#     4  10  21  37  65  93 127 160 217 267 320 375
#     4  10  23  43  68  97 130 172 220 267 324 387
#     4  10  21  45  63  89 133 177 208 260 334 386
#     4  10  22  40  62  90 125 172 209 259 324 388
#
# _framework density 22.168278000000001
#
# number of rings (size 3 to 8) (size 9 to 14) (size 15 to 20)
#    0.000    1.667    1.667    2.000    9.333    1.333 
#    0.000    2.500    0.000    0.000    0.000    0.000 
#    0.000    0.000    0.000    0.000    0.000    0.000 
#
# Total GULP energy -66824.945961 kJ/mol
# GULP energy per Si atom -5568.745497 kJ/mol
# Density = 2.211782 g / cm^3
# Si number density = 22.168278 Si / 1000 Ang^3
#
#
#
# Elastic Constant Matrix: (Units=GPa)
#
#
# Indices 1 2 3 4 5 6 
#
# 1 85.5042 19.1694 18.0669 0.0000 -21.0376 0.0000
# 2 19.1694 93.2538 25.5549 0.0000 11.1333 0.0000
# 3 18.0669 25.5549 46.8817 0.0000 -15.7025 0.0000
# 4 0.0000 0.0000 0.0000 1.4980 0.0000 8.5148
# 5 -21.0376 11.1333 -15.7025 0.0000 28.2038 0.0000
# 6 0.0000 0.0000 0.0000 8.5148 0.0000 33.1794
#
#
#
# Elastic Compliance Matrix: (Units=1/GPa)
#
#
# Indices 1 2 3 4 5 6 
#
# 1 0.016429 -0.005838 0.002124 0.000000 0.015741 0.000000
# 2 -0.005838 0.018095 -0.014092 0.000000 -0.019344 0.000000
# 3 0.002124 -0.014092 0.037598 0.000000 0.028080 0.000000
# 4 0.000000 0.000000 0.000000 -1.455263 0.000000 0.373461
# 5 0.015741 -0.019344 0.028080 0.000000 0.070467 0.000000
# 6 0.000000 0.000000 0.000000 0.373461 0.000000 -0.065701
#
#
# Mechanical properties :
#
#
# Convention : Reuss Voigt Hill
#
# Bulk Modulus (GPa) = 27.39133 39.02468 33.20800
# Shear Modulus (GPa) = -3.75773 23.43279 9.83753
#
# Velocity S-wave (km/s) = -1.30337 3.25474 2.10886
# Velocity P-wave (km/s) = 3.18086 5.63618 4.57627
#
# Compressibility (1/GPa) = 0.03650791
#
# Stress axis : x y z
#
# Youngs Moduli (GPa) = 60.86967 55.26462 26.59683
#
# Poissons Ratio (x) = 0.32266 -0.05648
# Poissons Ratio (y) = 0.35538 0.37481
# Poissons Ratio (z) = -0.12927 0.77880
#
# Static dielectric constant tensor:
#      x y z
#    x 1.839160 0.000000 -0.031240 
#    y 0.000000 1.923140 0.000000 
#    z -0.031240 0.000000 1.854580 
# 
# From -- ./inp_files/46078.got.cif
#   From: 2010.05.17/outbox.cif.g08.bks.cpg/sg5_24_cif.got.tgz:46078.got - 2010.06.03 18:56:24.
