data_PCOD9124002
_publ_section_title
;
Structure prediction by ZEFSAII (Michael W. Deem and Ramdas Pophale) SiO2 
 PCOD9124002
Probable space group: C 2
;
_chemical_formula_sum "Si O2"
_cell_formula_units_Z 32
_cell_length_a 15.387670
_cell_length_b 11.060010
_cell_length_c 18.979056
_cell_angle_alpha 90.000000
_cell_angle_beta 30.360627
_cell_angle_gamma 90.000000
_cell_volume 1632.575982
_symmetry_space_group_name_H-M "C 2"
_symmetry_group_IT_number 5
_symmetry_cell_setting 'monoclinic'
loop_
_space_group_symop_operation_xyz
x,y,z
-x,y,-z
1/2+x,1/2+y,z
1/2-x,1/2+y,-z
loop_
_atom_site_type_symbol
_atom_site_label
_atom_site_fract_x
_atom_site_fract_y
_atom_site_fract_z
Si Si1 0.901100 0.428700 0.995486
Si Si2 0.097944 0.766959 0.158172
Si Si3 0.074564 0.324431 0.736611
Si Si4 0.843390 0.331341 0.713253
Si Si5 0.635418 0.134485 0.469326
Si Si6 0.759443 0.697137 0.081569
Si Si7 0.057792 0.537835 0.265394
Si Si8 0.732853 0.862408 0.394667
O O1 0.729162 0.348348 0.110095
O O2 0.838447 0.564661 0.024595
O O3 0.000000 0.421003 0.000000
O O4 0.022569 0.377710 0.848575
O O5 0.134328 0.628563 0.154830
O O6 0.901541 0.803075 0.308577
O O7 0.134366 0.778276 0.048776
O O8 0.252800 0.254605 0.612747
O O9 0.933491 0.223822 0.811723
O O10 0.055046 0.437152 0.696584
O O11 0.754372 0.236870 0.827390
O O12 0.817272 0.458479 0.772568
O O13 0.777324 0.327894 0.680438
O O14 0.052323 0.322799 0.557339
O O15 0.500000 0.130258 0.500000
O O16 0.542872 0.120953 0.609004
O O17 0.740130 0.008160 0.391524
#
# Coordination Sequence:
#
# PCOD9124002 Si02
#       8
#     4   4   4   4   4   4   4   4
#     4  11  25  43  62  90 131 167 217 266 321 381
#     4  11  24  39  67  88 126 172 213 258 320 382
#     4  10  23  43  65  94 129 166 217 270 314 390
#     4   9  20  39  66  92 131 157 205 271 314 372
#     4  11  22  40  67  93 130 168 212 263 328 381
#     4  10  22  42  63  91 125 173 210 263 322 373
#     4  10  21  40  63  91 128 159 210 259 320 378
#     4  10  20  41  64 101 124 162 214 263 316 388
#
# _framework density 19.600925
#
# number of rings (size 3 to 8) (size 9 to 14) (size 15 to 20)
#    0.000    1.750    3.750    0.750    8.750    0.000 
#    0.000    0.000    2.750    0.000    0.000    0.000 
#    0.000    0.000    0.000    0.000    0.000    0.000 
#
# Total GULP energy -89217.432025 kJ/mol
# GULP energy per Si atom -5576.089502 kJ/mol
# Density = 1.955631 g / cm^3
# Si number density = 19.600925 Si / 1000 Ang^3
#
#
#
# Elastic Constant Matrix: (Units=GPa)
#
#
# Indices 1 2 3 4 5 6 
#
# 1 104.4548 34.1419 36.2932 0.0002 20.4920 -0.0002
# 2 34.1419 65.8700 17.8744 0.0002 -5.3371 -0.0002
# 3 36.2932 17.8744 49.8550 0.0012 8.1121 -0.0005
# 4 0.0002 0.0002 0.0012 27.5733 -0.0006 10.7400
# 5 20.4920 -5.3371 8.1121 -0.0006 35.4980 0.0003
# 6 -0.0002 -0.0002 -0.0005 10.7400 0.0003 14.7264
#
#
#
# Elastic Compliance Matrix: (Units=1/GPa)
#
#
# Indices 1 2 3 4 5 6 
#
# 1 0.016330 -0.007004 -0.007968 0.000000 -0.008659 0.000000
# 2 -0.007004 0.020403 -0.003504 0.000000 0.007911 0.000000
# 3 -0.007968 -0.003504 0.027474 -0.000002 -0.002206 0.000002
# 4 0.000000 0.000000 -0.000002 0.050657 0.000002 -0.036944
# 5 -0.008659 0.007911 -0.002206 0.000002 0.034863 -0.000002
# 6 0.000000 0.000000 0.000002 -0.036944 -0.000002 0.094849
#
#
# Mechanical properties :
#
#
# Convention : Reuss Voigt Hill
#
# Bulk Modulus (GPa) = 36.68907 44.08877 40.38892
# Shear Modulus (GPa) = 17.20508 24.35088 20.77798
#
# Velocity S-wave (km/s) = 2.96593 3.52850 3.25937
# Velocity P-wave (km/s) = 5.52156 6.25639 5.90043
#
# Compressibility (1/GPa) = 0.02725608
#
# Stress axis : x y z
#
# Youngs Moduli (GPa) = 61.23748 49.01136 36.39843
#
# Poissons Ratio (x) = 0.34326 0.29002
# Poissons Ratio (y) = 0.42888 0.12754
# Poissons Ratio (z) = 0.48793 0.17174
#
# Static dielectric constant tensor:
#      x y z
#    x 1.694340 0.000000 0.010010 
#    y 0.000000 1.690400 0.000000 
#    z 0.010010 0.000000 1.713070 
# 
# From -- ./inp_files/61698.got.cif
#   From: 2010.05.17/outbox.cif.g08.bks.cpg/sg5_31_cif.got.tgz:61698.got - 2010.06.03 18:56:24.
