data_PCOD9124485
_publ_section_title
;
Structure prediction by ZEFSAII (Michael W. Deem and Ramdas Pophale) SiO2 
 PCOD9124485
Probable space group: C 2
;
_chemical_formula_sum "Si O2"
_cell_formula_units_Z 20
_cell_length_a 14.007717
_cell_length_b 5.285301
_cell_length_c 15.659577
_cell_angle_alpha 90.000000
_cell_angle_beta 138.490289
_cell_angle_gamma 90.000000
_cell_volume 768.360212
_symmetry_space_group_name_H-M "C 2"
_symmetry_group_IT_number 5
_symmetry_cell_setting 'monoclinic'
loop_
_space_group_symop_operation_xyz
x,y,z
-x,y,-z
1/2+x,1/2+y,z
1/2-x,1/2+y,-z
loop_
_atom_site_type_symbol
_atom_site_label
_atom_site_fract_x
_atom_site_fract_y
_atom_site_fract_z
Si Si1 0.947911 0.998940 0.059981
Si Si2 0.093181 0.914468 0.475784
Si Si3 0.465527 0.900832 0.323980
Si Si4 0.422330 0.005797 0.097346
Si Si5 0.293870 0.243701 0.721859
O O1 0.851104 0.760962 0.017482
O O2 0.090451 0.970166 0.216037
O O3 0.868249 0.256600 0.017974
O O4 0.000000 0.978245 0.000000
O O5 0.073973 0.622050 0.433059
O O6 0.000000 0.915583 0.500000
O O7 0.027545 0.115416 0.365348
O O8 0.229068 0.080211 0.600709
O O9 0.328698 0.859566 0.297745
O O10 0.433985 0.985270 0.206641
O O11 0.584775 0.045277 0.163969
#
# Coordination Sequence:
#
# PCOD9124485 Si02
#       5
#     4   4   4   4   4
#     4  10  22  43  65  89 125 168 217 272 329 374
#     4  10  21  35  60  90 128 167 204 247 318 385
#     4  11  22  38  61  92 130 162 208 261 306 394
#     4  10  23  39  63  92 126 163 221 261 322 388
#     4   9  24  39  65  89 131 170 208 259 328 371
#
# _framework density 26.029458000000002
#
# number of rings (size 3 to 8) (size 9 to 14) (size 15 to 20)
#    1.200    0.800    0.000    3.600    8.400    1.600 
#    0.000    2.000    0.000    0.000    0.000    0.000 
#    0.000    0.000    0.000    0.000    0.000    0.000 
#
# Total GULP energy -55671.464688 kJ/mol
# GULP energy per Si atom -5567.146469 kJ/mol
# Density = 2.597021 g / cm^3
# Si number density = 26.029458 Si / 1000 Ang^3
#
#
#
# Elastic Constant Matrix: (Units=GPa)
#
#
# Indices 1 2 3 4 5 6 
#
# 1 134.1214 42.9344 44.8466 0.0000 -12.0217 -0.0001
# 2 42.9344 191.4635 31.0398 -0.0001 -30.9113 -0.0001
# 3 44.8466 31.0398 68.1783 0.0000 -22.4257 0.0001
# 4 0.0000 -0.0001 0.0000 -0.8381 0.0000 -108.3960
# 5 -12.0217 -30.9113 -22.4257 0.0000 48.5451 0.0001
# 6 -0.0001 -0.0001 0.0001 -108.3960 0.0001 -202.1178
#
#
#
# Elastic Compliance Matrix: (Units=1/GPa)
#
#
# Indices 1 2 3 4 5 6 
#
# 1 0.009899 -0.001417 -0.006317 0.000000 -0.001369 0.000000
# 2 -0.001417 0.006194 -0.000833 0.000000 0.003208 0.000000
# 3 -0.006317 -0.000833 0.021829 0.000000 0.007990 0.000000
# 4 0.000000 0.000000 0.000000 0.017454 0.000000 -0.009360
# 5 -0.001369 0.003208 0.007990 0.000000 0.025994 0.000000
# 6 0.000000 0.000000 0.000000 -0.009360 0.000000 0.000072
#
#
# Mechanical properties :
#
#
# Convention : Reuss Voigt Hill
#
# Bulk Modulus (GPa) = 48.09941 70.15611 59.12776
# Shear Modulus (GPa) = 47.39162 -12.55267 17.41947
#
# Velocity S-wave (km/s) = 4.27159 -2.19840 2.58974
# Velocity P-wave (km/s) = 6.54580 4.53510 5.63093
#
# Compressibility (1/GPa) = 0.02079028
#
# Stress axis : x y z
#
# Youngs Moduli (GPa) = 101.02199 161.45789 45.80965
#
# Poissons Ratio (x) = 0.22874 0.28936
# Poissons Ratio (y) = 0.14312 0.03814
# Poissons Ratio (z) = 0.63811 0.13443
#
# Static dielectric constant tensor:
#      x y z
#    x 2.143210 0.000000 0.132710 
#    y 0.000000 2.192510 0.000000 
#    z 0.132710 0.000000 2.084010 
# 
# From -- ./inp_files/55168.got.cif
#   From: 2010.05.17/outbox.cif.g08.bks.cpg/sg5_28_cif.got.tgz:55168.got - 2010.06.03 18:56:24.
