data_PCOD9124217
_publ_section_title
;
Structure prediction by ZEFSAII (Michael W. Deem and Ramdas Pophale) SiO2 
 PCOD9124217
Probable space group: C 2
;
_chemical_formula_sum "Si O2"
_cell_formula_units_Z 26
_cell_length_a 15.557172
_cell_length_b 10.470893
_cell_length_c 8.970441
_cell_angle_alpha 90.000000
_cell_angle_beta 128.044365
_cell_angle_gamma 90.000000
_cell_volume 1150.793425
_symmetry_space_group_name_H-M "C 2"
_symmetry_group_IT_number 5
_symmetry_cell_setting 'monoclinic'
loop_
_space_group_symop_operation_xyz
x,y,z
-x,y,-z
1/2+x,1/2+y,z
1/2-x,1/2+y,-z
loop_
_atom_site_type_symbol
_atom_site_label
_atom_site_fract_x
_atom_site_fract_y
_atom_site_fract_z
Si Si1 0.366318 0.314330 0.047584
Si Si2 0.870564 0.031316 0.825243
Si Si3 0.500000 0.909719 0.000000
Si Si4 0.607332 0.356647 0.416435
Si Si5 0.345034 0.135501 0.763039
Si Si6 0.622842 0.558049 0.668144
Si Si7 0.342468 0.726323 0.004119
O O1 0.331638 0.421161 0.893133
O O2 0.396408 0.198681 0.968868
O O3 0.476583 0.350000 0.250966
O O4 0.262514 0.290469 0.037681
O O5 0.815134 0.160421 0.816836
O O6 0.854619 0.974443 0.647308
O O7 0.000000 0.047304 0.000000
O O8 0.560443 0.823132 0.938030
O O9 0.592925 0.999397 0.176196
O O10 0.645036 0.226815 0.371716
O O11 0.367549 0.413661 0.393646
O O12 0.219824 0.127336 0.682916
O O13 0.500000 0.597737 0.500000
O O14 0.633362 0.611597 0.850088
#
# Coordination Sequence:
#
# PCOD9124217 Si02
#       7
#     4   4   2   4   4   4   4
#     4   9  19  36  67  94 129 172 238 278 314 402
#     4   9  17  36  59  90 122 173 229 264 319 402
#     4  12  24  40  68 102 136 182 236 282 336 408
#     4  10  20  42  69  92 129 183 224 280 332 416
#     4  10  22  43  67 101 135 183 230 280 337 413
#     4  11  25  41  64 102 143 172 222 287 354 397
#     4  11  24  37  63 102 134 176 223 290 336 399
#
# _framework density 22.593108000000001
#
# number of rings (size 3 to 8) (size 9 to 14) (size 15 to 20)
#    0.000    1.846    2.308    2.769    6.462    1.231 
#    0.000    0.000    0.000    0.923    0.000    0.000 
#    0.000    0.000    0.000    0.000    0.000    0.000 
#
# Total GULP energy -72389.303865 kJ/mol
# GULP energy per Si atom -5568.407990 kJ/mol
# Density = 2.254168 g / cm^3
# Si number density = 22.593108 Si / 1000 Ang^3
#
#
#
# Elastic Constant Matrix: (Units=GPa)
#
#
# Indices 1 2 3 4 5 6 
#
# 1 203.0142 81.9624 48.1711 0.0000 1.5338 0.0000
# 2 81.9624 92.8693 32.7560 0.0000 -19.2644 0.0000
# 3 48.1711 32.7560 79.6648 0.0000 -18.7430 0.0000
# 4 0.0000 0.0000 0.0000 31.3347 0.0000 0.1120
# 5 1.5338 -19.2644 -18.7430 0.0000 34.0472 0.0000
# 6 0.0000 0.0000 0.0000 0.1120 0.0000 -23.9535
#
#
#
# Elastic Compliance Matrix: (Units=1/GPa)
#
#
# Indices 1 2 3 4 5 6 
#
# 1 0.009255 -0.008301 -0.003890 0.000000 -0.007255 0.000000
# 2 -0.008301 0.020797 -0.000776 0.000000 0.011714 0.000000
# 3 -0.003890 -0.000776 0.017418 0.000000 0.009325 0.000000
# 4 0.000000 0.000000 0.000000 0.031913 0.000000 0.000149
# 5 -0.007255 0.011714 0.009325 0.000000 0.041459 0.000000
# 6 0.000000 0.000000 0.000000 0.000149 0.000000 -0.041747
#
#
# Mechanical properties :
#
#
# Convention : Reuss Voigt Hill
#
# Bulk Modulus (GPa) = 46.43332 77.92524 62.17928
# Shear Modulus (GPa) = 44.56020 22.46293 33.51157
#
# Velocity S-wave (km/s) = 4.44587 3.15658 3.85550
# Velocity P-wave (km/s) = 6.85207 6.91743 6.88483
#
# Compressibility (1/GPa) = 0.02153626
#
# Stress axis : x y z
#
# Youngs Moduli (GPa) = 108.05097 48.08277 57.41298
#
# Poissons Ratio (x) = 0.39913 0.22334
# Poissons Ratio (y) = 0.89692 0.04455
# Poissons Ratio (z) = 0.42032 0.03731
#
# Static dielectric constant tensor:
#      x y z
#    x 3.605430 0.000000 -2.245100 
#    y 0.000000 1.936220 0.000000 
#    z -2.245100 0.000000 4.702740 
# 
# From -- ./inp_files/42522.got.cif
#   From: 2010.05.17/outbox.cif.g08.bks.cpg/sg5_22_cif.got.tgz:42522.got - 2010.06.03 18:56:24.
