data_PCOD9124896
_publ_section_title
;
Structure prediction by ZEFSAII (Michael W. Deem and Ramdas Pophale) SiO2 
 PCOD9124896
Probable space group: C 2
;
_chemical_formula_sum "Si O2"
_cell_formula_units_Z 26
_cell_length_a 12.843596
_cell_length_b 15.085718
_cell_length_c 8.662854
_cell_angle_alpha 90.000000
_cell_angle_beta 45.641129
_cell_angle_gamma 90.000000
_cell_volume 1200.063742
_symmetry_space_group_name_H-M "C 2"
_symmetry_group_IT_number 5
_symmetry_cell_setting 'monoclinic'
loop_
_space_group_symop_operation_xyz
x,y,z
-x,y,-z
1/2+x,1/2+y,z
1/2-x,1/2+y,-z
loop_
_atom_site_type_symbol
_atom_site_label
_atom_site_fract_x
_atom_site_fract_y
_atom_site_fract_z
Si Si1 0.677939 0.312890 0.564796
Si Si2 0.500000 0.776629 0.500000
Si Si3 0.508147 0.877363 0.812580
Si Si4 0.000000 0.893007 0.000000
Si Si5 0.275543 0.027822 0.104620
Si Si6 0.948447 0.067067 0.890241
Si Si7 0.000000 0.908902 0.500000
Si Si8 0.715207 0.643279 0.430687
O O1 0.618808 0.334114 0.795401
O O2 0.556472 0.345044 0.574795
O O3 0.712616 0.208647 0.519791
O O4 0.818085 0.375390 0.392122
O O5 0.462552 0.827104 0.699938
O O6 0.630992 0.712651 0.409773
O O7 0.500000 0.840577 0.000000
O O8 0.409587 0.965507 0.918805
O O9 0.931992 0.963652 0.951711
O O10 0.201091 0.086983 0.045116
O O11 0.313407 0.085387 0.216386
O O12 0.136930 0.967940 0.302838
O O13 0.088282 0.084340 0.638589
O O14 0.000000 0.110189 0.000000
#
# Coordination Sequence:
#
# PCOD9124896 Si02
#       8
#     4   2   4   2   4   4   2   4
#     4  11  25  44  72 107 143 183 244 316 364 427
#     4  10  23  42  66 107 140 186 236 294 373 424
#     4  11  26  42  73 107 143 179 244 309 355 430
#     4  10  22  44  70  98 138 194 246 290 350 452
#     4  12  21  44  71 102 135 198 244 288 365 449
#     4  10  21  38  72  99 133 194 252 281 356 462
#     4  12  19  42  76  97 136 196 252 272 367 452
#     4  11  22  43  67 105 147 182 234 305 368 428
#
# _framework density 21.665517000000001
#
# number of rings (size 3 to 8) (size 9 to 14) (size 15 to 20)
#    0.462    0.615    6.154    0.000    4.308    2.462 
#    1.385    0.000    0.000    0.000    0.000    0.000 
#    0.000    0.000    0.000    0.000    0.000    0.000 
#
# Total GULP energy -72374.630034 kJ/mol
# GULP energy per Si atom -5567.279233 kJ/mol
# Density = 2.161620 g / cm^3
# Si number density = 21.665517 Si / 1000 Ang^3
#
#
#
# Elastic Constant Matrix: (Units=GPa)
#
#
# Indices 1 2 3 4 5 6 
#
# 1 79.5900 19.5253 34.3954 0.0000 20.4741 0.0000
# 2 19.5253 51.9419 39.1720 0.0000 0.2813 0.0000
# 3 34.3954 39.1720 137.8442 0.0000 4.6193 0.0000
# 4 0.0000 0.0000 0.0000 28.8711 0.0000 2.3883
# 5 20.4741 0.2813 4.6193 0.0000 39.1896 0.0000
# 6 0.0000 0.0000 0.0000 2.3883 0.0000 10.8837
#
#
#
# Elastic Compliance Matrix: (Units=1/GPa)
#
#
# Indices 1 2 3 4 5 6 
#
# 1 0.016989 -0.004275 -0.002739 0.000000 -0.008522 0.000000
# 2 -0.004275 0.025596 -0.006301 0.000000 0.002792 0.000000
# 3 -0.002739 -0.006301 0.009717 0.000000 0.000331 0.000000
# 4 0.000000 0.000000 0.000000 0.035277 0.000000 -0.007741
# 5 -0.008522 0.002792 0.000331 0.000000 0.029910 0.000000
# 6 0.000000 0.000000 0.000000 -0.007741 0.000000 0.093579
#
#
# Mechanical properties :
#
#
# Convention : Reuss Voigt Hill
#
# Bulk Modulus (GPa) = 38.95014 50.61794 44.78404
# Shear Modulus (GPa) = 20.30419 27.54110 23.92264
#
# Velocity S-wave (km/s) = 3.06464 3.56925 3.32653
# Velocity P-wave (km/s) = 5.52627 6.35611 5.95566
#
# Compressibility (1/GPa) = 0.02567385
#
# Stress axis : x y z
#
# Youngs Moduli (GPa) = 58.86185 39.06917 102.90857
#
# Poissons Ratio (x) = 0.16701 0.28185
# Poissons Ratio (y) = 0.25161 0.64839
# Poissons Ratio (z) = 0.16121 0.24616
#
# Static dielectric constant tensor:
#      x y z
#    x 2.024720 0.000000 0.050220 
#    y 0.000000 1.816370 0.000000 
#    z 0.050220 0.000000 1.811310 
# 
# From -- ./inp_files/24540.got.cif
#   From: 2010.05.17/outbox.cif.g08.bks.cpg/sg5_13_cif.got.tgz:24540.got - 2010.06.03 18:56:24.
