data_PCOD9124607
_publ_section_title
;
Structure prediction by ZEFSAII (Michael W. Deem and Ramdas Pophale) SiO2 
 PCOD9124607
Probable space group: C 2
;
_chemical_formula_sum "Si O2"
_cell_formula_units_Z 32
_cell_length_a 8.286868
_cell_length_b 25.118471
_cell_length_c 13.637448
_cell_angle_alpha 90.000000
_cell_angle_beta 146.906527
_cell_angle_gamma 90.000000
_cell_volume 1549.938843
_symmetry_space_group_name_H-M "C 2"
_symmetry_group_IT_number 5
_symmetry_cell_setting 'monoclinic'
loop_
_space_group_symop_operation_xyz
x,y,z
-x,y,-z
1/2+x,1/2+y,z
1/2-x,1/2+y,-z
loop_
_atom_site_type_symbol
_atom_site_label
_atom_site_fract_x
_atom_site_fract_y
_atom_site_fract_z
Si Si1 0.240323 0.605490 0.207368
Si Si2 0.650343 0.309817 0.814486
Si Si3 0.320504 0.518495 0.512255
Si Si4 0.848001 0.216246 0.188824
Si Si5 0.837897 0.897295 0.522047
Si Si6 0.134117 0.317006 0.677453
Si Si7 0.646743 0.206689 0.683204
Si Si8 0.652131 0.095945 0.796882
O O1 0.480517 0.558920 0.323901
O O2 0.402208 0.662145 0.277016
O O3 0.051009 0.603951 0.210299
O O4 0.000000 0.600225 0.000000
O O5 0.530070 0.359418 0.689985
O O6 0.482978 0.314814 0.833405
O O7 0.569249 0.254649 0.717209
O O8 0.000000 0.312413 0.000000
O O9 0.500000 0.516868 0.500000
O O10 0.311103 0.458016 0.543511
O O11 0.000206 0.545111 0.332923
O O12 0.952562 0.268105 0.298737
O O13 0.005350 0.211999 0.164759
O O14 0.500000 0.219424 0.000000
O O15 0.514822 0.869843 0.355443
O O16 0.000000 0.896349 0.500000
O O17 0.000000 0.310234 0.500000
O O18 0.500000 0.211220 0.500000
O O19 0.606938 0.148911 0.709375
O O20 0.000000 0.089777 0.000000
#
# Coordination Sequence:
#
# PCOD9124607 Si02
#       8
#     4   4   4   4   4   4   4   4
#     4  10  21  39  61  88 120 157 198 244 302 367
#     4  11  22  38  59  89 122 156 197 253 307 359
#     4   9  21  40  62  83 114 158 201 248 305 357
#     4  11  21  35  55  85 116 149 189 234 290 355
#     4  10  21  41  61  82 114 155 204 251 297 362
#     4  10  21  37  57  82 115 154 192 238 294 352
#     4  12  23  37  60  90 122 161 199 244 304 364
#     4  11  22  39  60  89 123 156 199 254 302 360
#
# _framework density 20.645976000000001
#
# number of rings (size 3 to 8) (size 9 to 14) (size 15 to 20)
#    0.000    1.500    0.000    6.750    0.000    2.000 
#    0.000   13.750    0.000    0.000    0.000    0.000 
#    0.000    0.000    0.000    0.000    0.000    0.000 
#
# Total GULP energy -89393.502661 kJ/mol
# GULP energy per Si atom -5587.093916 kJ/mol
# Density = 2.059898 g / cm^3
# Si number density = 20.645976 Si / 1000 Ang^3
#
#
#
# Elastic Constant Matrix: (Units=GPa)
#
#
# Indices 1 2 3 4 5 6 
#
# 1 86.6674 28.3575 9.3865 0.0000 23.4542 0.0000
# 2 28.3575 166.1167 38.6095 0.0000 9.3643 0.0000
# 3 9.3865 38.6095 83.0913 0.0000 24.2547 0.0000
# 4 0.0000 0.0000 0.0000 17.0634 0.0000 2.0086
# 5 23.4542 9.3643 24.2547 0.0000 34.2898 0.0000
# 6 0.0000 0.0000 0.0000 2.0086 0.0000 28.6015
#
#
#
# Elastic Compliance Matrix: (Units=1/GPa)
#
#
# Indices 1 2 3 4 5 6 
#
# 1 0.015276 -0.002626 0.002943 0.000000 -0.011813 0.000000
# 2 -0.002626 0.007206 -0.003783 0.000000 0.002504 0.000000
# 3 0.002943 -0.003783 0.017323 0.000000 -0.013233 0.000000
# 4 0.000000 0.000000 0.000000 0.059094 0.000000 -0.004150
# 5 -0.011813 0.002504 -0.013233 0.000000 0.045920 0.000000
# 6 0.000000 0.000000 0.000000 -0.004150 0.000000 0.035255
#
#
# Mechanical properties :
#
#
# Convention : Reuss Voigt Hill
#
# Bulk Modulus (GPa) = 30.41969 54.28694 42.35331
# Shear Modulus (GPa) = 25.25737 33.29238 29.27487
#
# Velocity S-wave (km/s) = 3.50144 4.02000 3.76965
# Velocity P-wave (km/s) = 5.57788 6.92087 6.28535
#
# Compressibility (1/GPa) = 0.03287345
#
# Stress axis : x y z
#
# Youngs Moduli (GPa) = 65.46361 138.77052 57.72680
#
# Poissons Ratio (x) = 0.36437 -0.16987
# Poissons Ratio (y) = 0.17189 0.21836
# Poissons Ratio (z) = -0.19264 0.52492
#
# Static dielectric constant tensor:
#      x y z
#    x 1.779310 0.000000 0.029870 
#    y 0.000000 1.715520 0.000000 
#    z 0.029870 0.000000 1.803910 
# 
# From -- ./inp_files/51677.got.cif
#   From: 2010.05.17/outbox.cif.g08.bks.cpg/sg5_26_cif.got.tgz:51677.got - 2010.06.03 18:56:24.
