data_PCOD9124889
_publ_section_title
;
Structure prediction by ZEFSAII (Michael W. Deem and Ramdas Pophale) SiO2 
 PCOD9124889
Probable space group: C 2
;
_chemical_formula_sum "Si O2"
_cell_formula_units_Z 22
_cell_length_a 8.307576
_cell_length_b 18.154531
_cell_length_c 7.610023
_cell_angle_alpha 90.000000
_cell_angle_beta 55.104677
_cell_angle_gamma 90.000000
_cell_volume 941.378635
_symmetry_space_group_name_H-M "C 2"
_symmetry_group_IT_number 5
_symmetry_cell_setting 'monoclinic'
loop_
_space_group_symop_operation_xyz
x,y,z
-x,y,-z
1/2+x,1/2+y,z
1/2-x,1/2+y,-z
loop_
_atom_site_type_symbol
_atom_site_label
_atom_site_fract_x
_atom_site_fract_y
_atom_site_fract_z
Si Si1 0.218899 0.643380 0.815084
Si Si2 0.715349 0.118352 0.405629
Si Si3 0.225001 0.785560 0.309130
Si Si4 0.543812 0.506034 0.263284
Si Si5 0.365273 0.796191 0.829200
Si Si6 0.500000 0.385602 0.000000
O O1 0.233375 0.638789 0.598192
O O2 0.274624 0.563137 0.853191
O O3 0.354869 0.709288 0.794757
O O4 0.000000 0.664147 0.000000
O O5 0.500000 0.088713 0.500000
O O6 0.734784 0.196023 0.295679
O O7 0.872322 0.055130 0.282820
O O8 0.402975 0.815061 0.321527
O O9 0.000000 0.804064 0.500000
O O10 0.288737 0.808165 0.075113
O O11 0.500000 0.491431 0.500000
O O12 0.558392 0.436225 0.129717
O O13 0.193023 0.837392 0.830388
#
# Coordination Sequence:
#
# PCOD9124889 Si02
#       6
#     4   4   4   4   4   2
#     4  11  21  40  71 101 139 179 250 303 349 426
#     4  10  21  38  70 107 130 178 243 304 358 408
#     4  10  22  42  72 102 140 181 241 308 354 421
#     4  10  25  47  71 101 143 193 244 291 361 439
#     4  11  24  43  67 111 141 188 241 298 369 433
#     4  12  28  46  70 104 162 190 232 296 380 438
#
# _framework density 23.369978
#
# number of rings (size 3 to 8) (size 9 to 14) (size 15 to 20)
#    0.000    1.455    2.727    2.182    5.091    0.727 
#    3.273    1.818    0.000    0.000    0.000    0.000 
#    0.000    0.000    0.000    0.000    0.000    0.000 
#
# Total GULP energy -61491.640754 kJ/mol
# GULP energy per Si atom -5590.149159 kJ/mol
# Density = 2.331679 g / cm^3
# Si number density = 23.369978 Si / 1000 Ang^3
#
#
#
# Elastic Constant Matrix: (Units=GPa)
#
#
# Indices 1 2 3 4 5 6 
#
# 1 130.3414 33.0678 44.7043 0.0000 -31.6026 0.0000
# 2 33.0678 84.3601 28.9110 0.0000 -0.6525 0.0000
# 3 44.7043 28.9110 91.2893 0.0000 -21.7370 0.0000
# 4 0.0000 0.0000 0.0000 3.7860 0.0000 -5.8756
# 5 -31.6026 -0.6525 -21.7370 0.0000 41.4099 0.0000
# 6 0.0000 0.0000 0.0000 -5.8756 0.0000 51.9714
#
#
#
# Elastic Compliance Matrix: (Units=1/GPa)
#
#
# Indices 1 2 3 4 5 6 
#
# 1 0.011174 -0.003394 -0.002719 0.000000 0.007047 0.000000
# 2 -0.003394 0.014520 -0.003999 0.000000 -0.004460 0.000000
# 3 -0.002719 -0.003999 0.014906 0.000000 0.005686 0.000000
# 4 0.000000 0.000000 0.000000 0.320329 0.000000 0.036214
# 5 0.007047 -0.004460 0.005686 0.000000 0.032441 0.000000
# 6 0.000000 0.000000 0.000000 0.036214 0.000000 0.023336
#
#
# Mechanical properties :
#
#
# Convention : Reuss Voigt Hill
#
# Bulk Modulus (GPa) = 49.07407 57.70634 53.39020
# Shear Modulus (GPa) = 11.26830 32.72066 21.99448
#
# Velocity S-wave (km/s) = 2.19822 3.74587 3.07113
# Velocity P-wave (km/s) = 5.24283 6.59203 5.95576
#
# Compressibility (1/GPa) = 0.02037736
#
# Stress axis : x y z
#
# Youngs Moduli (GPa) = 89.48968 68.87010 67.08656
#
# Poissons Ratio (x) = 0.23373 0.18243
# Poissons Ratio (y) = 0.30371 0.26825
# Poissons Ratio (z) = 0.24335 0.27538
#
# Static dielectric constant tensor:
#      x y z
#    x 1.917910 0.000000 0.038010 
#    y 0.000000 1.868580 0.000000 
#    z 0.038010 0.000000 1.813980 
# 
# From -- ./inp_files/16039.got.cif
#   From: 2010.05.17/outbox.cif.g08.bks.cpg/sg5_9_cif.got.tgz:16039.got - 2010.06.03 18:56:24.
