data_PCOD9124976
_publ_section_title
;
Structure prediction by ZEFSAII (Michael W. Deem and Ramdas Pophale) SiO2 
 PCOD9124976
Probable space group: C 2
;
_chemical_formula_sum "Si O2"
_cell_formula_units_Z 30
_cell_length_a 26.314798
_cell_length_b 9.784521
_cell_length_c 5.622065
_cell_angle_alpha 90.000000
_cell_angle_beta 106.925281
_cell_angle_gamma 90.000000
_cell_volume 1384.855749
_symmetry_space_group_name_H-M "C 2"
_symmetry_group_IT_number 5
_symmetry_cell_setting 'monoclinic'
loop_
_space_group_symop_operation_xyz
x,y,z
-x,y,-z
1/2+x,1/2+y,z
1/2-x,1/2+y,-z
loop_
_atom_site_type_symbol
_atom_site_label
_atom_site_fract_x
_atom_site_fract_y
_atom_site_fract_z
Si Si1 0.823376 0.888670 0.694803
Si Si2 0.084986 0.060349 0.414814
Si Si3 0.629749 0.837173 0.417860
Si Si4 0.500000 0.391905 0.000000
Si Si5 0.856136 0.638175 0.450634
Si Si6 0.755088 0.516517 0.099390
Si Si7 0.911486 0.848504 0.207678
Si Si8 0.809882 0.283826 0.996633
O O1 0.824123 0.739630 0.579756
O O2 0.857592 0.997877 0.588729
O O3 0.766020 0.944313 0.688438
O O4 0.858818 0.867395 0.979942
O O5 0.084352 0.222149 0.382063
O O6 0.040969 0.986380 0.197405
O O7 0.076763 0.997173 0.664138
O O8 0.660349 0.814427 0.712738
O O9 0.620410 0.000574 0.401566
O O10 0.658397 0.799630 0.206620
O O11 0.461922 0.306963 0.120463
O O12 0.811902 0.588445 0.203280
O O13 0.899646 0.735878 0.390711
O O14 0.762286 0.394922 0.923166
O O15 0.712625 0.633132 0.999289
#
# Coordination Sequence:
#
# PCOD9124976 Si02
#       8
#     4   4   4   2   4   4   4   4
#     4  10  21  39  63  90 134 181 227 275 326 391
#     4  10  21  41  70  98 130 164 221 282 345 403
#     4  11  25  43  64  97 137 181 219 279 344 399
#     4  10  22  40  78 102 124 160 230 284 348 416
#     4  10  25  38  63  94 140 183 224 276 335 393
#     4  11  23  39  62  95 136 186 238 271 327 390
#     4  10  21  43  66 102 126 175 222 288 337 405
#     4  11  26  40  61  95 135 186 235 278 327 390
#
# _framework density 21.662907000000001
#
# number of rings (size 3 to 8) (size 9 to 14) (size 15 to 20)
#    0.000    1.600    1.333    2.000   11.200    2.133 
#    0.000    0.000    0.000   19.200    0.000    0.000 
#    0.000    0.000    0.000    0.000    0.000    0.000 
#
# Total GULP energy -83721.120419 kJ/mol
# GULP energy per Si atom -5581.408028 kJ/mol
# Density = 2.161360 g / cm^3
# Si number density = 21.662907 Si / 1000 Ang^3
#
#
#
# Elastic Constant Matrix: (Units=GPa)
#
#
# Indices 1 2 3 4 5 6 
#
# 1 64.5004 16.3342 10.7919 0.0000 -22.1496 0.0000
# 2 16.3342 121.7662 13.2838 0.0000 -7.7576 0.0000
# 3 10.7919 13.2838 78.0593 0.0000 -11.3821 0.0000
# 4 0.0000 0.0000 0.0000 19.1574 0.0000 -2.2220
# 5 -22.1496 -7.7576 -11.3821 0.0000 21.8627 0.0000
# 6 0.0000 0.0000 0.0000 -2.2220 0.0000 12.8404
#
#
#
# Elastic Compliance Matrix: (Units=1/GPa)
#
#
# Indices 1 2 3 4 5 6 
#
# 1 0.024137 -0.001755 0.000472 0.000000 0.024077 0.000000
# 2 -0.001755 0.008615 -0.001122 0.000000 0.000694 0.000000
# 3 0.000472 -0.001122 0.014012 0.000000 0.007375 0.000000
# 4 0.000000 0.000000 0.000000 0.053268 0.000000 0.009218
# 5 0.024077 0.000694 0.007375 0.000000 0.074219 0.000000
# 6 0.000000 0.000000 0.000000 0.009218 0.000000 0.079474
#
#
# Mechanical properties :
#
#
# Convention : Reuss Voigt Hill
#
# Bulk Modulus (GPa) = 23.83587 38.34951 31.09269
# Shear Modulus (GPa) = 18.34728 25.69985 22.02356
#
# Velocity S-wave (km/s) = 2.91339 3.44808 3.19195
# Velocity P-wave (km/s) = 4.72695 5.79600 5.28856
#
# Compressibility (1/GPa) = 0.04195358
#
# Stress axis : x y z
#
# Youngs Moduli (GPa) = 41.42943 116.08236 71.36822
#
# Poissons Ratio (x) = 0.20378 -0.03372
# Poissons Ratio (y) = 0.07273 0.08008
# Poissons Ratio (z) = -0.01957 0.13025
#
# Static dielectric constant tensor:
#      x y z
#    x 1.807220 0.000000 -0.002870 
#    y 0.000000 1.811200 0.000000 
#    z -0.002870 0.000000 1.853650 
# 
# From -- ./inp_files/11147.got.cif
#   From: 2010.05.17/outbox.cif.g08.bks.cpg/sg5_6_cif.got.tgz:11147.got - 2010.06.03 18:56:24.
