data_PCOD9124758
_publ_section_title
;
Structure prediction by ZEFSAII (Michael W. Deem and Ramdas Pophale) SiO2 
 PCOD9124758
Probable space group: C 2
;
_chemical_formula_sum "Si O2"
_cell_formula_units_Z 32
_cell_length_a 26.192426
_cell_length_b 10.160662
_cell_length_c 14.081649
_cell_angle_alpha 90.000000
_cell_angle_beta 22.544414
_cell_angle_gamma 90.000000
_cell_volume 1436.821329
_symmetry_space_group_name_H-M "C 2"
_symmetry_group_IT_number 5
_symmetry_cell_setting 'monoclinic'
loop_
_space_group_symop_operation_xyz
x,y,z
-x,y,-z
1/2+x,1/2+y,z
1/2-x,1/2+y,-z
loop_
_atom_site_type_symbol
_atom_site_label
_atom_site_fract_x
_atom_site_fract_y
_atom_site_fract_z
Si Si1 0.831752 0.902770 0.458683
Si Si2 0.797217 0.601373 0.189955
Si Si3 0.725129 0.350480 0.655451
Si Si4 0.684666 0.940486 0.013217
Si Si5 0.786540 0.740847 0.703418
Si Si6 0.581536 0.787420 0.530533
Si Si7 0.057093 0.101894 0.999831
Si Si8 0.347555 0.997863 0.730395
O O1 0.789061 0.838562 0.432494
O O2 0.867107 0.788492 0.472828
O O3 0.715505 0.984573 0.711892
O O4 0.943246 0.013590 0.245193
O O5 0.845267 0.731739 0.164011
O O6 0.644089 0.642570 0.423350
O O7 0.863545 0.551686 0.978868
O O8 0.872655 0.341541 0.445072
O O9 0.663625 0.490466 0.786802
O O10 0.567967 0.832069 0.231965
O O11 0.729380 0.996222 0.037674
O O12 0.791391 0.859471 0.770019
O O13 0.823839 0.612114 0.696684
O O14 0.636480 0.707164 0.924973
O O15 0.667092 0.863679 0.303221
O O16 0.000000 0.159360 0.000000
O O17 0.500000 0.011656 0.500000
#
# Coordination Sequence:
#
# PCOD9124758 Si02
#       8
#     4   4   4   4   4   4   4   4
#     4  10  22  36  59  91 122 153 203 238 298 373
#     4   9  20  37  58  85 121 155 195 253 291 357
#     4   9  20  36  59  83 120 163 191 244 307 348
#     4  10  22  37  61  88 115 155 209 244 300 360
#     4  11  22  39  61  91 118 160 196 252 305 351
#     4   9  19  39  60  83 117 162 190 247 304 344
#     4  10  21  38  60  90 121 161 197 239 303 365
#     4  10  22  40  60  83 114 159 201 247 302 354
#
# _framework density 22.271384999999999
#
# number of rings (size 3 to 8) (size 9 to 14) (size 15 to 20)
#    0.750    1.500    1.250    0.750    5.250    2.000 
#    2.250    3.125    0.000    0.000    0.000    0.000 
#    0.000    0.000    0.000    0.000    0.000    0.000 
#
# Total GULP energy -89106.219337 kJ/mol
# GULP energy per Si atom -5569.138709 kJ/mol
# Density = 2.222069 g / cm^3
# Si number density = 22.271385 Si / 1000 Ang^3
#
#
#
# Elastic Constant Matrix: (Units=GPa)
#
#
# Indices 1 2 3 4 5 6 
#
# 1 108.6779 39.9413 31.2978 0.0000 35.6984 0.0000
# 2 39.9413 69.6601 7.3006 0.0000 18.0675 0.0000
# 3 31.2978 7.3006 43.3069 0.0000 24.0187 0.0000
# 4 0.0000 0.0000 0.0000 28.5888 0.0000 10.2347
# 5 35.6984 18.0675 24.0187 0.0000 41.1019 0.0000
# 6 0.0000 0.0000 0.0000 10.2347 0.0000 15.6676
#
#
#
# Elastic Compliance Matrix: (Units=1/GPa)
#
#
# Indices 1 2 3 4 5 6 
#
# 1 0.015766 -0.006530 -0.006348 0.000000 -0.007113 0.000000
# 2 -0.006530 0.019003 0.004443 0.000000 -0.005278 0.000000
# 3 -0.006348 0.004443 0.036921 0.000000 -0.018015 0.000000
# 4 0.000000 0.000000 0.000000 0.045656 0.000000 -0.029824
# 5 -0.007113 -0.005278 -0.018015 0.000000 0.043356 0.000000
# 6 0.000000 0.000000 0.000000 -0.029824 0.000000 0.083308
#
#
# Mechanical properties :
#
#
# Convention : Reuss Voigt Hill
#
# Bulk Modulus (GPa) = 18.24135 42.08049 30.16092
# Shear Modulus (GPa) = 17.91136 26.61199 22.26167
#
# Velocity S-wave (km/s) = 2.83897 3.46048 3.16502
# Velocity P-wave (km/s) = 4.35369 5.90779 5.18925
#
# Compressibility (1/GPa) = 0.05482049
#
# Stress axis : x y z
#
# Youngs Moduli (GPa) = 63.42753 52.62419 27.08466
#
# Poissons Ratio (x) = 0.34361 0.17194
# Poissons Ratio (y) = 0.41415 -0.12033
# Poissons Ratio (z) = 0.40264 -0.23380
#
# Static dielectric constant tensor:
#      x y z
#    x 1.853760 0.000000 0.033520 
#    y 0.000000 1.892380 0.000000 
#    z 0.033520 0.000000 1.927510 
# 
# From -- ./inp_files/47499.got.cif
#   From: 2010.05.17/outbox.cif.g08.bks.cpg/sg5_24_cif.got.tgz:47499.got - 2010.06.03 18:56:24.
