data_PCOD9124469
_publ_section_title
;
Structure prediction by ZEFSAII (Michael W. Deem and Ramdas Pophale) SiO2 
 PCOD9124469
Probable space group: C 2
;
_chemical_formula_sum "Si O2"
_cell_formula_units_Z 26
_cell_length_a 5.074333
_cell_length_b 24.262910
_cell_length_c 9.919498
_cell_angle_alpha 90.000000
_cell_angle_beta 76.296597
_cell_angle_gamma 90.000000
_cell_volume 1186.506221
_symmetry_space_group_name_H-M "C 2"
_symmetry_group_IT_number 5
_symmetry_cell_setting 'monoclinic'
loop_
_space_group_symop_operation_xyz
x,y,z
-x,y,-z
1/2+x,1/2+y,z
1/2-x,1/2+y,-z
loop_
_atom_site_type_symbol
_atom_site_label
_atom_site_fract_x
_atom_site_fract_y
_atom_site_fract_z
Si Si1 0.191642 0.967150 0.089448
Si Si2 0.222672 0.201782 0.588805
Si Si3 0.757199 0.844148 0.870718
Si Si4 0.000000 0.593572 0.500000
Si Si5 0.192654 0.377300 0.589085
Si Si6 0.697015 0.224924 0.097043
Si Si7 0.744613 0.001897 0.630183
O O1 0.100253 0.903558 0.129918
O O2 0.166715 0.001426 0.227372
O O3 0.500000 0.965669 0.000000
O O4 0.000000 0.990702 0.000000
O O5 0.500000 0.228727 0.500000
O O6 0.259178 0.135780 0.561203
O O7 0.247302 0.207530 0.750784
O O8 0.000000 0.217994 0.500000
O O9 0.660070 0.844265 0.729264
O O10 0.914269 0.787754 0.874003
O O11 0.500000 0.844635 0.000000
O O12 0.944653 0.552396 0.384194
O O13 0.500000 0.377717 0.500000
O O14 0.112389 0.441307 0.626957
O O15 0.000000 0.354149 0.500000
O O16 0.500000 0.199954 0.000000
O O17 0.000000 0.224680 0.000000
O O18 0.000000 0.004874 0.500000
#
# Coordination Sequence:
#
# PCOD9124469 Si02
#       7
#     4   4   4   2   4   4   4
#     4  10  22  38  58  88 132 161 197 242 291 355
#     4  10  23  43  67  91 118 161 205 261 313 366
#     4   9  21  37  60  89 125 168 198 233 302 369
#     4  10  22  40  70  84 120 158 208 248 318 360
#     4  10  21  35  55  90 124 159 202 249 284 347
#     4  11  23  41  67  93 125 161 205 254 311 367
#     4  10  21  36  64  86 120 163 204 243 299 363
#
# _framework density 21.913076
#
# number of rings (size 3 to 8) (size 9 to 14) (size 15 to 20)
#    0.462    1.538    0.769    1.846    2.154   11.077 
#    0.000    0.769    0.000    0.000    0.000    0.000 
#    0.000    0.000    0.000    0.000    0.000    0.000 
#
# Total GULP energy -72393.820960 kJ/mol
# GULP energy per Si atom -5568.755458 kJ/mol
# Density = 2.186320 g / cm^3
# Si number density = 21.913076 Si / 1000 Ang^3
#
#
#
# Elastic Constant Matrix: (Units=GPa)
#
#
# Indices 1 2 3 4 5 6 
#
# 1 109.3753 15.4841 67.6840 0.0000 35.3737 0.0000
# 2 15.4841 65.7046 24.9207 0.0000 15.0955 0.0000
# 3 67.6840 24.9207 210.3029 0.0000 47.4358 0.0000
# 4 0.0000 0.0000 0.0000 37.3449 0.0000 -0.7592
# 5 35.3737 15.0955 47.4358 0.0000 51.9714 0.0000
# 6 0.0000 0.0000 0.0000 -0.7592 0.0000 -2.0832
#
#
#
# Elastic Compliance Matrix: (Units=1/GPa)
#
#
# Indices 1 2 3 4 5 6 
#
# 1 0.012876 -0.000605 -0.002689 0.000000 -0.006134 0.000000
# 2 -0.000605 0.016536 -0.000975 0.000000 -0.003501 0.000000
# 3 -0.002689 -0.000975 0.006623 0.000000 -0.003931 0.000000
# 4 0.000000 0.000000 0.000000 0.026581 0.000000 -0.009686
# 5 -0.006134 -0.003501 -0.003931 0.000000 0.028022 0.000000
# 6 0.000000 0.000000 0.000000 -0.009686 0.000000 -0.476494
#
#
# Mechanical properties :
#
#
# Convention : Reuss Voigt Hill
#
# Bulk Modulus (GPa) = 36.36727 66.84005 51.60366
# Shear Modulus (GPa) = -13.58134 35.93288 11.17577
#
# Velocity S-wave (km/s) = -2.49224 4.05383 2.26078
# Velocity P-wave (km/s) = 2.88972 7.24430 5.51500
#
# Compressibility (1/GPa) = 0.02749725
#
# Stress axis : x y z
#
# Youngs Moduli (GPa) = 77.66220 60.47234 150.99535
#
# Poissons Ratio (x) = 0.03661 0.40599
# Poissons Ratio (y) = 0.04701 0.14722
# Poissons Ratio (z) = 0.20882 0.05896
#
# Static dielectric constant tensor:
#      x y z
#    x 1.828540 0.000000 0.023380 
#    y 0.000000 1.821600 0.000000 
#    z 0.023380 0.000000 1.780900 
# 
# From -- ./inp_files/13026.got.cif
#   From: 2010.05.17/outbox.cif.g08.bks.cpg/sg5_7_cif.got.tgz:13026.got - 2010.06.03 18:56:24.
