data_PCOD9124684
_publ_section_title
;
Structure prediction by ZEFSAII (Michael W. Deem and Ramdas Pophale) SiO2 
 PCOD9124684
Probable space group: C 2
;
_chemical_formula_sum "Si O2"
_cell_formula_units_Z 26
_cell_length_a 33.421850
_cell_length_b 5.843823
_cell_length_c 22.334831
_cell_angle_alpha 90.000000
_cell_angle_beta 13.837237
_cell_angle_gamma 90.000000
_cell_volume 1043.294761
_symmetry_space_group_name_H-M "C 2"
_symmetry_group_IT_number 5
_symmetry_cell_setting 'monoclinic'
loop_
_space_group_symop_operation_xyz
x,y,z
-x,y,-z
1/2+x,1/2+y,z
1/2-x,1/2+y,-z
loop_
_atom_site_type_symbol
_atom_site_label
_atom_site_fract_x
_atom_site_fract_y
_atom_site_fract_z
Si Si1 0.054946 0.297130 0.813965
Si Si2 0.348476 0.298736 0.285230
Si Si3 0.059074 0.438981 0.312782
Si Si4 0.145575 0.396780 0.000103
Si Si5 0.105879 0.168942 0.541588
Si Si6 0.500000 0.262462 0.500000
Si Si7 0.585027 0.268134 0.163332
O O1 0.202917 0.298022 0.548231
O O2 0.068405 0.544928 0.827335
O O3 0.067546 0.050039 0.828288
O O4 0.886380 0.311895 0.019624
O O5 0.264797 0.284253 0.340663
O O6 0.964152 0.597489 0.496780
O O7 0.095791 0.580225 0.199699
O O8 0.948386 0.234643 0.446614
O O9 0.236481 0.388522 0.085984
O O10 0.334654 0.407993 0.747918
O O11 0.073995 0.650691 0.114851
O O12 0.042133 0.237484 0.196036
O O13 0.087417 0.898958 0.574013
#
# Coordination Sequence:
#
# PCOD9124684 Si02
#       7
#     4   4   4   4   4   2   4
#     4   9  19  34  55  92 126 161 201 278 323 379
#     4   9  19  32  59  91 123 155 216 266 334 371
#     4  11  22  37  60  89 128 161 217 262 323 385
#     4  10  23  36  60  89 132 167 210 260 325 385
#     4  10  21  37  63  91 118 169 207 273 319 387
#     4  12  24  42  56  98 128 174 210 262 326 404
#     4  11  20  39  61  88 125 175 214 267 322 389
#
# _framework density 24.921050999999999
#
# number of rings (size 3 to 8) (size 9 to 14) (size 15 to 20)
#    0.000    1.846    3.077    0.923   12.923    0.615 
#    0.000    0.000    0.000    0.923    0.000    0.000 
#    0.000    0.000    0.000    0.000    0.000    0.000 
#
# Total GULP energy -72529.823386 kJ/mol
# GULP energy per Si atom -5579.217184 kJ/mol
# Density = 2.486433 g / cm^3
# Si number density = 24.921051 Si / 1000 Ang^3
#
#
#
# Elastic Constant Matrix: (Units=GPa)
#
#
# Indices 1 2 3 4 5 6 
#
# 1 95.2238 51.8649 32.6045 -0.0009 -32.6972 0.0001
# 2 51.8649 137.5825 27.2124 -0.0070 -24.2333 0.0011
# 3 32.6045 27.2124 34.6202 -0.0034 -4.6519 0.0013
# 4 -0.0009 -0.0070 -0.0034 15.5693 0.0004 1.7897
# 5 -32.6972 -24.2333 -4.6519 0.0004 34.3107 0.0000
# 6 0.0001 0.0011 0.0013 1.7897 0.0000 19.0997
#
#
#
# Elastic Compliance Matrix: (Units=1/GPa)
#
#
# Indices 1 2 3 4 5 6 
#
# 1 0.025035 -0.002160 -0.019229 -0.000004 0.019725 0.000002
# 2 -0.002160 0.009837 -0.005134 0.000003 0.004193 0.000000
# 3 -0.019229 -0.005134 0.048973 0.000008 -0.015312 -0.000004
# 4 -0.000004 0.000003 0.000008 0.064928 -0.000002 -0.006084
# 5 0.019725 0.004193 -0.015312 -0.000002 0.048829 0.000001
# 6 0.000002 0.000000 -0.000004 -0.006084 0.000001 0.052927
#
#
# Mechanical properties :
#
#
# Convention : Reuss Voigt Hill
#
# Bulk Modulus (GPa) = 32.47003 54.53222 43.50113
# Shear Modulus (GPa) = 15.93160 24.17893 20.05526
#
# Velocity S-wave (km/s) = 2.53115 3.11822 2.83989
# Velocity P-wave (km/s) = 4.64755 5.90710 5.31477
#
# Compressibility (1/GPa) = 0.03079763
#
# Stress axis : x y z
#
# Youngs Moduli (GPa) = 39.94379 101.66060 20.41946
#
# Poissons Ratio (x) = 0.21958 0.39265
# Poissons Ratio (y) = 0.08627 0.10484
# Poissons Ratio (z) = 0.76809 0.52196
#
# Static dielectric constant tensor:
#      x y z
#    x 1.962270 0.000000 -0.001690 
#    y 0.000000 2.368640 0.000000 
#    z -0.001690 0.000000 2.048820 
# 
# From -- ./inp_files/67674.got.cif
#   From: 2010.05.17/outbox.cif.g08.bks.cpg/sg5_34_cif.got.tgz:67674.got - 2010.06.03 18:56:24.
