data_PCOD9124122
_publ_section_title
;
Structure prediction by ZEFSAII (Michael W. Deem and Ramdas Pophale) SiO2 
 PCOD9124122
Probable space group: C 2
;
_chemical_formula_sum "Si O2"
_cell_formula_units_Z 24
_cell_length_a 23.980246
_cell_length_b 8.207721
_cell_length_c 17.397238
_cell_angle_alpha 90.000000
_cell_angle_beta 20.364728
_cell_angle_gamma 90.000000
_cell_volume 1191.597276
_symmetry_space_group_name_H-M "C 2"
_symmetry_group_IT_number 5
_symmetry_cell_setting 'monoclinic'
loop_
_space_group_symop_operation_xyz
x,y,z
-x,y,-z
1/2+x,1/2+y,z
1/2-x,1/2+y,-z
loop_
_atom_site_type_symbol
_atom_site_label
_atom_site_fract_x
_atom_site_fract_y
_atom_site_fract_z
Si Si1 0.308847 0.336870 0.645847
Si Si2 0.239253 0.206543 0.331439
Si Si3 0.500000 0.122466 0.500000
Si Si4 0.078606 0.409428 0.247688
Si Si5 0.422614 0.244465 0.823602
Si Si6 0.507425 0.340476 0.883483
Si Si7 0.500000 0.635511 0.000000
O O1 0.280640 0.528443 0.678326
O O2 0.357122 0.245534 0.661785
O O3 0.457617 0.303689 0.397250
O O4 0.151859 0.245808 0.819885
O O5 0.362156 0.221178 0.244672
O O6 0.070503 0.287635 0.570101
O O7 0.332145 0.307890 0.146090
O O8 0.546497 0.008084 0.368551
O O9 0.083021 0.548256 0.176285
O O10 0.245667 0.315270 0.038461
O O11 0.493337 0.310168 0.812171
O O12 0.543759 0.518839 0.870978
#
# Coordination Sequence:
#
# PCOD9124122 Si02
#       7
#     4   4   2   4   4   4   2
#     4  11  23  39  60  89 119 155 200 244 292 353
#     4  10  22  40  60  86 120 160 198 237 293 360
#     4  10  22  40  62  86 118 162 200 236 294 358
#     4  11  22  40  60  87 122 158 196 245 297 351
#     4  11  23  38  59  89 119 153 198 249 295 342
#     4  10  21  39  62  87 116 157 199 243 293 347
#     4  10  20  42  64  84 118 160 198 240 294 360
#
# _framework density 20.141034000000001
#
# number of rings (size 3 to 8) (size 9 to 14) (size 15 to 20)
#    0.000    1.667    0.000    8.000    0.000    7.333 
#    0.000    6.667    0.000    0.000    0.000    0.000 
#    0.000    0.000    0.000    0.000    0.000    0.000 
#
# Total GULP energy -67013.453186 kJ/mol
# GULP energy per Si atom -5584.454432 kJ/mol
# Density = 2.009519 g / cm^3
# Si number density = 20.141034 Si / 1000 Ang^3
#
#
#
# Elastic Constant Matrix: (Units=GPa)
#
#
# Indices 1 2 3 4 5 6 
#
# 1 62.9865 10.0322 16.3489 0.0000 -7.6748 0.0000
# 2 10.0322 107.0472 20.6728 0.0000 -23.6701 0.0000
# 3 16.3489 20.6728 79.6065 0.0000 -32.0706 0.0000
# 4 0.0000 0.0000 0.0000 39.0206 0.0000 -16.9214
# 5 -7.6748 -23.6701 -32.0706 0.0000 27.5455 0.0000
# 6 0.0000 0.0000 0.0000 -16.9214 0.0000 12.7390
#
#
#
# Elastic Compliance Matrix: (Units=1/GPa)
#
#
# Indices 1 2 3 4 5 6 
#
# 1 0.016865 -0.000915 -0.003107 0.000000 0.000295 0.000000
# 2 -0.000915 0.011734 0.002072 0.000000 0.012241 0.000000
# 3 -0.003107 0.002072 0.024541 0.000000 0.029488 0.000000
# 4 0.000000 0.000000 0.000000 0.060446 0.000000 0.080291
# 5 0.000295 0.012241 0.029488 0.000000 0.081236 0.000000
# 6 0.000000 0.000000 0.000000 0.080291 0.000000 0.185152
#
#
# Mechanical properties :
#
#
# Convention : Reuss Voigt Hill
#
# Bulk Modulus (GPa) = 20.30888 38.19421 29.25154
# Shear Modulus (GPa) = 12.49103 29.36677 20.92890
#
# Velocity S-wave (km/s) = 2.49304 3.82259 3.22703
# Velocity P-wave (km/s) = 4.28861 6.20383 5.33290
#
# Compressibility (1/GPa) = 0.04923955
#
# Stress axis : x y z
#
# Youngs Moduli (GPa) = 59.29581 85.22316 40.74748
#
# Poissons Ratio (x) = 0.07800 0.12660
# Poissons Ratio (y) = 0.05427 -0.08443
# Poissons Ratio (z) = 0.18423 -0.17659
#
# Static dielectric constant tensor:
#      x y z
#    x 1.784980 0.000000 -0.018740 
#    y 0.000000 1.737670 0.000000 
#    z -0.018740 0.000000 1.690250 
# 
# From -- ./inp_files/22878.got.cif
#   From: 2010.05.17/outbox.cif.g08.bks.cpg/sg5_12_cif.got.tgz:22878.got - 2010.06.03 18:56:24.
