data_PCOD9124942
_publ_section_title
;
Structure prediction by ZEFSAII (Michael W. Deem and Ramdas Pophale) SiO2 
 PCOD9124942
Probable space group: C 2
;
_chemical_formula_sum "Si O2"
_cell_formula_units_Z 28
_cell_length_a 8.782614
_cell_length_b 13.298888
_cell_length_c 14.792656
_cell_angle_alpha 90.000000
_cell_angle_beta 52.603961
_cell_angle_gamma 90.000000
_cell_volume 1372.636250
_symmetry_space_group_name_H-M "C 2"
_symmetry_group_IT_number 5
_symmetry_cell_setting 'monoclinic'
loop_
_space_group_symop_operation_xyz
x,y,z
-x,y,-z
1/2+x,1/2+y,z
1/2-x,1/2+y,-z
loop_
_atom_site_type_symbol
_atom_site_label
_atom_site_fract_x
_atom_site_fract_y
_atom_site_fract_z
Si Si1 0.482819 0.263560 0.186462
Si Si2 0.217324 0.377219 0.647924
Si Si3 0.302533 0.619728 0.016871
Si Si4 0.868440 0.238673 0.806168
Si Si5 0.291487 0.937210 0.066496
Si Si6 0.121238 0.039373 0.296546
Si Si7 0.895625 0.851295 0.396722
O O1 0.620524 0.167267 0.133806
O O2 0.340293 0.268430 0.153990
O O3 0.630174 0.354704 0.127881
O O4 0.364949 0.281688 0.321476
O O5 0.270763 0.494100 0.653517
O O6 0.246782 0.354014 0.531867
O O7 0.394193 0.323604 0.637398
O O8 0.018990 0.329984 0.752149
O O9 0.500000 0.615526 0.000000
O O10 0.346633 0.687440 0.911801
O O11 0.239783 0.509953 0.006086
O O12 0.927659 0.153453 0.709816
O O13 0.263522 0.006615 0.164751
O O14 0.500000 0.890203 0.000000
O O15 0.934917 0.967759 0.354814
#
# Coordination Sequence:
#
# PCOD9124942 Si02
#       7
#     4   4   4   4   4   4   4
#     4  11  22  38  59  92 129 160 212 257 315 393
#     4   9  18  38  64  84 122 164 212 257 324 377
#     4  11  23  39  59  92 126 160 214 263 319 389
#     4  11  22  37  63  95 123 168 215 262 320 398
#     4  10  21  39  62  83 121 170 204 262 322 375
#     4   8  18  38  60  85 118 162 210 259 317 375
#     4   8  18  39  61  85 120 167 206 261 324 370
#
# _framework density 20.398703999999999
#
# number of rings (size 3 to 8) (size 9 to 14) (size 15 to 20)
#    0.857    1.429    0.000    3.429    2.000    1.714 
#    7.714    0.000    0.000    0.000    0.000    0.000 
#    0.000    0.000    0.000    0.000    0.000    0.000 
#
# Total GULP energy -77979.226793 kJ/mol
# GULP energy per Si atom -5569.944771 kJ/mol
# Density = 2.035228 g / cm^3
# Si number density = 20.398704 Si / 1000 Ang^3
#
#
#
# Elastic Constant Matrix: (Units=GPa)
#
#
# Indices 1 2 3 4 5 6 
#
# 1 97.9393 5.5046 18.9801 0.0000 7.8837 0.0000
# 2 5.5046 34.4703 14.1279 0.0000 13.4771 0.0000
# 3 18.9801 14.1279 50.2178 0.0000 17.7550 0.0000
# 4 0.0000 0.0000 0.0000 19.9782 0.0000 3.6740
# 5 7.8837 13.4771 17.7550 0.0000 26.7478 0.0000
# 6 0.0000 0.0000 0.0000 3.6740 0.0000 24.0759
#
#
#
# Elastic Compliance Matrix: (Units=1/GPa)
#
#
# Indices 1 2 3 4 5 6 
#
# 1 0.011026 0.000131 -0.003962 0.000000 -0.000686 0.000000
# 2 0.000131 0.037065 -0.005045 0.000000 -0.015365 0.000000
# 3 -0.003962 -0.005045 0.028117 0.000000 -0.014955 0.000000
# 4 0.000000 0.000000 0.000000 0.051500 0.000000 -0.007859
# 5 -0.000686 -0.015365 -0.014955 0.000000 0.055257 0.000000
# 6 0.000000 0.000000 0.000000 -0.007859 0.000000 0.042735
#
#
# Mechanical properties :
#
#
# Convention : Reuss Voigt Hill
#
# Bulk Modulus (GPa) = 17.10632 28.87254 22.98943
# Shear Modulus (GPa) = 19.01609 23.76136 21.38872
#
# Velocity S-wave (km/s) = 3.05654 3.41669 3.24162
# Velocity P-wave (km/s) = 4.56736 5.45434 5.03044
#
# Compressibility (1/GPa) = 0.05845791
#
# Stress axis : x y z
#
# Youngs Moduli (GPa) = 90.69461 26.97990 35.56554
#
# Poissons Ratio (x) = -0.00354 0.14090
# Poissons Ratio (y) = -0.01190 0.17941
# Poissons Ratio (z) = 0.35930 0.13610
#
# Static dielectric constant tensor:
#      x y z
#    x 1.709520 0.000000 0.027110 
#    y 0.000000 1.775850 0.000000 
#    z 0.027110 0.000000 1.771160 
# 
# From -- ./inp_files/50874.got.cif
#   From: 2010.05.17/outbox.cif.g08.bks.cpg/sg5_26_cif.got.tgz:50874.got - 2010.06.03 18:56:24.
