data_PCOD9124760
_publ_section_title
;
Structure prediction by ZEFSAII (Michael W. Deem and Ramdas Pophale) SiO2 
 PCOD9124760
Probable space group: C 2
;
_chemical_formula_sum "Si O2"
_cell_formula_units_Z 32
_cell_length_a 9.945678
_cell_length_b 10.158820
_cell_length_c 23.156300
_cell_angle_alpha 90.000000
_cell_angle_beta 45.819751
_cell_angle_gamma 90.000000
_cell_volume 1677.866372
_symmetry_space_group_name_H-M "C 2"
_symmetry_group_IT_number 5
_symmetry_cell_setting 'monoclinic'
loop_
_space_group_symop_operation_xyz
x,y,z
-x,y,-z
1/2+x,1/2+y,z
1/2-x,1/2+y,-z
loop_
_atom_site_type_symbol
_atom_site_label
_atom_site_fract_x
_atom_site_fract_y
_atom_site_fract_z
Si Si1 0.718533 0.222330 0.951751
Si Si2 0.368708 0.228182 0.485738
Si Si3 0.216748 0.005838 0.453200
Si Si4 0.856280 0.546123 0.203497
Si Si5 0.955307 0.558283 0.734534
Si Si6 0.096571 0.263647 0.227166
Si Si7 0.299381 0.274946 0.700273
Si Si8 0.879979 0.448992 0.979667
O O1 0.835561 0.253646 0.859471
O O2 0.770947 0.327044 0.984953
O O3 0.500000 0.231891 0.000000
O O4 0.748624 0.072540 0.963378
O O5 0.500000 0.188340 0.500000
O O6 0.246643 0.354348 0.540370
O O7 0.511936 0.278549 0.393427
O O8 0.257247 0.106014 0.493063
O O9 0.000000 0.012405 0.500000
O O10 0.353393 0.045780 0.360059
O O11 0.709877 0.657682 0.229629
O O12 0.751556 0.415392 0.257342
O O13 0.988713 0.591565 0.216623
O O14 0.979889 0.506029 0.111180
O O15 0.869158 0.411961 0.761493
O O16 0.827803 0.665693 0.741207
O O17 0.873768 0.239748 0.289968
O O18 0.000000 0.410279 0.000000
#
# Coordination Sequence:
#
# PCOD9124760 Si02
#       8
#     4   4   4   4   4   4   4   4
#     4  11  23  42  60  88 117 151 200 249 301 358
#     4  10  21  38  60  90 124 160 200 244 294 350
#     4  10  21  38  60  90 124 160 200 244 294 350
#     4  11  21  41  61  81 121 154 195 253 296 351
#     4  10  23  39  61  91 120 159 205 240 297 359
#     4  11  21  41  61  81 121 154 195 253 296 351
#     4  10  23  39  61  91 120 159 205 240 297 359
#     4  11  23  42  60  88 117 151 200 249 301 358
#
# _framework density 19.071840000000002
#
# number of rings (size 3 to 8) (size 9 to 14) (size 15 to 20)
#    0.000    1.500    5.000    3.000    0.000    8.000 
#    0.000    5.000    0.000    0.000    0.000    0.000 
#    0.000    0.000    0.000    0.000    0.000    0.000 
#
# Total GULP energy -89375.957912 kJ/mol
# GULP energy per Si atom -5585.997370 kJ/mol
# Density = 1.902843 g / cm^3
# Si number density = 19.071840 Si / 1000 Ang^3
#
#
#
# Elastic Constant Matrix: (Units=GPa)
#
#
# Indices 1 2 3 4 5 6 
#
# 1 79.7529 54.5700 -8.3845 0.0000 22.1526 0.0000
# 2 54.5700 87.1110 -13.1520 0.0000 10.1191 0.0000
# 3 -8.3845 -13.1520 34.1053 0.0000 12.5601 0.0000
# 4 0.0000 0.0000 0.0000 23.2727 0.0000 10.2666
# 5 22.1526 10.1191 12.5601 0.0000 26.5674 0.0000
# 6 0.0000 0.0000 0.0000 10.2666 0.0000 27.2370
#
#
#
# Elastic Compliance Matrix: (Units=1/GPa)
#
#
# Indices 1 2 3 4 5 6 
#
# 1 0.030820 -0.014641 0.011311 0.000000 -0.025469 0.000000
# 2 -0.014641 0.020876 0.003491 0.000000 0.002606 0.000000
# 3 0.011311 0.003491 0.045297 0.000000 -0.032176 0.000000
# 4 0.000000 0.000000 0.000000 0.051539 0.000000 -0.019427
# 5 -0.025469 0.002606 -0.032176 0.000000 0.073096 0.000000
# 6 0.000000 0.000000 0.000000 -0.019427 0.000000 0.044037
#
#
# Mechanical properties :
#
#
# Convention : Reuss Voigt Hill
#
# Bulk Modulus (GPa) = 10.27588 29.67070 19.97329
# Shear Modulus (GPa) = 16.79083 26.61113 21.70098
#
# Velocity S-wave (km/s) = 2.97037 3.73944 3.37687
# Velocity P-wave (km/s) = 4.14292 5.85112 5.06949
#
# Compressibility (1/GPa) = 0.09731531
#
# Stress axis : x y z
#
# Youngs Moduli (GPa) = 32.44637 47.90297 22.07633
#
# Poissons Ratio (x) = 0.70133 -0.24970
# Poissons Ratio (y) = 0.47504 -0.07707
# Poissons Ratio (z) = -0.36699 -0.16724
#
# Static dielectric constant tensor:
#      x y z
#    x 1.644900 0.000000 0.004060 
#    y 0.000000 1.649310 0.000000 
#    z 0.004060 0.000000 1.686530 
# 
# From -- ./inp_files/64550.got.cif
#   From: 2010.05.17/outbox.cif.g08.bks.cpg/sg5_33_cif.got.tgz:64550.got - 2010.06.03 18:56:24.
