data_PCOD9124314
_publ_section_title
;
Structure prediction by ZEFSAII (Michael W. Deem and Ramdas Pophale) SiO2 
 PCOD9124314
Probable space group: C 2
;
_chemical_formula_sum "Si O2"
_cell_formula_units_Z 28
_cell_length_a 9.724725
_cell_length_b 19.584775
_cell_length_c 6.568007
_cell_angle_alpha 90.000000
_cell_angle_beta 69.872321
_cell_angle_gamma 90.000000
_cell_volume 1174.523932
_symmetry_space_group_name_H-M "C 2"
_symmetry_group_IT_number 5
_symmetry_cell_setting 'monoclinic'
loop_
_space_group_symop_operation_xyz
x,y,z
-x,y,-z
1/2+x,1/2+y,z
1/2-x,1/2+y,-z
loop_
_atom_site_type_symbol
_atom_site_label
_atom_site_fract_x
_atom_site_fract_y
_atom_site_fract_z
Si Si1 0.205414 0.843500 0.069179
Si Si2 0.213611 0.085461 0.242261
Si Si3 0.618110 0.330085 0.642627
Si Si4 0.500000 0.754847 0.000000
Si Si5 0.763902 0.976428 0.403349
Si Si6 0.863560 0.479464 0.936356
Si Si7 0.000000 0.046839 0.000000
Si Si8 0.855972 0.219998 0.466134
O O1 0.059137 0.827527 0.276691
O O2 0.155442 0.828054 0.865333
O O3 0.359319 0.802705 0.016616
O O4 0.240926 0.923958 0.062683
O O5 0.197061 0.156435 0.370237
O O6 0.079318 0.081726 0.152430
O O7 0.231872 0.029806 0.414319
O O8 0.336331 0.057559 0.022554
O O9 0.689449 0.402301 0.542834
O O10 0.718209 0.268952 0.511153
O O11 0.575669 0.707732 0.790441
O O12 0.628590 0.974520 0.312116
O O13 0.884926 0.001247 0.180464
O O14 0.000000 0.456137 0.000000
O O15 0.000000 0.253078 0.500000
#
# Coordination Sequence:
#
# PCOD9124314 Si02
#       8
#     4   4   4   2   4   4   2   4
#     4  10  21  44  75 107 150 195 258 326 384 458
#     4  11  25  44  71 108 151 201 257 316 389 471
#     4  10  22  44  73 110 147 200 261 321 387 467
#     4  12  26  45  70 106 147 204 258 324 384 451
#     4  10  21  40  70 105 143 189 257 317 378 452
#     4  10  22  42  71 110 151 200 258 326 389 455
#     4  10  20  43  74 104 139 182 250 318 388 457
#     4  12  27  47  69 107 153 206 263 318 392 466
#
# _framework density 23.839447
#
# number of rings (size 3 to 8) (size 9 to 14) (size 15 to 20)
#    0.000    1.429    2.143    3.857    2.000    4.571 
#    2.571    1.429    0.000    0.000    0.000    0.000 
#    0.000    0.000    0.000    0.000    0.000    0.000 
#
# Total GULP energy -78041.088253 kJ/mol
# GULP energy per Si atom -5574.363447 kJ/mol
# Density = 2.378519 g / cm^3
# Si number density = 23.839447 Si / 1000 Ang^3
#
#
#
# Elastic Constant Matrix: (Units=GPa)
#
#
# Indices 1 2 3 4 5 6 
#
# 1 178.4259 73.7737 52.5586 0.0000 17.6244 0.0000
# 2 73.7737 124.6237 46.5575 0.0000 9.2640 0.0000
# 3 52.5586 46.5575 126.7747 0.0000 3.5065 0.0000
# 4 0.0000 0.0000 0.0000 34.0257 0.0000 3.6610
# 5 17.6244 9.2640 3.5065 0.0000 53.5094 0.0000
# 6 0.0000 0.0000 0.0000 3.6610 0.0000 -20.1678
#
#
#
# Elastic Compliance Matrix: (Units=1/GPa)
#
#
# Indices 1 2 3 4 5 6 
#
# 1 0.007920 -0.003878 -0.001809 0.000000 -0.001819 0.000000
# 2 -0.003878 0.011303 -0.002529 0.000000 -0.000514 0.000000
# 3 -0.001809 -0.002529 0.009556 0.000000 0.000408 0.000000
# 4 0.000000 0.000000 0.000000 0.028827 0.000000 0.005233
# 5 -0.001819 -0.000514 0.000408 0.000000 0.019350 0.000000
# 6 0.000000 0.000000 0.000000 0.005233 0.000000 -0.048634
#
#
# Mechanical properties :
#
#
# Convention : Reuss Voigt Hill
#
# Bulk Modulus (GPa) = 80.99280 86.17820 83.58550
# Shear Modulus (GPa) = 102.31606 30.60243 66.45924
#
# Velocity S-wave (km/s) = 6.55835 3.58675 5.28568
# Velocity P-wave (km/s) = 9.56020 7.30622 8.50818
#
# Compressibility (1/GPa) = 0.01234678
#
# Stress axis : x y z
#
# Youngs Moduli (GPa) = 126.25545 88.47552 104.65007
#
# Poissons Ratio (x) = 0.34307 0.18935
# Poissons Ratio (y) = 0.48956 0.26467
# Poissons Ratio (z) = 0.22844 0.22376
#
# Static dielectric constant tensor:
#      x y z
#    x 2.026810 0.000000 0.053510 
#    y 0.000000 1.888900 0.000000 
#    z 0.053510 0.000000 2.084830 
# 
# From -- ./inp_files/5645.got.cif
#   From: 2010.05.17/outbox.cif.g08.bks.cpg/sg5_3_cif.got.tgz:5645.got - 2010.06.03 18:56:24.
