data_PCOD9124335
_publ_section_title
;
Structure prediction by ZEFSAII (Michael W. Deem and Ramdas Pophale) SiO2 
 PCOD9124335
Probable space group: C 2
;
_chemical_formula_sum "Si O2"
_cell_formula_units_Z 30
_cell_length_a 14.770358
_cell_length_b 10.709204
_cell_length_c 8.602589
_cell_angle_alpha 90.000000
_cell_angle_beta 87.558473
_cell_angle_gamma 90.000000
_cell_volume 1359.511744
_symmetry_space_group_name_H-M "C 2"
_symmetry_group_IT_number 5
_symmetry_cell_setting 'monoclinic'
loop_
_space_group_symop_operation_xyz
x,y,z
-x,y,-z
1/2+x,1/2+y,z
1/2-x,1/2+y,-z
loop_
_atom_site_type_symbol
_atom_site_label
_atom_site_fract_x
_atom_site_fract_y
_atom_site_fract_z
Si Si1 0.748335 0.224750 0.816739
Si Si2 0.393995 0.375761 0.038395
Si Si3 0.847567 0.546214 0.364442
Si Si4 0.000000 0.713139 0.500000
Si Si5 0.544226 0.871876 0.834499
Si Si6 0.845900 0.732862 0.743998
Si Si7 0.834627 0.145541 0.136499
Si Si8 0.870193 0.450148 0.699604
O O1 0.738711 0.129490 0.675421
O O2 0.803247 0.351204 0.782152
O O3 0.644294 0.263207 0.855727
O O4 0.790234 0.168245 0.969845
O O5 0.350305 0.338512 0.875478
O O6 0.500000 0.376730 0.000000
O O7 0.362811 0.501739 0.125963
O O8 0.871170 0.456343 0.220187
O O9 0.836942 0.472793 0.526669
O O10 0.937648 0.627303 0.394461
O O11 0.080978 0.775237 0.392257
O O12 0.577899 0.731404 0.850987
O O13 0.468567 0.888439 0.708334
O O14 0.500000 0.912042 0.000000
O O15 0.739294 0.697299 0.733282
O O16 0.876642 0.588253 0.777635
#
# Coordination Sequence:
#
# PCOD9124335 Si02
#       8
#     4   4   4   2   4   4   4   4
#     4  11  25  42  67 102 141 181 235 296 353 424
#     4  11  24  40  64 101 141 178 233 286 360 416
#     4  11  24  40  72 100 139 176 240 296 352 415
#     4  10  20  44  66 104 130 180 240 288 344 414
#     4  12  24  41  75 100 140 183 241 295 347 422
#     4  10  22  41  70  97 141 177 239 289 342 427
#     4  11  25  42  66 110 140 184 229 299 360 416
#     4  11  23  48  68 105 134 189 240 290 358 428
#
# _framework density 22.066745000000001
#
# number of rings (size 3 to 8) (size 9 to 14) (size 15 to 20)
#    0.000    1.067    5.333    1.200    7.467    2.133 
#    0.000    0.000    0.000    0.000    0.000    0.000 
#    0.000    0.000    0.000    0.000    0.000    0.000 
#
# Total GULP energy -83594.080802 kJ/mol
# GULP energy per Si atom -5572.938720 kJ/mol
# Density = 2.201652 g / cm^3
# Si number density = 22.066745 Si / 1000 Ang^3
#
#
#
# Elastic Constant Matrix: (Units=GPa)
#
#
# Indices 1 2 3 4 5 6 
#
# 1 61.9439 -4.3212 -13.9756 0.0000 1.7076 0.0000
# 2 -4.3212 41.1006 1.2686 0.0000 19.7445 0.0000
# 3 -13.9756 1.2686 52.7739 0.0000 -3.1059 0.0000
# 4 0.0000 0.0000 0.0000 25.9747 0.0000 5.8190
# 5 1.7076 19.7445 -3.1059 0.0000 30.4251 0.0000
# 6 0.0000 0.0000 0.0000 5.8190 0.0000 28.8617
#
#
#
# Elastic Compliance Matrix: (Units=1/GPa)
#
#
# Indices 1 2 3 4 5 6 
#
# 1 0.017399 0.002829 0.004401 0.000000 -0.002363 0.000000
# 2 0.002829 0.036070 -0.001514 0.000000 -0.023721 0.000000
# 3 0.004401 -0.001514 0.020316 0.000000 0.002809 0.000000
# 4 0.000000 0.000000 0.000000 0.040320 0.000000 -0.008129
# 5 -0.002363 -0.023721 0.002809 0.000000 0.048681 0.000000
# 6 0.000000 0.000000 0.000000 -0.008129 0.000000 0.036287
#
#
# Mechanical properties :
#
#
# Convention : Reuss Voigt Hill
#
# Bulk Modulus (GPa) = 11.73498 13.52910 12.63204
# Shear Modulus (GPa) = 23.14299 28.57542 25.85920
#
# Velocity S-wave (km/s) = 3.24199 3.60245 3.42696
# Velocity P-wave (km/s) = 4.39812 4.84230 4.62554
#
# Compressibility (1/GPa) = 0.08521530
#
# Stress axis : x y z
#
# Youngs Moduli (GPa) = 57.47477 27.72363 49.22262
#
# Poissons Ratio (x) = -0.07842 -0.21661
# Poissons Ratio (y) = -0.16257 0.07453
# Poissons Ratio (z) = -0.25292 0.04197
#
# Static dielectric constant tensor:
#      x y z
#    x 1.838340 0.000000 -0.042310 
#    y 0.000000 1.793820 0.000000 
#    z -0.042310 0.000000 1.866880 
# 
# From -- ./inp_files/23653.got.cif
#   From: 2010.05.17/outbox.cif.g08.bks.cpg/sg5_12_cif.got.tgz:23653.got - 2010.06.03 18:56:24.
