data_PCOD9124262
_publ_section_title
;
Structure prediction by ZEFSAII (Michael W. Deem and Ramdas Pophale) SiO2 
 PCOD9124262
Probable space group: C 2
;
_chemical_formula_sum "Si O2"
_cell_formula_units_Z 20
_cell_length_a 7.648699
_cell_length_b 17.134648
_cell_length_c 8.927617
_cell_angle_alpha 90.000000
_cell_angle_beta 62.923986
_cell_angle_gamma 90.000000
_cell_volume 1041.801873
_symmetry_space_group_name_H-M "C 2"
_symmetry_group_IT_number 5
_symmetry_cell_setting 'monoclinic'
loop_
_space_group_symop_operation_xyz
x,y,z
-x,y,-z
1/2+x,1/2+y,z
1/2-x,1/2+y,-z
loop_
_atom_site_type_symbol
_atom_site_label
_atom_site_fract_x
_atom_site_fract_y
_atom_site_fract_z
Si Si1 0.350810 0.193820 0.859290
Si Si2 0.989863 0.215567 0.230674
Si Si3 0.000000 0.098250 0.500000
Si Si4 0.923418 0.386745 0.857234
Si Si5 0.565934 0.044485 0.648350
Si Si6 0.500000 0.324531 0.000000
O O1 0.223899 0.208250 0.760707
O O2 0.473134 0.115775 0.781398
O O3 0.488547 0.264479 0.862991
O O4 0.173218 0.192823 0.050469
O O5 0.003788 0.156090 0.358712
O O6 0.010459 0.307493 0.251685
O O7 0.800792 0.049393 0.568156
O O8 0.993635 0.464103 0.748839
O O9 0.689072 0.378373 0.942959
O O10 0.000000 0.382675 0.000000
O O11 0.500000 0.050850 0.500000
#
# Coordination Sequence:
#
# PCOD9124262 Si02
#       6
#     4   4   2   4   4   2
#     4  10  20  44  70  96 122 171 227 260 316 396
#     4  10  21  44  72  96 124 171 224 263 322 389
#     4  12  26  44  68  94 136 174 214 276 322 380
#     4  11  24  42  66  97 132 169 220 267 324 387
#     4  12  27  43  61  99 137 170 216 270 328 380
#     4  10  20  42  74  96 120 172 226 264 318 384
#
# _framework density 19.197507999999999
#
# number of rings (size 3 to 8) (size 9 to 14) (size 15 to 20)
#    0.000    1.200    6.000    2.400    5.600    3.200 
#    0.000    0.000    0.000    0.000    0.000    0.000 
#    0.000    0.000    0.000    0.000    0.000    0.000 
#
# Total GULP energy -55798.520325 kJ/mol
# GULP energy per Si atom -5579.852032 kJ/mol
# Density = 1.915381 g / cm^3
# Si number density = 19.197508 Si / 1000 Ang^3
#
#
#
# Elastic Constant Matrix: (Units=GPa)
#
#
# Indices 1 2 3 4 5 6 
#
# 1 183.4347 68.2945 46.0822 0.0000 -15.0226 0.0000
# 2 68.2945 147.6367 70.1051 0.0000 -26.2901 0.0000
# 3 46.0822 70.1051 47.1031 0.0000 -2.0116 0.0000
# 4 0.0000 0.0000 0.0000 34.2885 0.0000 2.5064
# 5 -15.0226 -26.2901 -2.0116 0.0000 31.7307 0.0000
# 6 0.0000 0.0000 0.0000 2.5064 0.0000 22.7844
#
#
#
# Elastic Compliance Matrix: (Units=1/GPa)
#
#
# Indices 1 2 3 4 5 6 
#
# 1 0.007739 0.002931 -0.011705 0.000000 0.005350 0.000000
# 2 0.002931 0.039355 -0.060152 0.000000 0.030182 0.000000
# 3 -0.011705 -0.060152 0.120168 0.000000 -0.047762 0.000000
# 4 0.000000 0.000000 0.000000 0.029401 0.000000 -0.003234
# 5 0.005350 0.030182 -0.047762 0.000000 0.056027 0.000000
# 6 0.000000 0.000000 0.000000 -0.003234 0.000000 0.044246
#
#
# Mechanical properties :
#
#
# Convention : Reuss Voigt Hill
#
# Bulk Modulus (GPa) = 34.00212 83.01535 58.50873
# Shear Modulus (GPa) = 11.24629 30.67354 20.95992
#
# Velocity S-wave (km/s) = 2.42300 4.00157 3.30783
# Velocity P-wave (km/s) = 5.05748 8.04281 6.71807
#
# Compressibility (1/GPa) = 0.02940993
#
# Stress axis : x y z
#
# Youngs Moduli (GPa) = 129.21603 25.40946 8.32169
#
# Poissons Ratio (x) = -0.07447 0.09740
# Poissons Ratio (y) = -0.37869 0.50057
# Poissons Ratio (z) = 1.51243 1.52844
#
# Static dielectric constant tensor:
#      x y z
#    x 1.694190 0.000000 -0.003040 
#    y 0.000000 1.633780 0.000000 
#    z -0.003040 0.000000 1.685970 
# 
# From -- ./inp_files/15581.got.cif
#   From: 2010.05.17/outbox.cif.g08.bks.cpg/sg5_8_cif.got.tgz:15581.got - 2010.06.03 18:56:24.
