data_PCOD9124234
_publ_section_title
;
Structure prediction by ZEFSAII (Michael W. Deem and Ramdas Pophale) SiO2 
 PCOD9124234
Probable space group: C 2
;
_chemical_formula_sum "Si O2"
_cell_formula_units_Z 24
_cell_length_a 15.840774
_cell_length_b 10.208060
_cell_length_c 9.860946
_cell_angle_alpha 90.000000
_cell_angle_beta 145.622318
_cell_angle_gamma 90.000000
_cell_volume 900.355683
_symmetry_space_group_name_H-M "C 2"
_symmetry_group_IT_number 5
_symmetry_cell_setting 'monoclinic'
loop_
_space_group_symop_operation_xyz
x,y,z
-x,y,-z
1/2+x,1/2+y,z
1/2-x,1/2+y,-z
loop_
_atom_site_type_symbol
_atom_site_label
_atom_site_fract_x
_atom_site_fract_y
_atom_site_fract_z
Si Si1 0.162235 0.962450 0.656828
Si Si2 0.619215 0.779771 0.748894
Si Si3 0.416484 0.058768 0.189182
Si Si4 0.861591 0.471494 0.707803
Si Si5 0.757101 0.182034 0.823211
Si Si6 0.177452 0.895911 0.210655
O O1 0.224896 0.815842 0.703180
O O2 0.000000 0.944758 0.500000
O O3 0.221614 0.033811 0.602123
O O4 0.263050 0.025404 0.908169
O O5 0.500000 0.705521 0.500000
O O6 0.553159 0.921955 0.697410
O O7 0.760906 0.812659 0.838487
O O8 0.623796 0.715741 0.902511
O O9 0.547692 0.080327 0.258575
O O10 0.381237 0.161445 0.256358
O O11 0.780304 0.382290 0.483181
O O12 0.000000 0.431339 0.000000
O O13 0.797681 0.049436 0.800903
O O14 0.000000 0.874072 0.000000
#
# Coordination Sequence:
#
# PCOD9124234 Si02
#       6
#     4   4   4   4   4   4
#     4  10  23  39  69  94 132 175 230 283 336 395
#     4  10  20  42  70  96 139 182 221 281 350 410
#     4   9  20  41  64  91 135 178 221 270 345 404
#     4  10  22  43  67  95 137 185 223 274 345 406
#     4  10  24  40  69 101 134 175 234 278 343 409
#     4  11  25  44  71 102 142 180 229 287 344 404
#
# _framework density 26.656130999999998
#
# number of rings (size 3 to 8) (size 9 to 14) (size 15 to 20)
#    0.000    2.000    1.667    0.000    9.333    4.000 
#    3.000    2.500    0.000    0.000    0.000    0.000 
#    0.000    0.000    0.000    0.000    0.000    0.000 
#
# Total GULP energy -66908.738409 kJ/mol
# GULP energy per Si atom -5575.728201 kJ/mol
# Density = 2.659546 g / cm^3
# Si number density = 26.656131 Si / 1000 Ang^3
#
#
#
# Elastic Constant Matrix: (Units=GPa)
#
#
# Indices 1 2 3 4 5 6 
#
# 1 156.9955 -0.9880 59.9215 0.0000 38.1998 0.0000
# 2 -0.9880 86.9630 5.7304 0.0000 -6.9698 0.0000
# 3 59.9215 5.7304 167.4945 0.0000 2.3801 0.0000
# 4 0.0000 0.0000 0.0000 3.8529 0.0000 -8.7634
# 5 38.1998 -6.9698 2.3801 0.0000 68.5772 0.0000
# 6 0.0000 0.0000 0.0000 -8.7634 0.0000 19.0270
#
#
#
# Elastic Compliance Matrix: (Units=1/GPa)
#
#
# Indices 1 2 3 4 5 6 
#
# 1 0.008681 -0.000081 -0.003035 0.000000 -0.004738 0.000000
# 2 -0.000081 0.011623 -0.000386 0.000000 0.001240 0.000000
# 3 -0.003035 -0.000386 0.007049 0.000000 0.001407 0.000000
# 4 0.000000 0.000000 0.000000 -5.452626 0.000000 -2.511366
# 5 -0.004738 0.001240 0.001407 0.000000 0.017299 0.000000
# 6 0.000000 0.000000 0.000000 -2.511366 0.000000 -1.104126
#
#
# Mechanical properties :
#
#
# Convention : Reuss Voigt Hill
#
# Bulk Modulus (GPa) = 49.14591 60.08676 54.61633
# Shear Modulus (GPa) = -0.76943 41.41069 20.32063
#
# Velocity S-wave (km/s) = -0.53784 3.94574 2.76402
# Velocity P-wave (km/s) = 4.25339 6.58399 5.54257
#
# Compressibility (1/GPa) = 0.02034757
#
# Stress axis : x y z
#
# Youngs Moduli (GPa) = 115.20038 86.03593 141.85449
#
# Poissons Ratio (x) = 0.00698 0.43058
# Poissons Ratio (y) = 0.00935 0.05479
# Poissons Ratio (z) = 0.34968 0.03323
#
# Static dielectric constant tensor:
#      x y z
#    x 2.122150 0.000000 -0.021300 
#    y 0.000000 2.129610 0.000000 
#    z -0.021300 0.000000 2.494480 
# 
# From -- ./inp_files/44736.got.cif
#   From: 2010.05.17/outbox.cif.g08.bks.cpg/sg5_23_cif.got.tgz:44736.got - 2010.06.03 18:56:24.
