data_PCOD9124332
_publ_section_title
;
Structure prediction by ZEFSAII (Michael W. Deem and Ramdas Pophale) SiO2 
 PCOD9124332
Probable space group: C 2
;
_chemical_formula_sum "Si O2"
_cell_formula_units_Z 30
_cell_length_a 11.925080
_cell_length_b 8.151549
_cell_length_c 30.279814
_cell_angle_alpha 90.000000
_cell_angle_beta 31.038396
_cell_angle_gamma 90.000000
_cell_volume 1517.672213
_symmetry_space_group_name_H-M "C 2"
_symmetry_group_IT_number 5
_symmetry_cell_setting 'monoclinic'
loop_
_space_group_symop_operation_xyz
x,y,z
-x,y,-z
1/2+x,1/2+y,z
1/2-x,1/2+y,-z
loop_
_atom_site_type_symbol
_atom_site_label
_atom_site_fract_x
_atom_site_fract_y
_atom_site_fract_z
Si Si1 0.337893 0.742670 0.232225
Si Si2 0.874002 0.894915 0.172052
Si Si3 0.500000 0.219297 0.500000
Si Si4 0.384541 0.032815 0.621758
Si Si5 0.190665 0.880578 0.908181
Si Si6 0.579661 0.938664 0.648141
Si Si7 0.504827 0.290344 0.276578
Si Si8 0.266833 0.764560 0.096240
O O1 0.371948 0.583348 0.189400
O O2 0.247993 0.677916 0.309055
O O3 0.571841 0.814644 0.162112
O O4 0.155050 0.846037 0.267555
O O5 0.881756 0.874510 0.117717
O O6 0.634255 0.834701 0.266700
O O7 0.075508 0.815094 0.128041
O O8 0.521841 0.102408 0.535014
O O9 0.295942 0.335308 0.578608
O O10 0.537103 0.976135 0.610733
O O11 0.205886 0.899612 0.665045
O O12 0.207583 0.070462 0.914634
O O13 0.000000 0.796051 0.000000
O O14 0.572969 0.105871 0.680862
O O15 0.667528 0.297027 0.179023
O O16 0.500000 0.834683 0.000000
#
# Coordination Sequence:
#
# PCOD9124332 Si02
#       8
#     4   4   2   4   4   4   4   4
#     4  10  22  40  62  88 125 165 205 255 311 370
#     4  10  21  43  62  85 133 164 203 260 311 362
#     4  12  26  40  68  96 118 156 220 254 304 394
#     4  10  23  43  63  93 121 160 208 256 314 376
#     4  11  24  36  57  93 127 166 213 256 303 364
#     4  10  23  43  65  89 129 164 198 264 317 364
#     4  10  20  44  65  87 131 168 198 256 318 362
#     4  11  22  39  65  93 125 168 213 252 301 369
#
# _framework density 19.767112999999998
#
# number of rings (size 3 to 8) (size 9 to 14) (size 15 to 20)
#    0.000    1.867    5.333    0.800    1.867    6.400 
#    0.000    0.000    0.000    0.000    0.000    0.000 
#    0.000    0.000    0.000    0.000    0.000    0.000 
#
# Total GULP energy -83563.801400 kJ/mol
# GULP energy per Si atom -5570.920093 kJ/mol
# Density = 1.972212 g / cm^3
# Si number density = 19.767113 Si / 1000 Ang^3
#
#
#
# Elastic Constant Matrix: (Units=GPa)
#
#
# Indices 1 2 3 4 5 6 
#
# 1 149.1482 24.3868 72.2543 0.0002 19.1893 -0.0019
# 2 24.3868 32.4114 18.0036 -0.0003 -3.9646 0.0004
# 3 72.2543 18.0036 89.5331 0.0012 23.5823 -0.0048
# 4 0.0002 -0.0003 0.0012 26.2982 -0.0004 -4.4369
# 5 19.1893 -3.9646 23.5823 -0.0004 44.0372 -0.0007
# 6 -0.0019 0.0004 -0.0048 -4.4369 -0.0007 7.5591
#
#
#
# Elastic Compliance Matrix: (Units=1/GPa)
#
#
# Indices 1 2 3 4 5 6 
#
# 1 0.011470 -0.004237 -0.008135 0.000000 -0.001023 -0.000002
# 2 -0.004237 0.038896 -0.006765 0.000000 0.008971 -0.000007
# 3 -0.008135 -0.006765 0.021330 0.000001 -0.008486 0.000012
# 4 0.000000 0.000000 0.000001 0.042205 0.000000 0.024773
# 5 -0.001023 0.008971 -0.008486 0.000000 0.028506 -0.000004
# 6 -0.000002 -0.000007 0.000012 0.024773 -0.000004 0.146832
#
#
# Mechanical properties :
#
#
# Convention : Reuss Voigt Hill
#
# Bulk Modulus (GPa) = 29.92012 55.59803 42.75907
# Shear Modulus (GPa) = 14.76433 26.00875 20.38654
#
# Velocity S-wave (km/s) = 2.73594 3.63127 3.21493
# Velocity P-wave (km/s) = 5.01494 6.76529 5.95478
#
# Compressibility (1/GPa) = 0.03342232
#
# Stress axis : x y z
#
# Youngs Moduli (GPa) = 87.18302 25.70942 46.88264
#
# Poissons Ratio (x) = 0.10892 0.38140
# Poissons Ratio (y) = 0.36936 0.31717
# Poissons Ratio (z) = 0.70925 0.17393
#
# Static dielectric constant tensor:
#      x y z
#    x 1.699310 0.000000 0.001350 
#    y 0.000000 1.722420 0.000000 
#    z 0.001350 0.000000 1.746340 
# 
# From -- ./inp_files/71700.got.cif
#   From: 2010.05.17/outbox.cif.g08.bks.cpg/sg5_36_cif.got.tgz:71700.got - 2010.06.03 18:56:24.
