data_PCOD9124268
_publ_section_title
;
Structure prediction by ZEFSAII (Michael W. Deem and Ramdas Pophale) SiO2 
 PCOD9124268
Probable space group: C 2
;
_chemical_formula_sum "Si O2"
_cell_formula_units_Z 22
_cell_length_a 14.961293
_cell_length_b 8.863580
_cell_length_c 19.065598
_cell_angle_alpha 90.000000
_cell_angle_beta 159.462763
_cell_angle_gamma 90.000000
_cell_volume 886.968493
_symmetry_space_group_name_H-M "C 2"
_symmetry_group_IT_number 5
_symmetry_cell_setting 'monoclinic'
loop_
_space_group_symop_operation_xyz
x,y,z
-x,y,-z
1/2+x,1/2+y,z
1/2-x,1/2+y,-z
loop_
_atom_site_type_symbol
_atom_site_label
_atom_site_fract_x
_atom_site_fract_y
_atom_site_fract_z
Si Si1 0.345478 0.642890 0.272810
Si Si2 0.371269 0.247352 0.657544
Si Si3 0.883731 0.576354 0.522972
Si Si4 0.110809 0.791972 0.974102
Si Si5 0.500000 0.866431 0.000000
Si Si6 0.905988 0.114802 0.825054
O O1 0.628917 0.653044 0.508436
O O2 0.143733 0.726560 0.174708
O O3 0.328055 0.725488 0.183826
O O4 0.241154 0.475874 0.184199
O O5 0.258132 0.417073 0.567764
O O6 0.424926 0.173131 0.622532
O O7 0.587188 0.244440 0.875904
O O8 0.705156 0.652083 0.332804
O O9 0.159024 0.557539 0.688601
O O10 0.094580 0.972515 0.963521
O O11 0.508729 0.759903 0.939644
#
# Coordination Sequence:
#
# PCOD9124268 Si02
#       6
#     4   4   4   4   2   4
#     4  10  21  38  63  95 122 163 209 253 307 375
#     4  11  22  41  61  95 126 163 204 262 309 366
#     4  10  24  39  65  89 126 164 208 251 317 365
#     4   9  19  40  67  86 119 170 207 244 314 369
#     4  10  22  36  64  94 122 160 212 258 300 362
#     4  10  20  43  61  90 122 167 207 252 308 379
#
# _framework density 24.803587
#
# number of rings (size 3 to 8) (size 9 to 14) (size 15 to 20)
#    0.000    2.182    1.818    1.636    2.545    2.909 
#    9.818    0.000    0.000    0.000    0.000    0.000 
#    0.000    0.000    0.000    0.000    0.000    0.000 
#
# Total GULP energy -61632.306910 kJ/mol
# GULP energy per Si atom -5602.936992 kJ/mol
# Density = 2.474713 g / cm^3
# Si number density = 24.803587 Si / 1000 Ang^3
#
#
#
# Elastic Constant Matrix: (Units=GPa)
#
#
# Indices 1 2 3 4 5 6 
#
# 1 121.5461 31.5658 31.3274 -0.0236 -38.1295 -0.0005
# 2 31.5658 132.6176 45.0438 -0.0465 -35.8754 -0.0130
# 3 31.3274 45.0438 101.8186 -0.0611 -33.3555 -0.0180
# 4 -0.0236 -0.0465 -0.0611 37.4733 -0.0139 -10.1720
# 5 -38.1295 -35.8754 -33.3555 -0.0139 51.6086 -0.0036
# 6 -0.0005 -0.0130 -0.0180 -10.1720 -0.0036 28.9621
#
#
#
# Elastic Compliance Matrix: (Units=1/GPa)
#
#
# Indices 1 2 3 4 5 6 
#
# 1 0.010786 -0.000344 -0.000805 0.000009 0.007210 0.000003
# 2 -0.000344 0.009841 -0.002651 0.000011 0.004874 0.000007
# 3 -0.000805 -0.002651 0.013249 0.000025 0.006125 0.000016
# 4 0.000009 0.000011 0.000025 0.029498 0.000039 0.010360
# 5 0.007210 0.004874 0.006125 0.000039 0.032050 0.000024
# 6 0.000003 0.000007 0.000016 0.010360 0.000024 0.038167
#
#
# Mechanical properties :
#
#
# Convention : Reuss Voigt Hill
#
# Bulk Modulus (GPa) = 38.05708 63.53958 50.79833
# Shear Modulus (GPa) = 33.34492 40.14516 36.74504
#
# Velocity S-wave (km/s) = 3.67053 4.02745 3.85312
# Velocity P-wave (km/s) = 5.77411 6.87749 6.34981
#
# Compressibility (1/GPa) = 0.02627632
#
# Stress axis : x y z
#
# Youngs Moduli (GPa) = 92.71546 101.61368 75.48016
#
# Poissons Ratio (x) = 0.03491 0.06073
# Poissons Ratio (y) = 0.03185 0.20013
# Poissons Ratio (z) = 0.07460 0.26942
#
# Static dielectric constant tensor:
#      x y z
#    x 2.010800 0.000000 0.045230 
#    y 0.000000 1.915940 0.000000 
#    z 0.045230 0.000000 1.953280 
# 
# From -- ./inp_files/22729.got.cif
#   From: 2010.05.17/outbox.cif.g08.bks.cpg/sg5_12_cif.got.tgz:22729.got - 2010.06.03 18:56:24.
