data_PCOD9124342
_publ_section_title
;
Structure prediction by ZEFSAII (Michael W. Deem and Ramdas Pophale) SiO2 
 PCOD9124342
Probable space group: C 2
;
_chemical_formula_sum "Si O2"
_cell_formula_units_Z 30
_cell_length_a 26.557149
_cell_length_b 8.449990
_cell_length_c 14.682362
_cell_angle_alpha 90.000000
_cell_angle_beta 23.827273
_cell_angle_gamma 90.000000
_cell_volume 1331.049696
_symmetry_space_group_name_H-M "C 2"
_symmetry_group_IT_number 5
_symmetry_cell_setting 'monoclinic'
loop_
_space_group_symop_operation_xyz
x,y,z
-x,y,-z
1/2+x,1/2+y,z
1/2-x,1/2+y,-z
loop_
_atom_site_type_symbol
_atom_site_label
_atom_site_fract_x
_atom_site_fract_y
_atom_site_fract_z
Si Si1 0.711262 0.647600 0.649991
Si Si2 0.022741 0.805884 0.564835
Si Si3 0.306637 0.225213 0.206760
Si Si4 0.309188 0.040885 0.659305
Si Si5 0.859880 0.498089 0.268851
Si Si6 0.258554 0.891493 0.931974
Si Si7 0.000000 0.914454 0.000000
Si Si8 0.770755 0.057906 0.838216
O O1 0.708883 0.635185 0.763353
O O2 0.840450 0.577744 0.398679
O O3 0.688390 0.821243 0.653581
O O4 0.606791 0.528595 0.785855
O O5 0.877065 0.948036 0.615898
O O6 0.890933 0.866638 0.818666
O O7 0.000000 0.746160 0.500000
O O8 0.074630 0.659009 0.536049
O O9 0.204297 0.363066 0.359013
O O10 0.279146 0.105788 0.333870
O O11 0.431665 0.312364 0.035440
O O12 0.314570 0.123925 0.101876
O O13 0.284229 0.012151 0.807345
O O14 0.000000 0.496282 0.000000
O O15 0.291625 0.957885 0.976924
O O16 0.317633 0.720332 0.809973
#
# Coordination Sequence:
#
# PCOD9124342 Si02
#       8
#     4   4   4   4   4   4   2   4
#     4  11  24  44  70 100 139 180 234 291 342 420
#     4  10  21  41  66  96 132 179 224 275 344 403
#     4  10  22  42  67  97 140 176 228 284 340 409
#     4  10  22  43  66  99 133 174 225 276 341 409
#     4  12  25  45  70 100 134 185 228 287 354 406
#     4  10  21  41  67  93 136 177 216 286 337 405
#     4  10  20  44  68 100 140 186 234 288 350 404
#     4  10  21  40  65 100 131 175 225 276 340 405
#
# _framework density 22.538602999999998
#
# number of rings (size 3 to 8) (size 9 to 14) (size 15 to 20)
#    0.000    1.600    1.333    4.000    0.000    2.133 
#    9.600   20.000    0.000    0.000    0.000    0.000 
#    0.000    0.000    0.000    0.000    0.000    0.000 
#
# Total GULP energy -83689.250110 kJ/mol
# GULP energy per Si atom -5579.283341 kJ/mol
# Density = 2.248730 g / cm^3
# Si number density = 22.538603 Si / 1000 Ang^3
#
#
#
# Elastic Constant Matrix: (Units=GPa)
#
#
# Indices 1 2 3 4 5 6 
#
# 1 104.4628 61.8667 15.0584 0.0000 -2.0573 0.0000
# 2 61.8667 147.9677 51.2858 0.0000 -8.1106 0.0000
# 3 15.0584 51.2858 82.5003 0.0000 1.7682 0.0000
# 4 0.0000 0.0000 0.0000 35.3393 0.0000 9.8693
# 5 -2.0573 -8.1106 1.7682 0.0000 21.9988 0.0000
# 6 0.0000 0.0000 0.0000 9.8693 0.0000 3.0599
#
#
#
# Elastic Compliance Matrix: (Units=1/GPa)
#
#
# Indices 1 2 3 4 5 6 
#
# 1 0.012851 -0.005898 0.001344 0.000000 -0.001081 0.000000
# 2 -0.005898 0.011618 -0.006236 0.000000 0.004233 0.000000
# 3 0.001344 -0.006236 0.015826 0.000000 -0.003446 0.000000
# 4 0.000000 0.000000 0.000000 0.285142 0.000000 -0.919687
# 5 -0.001081 0.004233 -0.003446 0.000000 0.047194 0.000000
# 6 0.000000 0.000000 0.000000 -0.919687 0.000000 3.293134
#
#
# Mechanical properties :
#
#
# Convention : Reuss Voigt Hill
#
# Bulk Modulus (GPa) = 53.43479 65.70585 59.57032
# Shear Modulus (GPa) = 1.35370 25.86092 13.60731
#
# Velocity S-wave (km/s) = 0.77583 3.39101 2.45976
# Velocity P-wave (km/s) = 4.95602 6.67442 5.87835
#
# Compressibility (1/GPa) = 0.01871440
#
# Stress axis : x y z
#
# Youngs Moduli (GPa) = 77.81574 86.07436 63.18540
#
# Poissons Ratio (x) = 0.50768 -0.08493
# Poissons Ratio (y) = 0.45897 0.39404
# Poissons Ratio (z) = -0.10459 0.53679
#
# Static dielectric constant tensor:
#      x y z
#    x 1.858730 0.000000 0.015800 
#    y 0.000000 1.855110 0.000000 
#    z 0.015800 0.000000 1.874640 
# 
# From -- ./inp_files/58067.got.cif
#   From: 2010.05.17/outbox.cif.g08.bks.cpg/sg5_30_cif.got.tgz:58067.got - 2010.06.03 18:56:24.
