data_PCOD9124273
_publ_section_title
;
Structure prediction by ZEFSAII (Michael W. Deem and Ramdas Pophale) SiO2 
 PCOD9124273
Probable space group: C 2
;
_chemical_formula_sum "Si O2"
_cell_formula_units_Z 24
_cell_length_a 29.654031
_cell_length_b 4.849209
_cell_length_c 16.398165
_cell_angle_alpha 90.000000
_cell_angle_beta 154.709323
_cell_angle_gamma 90.000000
_cell_volume 1007.377072
_symmetry_space_group_name_H-M "C 2"
_symmetry_group_IT_number 5
_symmetry_cell_setting 'monoclinic'
loop_
_space_group_symop_operation_xyz
x,y,z
-x,y,-z
1/2+x,1/2+y,z
1/2-x,1/2+y,-z
loop_
_atom_site_type_symbol
_atom_site_label
_atom_site_fract_x
_atom_site_fract_y
_atom_site_fract_z
Si Si1 0.192444 0.571470 0.368803
Si Si2 0.880144 0.083411 0.176139
Si Si3 0.218764 0.779724 0.236704
Si Si4 0.237361 0.575859 0.086939
Si Si5 0.491356 0.318375 0.828143
Si Si6 0.055851 0.323587 0.358689
O O1 0.220043 0.271388 0.447068
O O2 0.198201 0.586908 0.281168
O O3 0.081919 0.693574 0.221006
O O4 0.845088 0.122794 0.212084
O O5 0.849850 0.775186 0.098934
O O6 0.992971 0.199648 0.333067
O O7 0.798994 0.266523 0.990069
O O8 0.243864 0.633021 0.192547
O O9 0.327124 0.938509 0.433117
O O10 0.106357 0.927530 0.042068
O O11 0.436595 0.562464 0.689147
O O12 0.505694 0.061967 0.789651
#
# Coordination Sequence:
#
# PCOD9124273 Si02
#       6
#     4   4   4   4   4   4
#     4  12  25  46  67  97 135 173 220 278 328 387
#     4  10  20  43  62  99 133 170 211 284 317 387
#     4  12  25  43  74  97 131 183 220 268 337 401
#     4  10  22  38  70  93 132 172 222 261 338 385
#     4  12  25  46  64 103 130 176 218 280 325 390
#     4  12  24  42  71  95 140 166 227 272 326 392
#
# _framework density 23.824245999999999
#
# number of rings (size 3 to 8) (size 9 to 14) (size 15 to 20)
#    0.000    0.667    6.667    0.500    0.000    6.000 
#    0.000    3.333    0.000    8.000    0.000    0.000 
#    0.000    0.000    0.000    0.000    0.000    0.000 
#
# Total GULP energy -67093.639853 kJ/mol
# GULP energy per Si atom -5591.136654 kJ/mol
# Density = 2.377002 g / cm^3
# Si number density = 23.824246 Si / 1000 Ang^3
#
#
#
# Elastic Constant Matrix: (Units=GPa)
#
#
# Indices 1 2 3 4 5 6 
#
# 1 200.1590 -3.7648 37.4882 0.0000 6.0141 0.0000
# 2 -3.7648 54.4520 -11.0417 0.0002 2.9191 -0.0001
# 3 37.4882 -11.0417 99.1924 0.0000 27.3910 0.0000
# 4 0.0000 0.0002 0.0000 14.2227 0.0000 12.9070
# 5 6.0141 2.9191 27.3910 0.0000 50.6590 0.0000
# 6 0.0000 -0.0001 0.0000 12.9070 0.0000 21.2457
#
#
#
# Elastic Compliance Matrix: (Units=1/GPa)
#
#
# Indices 1 2 3 4 5 6 
#
# 1 0.005390 -0.000104 -0.002202 0.000000 0.000557 0.000000
# 2 -0.000104 0.019087 0.002897 -0.000001 -0.002654 0.000000
# 3 -0.002202 0.002897 0.013178 0.000000 -0.007031 0.000000
# 4 0.000000 -0.000001 0.000000 0.156702 0.000000 -0.095198
# 5 0.000557 -0.002654 -0.007031 0.000000 0.023628 0.000000
# 6 0.000000 0.000000 0.000000 -0.095198 0.000000 0.104902
#
#
# Mechanical properties :
#
#
# Convention : Reuss Voigt Hill
#
# Bulk Modulus (GPa) = 25.74927 44.35187 35.05057
# Shear Modulus (GPa) = 14.94094 39.30024 27.12059
#
# Velocity S-wave (km/s) = 2.50698 4.06592 3.37762
# Velocity P-wave (km/s) = 4.38308 6.37957 5.47313
#
# Compressibility (1/GPa) = 0.03883606
#
# Stress axis : x y z
#
# Youngs Moduli (GPa) = 185.53485 52.39085 75.88622
#
# Poissons Ratio (x) = 0.00544 0.16713
# Poissons Ratio (y) = 0.01926 -0.21983
# Poissons Ratio (z) = 0.40861 -0.15176
#
# Static dielectric constant tensor:
#      x y z
#    x 1.948110 0.000000 0.055760 
#    y 0.000000 1.813810 0.000000 
#    z 0.055760 0.000000 1.912330 
# 
# From -- ./inp_files/58012.got.cif
#   From: 2010.05.17/outbox.cif.g08.bks.cpg/sg5_30_cif.got.tgz:58012.got - 2010.06.03 18:56:24.
