data_PCOD9124488
_publ_section_title
;
Structure prediction by ZEFSAII (Michael W. Deem and Ramdas Pophale) SiO2 
 PCOD9124488
Probable space group: C 2
;
_chemical_formula_sum "Si O2"
_cell_formula_units_Z 24
_cell_length_a 11.658410
_cell_length_b 8.789380
_cell_length_c 12.023194
_cell_angle_alpha 90.000000
_cell_angle_beta 130.148180
_cell_angle_gamma 90.000000
_cell_volume 941.730084
_symmetry_space_group_name_H-M "C 2"
_symmetry_group_IT_number 5
_symmetry_cell_setting 'monoclinic'
loop_
_space_group_symop_operation_xyz
x,y,z
-x,y,-z
1/2+x,1/2+y,z
1/2-x,1/2+y,-z
loop_
_atom_site_type_symbol
_atom_site_label
_atom_site_fract_x
_atom_site_fract_y
_atom_site_fract_z
Si Si1 0.238010 0.293650 0.950820
Si Si2 0.557878 0.587653 0.695905
Si Si3 0.582467 0.244620 0.719025
Si Si4 0.564994 0.966070 0.309680
Si Si5 0.316752 0.684520 0.708639
Si Si6 0.500000 0.826725 0.500000
Si Si7 0.000000 0.985547 0.000000
O O1 0.095206 0.401735 0.836830
O O2 0.182863 0.131788 0.866076
O O3 0.286034 0.265785 0.107211
O O4 0.376720 0.374637 0.977236
O O5 0.540594 0.413033 0.659139
O O6 0.423928 0.915764 0.553904
O O7 0.392689 0.631805 0.641172
O O8 0.604792 0.704374 0.628721
O O9 0.654637 0.156987 0.659724
O O10 0.674697 0.868788 0.300606
O O11 0.547745 0.146719 0.304430
O O12 0.424384 0.596183 0.862203
#
# Coordination Sequence:
#
# PCOD9124488 Si02
#       7
#     4   4   4   4   4   2   2
#     4  10  21  35  60  94 126 160 200 255 314 372
#     4  10  22  41  62  89 129 164 209 261 306 369
#     4  12  21  38  65  93 123 164 206 256 322 378
#     4  10  22  39  62  90 126 165 209 258 306 369
#     4  10  21  38  59  88 124 165 198 255 312 366
#     4   8  20  44  62  86 128 166 206 268 304 348
#     4  12  18  36  64  92 132 168 204 254 326 376
#
# _framework density 25.485009999999999
#
# number of rings (size 3 to 8) (size 9 to 14) (size 15 to 20)
#    0.000    2.000    3.333    3.000    0.000    2.000 
#    0.000    6.667    0.000    0.000    0.000    0.000 
#    0.000    0.000    0.000    0.000    0.000    0.000 
#
# Total GULP energy -66987.804852 kJ/mol
# GULP energy per Si atom -5582.317071 kJ/mol
# Density = 2.542700 g / cm^3
# Si number density = 25.485010 Si / 1000 Ang^3
#
#
#
# Elastic Constant Matrix: (Units=GPa)
#
#
# Indices 1 2 3 4 5 6 
#
# 1 104.4032 19.6927 26.1094 0.0000 -11.8037 0.0000
# 2 19.6927 120.8309 23.2991 0.0000 -5.5948 0.0000
# 3 26.1094 23.2991 94.1063 0.0000 -7.8522 0.0000
# 4 0.0000 0.0000 0.0000 26.5258 0.0000 -8.2467
# 5 -11.8037 -5.5948 -7.8522 0.0000 20.1998 0.0000
# 6 0.0000 0.0000 0.0000 -8.2467 0.0000 30.4346
#
#
#
# Elastic Compliance Matrix: (Units=1/GPa)
#
#
# Indices 1 2 3 4 5 6 
#
# 1 0.010956 -0.001095 -0.002335 0.000000 0.005191 0.000000
# 2 -0.001095 0.008852 -0.001795 0.000000 0.001114 0.000000
# 3 -0.002335 -0.001795 0.011951 0.000000 0.002784 0.000000
# 4 0.000000 0.000000 0.000000 0.041167 0.000000 0.011155
# 5 0.005191 0.001114 0.002784 0.000000 0.053929 0.000000
# 6 0.000000 0.000000 0.000000 0.011155 0.000000 0.035880
#
#
# Mechanical properties :
#
#
# Convention : Reuss Voigt Hill
#
# Bulk Modulus (GPa) = 46.92988 50.83809 48.88399
# Shear Modulus (GPa) = 27.73339 32.11467 29.92403
#
# Velocity S-wave (km/s) = 3.30240 3.55370 3.43035
# Velocity P-wave (km/s) = 5.74420 6.06876 5.90871
#
# Compressibility (1/GPa) = 0.02130838
#
# Stress axis : x y z
#
# Youngs Moduli (GPa) = 91.27682 112.96670 83.67569
#
# Poissons Ratio (x) = 0.12368 0.19542
# Poissons Ratio (y) = 0.09993 0.15019
# Poissons Ratio (z) = 0.21317 0.20276
#
# Static dielectric constant tensor:
#      x y z
#    x 1.986340 0.000000 -0.002430 
#    y 0.000000 2.076700 0.000000 
#    z -0.002430 0.000000 2.135140 
# 
# From -- ./inp_files/41340.got.cif
#   From: 2010.05.17/outbox.cif.g08.bks.cpg/sg5_21_cif.got.tgz:41340.got - 2010.06.03 18:56:24.
