data_PCOD9124013
_publ_section_title
;
Structure prediction by ZEFSAII (Michael W. Deem and Ramdas Pophale) SiO2 
 PCOD9124013
Probable space group: C 2
;
_chemical_formula_sum "Si O2"
_cell_formula_units_Z 28
_cell_length_a 12.754790
_cell_length_b 13.430299
_cell_length_c 8.832004
_cell_angle_alpha 90.000000
_cell_angle_beta 114.512578
_cell_angle_gamma 90.000000
_cell_volume 1376.568091
_symmetry_space_group_name_H-M "C 2"
_symmetry_group_IT_number 5
_symmetry_cell_setting 'monoclinic'
loop_
_space_group_symop_operation_xyz
x,y,z
-x,y,-z
1/2+x,1/2+y,z
1/2-x,1/2+y,-z
loop_
_atom_site_type_symbol
_atom_site_label
_atom_site_fract_x
_atom_site_fract_y
_atom_site_fract_z
Si Si1 0.000000 0.617900 0.000000
Si Si2 0.561705 0.315008 0.187203
Si Si3 0.325040 0.754182 0.972208
Si Si4 0.071780 0.194297 0.261624
Si Si5 0.266284 0.057494 0.975799
Si Si6 0.000000 0.314908 0.500000
Si Si7 0.022738 0.995233 0.689580
Si Si8 0.210516 0.399788 0.799148
O O1 0.964514 0.697124 0.844801
O O2 0.108851 0.549298 0.025905
O O3 0.508728 0.381701 0.287605
O O4 0.694716 0.342465 0.242059
O O5 0.500000 0.358571 0.000000
O O6 0.333760 0.737011 0.798301
O O7 0.242314 0.675735 0.002823
O O8 0.450329 0.727650 0.114849
O O9 0.291561 0.857407 0.028861
O O10 0.070600 0.245342 0.425407
O O11 0.059079 0.075248 0.271994
O O12 0.261055 0.012145 0.141917
O O13 0.153705 0.023029 0.815181
O O14 0.911271 0.380905 0.351348
O O15 0.000000 0.011499 0.500000
#
# Coordination Sequence:
#
# PCOD9124013 Si02
#       8
#     2   4   4   4   4   2   4   4
#     4  10  22  38  66  88 126 166 212 260 324 384
#     4  10  20  41  65  88 120 171 209 263 318 377
#     4   9  18  34  62  89 115 164 214 254 311 377
#     4   9  18  33  59  92 126 154 203 271 309 364
#     4  11  21  39  65  88 125 168 219 258 318 396
#     4  10  22  38  58  96 138 162 204 272 336 362
#     4  11  22  38  64  97 123 161 225 271 310 378
#     4  11  21  40  66  89 126 170 214 264 319 391
#
# _framework density 20.340440000000001
#
# number of rings (size 3 to 8) (size 9 to 14) (size 15 to 20)
#    0.429    1.429    3.571    0.857    2.000    2.286 
#    5.143    0.000    4.714    0.000    0.000    0.000 
#    0.000    0.000    0.000    0.000    0.000    0.000 
#
# Total GULP energy -77960.509859 kJ/mol
# GULP energy per Si atom -5568.607847 kJ/mol
# Density = 2.029414 g / cm^3
# Si number density = 20.340440 Si / 1000 Ang^3
#
#
#
# Elastic Constant Matrix: (Units=GPa)
#
#
# Indices 1 2 3 4 5 6 
#
# 1 105.7453 8.9509 32.7621 0.0000 2.7155 0.0000
# 2 8.9509 47.7113 21.0030 0.0000 5.6903 0.0000
# 3 32.7621 21.0030 83.2601 0.0000 -1.1777 0.0000
# 4 0.0000 0.0000 0.0000 7.1317 0.0000 -4.7749
# 5 2.7155 5.6903 -1.1777 0.0000 30.6448 0.0000
# 6 0.0000 0.0000 0.0000 -4.7749 0.0000 26.3728
#
#
#
# Elastic Compliance Matrix: (Units=1/GPa)
#
#
# Indices 1 2 3 4 5 6 
#
# 1 0.010808 -0.000017 -0.004264 0.000000 -0.001118 0.000000
# 2 -0.000017 0.024247 -0.006177 0.000000 -0.004738 0.000000
# 3 -0.004264 -0.006177 0.015277 0.000000 0.002112 0.000000
# 4 0.000000 0.000000 0.000000 0.159561 0.000000 0.028889
# 5 -0.001118 -0.004738 0.002112 0.000000 0.033692 0.000000
# 6 0.000000 0.000000 0.000000 0.028889 0.000000 0.043148
#
#
# Mechanical properties :
#
#
# Convention : Reuss Voigt Hill
#
# Bulk Modulus (GPa) = 33.99624 40.23876 37.11750
# Shear Modulus (GPa) = 15.75030 24.42990 20.09010
#
# Velocity S-wave (km/s) = 2.78571 3.46938 3.14617
# Velocity P-wave (km/s) = 5.20546 5.98952 5.61120
#
# Compressibility (1/GPa) = 0.02941502
#
# Stress axis : x y z
#
# Youngs Moduli (GPa) = 92.52363 41.24257 65.45964
#
# Poissons Ratio (x) = 0.00070 0.27915
# Poissons Ratio (y) = 0.00157 0.40433
# Poissons Ratio (z) = 0.39456 0.25475
#
# Static dielectric constant tensor:
#      x y z
#    x 1.775280 0.000000 -0.026590 
#    y 0.000000 1.733950 0.000000 
#    z -0.026590 0.000000 1.721990 
# 
# From -- ./inp_files/20446.got.cif
#   From: 2010.05.17/outbox.cif.g08.bks.cpg/sg5_11_cif.got.tgz:20446.got - 2010.06.03 18:56:24.
