data_PCOD9124085
_publ_section_title
;
Structure prediction by ZEFSAII (Michael W. Deem and Ramdas Pophale) SiO2 
 PCOD9124085
Probable space group: C 2
;
_chemical_formula_sum "Si O2"
_cell_formula_units_Z 24
_cell_length_a 8.539436
_cell_length_b 18.985389
_cell_length_c 7.417886
_cell_angle_alpha 90.000000
_cell_angle_beta 127.029402
_cell_angle_gamma 90.000000
_cell_volume 960.084437
_symmetry_space_group_name_H-M "C 2"
_symmetry_group_IT_number 5
_symmetry_cell_setting 'monoclinic'
loop_
_space_group_symop_operation_xyz
x,y,z
-x,y,-z
1/2+x,1/2+y,z
1/2-x,1/2+y,-z
loop_
_atom_site_type_symbol
_atom_site_label
_atom_site_fract_x
_atom_site_fract_y
_atom_site_fract_z
Si Si1 0.951837 0.909080 0.676386
Si Si2 0.158693 0.660653 0.480410
Si Si3 0.111102 0.376981 0.888167
Si Si4 0.081388 0.531772 0.854674
Si Si5 0.211344 0.781290 0.244924
Si Si6 0.012867 0.064241 0.287641
O O1 0.807419 0.848074 0.634976
O O2 0.000000 0.906764 0.500000
O O3 0.888127 0.988071 0.677127
O O4 0.159285 0.893346 0.914542
O O5 0.229410 0.710802 0.370001
O O6 0.354566 0.626631 0.696143
O O7 0.000000 0.698496 0.500000
O O8 0.037092 0.593168 0.324466
O O9 0.121962 0.305976 0.778609
O O10 0.049251 0.452184 0.760113
O O11 0.000000 0.366263 0.000000
O O12 0.304078 0.556281 0.046640
O O13 0.000000 0.525563 0.000000
O O14 0.000000 0.773278 0.000000
O O15 0.000000 0.071306 0.500000
#
# Coordination Sequence:
#
# PCOD9124085 Si02
#       6
#     4   4   4   4   4   4
#     4   9  19  38  66  95 133 173 227 283 340 408
#     4  12  26  41  69 103 145 189 233 279 358 419
#     4   9  20  39  69 102 126 176 234 283 349 406
#     4  10  20  41  73  99 140 176 230 304 343 405
#     4  10  22  43  68  91 143 185 218 283 360 404
#     4  10  21  40  69 102 132 181 239 286 337 414
#
# _framework density 24.997802
#
# number of rings (size 3 to 8) (size 9 to 14) (size 15 to 20)
#    0.000    2.000    1.667    1.000    4.667    0.667 
#    0.000    5.833    0.000    0.000    0.000    0.000 
#    0.000    0.000    0.000    0.000    0.000    0.000 
#
# Total GULP energy -67152.524020 kJ/mol
# GULP energy per Si atom -5596.043668 kJ/mol
# Density = 2.494091 g / cm^3
# Si number density = 24.997802 Si / 1000 Ang^3
#
#
#
# Elastic Constant Matrix: (Units=GPa)
#
#
# Indices 1 2 3 4 5 6 
#
# 1 127.3024 66.0258 30.3887 0.0000 1.0249 0.0000
# 2 66.0258 142.7890 43.8830 0.0000 0.9087 0.0000
# 3 30.3887 43.8830 65.1646 0.0000 8.9553 0.0000
# 4 0.0000 0.0000 0.0000 25.7785 0.0000 -0.8010
# 5 1.0249 0.9087 8.9553 0.0000 44.1981 0.0000
# 6 0.0000 0.0000 0.0000 -0.8010 0.0000 26.1239
#
#
#
# Elastic Compliance Matrix: (Units=1/GPa)
#
#
# Indices 1 2 3 4 5 6 
#
# 1 0.010552 -0.004233 -0.002107 0.000000 0.000269 0.000000
# 2 -0.004233 0.010577 -0.005279 0.000000 0.000950 0.000000
# 3 -0.002107 -0.005279 0.020431 0.000000 -0.003982 0.000000
# 4 0.000000 0.000000 0.000000 0.038829 0.000000 0.001191
# 5 0.000269 0.000950 -0.003982 0.000000 0.023406 0.000000
# 6 0.000000 0.000000 0.000000 0.001191 0.000000 0.038316
#
#
# Mechanical properties :
#
#
# Convention : Reuss Voigt Hill
#
# Bulk Modulus (GPa) = 54.58336 68.42789 61.50562
# Shear Modulus (GPa) = 29.16187 32.21735 30.68961
#
# Velocity S-wave (km/s) = 3.41922 3.59389 3.50765
# Velocity P-wave (km/s) = 6.12134 6.68239 6.40801
#
# Compressibility (1/GPa) = 0.01832060
#
# Stress axis : x y z
#
# Youngs Moduli (GPa) = 94.77133 94.54214 48.94585
#
# Poissons Ratio (x) = 0.40023 0.10312
# Poissons Ratio (y) = 0.40120 0.25840
# Poissons Ratio (z) = 0.19967 0.49912
#
# Static dielectric constant tensor:
#      x y z
#    x 2.014280 0.000000 0.001260 
#    y 0.000000 1.953660 0.000000 
#    z 0.001260 0.000000 2.066260 
# 
# From -- ./inp_files/16564.got.cif
#   From: 2010.05.17/outbox.cif.g08.bks.cpg/sg5_9_cif.got.tgz:16564.got - 2010.06.03 18:56:24.
