data_PCOD9124472
_publ_section_title
;
Structure prediction by ZEFSAII (Michael W. Deem and Ramdas Pophale) SiO2 
 PCOD9124472
Probable space group: C 2
;
_chemical_formula_sum "Si O2"
_cell_formula_units_Z 26
_cell_length_a 22.849988
_cell_length_b 9.227203
_cell_length_c 6.295905
_cell_angle_alpha 90.000000
_cell_angle_beta 76.357840
_cell_angle_gamma 90.000000
_cell_volume 1289.987855
_symmetry_space_group_name_H-M "C 2"
_symmetry_group_IT_number 5
_symmetry_cell_setting 'monoclinic'
loop_
_space_group_symop_operation_xyz
x,y,z
-x,y,-z
1/2+x,1/2+y,z
1/2-x,1/2+y,-z
loop_
_atom_site_type_symbol
_atom_site_label
_atom_site_fract_x
_atom_site_fract_y
_atom_site_fract_z
Si Si1 0.230131 0.956790 0.874508
Si Si2 0.439738 0.490696 0.433918
Si Si3 0.500000 0.665583 0.000000
Si Si4 0.653975 0.949834 0.520810
Si Si5 0.221424 0.276766 0.782744
Si Si6 0.838945 0.768949 0.378749
Si Si7 0.063727 0.277804 0.328749
O O1 0.282495 0.962292 0.653817
O O2 0.181361 0.842849 0.825489
O O3 0.208163 0.122549 0.904286
O O4 0.259925 0.896556 0.061412
O O5 0.500000 0.434287 0.500000
O O6 0.390079 0.371087 0.433210
O O7 0.414521 0.620520 0.603929
O O8 0.463402 0.566101 0.197378
O O9 0.453737 0.761409 0.901367
O O10 0.665523 0.828745 0.689291
O O11 0.607810 0.898271 0.380766
O O12 0.639632 0.102826 0.643109
O O13 0.279890 0.266783 0.579894
O O14 0.000000 0.300682 0.500000
#
# Coordination Sequence:
#
# PCOD9124472 Si02
#       7
#     4   4   2   4   4   4   4
#     4  10  21  35  56  79 108 145 176 218 265 311
#     4   9  19  35  56  79 106 142 177 218 266 315
#     4   8  18  36  56  82 104 132 184 218 262 322
#     4  10  21  36  54  80 110 140 178 219 264 315
#     4  10  21  37  54  80 110 141 180 217 262 317
#     4  10  21  36  54  80 110 140 177 220 265 314
#     4   9  19  35  56  79 106 142 177 218 265 315
#
# _framework density 20.155228000000001
#
# number of rings (size 3 to 8) (size 9 to 14) (size 15 to 20)
#    0.000    2.769    0.000    1.846    0.000   10.462 
#    0.000    0.000    0.000    7.385    0.000    0.000 
#    0.000    0.000    0.000    0.000    0.000    0.000 
#
# Total GULP energy -72520.803748 kJ/mol
# GULP energy per Si atom -5578.523365 kJ/mol
# Density = 2.010935 g / cm^3
# Si number density = 20.155228 Si / 1000 Ang^3
#
#
#
# Elastic Constant Matrix: (Units=GPa)
#
#
# Indices 1 2 3 4 5 6 
#
# 1 78.3781 44.2080 18.8091 0.0000 27.8790 0.0000
# 2 44.2080 105.8279 24.6983 0.0000 25.0433 0.0000
# 3 18.8091 24.6983 79.9160 0.0000 29.8143 0.0000
# 4 0.0000 0.0000 0.0000 19.0522 0.0000 5.3729
# 5 27.8790 25.0433 29.8143 0.0000 35.5371 0.0000
# 6 0.0000 0.0000 0.0000 5.3729 0.0000 32.7595
#
#
#
# Elastic Compliance Matrix: (Units=1/GPa)
#
#
# Indices 1 2 3 4 5 6 
#
# 1 0.020370 -0.005761 0.002086 0.000000 -0.013671 0.000000
# 2 -0.005761 0.013002 -0.001354 0.000000 -0.003507 0.000000
# 3 0.002086 -0.001354 0.018479 0.000000 -0.016186 0.000000
# 4 0.000000 0.000000 0.000000 0.055033 0.000000 -0.009026
# 5 -0.013671 -0.003507 -0.016186 0.000000 0.054915 0.000000
# 6 0.000000 0.000000 0.000000 -0.009026 0.000000 0.032006
#
#
# Mechanical properties :
#
#
# Convention : Reuss Voigt Hill
#
# Bulk Modulus (GPa) = 23.92723 48.83922 36.38322
# Shear Modulus (GPa) = 22.95757 29.23022 26.09390
#
# Velocity S-wave (km/s) = 3.37863 3.81235 3.60202
# Velocity P-wave (km/s) = 5.20744 6.60779 5.94896
#
# Compressibility (1/GPa) = 0.04179339
#
# Stress axis : x y z
#
# Youngs Moduli (GPa) = 49.09135 76.91244 54.11568
#
# Poissons Ratio (x) = 0.44310 -0.11290
# Poissons Ratio (y) = 0.28282 0.07327
# Poissons Ratio (z) = -0.10242 0.10414
#
# Static dielectric constant tensor:
#      x y z
#    x 1.716400 0.000000 -0.001900 
#    y 0.000000 1.730080 0.000000 
#    z -0.001900 0.000000 1.730660 
# 
# From -- ./inp_files/10168.got.cif
#   From: 2010.05.17/outbox.cif.g08.bks.cpg/sg5_6_cif.got.tgz:10168.got - 2010.06.03 18:56:24.
