data_PCOD9124112
_publ_section_title
;
Structure prediction by ZEFSAII (Michael W. Deem and Ramdas Pophale) SiO2 
 PCOD9124112
Probable space group: C 2
;
_chemical_formula_sum "Si O2"
_cell_formula_units_Z 28
_cell_length_a 9.250467
_cell_length_b 10.849413
_cell_length_c 14.131063
_cell_angle_alpha 90.000000
_cell_angle_beta 62.047951
_cell_angle_gamma 90.000000
_cell_volume 1252.773969
_symmetry_space_group_name_H-M "C 2"
_symmetry_group_IT_number 5
_symmetry_cell_setting 'monoclinic'
loop_
_space_group_symop_operation_xyz
x,y,z
-x,y,-z
1/2+x,1/2+y,z
1/2-x,1/2+y,-z
loop_
_atom_site_type_symbol
_atom_site_label
_atom_site_fract_x
_atom_site_fract_y
_atom_site_fract_z
Si Si1 0.445060 0.578240 0.262603
Si Si2 0.176930 0.134302 0.903211
Si Si3 0.674264 0.425921 0.402381
Si Si4 0.234444 0.896002 0.173169
Si Si5 0.009850 0.614361 0.892941
Si Si6 0.301376 0.700660 0.686838
Si Si7 0.825217 0.437386 0.545472
O O1 0.340796 0.609209 0.202561
O O2 0.572464 0.470441 0.194652
O O3 0.562722 0.682979 0.271817
O O4 0.323574 0.525348 0.379313
O O5 0.218682 0.278851 0.901520
O O6 0.334544 0.076101 0.904831
O O7 0.000000 0.104846 0.000000
O O8 0.500000 0.393497 0.500000
O O9 0.704651 0.362456 0.292751
O O10 0.681704 0.572809 0.377255
O O11 0.802224 0.396305 0.444631
O O12 0.381587 0.992520 0.127203
O O13 0.119939 0.696651 0.788454
O O14 0.000000 0.673491 0.000000
O O15 0.323868 0.819326 0.615073
O O16 0.000000 0.502080 0.500000
#
# Coordination Sequence:
#
# PCOD9124112 Si02
#       7
#     4   4   4   4   4   4   4
#     4  10  24  45  61  97 132 162 216 268 303 383
#     4  12  25  41  70  97 124 167 213 260 325 381
#     4  10  20  42  63  91 134 170 208 264 311 369
#     4  10  23  44  67  91 132 169 211 261 317 375
#     4  10  22  44  68  92 129 166 209 268 319 372
#     4  10  23  43  67  89 133 170 211 265 315 374
#     4  12  25  38  66  99 127 173 215 254 323 373
#
# _framework density 22.350401999999999
#
# number of rings (size 3 to 8) (size 9 to 14) (size 15 to 20)
#    0.000    1.714    2.857    3.429    6.000    0.000 
#    0.000    8.571    0.000    0.000    0.000    0.000 
#    0.000    0.000    0.000    0.000    0.000    0.000 
#
# Total GULP energy -78254.918023 kJ/mol
# GULP energy per Si atom -5589.637002 kJ/mol
# Density = 2.229953 g / cm^3
# Si number density = 22.350402 Si / 1000 Ang^3
#
#
#
# Elastic Constant Matrix: (Units=GPa)
#
#
# Indices 1 2 3 4 5 6 
#
# 1 145.5085 8.2941 24.1859 0.0000 -11.8756 0.0000
# 2 8.2941 23.4003 6.4155 0.0000 -6.3597 0.0000
# 3 24.1859 6.4155 77.0503 0.0000 -9.8724 0.0000
# 4 0.0000 0.0000 0.0000 16.4002 0.0000 1.5554
# 5 -11.8756 -6.3597 -9.8724 0.0000 48.3692 0.0000
# 6 0.0000 0.0000 0.0000 1.5554 0.0000 6.3714
#
#
#
# Elastic Compliance Matrix: (Units=1/GPa)
#
#
# Indices 1 2 3 4 5 6 
#
# 1 0.007405 -0.001750 -0.002028 0.000000 0.001174 0.000000
# 2 -0.001750 0.045428 -0.002591 0.000000 0.005015 0.000000
# 3 -0.002028 -0.002591 0.014092 0.000000 0.002038 0.000000
# 4 0.000000 0.000000 0.000000 0.062420 0.000000 -0.015238
# 5 0.001174 0.005015 0.002038 0.000000 0.022038 0.000000
# 6 0.000000 0.000000 0.000000 -0.015238 0.000000 0.160670
#
#
# Mechanical properties :
#
#
# Convention : Reuss Voigt Hill
#
# Bulk Modulus (GPa) = 18.45440 35.97224 27.21332
# Shear Modulus (GPa) = 14.58351 28.03240 21.30796
#
# Velocity S-wave (km/s) = 2.55717 3.54534 3.09100
# Velocity P-wave (km/s) = 4.12233 5.73488 4.99412
#
# Compressibility (1/GPa) = 0.05418762
#
# Stress axis : x y z
#
# Youngs Moduli (GPa) = 135.04129 22.01296 70.96210
#
# Poissons Ratio (x) = 0.03851 0.14394
# Poissons Ratio (y) = 0.23626 0.18385
# Poissons Ratio (z) = 0.27391 0.05703
#
# Static dielectric constant tensor:
#      x y z
#    x 1.902410 0.000000 0.006510 
#    y 0.000000 1.834970 0.000000 
#    z 0.006510 0.000000 1.843340 
# 
# From -- ./inp_files/50416.got.cif
#   From: 2010.05.17/outbox.cif.g08.bks.cpg/sg5_26_cif.got.tgz:50416.got - 2010.06.03 18:56:24.
