data_PCOD9124496
_publ_section_title
;
Structure prediction by ZEFSAII (Michael W. Deem and Ramdas Pophale) SiO2 
 PCOD9124496
Probable space group: C 2
;
_chemical_formula_sum "Si O2"
_cell_formula_units_Z 26
_cell_length_a 17.179667
_cell_length_b 9.708270
_cell_length_c 9.760112
_cell_angle_alpha 90.000000
_cell_angle_beta 133.967718
_cell_angle_gamma 90.000000
_cell_volume 1171.606152
_symmetry_space_group_name_H-M "C 2"
_symmetry_group_IT_number 5
_symmetry_cell_setting 'monoclinic'
loop_
_space_group_symop_operation_xyz
x,y,z
-x,y,-z
1/2+x,1/2+y,z
1/2-x,1/2+y,-z
loop_
_atom_site_type_symbol
_atom_site_label
_atom_site_fract_x
_atom_site_fract_y
_atom_site_fract_z
Si Si1 0.681557 0.858270 0.765496
Si Si2 0.500000 0.328697 0.000000
Si Si3 0.911910 0.347720 0.066643
Si Si4 0.862321 0.410043 0.593000
Si Si5 0.283377 0.554940 0.221968
Si Si6 0.388974 0.526165 0.075933
Si Si7 0.206112 0.681589 0.385950
O O1 0.596936 0.876238 0.781154
O O2 0.629764 0.861507 0.553957
O O3 0.739741 0.710149 0.864234
O O4 0.771357 0.974729 0.884855
O O5 0.529958 0.425914 0.906712
O O6 0.395935 0.238111 0.827318
O O7 0.903947 0.183063 0.045089
O O8 0.034071 0.390620 0.184779
O O9 0.812601 0.442573 0.895951
O O10 0.834303 0.569588 0.557955
O O11 0.766592 0.310036 0.525979
O O12 0.378867 0.513235 0.231202
O O13 0.290060 0.596144 0.390271
#
# Coordination Sequence:
#
# PCOD9124496 Si02
#       7
#     4   2   4   4   4   4   4
#     4   9  19  41  61  88 124 166 198 256 307 366
#     4  12  22  42  66  90 122 170 206 260 310 362
#     4  10  21  35  66  92 121 156 214 249 307 364
#     4  11  23  39  60  91 124 163 199 258 312 372
#     4   9  19  41  60  93 118 167 203 255 297 373
#     4  10  21  36  68  92 122 158 214 251 301 368
#     4  11  25  41  65  85 130 163 209 253 317 364
#
# _framework density 22.191759999999999
#
# number of rings (size 3 to 8) (size 9 to 14) (size 15 to 20)
#    0.000    1.846    3.077    1.385    2.154    2.462 
#    0.000    0.000    3.385    0.000    0.000    0.000 
#    0.000    0.000    0.000    0.000    0.000    0.000 
#
# Total GULP energy -72375.560138 kJ/mol
# GULP energy per Si atom -5567.350780 kJ/mol
# Density = 2.214125 g / cm^3
# Si number density = 22.191760 Si / 1000 Ang^3
#
#
#
# Elastic Constant Matrix: (Units=GPa)
#
#
# Indices 1 2 3 4 5 6 
#
# 1 69.5586 24.5008 24.2065 0.0000 1.3109 0.0000
# 2 24.5008 93.2640 18.9666 0.0000 1.4548 0.0000
# 3 24.2065 18.9666 31.3578 0.0000 -6.6489 0.0000
# 4 0.0000 0.0000 0.0000 22.6536 0.0000 -7.4276
# 5 1.3109 1.4548 -6.6489 0.0000 26.1786 0.0000
# 6 0.0000 0.0000 0.0000 -7.4276 0.0000 34.0821
#
#
#
# Elastic Compliance Matrix: (Units=1/GPa)
#
#
# Indices 1 2 3 4 5 6 
#
# 1 0.020698 -0.002167 -0.015708 0.000000 -0.004906 0.000000
# 2 -0.002167 0.012637 -0.006444 0.000000 -0.002230 0.000000
# 3 -0.015708 -0.006444 0.050897 0.000000 0.014071 0.000000
# 4 0.000000 0.000000 0.000000 0.047540 0.000000 0.010361
# 5 -0.004906 -0.002230 0.014071 0.000000 0.042143 0.000000
# 6 0.000000 0.000000 0.000000 0.010361 0.000000 0.031599
#
#
# Mechanical properties :
#
#
# Convention : Reuss Voigt Hill
#
# Bulk Modulus (GPa) = 28.09326 36.61424 32.35375
# Shear Modulus (GPa) = 18.79602 25.01663 21.90633
#
# Velocity S-wave (km/s) = 2.91345 3.36116 3.14528
# Velocity P-wave (km/s) = 4.89943 5.62121 5.27269
#
# Compressibility (1/GPa) = 0.03559572
#
# Stress axis : x y z
#
# Youngs Moduli (GPa) = 48.31326 79.13520 19.64771
#
# Poissons Ratio (x) = 0.17146 0.30862
# Poissons Ratio (y) = 0.10468 0.12660
# Poissons Ratio (z) = 0.75889 0.50991
#
# Static dielectric constant tensor:
#      x y z
#    x 1.979980 0.000000 -0.018840 
#    y 0.000000 1.802890 0.000000 
#    z -0.018840 0.000000 1.813320 
# 
# From -- ./inp_files/46174.got.cif
#   From: 2010.05.17/outbox.cif.g08.bks.cpg/sg5_24_cif.got.tgz:46174.got - 2010.06.03 18:56:24.
