data_PCOD9124535
_publ_section_title
;
Structure prediction by ZEFSAII (Michael W. Deem and Ramdas Pophale) SiO2 
 PCOD9124535
Probable space group: C 2
;
_chemical_formula_sum "Si O2"
_cell_formula_units_Z 24
_cell_length_a 7.193633
_cell_length_b 19.906173
_cell_length_c 9.334405
_cell_angle_alpha 90.000000
_cell_angle_beta 127.444702
_cell_angle_gamma 90.000000
_cell_volume 1061.232768
_symmetry_space_group_name_H-M "C 2"
_symmetry_group_IT_number 5
_symmetry_cell_setting 'monoclinic'
loop_
_space_group_symop_operation_xyz
x,y,z
-x,y,-z
1/2+x,1/2+y,z
1/2-x,1/2+y,-z
loop_
_atom_site_type_symbol
_atom_site_label
_atom_site_fract_x
_atom_site_fract_y
_atom_site_fract_z
Si Si1 0.907843 0.697640 0.659637
Si Si2 0.240577 0.050486 0.813752
Si Si3 0.521210 0.682255 0.735353
Si Si4 0.797017 0.788037 0.027537
Si Si5 0.263643 0.437595 0.975122
Si Si6 0.994164 0.550151 0.666262
O O1 0.719169 0.691026 0.702203
O O2 0.734514 0.699446 0.443332
O O3 0.059244 0.628803 0.722346
O O4 0.066071 0.761896 0.768113
O O5 0.053097 0.103531 0.784141
O O6 0.255608 0.049649 0.648923
O O7 0.500000 0.071126 0.000000
O O8 0.200559 0.977483 0.860387
O O9 0.608120 0.732199 0.896921
O O10 0.685376 0.861869 0.969875
O O11 0.000000 0.786731 0.000000
O O12 0.123844 0.489776 0.808962
O O13 0.500000 0.429455 0.000000
O O14 0.000000 0.538152 0.500000
#
# Coordination Sequence:
#
# PCOD9124535 Si02
#       6
#     4   4   4   4   4   4
#     4   9  18  33  57  86 114 148 194 249 294 347
#     4   9  18  36  62  84 120 159 198 246 298 353
#     4   9  16  31  60  87 107 152 198 239 300 347
#     4   9  17  34  55  83 120 154 196 239 290 361
#     4  10  21  36  58  88 119 166 199 232 299 364
#     4  10  21  38  59  88 121 148 199 261 295 340
#
# _framework density 22.615207999999999
#
# number of rings (size 3 to 8) (size 9 to 14) (size 15 to 20)
#    0.000    2.667    0.000    3.500    2.333    0.000 
#    9.000    0.000   11.000    0.000    0.000    0.000 
#    0.000    0.000    0.000    0.000    0.000    0.000 
#
# Total GULP energy -66913.913445 kJ/mol
# GULP energy per Si atom -5576.159454 kJ/mol
# Density = 2.256373 g / cm^3
# Si number density = 22.615208 Si / 1000 Ang^3
#
#
#
# Elastic Constant Matrix: (Units=GPa)
#
#
# Indices 1 2 3 4 5 6 
#
# 1 78.1157 21.8666 37.2641 0.0000 -12.8433 0.0000
# 2 21.8666 173.3865 73.1269 0.0000 1.0946 0.0000
# 3 37.2641 73.1269 102.9071 0.0000 -3.2342 0.0000
# 4 0.0000 0.0000 0.0000 -46.7632 0.0000 1.7474
# 5 -12.8433 1.0946 -3.2342 0.0000 47.1782 0.0000
# 6 0.0000 0.0000 0.0000 1.7474 0.0000 19.9514
#
#
#
# Elastic Compliance Matrix: (Units=1/GPa)
#
#
# Indices 1 2 3 4 5 6 
#
# 1 0.016231 0.000505 -0.006111 0.000000 0.003988 0.000000
# 2 0.000505 0.008268 -0.006073 0.000000 -0.000471 0.000000
# 3 -0.006111 -0.006073 0.016233 0.000000 -0.000410 0.000000
# 4 0.000000 0.000000 0.000000 -0.021315 0.000000 0.001867
# 5 0.003988 -0.000471 -0.000410 0.000000 0.022265 0.000000
# 6 0.000000 0.000000 0.000000 0.001867 0.000000 0.049958
#
#
# Mechanical properties :
#
#
# Convention : Reuss Voigt Hill
#
# Bulk Modulus (GPa) = 57.55668 68.76940 63.16304
# Shear Modulus (GPa) = 41.39405 18.88339 30.13872
#
# Velocity S-wave (km/s) = 4.28292 2.89275 3.65454
# Velocity P-wave (km/s) = 7.06849 6.45227 6.76740
#
# Compressibility (1/GPa) = 0.01737418
#
# Stress axis : x y z
#
# Youngs Moduli (GPa) = 61.61043 120.94677 61.60207
#
# Poissons Ratio (x) = -0.06111 0.37646
# Poissons Ratio (y) = -0.03113 0.37412
# Poissons Ratio (z) = 0.37651 0.73453
#
# Static dielectric constant tensor:
#      x y z
#    x 1.977630 0.000000 -0.002220 
#    y 0.000000 1.855330 0.000000 
#    z -0.002220 0.000000 1.860540 
# 
# From -- ./inp_files/16864.got.cif
#   From: 2010.05.17/outbox.cif.g08.bks.cpg/sg5_9_cif.got.tgz:16864.got - 2010.06.03 18:56:24.
