data_PCOD9124974
_publ_section_title
;
Structure prediction by ZEFSAII (Michael W. Deem and Ramdas Pophale) SiO2 
 PCOD9124974
Probable space group: C 2
;
_chemical_formula_sum "Si O2"
_cell_formula_units_Z 18
_cell_length_a 5.089743
_cell_length_b 21.946613
_cell_length_c 7.820365
_cell_angle_alpha 90.000000
_cell_angle_beta 112.316526
_cell_angle_gamma 90.000000
_cell_volume 808.126173
_symmetry_space_group_name_H-M "C 2"
_symmetry_group_IT_number 5
_symmetry_cell_setting 'monoclinic'
loop_
_space_group_symop_operation_xyz
x,y,z
-x,y,-z
1/2+x,1/2+y,z
1/2-x,1/2+y,-z
loop_
_atom_site_type_symbol
_atom_site_label
_atom_site_fract_x
_atom_site_fract_y
_atom_site_fract_z
Si Si1 0.172812 0.643820 0.385051
Si Si2 0.000000 0.855817 0.000000
Si Si3 0.128648 0.455442 0.724421
Si Si4 0.677993 0.236817 0.885571
Si Si5 0.633036 0.529583 0.723742
O O1 0.500000 0.663060 0.500000
O O2 0.215091 0.595312 0.240489
O O3 0.000000 0.612038 0.500000
O O4 0.971435 0.701649 0.303146
O O5 0.224614 0.896888 0.156266
O O6 0.862881 0.809523 0.106056
O O7 0.373540 0.507721 0.775581
O O8 0.000000 0.445575 0.500000
O O9 0.873683 0.478585 0.779220
O O10 0.500000 0.212617 0.000000
O O11 0.000000 0.221258 0.000000
O O12 0.500000 0.530149 0.500000
#
# Coordination Sequence:
#
# PCOD9124974 Si02
#       5
#     4   2   4   4   4
#     4  11  21  40  70  94 126 165 213 267 329 386
#     4  10  26  42  62  88 134 166 222 266 300 382
#     4  10  21  39  63  90 123 165 206 257 322 372
#     4  10  24  43  60  87 137 165 211 272 313 366
#     4   9  19  37  62  91 123 153 202 260 316 383
#
# _framework density 22.273751000000001
#
# number of rings (size 3 to 8) (size 9 to 14) (size 15 to 20)
#    0.667    1.333    0.000    4.667    3.111    0.889 
#    6.000    0.000    0.000    0.000    0.000    0.000 
#    0.000    0.000    0.000    0.000    0.000    0.000 
#
# Total GULP energy -50145.244068 kJ/mol
# GULP energy per Si atom -5571.693785 kJ/mol
# Density = 2.222306 g / cm^3
# Si number density = 22.273751 Si / 1000 Ang^3
#
#
#
# Elastic Constant Matrix: (Units=GPa)
#
#
# Indices 1 2 3 4 5 6 
#
# 1 140.4700 32.7821 29.5870 0.0000 45.4423 0.0000
# 2 32.7821 123.9170 58.1310 0.0000 33.9755 0.0000
# 3 29.5870 58.1310 96.5695 0.0000 29.3652 0.0000
# 4 0.0000 0.0000 0.0000 42.8795 0.0000 13.5386
# 5 45.4423 33.9755 29.3652 0.0000 33.2984 0.0000
# 6 0.0000 0.0000 0.0000 13.5386 0.0000 39.6874
#
#
#
# Elastic Compliance Matrix: (Units=1/GPa)
#
#
# Indices 1 2 3 4 5 6 
#
# 1 0.013199 0.001591 0.001325 0.000000 -0.020803 0.000000
# 2 0.001591 0.013008 -0.004949 0.000000 -0.011080 0.000000
# 3 0.001325 -0.004949 0.016319 0.000000 -0.011149 0.000000
# 4 0.000000 0.000000 0.000000 0.026136 0.000000 -0.008916
# 5 -0.020803 -0.011080 -0.011149 0.000000 0.079559 0.000000
# 6 0.000000 0.000000 0.000000 -0.008916 0.000000 0.028238
#
#
# Mechanical properties :
#
#
# Convention : Reuss Voigt Hill
#
# Bulk Modulus (GPa) = 26.00172 66.88405 46.44289
# Shear Modulus (GPa) = 25.86034 39.20348 32.53191
#
# Velocity S-wave (km/s) = 3.41108 4.19988 3.82586
# Velocity P-wave (km/s) = 5.21660 7.32202 6.35708
#
# Compressibility (1/GPa) = 0.03845900
#
# Stress axis : x y z
#
# Youngs Moduli (GPa) = 75.76524 76.87311 61.27932
#
# Poissons Ratio (x) = -0.12229 -0.08117
# Poissons Ratio (y) = -0.12053 0.30326
# Poissons Ratio (z) = -0.10036 0.38043
#
# Static dielectric constant tensor:
#      x y z
#    x 1.821330 0.000000 -0.003710 
#    y 0.000000 1.866410 0.000000 
#    z -0.003710 0.000000 1.910630 
# 
# From -- ./inp_files/12213.got.cif
#   From: 2010.05.17/outbox.cif.g08.bks.cpg/sg5_7_cif.got.tgz:12213.got - 2010.06.03 18:56:24.
