data_PCOD9124374
_publ_section_title
;
Structure prediction by ZEFSAII (Michael W. Deem and Ramdas Pophale) SiO2 
 PCOD9124374
Probable space group: C 2
;
_chemical_formula_sum "Si O2"
_cell_formula_units_Z 30
_cell_length_a 14.552949
_cell_length_b 8.229431
_cell_length_c 11.165712
_cell_angle_alpha 90.000000
_cell_angle_beta 115.689460
_cell_angle_gamma 90.000000
_cell_volume 1205.057007
_symmetry_space_group_name_H-M "C 2"
_symmetry_group_IT_number 5
_symmetry_cell_setting 'monoclinic'
loop_
_space_group_symop_operation_xyz
x,y,z
-x,y,-z
1/2+x,1/2+y,z
1/2-x,1/2+y,-z
loop_
_atom_site_type_symbol
_atom_site_label
_atom_site_fract_x
_atom_site_fract_y
_atom_site_fract_z
Si Si1 0.663890 0.077780 0.394449
Si Si2 0.514225 0.908654 0.145217
Si Si3 0.880693 0.256698 0.263254
Si Si4 0.552785 0.417363 0.655107
Si Si5 0.500000 0.995969 0.500000
Si Si6 0.842970 0.949668 0.666379
Si Si7 0.864236 0.707563 0.111040
Si Si8 0.805579 0.975662 0.911988
O O1 0.679167 0.255608 0.347348
O O2 0.623024 0.956964 0.266138
O O3 0.570354 0.080841 0.438699
O O4 0.762590 0.025992 0.527023
O O5 0.460599 0.778932 0.200407
O O6 0.446279 0.074125 0.117935
O O7 0.500000 0.857893 0.000000
O O8 0.778112 0.337562 0.162468
O O9 0.922723 0.375600 0.388996
O O10 0.875074 0.074281 0.305647
O O11 0.500000 0.389578 0.500000
O O12 0.456915 0.460643 0.683229
O O13 0.612810 0.264820 0.740969
O O14 0.840792 0.022258 0.799175
O O15 0.754332 0.619741 0.055034
O O16 0.876667 0.871307 0.039914
#
# Coordination Sequence:
#
# PCOD9124374 Si02
#       8
#     4   4   4   4   2   4   4   4
#     4  11  25  44  71 107 139 189 236 298 362 417
#     4  10  22  45  70  97 142 187 232 280 369 427
#     4  10  22  44  69 100 137 188 231 290 356 418
#     4  12  28  46  70 106 146 193 241 292 369 422
#     4  10  20  44  74  90 148 184 232 288 364 428
#     4  12  28  42  72 109 143 185 241 306 345 433
#     4  11  25  48  74 104 140 195 230 302 365 434
#     4  11  25  49  74 105 142 185 248 296 361 425
#
# _framework density 24.895088999999999
#
# number of rings (size 3 to 8) (size 9 to 14) (size 15 to 20)
#    0.000    1.067    3.333    1.600    8.400    0.000 
#   12.000    0.000    0.000    0.000    0.000    0.000 
#    0.000    0.000    0.000    0.000    0.000    0.000 
#
# Total GULP energy -83983.351559 kJ/mol
# GULP energy per Si atom -5598.890104 kJ/mol
# Density = 2.483843 g / cm^3
# Si number density = 24.895089 Si / 1000 Ang^3
#
#
#
# Elastic Constant Matrix: (Units=GPa)
#
#
# Indices 1 2 3 4 5 6 
#
# 1 43.1748 10.4568 9.1553 0.0000 -0.9752 0.0000
# 2 10.4568 47.2346 12.7676 0.0000 -6.0377 0.0000
# 3 9.1553 12.7676 125.4730 0.0000 -17.9068 0.0000
# 4 0.0000 0.0000 0.0000 45.8677 0.0000 12.1432
# 5 -0.9752 -6.0377 -17.9068 0.0000 39.6098 0.0000
# 6 0.0000 0.0000 0.0000 12.1432 0.0000 9.8641
#
#
#
# Elastic Compliance Matrix: (Units=1/GPa)
#
#
# Indices 1 2 3 4 5 6 
#
# 1 0.024696 -0.005196 -0.001389 0.000000 -0.000812 0.000000
# 2 -0.005196 0.023092 -0.001589 0.000000 0.002674 0.000000
# 3 -0.001389 -0.001589 0.008759 0.000000 0.003683 0.000000
# 4 0.000000 0.000000 0.000000 0.032343 0.000000 -0.039816
# 5 -0.000812 0.002674 0.003683 0.000000 0.027299 0.000000
# 6 0.000000 0.000000 0.000000 -0.039816 0.000000 0.150392
#
#
# Mechanical properties :
#
#
# Convention : Reuss Voigt Hill
#
# Bulk Modulus (GPa) = 24.87596 31.18243 28.02920
# Shear Modulus (GPa) = 16.87314 31.30184 24.08749
#
# Velocity S-wave (km/s) = 2.60623 3.54976 3.11394
# Velocity P-wave (km/s) = 4.36699 5.41791 4.92059
#
# Compressibility (1/GPa) = 0.04019945
#
# Stress axis : x y z
#
# Youngs Moduli (GPa) = 40.49199 43.30433 114.17415
#
# Poissons Ratio (x) = 0.22499 0.15861
# Poissons Ratio (y) = 0.21038 0.18144
# Poissons Ratio (z) = 0.05625 0.06882
#
# Static dielectric constant tensor:
#      x y z
#    x 1.989220 0.000000 0.010400 
#    y 0.000000 1.953050 0.000000 
#    z 0.010400 0.000000 2.347720 
# 
# From -- ./inp_files/42052.got.cif
#   From: 2010.05.17/outbox.cif.g08.bks.cpg/sg5_22_cif.got.tgz:42052.got - 2010.06.03 18:56:24.
