data_PCOD9124008
_publ_section_title
;
Structure prediction by ZEFSAII (Michael W. Deem and Ramdas Pophale) SiO2 
 PCOD9124008
Probable space group: C 2
;
_chemical_formula_sum "Si O2"
_cell_formula_units_Z 32
_cell_length_a 19.053020
_cell_length_b 7.803876
_cell_length_c 11.997525
_cell_angle_alpha 90.000000
_cell_angle_beta 46.338542
_cell_angle_gamma 90.000000
_cell_volume 1290.516017
_symmetry_space_group_name_H-M "C 2"
_symmetry_group_IT_number 5
_symmetry_cell_setting 'monoclinic'
loop_
_space_group_symop_operation_xyz
x,y,z
-x,y,-z
1/2+x,1/2+y,z
1/2-x,1/2+y,-z
loop_
_atom_site_type_symbol
_atom_site_label
_atom_site_fract_x
_atom_site_fract_y
_atom_site_fract_z
Si Si1 0.961368 0.938640 0.829468
Si Si2 0.538907 0.812576 0.777978
Si Si3 0.739112 0.483809 0.875683
Si Si4 0.209708 0.546277 0.612218
Si Si5 0.373532 0.273443 0.466476
Si Si6 0.345912 0.802010 0.573141
Si Si7 0.678628 0.877292 0.978793
Si Si8 0.371663 0.479429 0.680892
O O1 0.916302 0.977425 0.755263
O O2 0.034671 0.787787 0.716945
O O3 0.867737 0.895310 0.006720
O O4 0.017930 0.107252 0.814293
O O5 0.576423 0.829170 0.609836
O O6 0.623655 0.919279 0.747566
O O7 0.434881 0.895242 0.914908
O O8 0.808840 0.446225 0.697215
O O9 0.711045 0.682017 0.920129
O O10 0.796273 0.420449 0.921549
O O11 0.305371 0.432812 0.510407
O O12 0.184547 0.610723 0.515106
O O13 0.246666 0.717535 0.632362
O O14 0.396484 0.320602 0.570216
O O15 0.394605 0.654033 0.594526
O O16 0.754986 0.983389 0.823290
#
# Coordination Sequence:
#
# PCOD9124008 Si02
#       8
#     4   4   4   4   4   4   4   4
#     4  10  20  41  64  94 126 167 211 261 334 381
#     4  11  22  40  66  90 126 175 217 264 319 384
#     4  10  22  39  66  97 134 167 209 272 326 387
#     4  11  23  40  64  91 129 169 223 268 312 376
#     4  11  21  38  64  87 129 170 215 261 318 382
#     4  11  22  41  68  90 129 174 219 263 321 382
#     4  10  23  41  65  97 139 167 209 267 338 383
#     4  10  22  38  66  95 131 169 207 270 326 386
#
# _framework density 24.796281
#
# number of rings (size 3 to 8) (size 9 to 14) (size 15 to 20)
#    0.000    1.500    3.750    2.625    1.750    4.500 
#    0.000    5.625    2.750    7.500    0.000    0.000 
#    0.000    0.000    0.000    0.000    0.000    0.000 
#
# Total GULP energy -89343.839630 kJ/mol
# GULP energy per Si atom -5583.989977 kJ/mol
# Density = 2.473984 g / cm^3
# Si number density = 24.796281 Si / 1000 Ang^3
#
#
#
# Elastic Constant Matrix: (Units=GPa)
#
#
# Indices 1 2 3 4 5 6 
#
# 1 62.0595 15.1658 11.5185 0.0000 -11.3222 0.0000
# 2 15.1658 36.4993 -1.3794 0.0000 8.6080 0.0001
# 3 11.5185 -1.3794 110.5822 0.0000 -5.8791 0.0001
# 4 0.0000 0.0000 0.0000 21.1693 0.0000 3.4054
# 5 -11.3222 8.6080 -5.8791 0.0000 34.3417 0.0000
# 6 0.0000 0.0001 0.0001 3.4054 0.0000 22.0587
#
#
#
# Elastic Compliance Matrix: (Units=1/GPa)
#
#
# Indices 1 2 3 4 5 6 
#
# 1 0.020808 -0.010904 -0.001810 0.000000 0.009283 0.000000
# 2 -0.010904 0.034833 0.000923 0.000000 -0.012168 0.000000
# 3 -0.001810 0.000923 0.009284 0.000000 0.000761 0.000000
# 4 0.000000 0.000000 0.000000 0.048441 0.000000 -0.007478
# 5 0.009283 -0.012168 0.000761 0.000000 0.035360 0.000000
# 6 0.000000 0.000000 0.000000 -0.007478 0.000000 0.046488
#
#
# Mechanical properties :
#
#
# Convention : Reuss Voigt Hill
#
# Bulk Modulus (GPa) = 24.18730 28.86117 26.52424
# Shear Modulus (GPa) = 21.49846 27.76969 24.63407
#
# Velocity S-wave (km/s) = 2.94769 3.35014 3.15534
# Velocity P-wave (km/s) = 4.62177 5.16035 4.89846
#
# Compressibility (1/GPa) = 0.04134402
#
# Stress axis : x y z
#
# Youngs Moduli (GPa) = 48.05917 28.70853 107.71741
#
# Poissons Ratio (x) = 0.31302 0.19495
# Poissons Ratio (y) = 0.52402 -0.09946
# Poissons Ratio (z) = 0.08698 -0.02651
#
# Static dielectric constant tensor:
#      x y z
#    x 2.027440 0.000000 0.006710 
#    y 0.000000 2.072590 0.000000 
#    z 0.006710 0.000000 1.963720 
# 
# From -- ./inp_files/56804.got.cif
#   From: 2010.05.17/outbox.cif.g08.bks.cpg/sg5_29_cif.got.tgz:56804.got - 2010.06.03 18:56:24.
