data_PCOD9124513
_publ_section_title
;
Structure prediction by ZEFSAII (Michael W. Deem and Ramdas Pophale) SiO2 
 PCOD9124513
Probable space group: C 2
;
_chemical_formula_sum "Si O2"
_cell_formula_units_Z 28
_cell_length_a 13.327924
_cell_length_b 5.531663
_cell_length_c 18.747763
_cell_angle_alpha 90.000000
_cell_angle_beta 114.821476
_cell_angle_gamma 90.000000
_cell_volume 1254.503352
_symmetry_space_group_name_H-M "C 2"
_symmetry_group_IT_number 5
_symmetry_cell_setting 'monoclinic'
loop_
_space_group_symop_operation_xyz
x,y,z
-x,y,-z
1/2+x,1/2+y,z
1/2-x,1/2+y,-z
loop_
_atom_site_type_symbol
_atom_site_label
_atom_site_fract_x
_atom_site_fract_y
_atom_site_fract_z
Si Si1 0.055195 0.338740 0.939286
Si Si2 0.861734 0.838744 0.769329
Si Si3 0.318035 0.339133 0.501458
Si Si4 0.573064 0.339486 0.622811
Si Si5 0.061123 0.838730 0.941091
Si Si6 0.077560 0.338744 0.238529
Si Si7 0.124051 0.339487 0.720630
O O1 0.120499 0.585488 0.949603
O O2 0.950429 0.338658 0.853826
O O3 0.120491 0.091976 0.949593
O O4 0.000000 0.338756 0.000000
O O5 0.968858 0.838659 0.851068
O O6 0.863448 0.589761 0.725760
O O7 0.750887 0.839090 0.781749
O O8 0.863618 0.087591 0.725742
O O9 0.249987 0.589122 0.499992
O O10 0.439307 0.339205 0.574977
O O11 0.358328 0.339132 0.430789
O O12 0.602656 0.591049 0.671107
O O13 0.602796 0.088441 0.671391
O O14 0.000000 0.838748 0.000000
O O15 0.959504 0.339097 0.239683
#
# Coordination Sequence:
#
# PCOD9124513 Si02
#       7
#     4   4   4   4   4   4   4
#     4   8  14  27  49  72 100 143 189 238 293 339
#     4  10  21  36  56  82 116 157 198 244 300 359
#     4  11  24  45  70  92 122 161 202 241 290 352
#     4  11  26  42  62  96 125 154 201 250 287 352
#     4   8  14  27  49  72 100 143 189 238 293 339
#     4  10  21  36  56  82 116 157 198 244 300 359
#     4  12  24  39  60  90 127 158 197 246 303 362
#
# _framework density 22.319590999999999
#
# number of rings (size 3 to 8) (size 9 to 14) (size 15 to 20)
#    0.000    2.000    0.000    3.429    0.000    9.143 
#    0.000    0.000    0.000   27.429    0.000    0.000 
#    0.000    0.000    0.000    0.000    0.000    0.000 
#
# Total GULP energy -78017.128995 kJ/mol
# GULP energy per Si atom -5572.652071 kJ/mol
# Density = 2.226879 g / cm^3
# Si number density = 22.319591 Si / 1000 Ang^3
#
#
#
# Elastic Constant Matrix: (Units=GPa)
#
#
# Indices 1 2 3 4 5 6 
#
# 1 128.7319 40.6815 19.0984 0.0000 12.1363 0.0000
# 2 40.6815 281.2028 17.6094 0.0000 5.3352 0.0000
# 3 19.0984 17.6094 49.9314 0.0000 -4.0563 0.0000
# 4 0.0000 0.0000 0.0000 44.0065 0.0000 10.1145
# 5 12.1363 5.3352 -4.0563 0.0000 26.0950 0.0000
# 6 0.0000 0.0000 0.0000 10.1145 0.0000 34.8819
#
#
#
# Elastic Compliance Matrix: (Units=1/GPa)
#
#
# Indices 1 2 3 4 5 6 
#
# 1 0.009027 -0.001003 -0.003467 0.000000 -0.004532 0.000000
# 2 -0.001003 0.003772 -0.000984 0.000000 -0.000458 0.000000
# 3 -0.003467 -0.000984 0.022127 0.000000 0.005253 0.000000
# 4 0.000000 0.000000 0.000000 0.024346 0.000000 -0.007060
# 5 -0.004532 -0.000458 0.005253 0.000000 0.041339 0.000000
# 6 0.000000 0.000000 0.000000 -0.007060 0.000000 0.030715
#
#
# Mechanical properties :
#
#
# Convention : Reuss Voigt Hill
#
# Bulk Modulus (GPa) = 41.63517 68.29384 54.96451
# Shear Modulus (GPa) = 33.28010 46.49515 39.88762
#
# Velocity S-wave (km/s) = 3.86563 4.56911 4.23201
# Velocity P-wave (km/s) = 6.21439 7.64855 6.96846
#
# Compressibility (1/GPa) = 0.02401816
#
# Stress axis : x y z
#
# Youngs Moduli (GPa) = 110.78345 265.14593 45.19303
#
# Poissons Ratio (x) = 0.26588 0.15669
# Poissons Ratio (y) = 0.11109 0.04446
# Poissons Ratio (z) = 0.38410 0.26083
#
# Static dielectric constant tensor:
#      x y z
#    x 11.790130 0.000000 1.259790 
#    y 0.000000 1.929940 0.000000 
#    z 1.259790 0.000000 1.994400 
# 
# From -- ./inp_files/64954.got.cif
#   From: 2010.05.17/outbox.cif.g08.bks.cpg/sg5_33_cif.got.tgz:64954.got - 2010.06.03 18:56:24.
