data_PCOD9124218
_publ_section_title
;
Structure prediction by ZEFSAII (Michael W. Deem and Ramdas Pophale) SiO2 
 PCOD9124218
Probable space group: C 2
;
_chemical_formula_sum "Si O2"
_cell_formula_units_Z 24
_cell_length_a 20.511059
_cell_length_b 10.373036
_cell_length_c 9.774236
_cell_angle_alpha 90.000000
_cell_angle_beta 150.763851
_cell_angle_gamma 90.000000
_cell_volume 1015.691010
_symmetry_space_group_name_H-M "C 2"
_symmetry_group_IT_number 5
_symmetry_cell_setting 'monoclinic'
loop_
_space_group_symop_operation_xyz
x,y,z
-x,y,-z
1/2+x,1/2+y,z
1/2-x,1/2+y,-z
loop_
_atom_site_type_symbol
_atom_site_label
_atom_site_fract_x
_atom_site_fract_y
_atom_site_fract_z
Si Si1 0.562975 0.711930 0.261395
Si Si2 0.892903 0.923719 0.578517
Si Si3 0.346800 0.950685 0.673721
Si Si4 0.617473 0.156315 0.480906
Si Si5 0.350385 0.757894 0.100957
Si Si6 0.000000 0.032500 0.500000
Si Si7 0.500000 0.980586 0.500000
O O1 0.564975 0.559164 0.277754
O O2 0.472928 0.761797 0.219420
O O3 0.678968 0.818629 0.460903
O O4 0.500000 0.734219 0.000000
O O5 0.945815 0.781004 0.710132
O O6 0.738736 0.932400 0.345416
O O7 0.945505 0.947375 0.522232
O O8 0.313904 0.066749 0.508420
O O9 0.500000 0.978373 0.000000
O O10 0.528466 0.068265 0.418457
O O11 0.721984 0.226309 0.775291
O O12 0.380000 0.630346 0.243393
O O13 0.373991 0.885673 0.234727
#
# Coordination Sequence:
#
# PCOD9124218 Si02
#       7
#     4   4   4   4   4   2   2
#     4  10  20  42  69  93 133 187 226 285 359 420
#     4  11  23  40  64  99 139 173 242 288 347 419
#     4  11  23  42  68 101 142 185 234 290 356 424
#     4  12  25  41  71 106 134 189 232 292 362 407
#     4  10  22  44  67  95 141 184 235 281 354 420
#     4   9  23  42  64  94 130 192 226 290 344 416
#     4  11  25  46  68 104 146 184 240 294 350 430
#
# _framework density 23.629231999999998
#
# number of rings (size 3 to 8) (size 9 to 14) (size 15 to 20)
#    0.000    1.333    1.667    4.500    2.333    0.667 
#    0.000    3.333    0.000    0.000    0.000    0.000 
#    0.000    0.000    0.000    0.000    0.000    0.000 
#
# Total GULP energy -66824.292047 kJ/mol
# GULP energy per Si atom -5568.691004 kJ/mol
# Density = 2.357545 g / cm^3
# Si number density = 23.629232 Si / 1000 Ang^3
#
#
#
# Elastic Constant Matrix: (Units=GPa)
#
#
# Indices 1 2 3 4 5 6 
#
# 1 79.1830 44.6020 -20.4927 0.0000 8.2213 0.0000
# 2 44.6020 203.6544 11.6844 0.0000 -11.6041 0.0000
# 3 -20.4927 11.6844 28.8024 0.0000 -6.0045 0.0000
# 4 0.0000 0.0000 0.0000 15.6539 0.0000 16.1024
# 5 8.2213 -11.6041 -6.0045 0.0000 21.1400 0.0000
# 6 0.0000 0.0000 0.0000 16.1024 0.0000 -36.0520
#
#
#
# Elastic Compliance Matrix: (Units=1/GPa)
#
#
# Indices 1 2 3 4 5 6 
#
# 1 0.020649 -0.005805 0.015634 0.000000 -0.006776 0.000000
# 2 -0.005805 0.006769 -0.005985 0.000000 0.004273 0.000000
# 3 0.015634 -0.005985 0.049234 0.000000 0.004619 0.000000
# 4 0.000000 0.000000 0.000000 0.043772 0.000000 0.019550
# 5 -0.006776 0.004273 0.004619 0.000000 0.053596 0.000000
# 6 0.000000 0.000000 0.000000 0.019550 0.000000 -0.019006
#
#
# Mechanical properties :
#
#
# Convention : Reuss Voigt Hill
#
# Bulk Modulus (GPa) = 11.85725 42.58082 27.21903
# Shear Modulus (GPa) = 28.49994 18.53812 23.51903
#
# Velocity S-wave (km/s) = 3.47671 2.80401 3.15832
# Velocity P-wave (km/s) = 4.59843 5.34254 4.98439
#
# Compressibility (1/GPa) = 0.08433657
#
# Stress axis : x y z
#
# Youngs Moduli (GPa) = 48.42954 147.74180 20.31134
#
# Poissons Ratio (x) = 0.85768 -0.31754
# Poissons Ratio (y) = 0.28115 0.12157
# Poissons Ratio (z) = -0.75713 0.88430
#
# Static dielectric constant tensor:
#      x y z
#    x 1.845240 0.000000 -0.025590 
#    y 0.000000 2.017940 0.000000 
#    z -0.025590 0.000000 2.085120 
# 
# From -- ./inp_files/47369.got.cif
#   From: 2010.05.17/outbox.cif.g08.bks.cpg/sg5_24_cif.got.tgz:47369.got - 2010.06.03 18:56:24.
