data_PCOD9124160
_publ_section_title
;
Structure prediction by ZEFSAII (Michael W. Deem and Ramdas Pophale) SiO2 
 PCOD9124160
Probable space group: C 2
;
_chemical_formula_sum "Si O2"
_cell_formula_units_Z 30
_cell_length_a 5.269274
_cell_length_b 35.311443
_cell_length_c 8.299079
_cell_angle_alpha 90.000000
_cell_angle_beta 64.351203
_cell_angle_gamma 90.000000
_cell_volume 1392.017302
_symmetry_space_group_name_H-M "C 2"
_symmetry_group_IT_number 5
_symmetry_cell_setting 'monoclinic'
loop_
_space_group_symop_operation_xyz
x,y,z
-x,y,-z
1/2+x,1/2+y,z
1/2-x,1/2+y,-z
loop_
_atom_site_type_symbol
_atom_site_label
_atom_site_fract_x
_atom_site_fract_y
_atom_site_fract_z
Si Si1 0.667707 0.327610 0.614555
Si Si2 0.335894 0.625737 0.377412
Si Si3 0.148818 0.747356 0.784076
Si Si4 0.796624 0.550630 0.707055
Si Si5 0.837758 0.895556 0.874531
Si Si6 0.143247 0.205712 0.786358
Si Si7 0.528825 0.478025 0.183217
Si Si8 0.500000 0.036414 0.000000
O O1 0.500000 0.316629 0.500000
O O2 0.657626 0.290767 0.729258
O O3 0.480833 0.361954 0.735871
O O4 0.000000 0.337857 0.500000
O O5 0.500000 0.627702 0.500000
O O6 0.415758 0.585557 0.271284
O O7 0.395088 0.662457 0.254722
O O8 0.000000 0.628451 0.500000
O O9 0.462450 0.731432 0.715370
O O10 0.959537 0.721090 0.719617
O O11 0.000000 0.745466 0.000000
O O12 0.722272 0.506259 0.706349
O O13 0.000000 0.556223 0.500000
O O14 0.882232 0.556444 0.871317
O O15 0.907225 0.936237 0.771317
O O16 0.500000 0.892610 0.000000
O O17 0.000000 0.894366 0.000000
O O18 0.000000 0.210192 0.000000
O O19 0.780278 0.507223 0.139499
O O20 0.500000 0.472600 0.000000
#
# Coordination Sequence:
#
# PCOD9124160 Si02
#       8
#     4   4   4   4   4   4   4   2
#     4  12  26  42  63 102 137 170 223 277 338 406
#     4  11  25  43  62  94 136 173 218 269 341 407
#     4  10  22  42  66  93 126 174 220 268 332 407
#     4  10  24  41  64  98 133 179 228 287 341 415
#     4  11  23  44  70  94 134 179 224 277 338 407
#     4  10  22  41  66  95 125 165 225 273 327 398
#     4   9  20  39  65  93 123 170 228 270 335 404
#     4  10  20  42  66  92 126 176 232 270 344 400
#
# _framework density 21.551455000000001
#
# number of rings (size 3 to 8) (size 9 to 14) (size 15 to 20)
#    0.000    1.600    0.667    2.800    3.733    6.933 
#    6.000    0.000    0.000    0.000    0.000    0.000 
#    0.000    0.000    0.000    0.000    0.000    0.000 
#
# Total GULP energy -83604.074328 kJ/mol
# GULP energy per Si atom -5573.604955 kJ/mol
# Density = 2.150240 g / cm^3
# Si number density = 21.551455 Si / 1000 Ang^3
#
#
#
# Elastic Constant Matrix: (Units=GPa)
#
#
# Indices 1 2 3 4 5 6 
#
# 1 147.3425 37.8042 39.0618 0.0000 13.0338 0.0000
# 2 37.8042 153.7182 34.8399 0.0000 8.2166 0.0000
# 3 39.0618 34.8399 53.4560 0.0000 6.9263 0.0000
# 4 0.0000 0.0000 0.0000 67.7807 0.0000 43.2111
# 5 13.0338 8.2166 6.9263 0.0000 19.3332 0.0000
# 6 0.0000 0.0000 0.0000 43.2111 0.0000 98.4170
#
#
#
# Elastic Compliance Matrix: (Units=1/GPa)
#
#
# Indices 1 2 3 4 5 6 
#
# 1 0.008736 -0.000721 -0.005443 0.000000 -0.003633 0.000000
# 2 -0.000721 0.007736 -0.004354 0.000000 -0.001242 0.000000
# 3 -0.005443 -0.004354 0.026015 0.000000 -0.003800 0.000000
# 4 0.000000 0.000000 0.000000 0.020488 0.000000 -0.008996
# 5 -0.003633 -0.001242 -0.003800 0.000000 0.056063 0.000000
# 6 0.000000 0.000000 0.000000 -0.008996 0.000000 0.014110
#
#
# Mechanical properties :
#
#
# Convention : Reuss Voigt Hill
#
# Bulk Modulus (GPa) = 46.61940 64.21426 55.41683
# Shear Modulus (GPa) = 30.99123 53.29356 42.14239
#
# Velocity S-wave (km/s) = 3.79623 4.97817 4.42682
# Velocity P-wave (km/s) = 6.39482 7.93117 7.20407
#
# Compressibility (1/GPa) = 0.02145030
#
# Stress axis : x y z
#
# Youngs Moduli (GPa) = 114.46496 129.26695 38.43941
#
# Poissons Ratio (x) = 0.09315 0.20924
# Poissons Ratio (y) = 0.08248 0.16738
# Poissons Ratio (z) = 0.62308 0.56288
#
# Static dielectric constant tensor:
#      x y z
#    x 1.253700 0.000000 0.412220 
#    y 0.000000 1.797030 0.000000 
#    z 0.412220 0.000000 1.413160 
# 
# From -- ./inp_files/13339.got.cif
#   From: 2010.05.17/outbox.cif.g08.bks.cpg/sg5_7_cif.got.tgz:13339.got - 2010.06.03 18:56:24.
