data_PCOD9124754
_publ_section_title
;
Structure prediction by ZEFSAII (Michael W. Deem and Ramdas Pophale) SiO2 
 PCOD9124754
Probable space group: C 2
;
_chemical_formula_sum "Si O2"
_cell_formula_units_Z 32
_cell_length_a 14.969655
_cell_length_b 6.362041
_cell_length_c 14.618678
_cell_angle_alpha 90.000000
_cell_angle_beta 88.979913
_cell_angle_gamma 90.000000
_cell_volume 1392.026557
_symmetry_space_group_name_H-M "C 2"
_symmetry_group_IT_number 5
_symmetry_cell_setting 'monoclinic'
loop_
_space_group_symop_operation_xyz
x,y,z
-x,y,-z
1/2+x,1/2+y,z
1/2-x,1/2+y,-z
loop_
_atom_site_type_symbol
_atom_site_label
_atom_site_fract_x
_atom_site_fract_y
_atom_site_fract_z
Si Si1 0.510807 0.267010 0.606286
Si Si2 0.753294 0.272883 0.267539
Si Si3 0.659154 0.577626 0.388488
Si Si4 0.947774 0.766012 0.081955
Si Si5 0.810740 0.099602 0.091878
Si Si6 0.707145 0.435345 0.590115
Si Si7 0.433984 0.063119 0.773967
Si Si8 0.621920 0.904733 0.049536
O O1 0.500000 0.207142 0.500000
O O2 0.441153 0.470660 0.620279
O O3 0.615438 0.316253 0.619714
O O4 0.482888 0.079175 0.675739
O O5 0.716341 0.492810 0.302099
O O6 0.811602 0.264036 0.175322
O O7 0.665027 0.139010 0.245659
O O8 0.795447 0.148921 0.351488
O O9 0.694501 0.478979 0.482889
O O10 0.697697 0.815805 0.396232
O O11 0.014241 0.730134 0.163786
O O12 0.864010 0.893295 0.118538
O O13 0.919134 0.553092 0.029537
O O14 0.000000 0.885205 0.000000
O O15 0.711528 0.031560 0.070255
O O16 0.852926 0.192194 0.999886
O O17 0.426999 0.878999 0.850882
#
# Coordination Sequence:
#
# PCOD9124754 Si02
#       8
#     4   4   4   4   4   4   4   4
#     4   9  20  38  65  95 132 176 223 277 326 395
#     4  10  22  38  62  96 127 168 220 271 323 403
#     4  10  21  40  64  94 131 174 221 274 334 393
#     4  10  21  38  60  87 125 166 203 267 329 386
#     4  11  21  38  62  91 123 167 218 264 327 390
#     4  11  20  40  69  92 130 181 217 275 340 385
#     4   9  20  40  59  90 133 166 207 268 328 385
#     4  10  21  38  62  89 126 162 214 270 320 397
#
# _framework density 22.988068999999999
#
# number of rings (size 3 to 8) (size 9 to 14) (size 15 to 20)
#    0.000    2.000    2.500    0.750    0.000    3.500 
#    0.000    6.250    0.000    0.000    0.000    0.000 
#    0.000    0.000    0.000    0.000    0.000    0.000 
#
# Total GULP energy -89078.379144 kJ/mol
# GULP energy per Si atom -5567.398697 kJ/mol
# Density = 2.293575 g / cm^3
# Si number density = 22.988069 Si / 1000 Ang^3
#
#
#
# Elastic Constant Matrix: (Units=GPa)
#
#
# Indices 1 2 3 4 5 6 
#
# 1 63.4916 4.3154 34.9853 0.0000 -5.1360 0.0000
# 2 4.3154 12.6298 8.7610 0.0000 -7.0898 0.0000
# 3 34.9853 8.7610 96.4485 0.0000 -6.7033 0.0000
# 4 0.0000 0.0000 0.0000 22.7701 0.0000 -5.0800
# 5 -5.1360 -7.0898 -6.7033 0.0000 29.7152 0.0000
# 6 0.0000 0.0000 0.0000 -5.0800 0.0000 26.4941
#
#
#
# Elastic Compliance Matrix: (Units=1/GPa)
#
#
# Indices 1 2 3 4 5 6 
#
# 1 0.019793 -0.001024 -0.006975 0.000000 0.001603 0.000000
# 2 -0.001024 0.096226 -0.006894 0.000000 0.021226 0.000000
# 3 -0.006975 -0.006894 0.013539 0.000000 0.000204 0.000000
# 4 0.000000 0.000000 0.000000 0.045880 0.000000 0.008797
# 5 0.001603 0.021226 0.000204 0.000000 0.039040 0.000000
# 6 0.000000 0.000000 0.000000 0.008797 0.000000 0.039431
#
#
# Mechanical properties :
#
#
# Convention : Reuss Voigt Hill
#
# Bulk Modulus (GPa) = 10.02304 29.85482 19.93893
# Shear Modulus (GPa) = 15.77527 24.09643 19.93585
#
# Velocity S-wave (km/s) = 2.62245 3.24113 2.94806
# Velocity P-wave (km/s) = 3.67957 5.19825 4.50339
#
# Compressibility (1/GPa) = 0.09977016
#
# Stress axis : x y z
#
# Youngs Moduli (GPa) = 50.52325 10.39225 73.86217
#
# Poissons Ratio (x) = 0.01065 0.51520
# Poissons Ratio (y) = 0.05176 0.50920
# Poissons Ratio (z) = 0.35241 0.07164
#
# Static dielectric constant tensor:
#      x y z
#    x 1.953960 0.000000 0.016630 
#    y 0.000000 1.891150 0.000000 
#    z 0.016630 0.000000 1.967640 
# 
# From -- ./inp_files/55470.got.cif
#   From: 2010.05.17/outbox.cif.g08.bks.cpg/sg5_28_cif.got.tgz:55470.got - 2010.06.03 18:56:24.
