data_PCOD9124730
_publ_section_title
;
Structure prediction by ZEFSAII (Michael W. Deem and Ramdas Pophale) SiO2 
 PCOD9124730
Probable space group: C 2
;
_chemical_formula_sum "Si O2"
_cell_formula_units_Z 22
_cell_length_a 10.722656
_cell_length_b 9.006939
_cell_length_c 12.415641
_cell_angle_alpha 90.000000
_cell_angle_beta 66.817434
_cell_angle_gamma 90.000000
_cell_volume 1102.261961
_symmetry_space_group_name_H-M "C 2"
_symmetry_group_IT_number 5
_symmetry_cell_setting 'monoclinic'
loop_
_space_group_symop_operation_xyz
x,y,z
-x,y,-z
1/2+x,1/2+y,z
1/2-x,1/2+y,-z
loop_
_atom_site_type_symbol
_atom_site_label
_atom_site_fract_x
_atom_site_fract_y
_atom_site_fract_z
Si Si1 0.104977 0.131970 0.056330
Si Si2 0.494644 0.977293 0.667445
Si Si3 0.600371 0.987289 0.059987
Si Si4 0.185796 0.982842 0.467669
Si Si5 0.000000 0.713373 0.500000
Si Si6 0.034171 0.136073 0.326908
O O1 0.117375 0.309978 0.040839
O O2 0.051003 0.102297 0.195423
O O3 0.000000 0.079903 0.000000
O O4 0.252626 0.061107 0.994079
O O5 0.467186 0.012235 0.800946
O O6 0.654202 0.975487 0.586429
O O7 0.441349 0.811376 0.663596
O O8 0.437451 0.106610 0.611771
O O9 0.500000 0.041121 0.000000
O O10 0.114866 0.822969 0.506965
O O11 0.135967 0.043650 0.368098
O O12 0.113870 0.089872 0.578804
#
# Coordination Sequence:
#
# PCOD9124730 Si02
#       6
#     4   4   4   4   2   4
#     4  10  22  40  60  85 117 154 193 237 285 339
#     4  11  21  36  59  84 113 148 187 233 283 338
#     4  10  23  40  60  85 117 154 193 238 286 338
#     4  10  21  38  58  82 115 149 182 235 286 334
#     4  10  22  34  56  88 110 144 192 228 280 344
#     4   9  20  38  57  81 116 150 185 231 286 337
#
# _framework density 19.958959
#
# number of rings (size 3 to 8) (size 9 to 14) (size 15 to 20)
#    0.000    2.182    0.000    3.273    0.000    9.455 
#    0.000    5.455    0.000    0.000    0.000    0.000 
#    0.000    0.000    0.000    0.000    0.000    0.000 
#
# Total GULP energy -61446.136837 kJ/mol
# GULP energy per Si atom -5586.012440 kJ/mol
# Density = 1.991353 g / cm^3
# Si number density = 19.958959 Si / 1000 Ang^3
#
#
#
# Elastic Constant Matrix: (Units=GPa)
#
#
# Indices 1 2 3 4 5 6 
#
# 1 81.8691 8.5240 24.7491 0.0000 -6.2964 0.0000
# 2 8.5240 67.1001 46.8340 0.0000 10.3125 0.0000
# 3 24.7491 46.8340 105.0277 0.0000 0.1028 0.0000
# 4 0.0000 0.0000 0.0000 17.3713 0.0000 -0.4187
# 5 -6.2964 10.3125 0.1028 0.0000 21.7697 0.0000
# 6 0.0000 0.0000 0.0000 -0.4187 0.0000 25.9694
#
#
#
# Elastic Compliance Matrix: (Units=1/GPa)
#
#
# Indices 1 2 3 4 5 6 
#
# 1 0.013478 -0.000153 -0.003112 0.000000 0.003985 0.000000
# 2 -0.000153 0.024171 -0.010731 0.000000 -0.011444 0.000000
# 3 -0.003112 -0.010731 0.015036 0.000000 0.004113 0.000000
# 4 0.000000 0.000000 0.000000 0.057588 0.000000 0.000929
# 5 0.003985 -0.011444 0.004113 0.000000 0.052489 0.000000
# 6 0.000000 0.000000 0.000000 0.000929 0.000000 0.038522
#
#
# Mechanical properties :
#
#
# Convention : Reuss Voigt Hill
#
# Bulk Modulus (GPa) = 40.49662 46.02345 43.26004
# Shear Modulus (GPa) = 21.05197 24.61476 22.83337
#
# Velocity S-wave (km/s) = 3.25124 3.51560 3.38600
# Velocity P-wave (km/s) = 5.86754 6.29193 6.08344
#
# Compressibility (1/GPa) = 0.02469342
#
# Stress axis : x y z
#
# Youngs Moduli (GPa) = 74.19669 41.37114 66.50771
#
# Poissons Ratio (x) = 0.00632 0.20695
# Poissons Ratio (y) = 0.01133 0.71372
# Poissons Ratio (z) = 0.23088 0.44397
#
# Static dielectric constant tensor:
#      x y z
#    x 1.699830 0.000000 0.019010 
#    y 0.000000 1.709840 0.000000 
#    z 0.019010 0.000000 1.684590 
# 
# From -- ./inp_files/38120.got.cif
#   From: 2010.05.17/outbox.cif.g08.bks.cpg/sg5_20_cif.got.tgz:38120.got - 2010.06.03 18:56:24.
