data_PCOD9124192
_publ_section_title
;
Structure prediction by ZEFSAII (Michael W. Deem and Ramdas Pophale) SiO2 
 PCOD9124192
Probable space group: C 2
;
_chemical_formula_sum "Si O2"
_cell_formula_units_Z 28
_cell_length_a 30.017764
_cell_length_b 4.947889
_cell_length_c 7.924926
_cell_angle_alpha 90.000000
_cell_angle_beta 69.649460
_cell_angle_gamma 90.000000
_cell_volume 1103.577950
_symmetry_space_group_name_H-M "C 2"
_symmetry_group_IT_number 5
_symmetry_cell_setting 'monoclinic'
loop_
_space_group_symop_operation_xyz
x,y,z
-x,y,-z
1/2+x,1/2+y,z
1/2-x,1/2+y,-z
loop_
_atom_site_type_symbol
_atom_site_label
_atom_site_fract_x
_atom_site_fract_y
_atom_site_fract_z
Si Si1 0.000000 0.756630 0.000000
Si Si2 0.223677 0.753027 0.602305
Si Si3 0.687195 0.397197 0.005488
Si Si4 0.357449 0.554434 0.470923
Si Si5 0.952747 0.238797 0.233041
Si Si6 0.000000 0.971637 0.500000
Si Si7 0.675330 0.901074 0.209617
Si Si8 0.096406 0.745866 0.274332
O O1 0.023827 0.525271 0.846072
O O2 0.039347 0.996151 0.913928
O O3 0.259995 0.953271 0.459879
O O4 0.172337 0.846692 0.599398
O O5 0.217030 0.806203 0.808751
O O6 0.697114 0.193631 0.149305
O O7 0.694480 0.704615 0.042170
O O8 0.629237 0.359201 0.078098
O O9 0.396101 0.740846 0.329263
O O10 0.321913 0.749035 0.619923
O O11 0.385085 0.385315 0.578167
O O12 0.976801 0.144004 0.378590
O O13 0.959202 0.794814 0.647863
O O14 0.617982 0.945173 0.257561
#
# Coordination Sequence:
#
# PCOD9124192 Si02
#       8
#     2   4   4   4   4   2   4   4
#     4  10  24  44  58 100 146 180 234 268 350 390
#     4  12  28  45  70 103 134 172 235 294 348 419
#     4   9  20  42  65  94 133 171 216 274 346 403
#     4  10  23  44  72  93 135 182 226 276 358 405
#     4  10  24  43  65  97 138 187 224 288 330 415
#     4  10  20  42  68 106 132 176 242 278 314 392
#     4   9  19  41  67  92 125 174 219 257 338 406
#     4   8  20  40  68  97 133 179 220 272 326 408
#
# _framework density 25.372019000000002
#
# number of rings (size 3 to 8) (size 9 to 14) (size 15 to 20)
#    0.857    1.429    0.000    0.857    6.000    2.857 
#    7.714    8.571    0.000    0.000    0.000    0.000 
#    0.000    0.000    0.000    0.000    0.000    0.000 
#
# Total GULP energy -78029.602038 kJ/mol
# GULP energy per Si atom -5573.543003 kJ/mol
# Density = 2.531427 g / cm^3
# Si number density = 25.372019 Si / 1000 Ang^3
#
#
#
# Elastic Constant Matrix: (Units=GPa)
#
#
# Indices 1 2 3 4 5 6 
#
# 1 76.1632 1.1309 14.2956 0.0000 -20.3716 0.0000
# 2 1.1309 106.6546 8.5582 0.0000 -1.4484 0.0000
# 3 14.2956 8.5582 106.1670 0.0000 -40.9899 0.0000
# 4 0.0000 0.0000 0.0000 37.7856 0.0000 -2.7903
# 5 -20.3716 -1.4484 -40.9899 0.0000 31.9872 0.0000
# 6 0.0000 0.0000 0.0000 -2.7903 0.0000 15.7063
#
#
#
# Elastic Compliance Matrix: (Units=1/GPa)
#
#
# Indices 1 2 3 4 5 6 
#
# 1 0.016512 -0.000263 0.003668 0.000000 0.015204 0.000000
# 2 -0.000263 0.009460 -0.001240 0.000000 -0.001328 0.000000
# 3 0.003668 -0.001240 0.019605 0.000000 0.027403 0.000000
# 4 0.000000 0.000000 0.000000 0.026817 0.000000 0.004764
# 5 0.015204 -0.001328 0.027403 0.000000 0.076000 0.000000
# 6 0.000000 0.000000 0.000000 0.004764 0.000000 0.064515
#
#
# Mechanical properties :
#
#
# Convention : Reuss Voigt Hill
#
# Bulk Modulus (GPa) = 20.03705 37.43936 28.73820
# Shear Modulus (GPa) = 22.20101 34.76250 28.48176
#
# Velocity S-wave (km/s) = 2.96128 3.70552 3.35411
# Velocity P-wave (km/s) = 4.42795 5.75291 5.13336
#
# Compressibility (1/GPa) = 0.04990755
#
# Stress axis : x y z
#
# Youngs Moduli (GPa) = 60.56253 105.70483 51.00741
#
# Poissons Ratio (x) = 0.02779 -0.18710
# Poissons Ratio (y) = 0.01592 0.06324
# Poissons Ratio (z) = -0.22215 0.13107
#
# Static dielectric constant tensor:
#      x y z
#    x 2.177280 0.000000 -0.031700 
#    y 0.000000 1.959380 0.000000 
#    z -0.031700 0.000000 2.036310 
# 
# From -- ./inp_files/32125.got.cif
#   From: 2010.05.17/outbox.cif.g08.bks.cpg/sg5_17_cif.got.tgz:32125.got - 2010.06.03 18:56:24.
