data_PCOD9124670
_publ_section_title
;
Structure prediction by ZEFSAII (Michael W. Deem and Ramdas Pophale) SiO2 
 PCOD9124670
Probable space group: C 2
;
_chemical_formula_sum "Si O2"
_cell_formula_units_Z 32
_cell_length_a 13.230927
_cell_length_b 8.570091
_cell_length_c 21.218851
_cell_angle_alpha 90.000000
_cell_angle_beta 38.596980
_cell_angle_gamma 90.000000
_cell_volume 1500.961926
_symmetry_space_group_name_H-M "C 2"
_symmetry_group_IT_number 5
_symmetry_cell_setting 'monoclinic'
loop_
_space_group_symop_operation_xyz
x,y,z
-x,y,-z
1/2+x,1/2+y,z
1/2-x,1/2+y,-z
loop_
_atom_site_type_symbol
_atom_site_label
_atom_site_fract_x
_atom_site_fract_y
_atom_site_fract_z
Si Si1 0.842626 0.906920 0.285186
Si Si2 0.824343 0.044183 0.427715
Si Si3 0.324454 0.093201 0.232246
Si Si4 0.917622 0.396032 0.971836
Si Si5 0.884048 0.131276 0.890744
Si Si6 0.422286 0.778810 0.739452
Si Si7 0.438227 0.373797 0.597321
Si Si8 0.553607 0.048717 0.357983
O O1 0.860435 0.933904 0.350396
O O2 0.892635 0.736222 0.239002
O O3 0.657306 0.946266 0.357091
O O4 0.952054 0.030463 0.194132
O O5 0.920222 0.974055 0.439663
O O6 0.635607 0.052539 0.533341
O O7 0.905097 0.208003 0.367534
O O8 0.208452 0.175885 0.236250
O O9 0.453082 0.986932 0.134604
O O10 0.214668 0.987007 0.330881
O O11 0.873746 0.233601 0.958758
O O12 0.761821 0.509817 0.049474
O O13 0.000000 0.374110 0.000000
O O14 0.892254 0.247783 0.826995
O O15 0.415564 0.957659 0.721803
O O16 0.500000 0.315521 0.500000
O O17 0.391660 0.226713 0.662977
#
# Coordination Sequence:
#
# PCOD9124670 Si02
#       8
#     4   4   4   4   4   4   4   4
#     4  10  22  41  66  94 134 170 224 277 343 415
#     4  10  21  37  62  90 131 176 224 277 330 406
#     4  10  22  43  66  93 132 181 217 286 343 404
#     4  12  25  46  74  99 142 177 232 292 351 421
#     4  11  24  47  69 104 132 179 225 288 354 416
#     4   9  21  41  63  88 134 176 222 278 345 405
#     4  11  24  39  61  94 139 177 228 278 330 401
#     4  11  21  37  61  94 130 179 219 276 337 397
#
# _framework density 21.319661
#
# number of rings (size 3 to 8) (size 9 to 14) (size 15 to 20)
#    0.000    1.500    1.250    3.375    0.000    8.000 
#    6.750    0.625    0.000    0.000    0.000    0.000 
#    0.000    0.000    0.000    0.000    0.000    0.000 
#
# Total GULP energy -89474.979073 kJ/mol
# GULP energy per Si atom -5592.186192 kJ/mol
# Density = 2.127114 g / cm^3
# Si number density = 21.319661 Si / 1000 Ang^3
#
#
#
# Elastic Constant Matrix: (Units=GPa)
#
#
# Indices 1 2 3 4 5 6 
#
# 1 41.6211 31.9870 10.2422 0.0000 -6.8900 0.0000
# 2 31.9870 94.0251 14.4896 0.0000 17.2766 0.0000
# 3 10.2422 14.4896 52.5524 0.0000 -14.8714 0.0000
# 4 0.0000 0.0000 0.0000 20.6875 0.0000 5.5774
# 5 -6.8900 17.2766 -14.8714 0.0000 18.9152 0.0000
# 6 0.0000 0.0000 0.0000 5.5774 0.0000 33.6942
#
#
#
# Elastic Compliance Matrix: (Units=1/GPa)
#
#
# Indices 1 2 3 4 5 6 
#
# 1 0.056162 -0.033307 0.016251 0.000000 0.063656 0.000000
# 2 -0.033307 0.036714 -0.021291 0.000000 -0.062405 0.000000
# 3 0.016251 -0.021291 0.037182 0.000000 0.054600 0.000000
# 4 0.000000 0.000000 0.000000 0.050596 0.000000 -0.008375
# 5 0.063656 -0.062405 0.054600 0.000000 0.175981 0.000000
# 6 0.000000 0.000000 0.000000 -0.008375 0.000000 0.031065
#
#
# Mechanical properties :
#
#
# Convention : Reuss Voigt Hill
#
# Bulk Modulus (GPa) = 18.73882 33.51514 26.12698
# Shear Modulus (GPa) = 10.36950 23.42468 16.89709
#
# Velocity S-wave (km/s) = 2.20780 3.31831 2.81830
# Velocity P-wave (km/s) = 3.91251 5.51689 4.78245
#
# Compressibility (1/GPa) = 0.05336516
#
# Stress axis : x y z
#
# Youngs Moduli (GPa) = 17.80551 27.23754 26.89449
#
# Poissons Ratio (x) = 0.90720 -0.43707
# Poissons Ratio (y) = 0.59305 0.57261
# Poissons Ratio (z) = -0.28936 0.57991
#
# Static dielectric constant tensor:
#      x y z
#    x 1.791030 0.000000 -0.026700 
#    y 0.000000 1.775040 0.000000 
#    z -0.026700 0.000000 1.739000 
# 
# From -- ./inp_files/68754.got.cif
#   From: 2010.05.17/outbox.cif.g08.bks.cpg/sg5_35_cif.got.tgz:68754.got - 2010.06.03 18:56:24.
