data_PCOD9124666
_publ_section_title
;
Structure prediction by ZEFSAII (Michael W. Deem and Ramdas Pophale) SiO2 
 PCOD9124666
Probable space group: C 2
;
_chemical_formula_sum "Si O2"
_cell_formula_units_Z 22
_cell_length_a 7.082457
_cell_length_b 25.798535
_cell_length_c 8.031338
_cell_angle_alpha 90.000000
_cell_angle_beta 140.171117
_cell_angle_gamma 90.000000
_cell_volume 939.904947
_symmetry_space_group_name_H-M "C 2"
_symmetry_group_IT_number 5
_symmetry_cell_setting 'monoclinic'
loop_
_space_group_symop_operation_xyz
x,y,z
-x,y,-z
1/2+x,1/2+y,z
1/2-x,1/2+y,-z
loop_
_atom_site_type_symbol
_atom_site_label
_atom_site_fract_x
_atom_site_fract_y
_atom_site_fract_z
Si Si1 0.611076 0.261030 0.891939
Si Si2 0.150415 0.654203 0.421217
Si Si3 0.341234 0.592742 0.074078
Si Si4 0.381661 0.804677 0.599206
Si Si5 0.500000 0.006625 0.000000
Si Si6 0.149189 0.407693 0.268635
O O1 0.455162 0.206775 0.740626
O O2 0.468856 0.298564 0.659252
O O3 0.500000 0.277023 0.000000
O O4 0.960832 0.267637 0.158115
O O5 0.479190 0.635230 0.693417
O O6 0.000000 0.657385 0.500000
O O7 0.983968 0.611457 0.198941
O O8 0.500000 0.585792 0.000000
O O9 0.280850 0.541172 0.138721
O O10 0.500000 0.787176 0.500000
O O11 0.454247 0.865090 0.670359
O O12 0.446373 0.967773 0.807068
O O13 0.500000 0.407656 0.500000
O O14 0.000000 0.386524 0.000000
#
# Coordination Sequence:
#
# PCOD9124666 Si02
#       6
#     4   4   4   4   2   4
#     4  10  21  37  61  95 127 169 216 259 326 397
#     4  10  22  40  62  95 130 172 217 266 330 396
#     4  10  23  43  65  95 134 170 218 278 332 394
#     4  10  21  40  61  91 131 167 210 267 326 386
#     4  10  26  44  68  98 132 176 232 270 346 384
#     4  10  23  41  61  94 125 162 230 264 325 396
#
# _framework density 23.406621999999999
#
# number of rings (size 3 to 8) (size 9 to 14) (size 15 to 20)
#    0.545    1.455    0.000    2.182    3.818    2.182 
#    3.273    0.000    0.000    0.000    0.000    0.000 
#    0.000    0.000    0.000    0.000    0.000    0.000 
#
# Total GULP energy -61258.971313 kJ/mol
# GULP energy per Si atom -5568.997392 kJ/mol
# Density = 2.335335 g / cm^3
# Si number density = 23.406622 Si / 1000 Ang^3
#
#
#
# Elastic Constant Matrix: (Units=GPa)
#
#
# Indices 1 2 3 4 5 6 
#
# 1 48.2353 17.8841 39.0739 0.0000 -4.6716 0.0000
# 2 17.8841 129.6415 46.4544 0.0000 -2.7530 0.0000
# 3 39.0739 46.4544 196.0298 0.0000 5.2375 0.0000
# 4 0.0000 0.0000 0.0000 91.7780 0.0000 26.4539
# 5 -4.6716 -2.7530 5.2375 0.0000 32.9485 0.0000
# 6 0.0000 0.0000 0.0000 26.4539 0.0000 44.3930
#
#
#
# Elastic Compliance Matrix: (Units=1/GPa)
#
#
# Indices 1 2 3 4 5 6 
#
# 1 0.025694 -0.001724 -0.004827 0.000000 0.004266 0.000000
# 2 -0.001724 0.008580 -0.001709 0.000000 0.000744 0.000000
# 3 -0.004827 -0.001709 0.006518 0.000000 -0.001863 0.000000
# 4 0.000000 0.000000 0.000000 0.013155 0.000000 -0.007839
# 5 0.004266 0.000744 -0.001863 0.000000 0.031314 0.000000
# 6 0.000000 0.000000 0.000000 -0.007839 0.000000 0.027198
#
#
# Mechanical properties :
#
#
# Convention : Reuss Voigt Hill
#
# Bulk Modulus (GPa) = 41.20118 64.52571 52.86344
# Shear Modulus (GPa) = 36.47752 51.85686 44.16719
#
# Velocity S-wave (km/s) = 3.95197 4.71199 4.34862
# Velocity P-wave (km/s) = 6.20199 7.56512 6.91721
#
# Compressibility (1/GPa) = 0.02427115
#
# Stress axis : x y z
#
# Youngs Moduli (GPa) = 38.91905 116.55320 153.41502
#
# Poissons Ratio (x) = 0.20097 0.74052
# Poissons Ratio (y) = 0.06711 0.26224
# Poissons Ratio (z) = 0.18786 0.19923
#
# Static dielectric constant tensor:
#      x y z
#    x 1.906450 0.000000 0.072270 
#    y 0.000000 1.930820 0.000000 
#    z 0.072270 0.000000 1.948490 
# 
# From -- ./inp_files/17656.got.cif
#   From: 2010.05.17/outbox.cif.g08.bks.cpg/sg5_9_cif.got.tgz:17656.got - 2010.06.03 18:56:24.
