data_PCOD9124277
_publ_section_title
;
Structure prediction by ZEFSAII (Michael W. Deem and Ramdas Pophale) SiO2 
 PCOD9124277
Probable space group: C 2
;
_chemical_formula_sum "Si O2"
_cell_formula_units_Z 26
_cell_length_a 11.793755
_cell_length_b 8.628090
_cell_length_c 20.018693
_cell_angle_alpha 90.000000
_cell_angle_beta 148.997950
_cell_angle_gamma 90.000000
_cell_volume 1049.222713
_symmetry_space_group_name_H-M "C 2"
_symmetry_group_IT_number 5
_symmetry_cell_setting 'monoclinic'
loop_
_space_group_symop_operation_xyz
x,y,z
-x,y,-z
1/2+x,1/2+y,z
1/2-x,1/2+y,-z
loop_
_atom_site_type_symbol
_atom_site_label
_atom_site_fract_x
_atom_site_fract_y
_atom_site_fract_z
Si Si1 0.743270 0.006730 0.358283
Si Si2 0.755148 0.233916 0.245481
Si Si3 0.000000 0.054865 0.000000
Si Si4 0.668284 0.789462 0.862010
Si Si5 0.784925 0.543378 0.422058
Si Si6 0.227405 0.755342 0.466495
Si Si7 0.961920 0.063350 0.840506
O O1 0.712978 0.091093 0.272186
O O2 0.691541 0.132169 0.389736
O O3 0.000000 0.965855 0.500000
O O4 0.566131 0.871975 0.270522
O O5 0.746994 0.205682 0.162355
O O6 0.601127 0.380891 0.184567
O O7 0.011661 0.275640 0.388329
O O8 0.896644 0.131126 0.881139
O O9 0.819144 0.943791 0.942987
O O10 0.672697 0.669775 0.926064
O O11 0.861337 0.679633 0.510390
O O12 0.652434 0.422460 0.401781
O O13 0.657111 0.589046 0.291245
O O14 0.000000 0.462202 0.500000
#
# Coordination Sequence:
#
# PCOD9124277 Si02
#       7
#     4   4   2   4   4   4   4
#     4  10  22  40  66 106 147 179 215 274 344 422
#     4  10  20  43  63  96 140 181 212 273 342 407
#     4  10  28  48  72  92 136 184 242 304 336 390
#     4  11  24  47  70 100 130 178 240 286 344 404
#     4  12  23  41  67 102 145 179 222 278 355 418
#     4  11  21  38  63 104 147 183 214 273 350 427
#     4  11  23  46  73  95 130 186 234 290 345 401
#
# _framework density 24.780249999999999
#
# number of rings (size 3 to 8) (size 9 to 14) (size 15 to 20)
#    0.000    1.231    4.615    1.385    2.154    3.077 
#    2.769    5.385    0.000    0.923    0.000    0.000 
#    0.000    0.000    0.000    0.000    0.000    0.000 
#
# Total GULP energy -72465.874006 kJ/mol
# GULP energy per Si atom -5574.298000 kJ/mol
# Density = 2.472385 g / cm^3
# Si number density = 24.780250 Si / 1000 Ang^3
#
#
#
# Elastic Constant Matrix: (Units=GPa)
#
#
# Indices 1 2 3 4 5 6 
#
# 1 142.3401 65.5245 27.6037 0.0002 -35.8090 0.0000
# 2 65.5245 92.8979 24.0606 0.0007 -10.1143 0.0002
# 3 27.6037 24.0606 65.5864 0.0017 -20.2656 0.0003
# 4 0.0002 0.0007 0.0017 12.6087 0.0007 4.4147
# 5 -35.8090 -10.1143 -20.2656 0.0007 46.2120 0.0000
# 6 0.0000 0.0002 0.0003 4.4147 0.0000 52.4301
#
#
#
# Elastic Compliance Matrix: (Units=1/GPa)
#
#
# Indices 1 2 3 4 5 6 
#
# 1 0.012839 -0.008198 0.000143 0.000000 0.008217 0.000000
# 2 -0.008198 0.017155 -0.004217 0.000000 -0.004447 0.000000
# 3 0.000143 -0.004217 0.019067 -0.000003 0.007549 0.000000
# 4 0.000000 0.000000 -0.000003 0.081720 -0.000003 -0.006881
# 5 0.008217 -0.004447 0.007549 -0.000003 0.030344 0.000000
# 6 0.000000 0.000000 0.000000 -0.006881 0.000000 0.019652
#
#
# Mechanical properties :
#
#
# Convention : Reuss Voigt Hill
#
# Bulk Modulus (GPa) = 40.79011 59.46688 50.12850
# Shear Modulus (GPa) = 23.42000 34.49253 28.95626
#
# Velocity S-wave (km/s) = 3.07760 3.73491 3.42207
# Velocity P-wave (km/s) = 5.39678 6.53064 5.99060
#
# Compressibility (1/GPa) = 0.02451575
#
# Stress axis : x y z
#
# Youngs Moduli (GPa) = 77.88917 58.29220 52.44771
#
# Poissons Ratio (x) = 0.47788 -0.00750
# Poissons Ratio (y) = 0.63854 0.22118
# Poissons Ratio (z) = -0.01113 0.24583
#
# Static dielectric constant tensor:
#      x y z
#    x 2.051970 0.000000 -0.005440 
#    y 0.000000 1.990720 0.000000 
#    z -0.005440 0.000000 2.196840 
# 
# From -- ./inp_files/65085.got.cif
#   From: 2010.05.17/outbox.cif.g08.bks.cpg/sg5_33_cif.got.tgz:65085.got - 2010.06.03 18:56:24.
