data_PCOD9124149
_publ_section_title
;
Structure prediction by ZEFSAII (Michael W. Deem and Ramdas Pophale) SiO2 
 PCOD9124149
Probable space group: C 2
;
_chemical_formula_sum "Si O2"
_cell_formula_units_Z 26
_cell_length_a 9.883660
_cell_length_b 18.745704
_cell_length_c 9.120828
_cell_angle_alpha 90.000000
_cell_angle_beta 44.206454
_cell_angle_gamma 90.000000
_cell_volume 1178.256267
_symmetry_space_group_name_H-M "C 2"
_symmetry_group_IT_number 5
_symmetry_cell_setting 'monoclinic'
loop_
_space_group_symop_operation_xyz
x,y,z
-x,y,-z
1/2+x,1/2+y,z
1/2-x,1/2+y,-z
loop_
_atom_site_type_symbol
_atom_site_label
_atom_site_fract_x
_atom_site_fract_y
_atom_site_fract_z
Si Si1 0.724025 0.458250 0.141217
Si Si2 0.189990 0.836203 0.946477
Si Si3 0.332668 0.648529 0.505738
Si Si4 0.587966 0.590088 0.083835
Si Si5 0.000000 0.409488 0.500000
Si Si6 0.560704 0.181693 0.113814
Si Si7 0.360393 0.992098 0.333263
O O1 0.590059 0.523642 0.193963
O O2 0.733751 0.452425 0.308033
O O3 0.679586 0.384151 0.099042
O O4 0.926980 0.483029 0.906210
O O5 0.369117 0.860929 0.707318
O O6 0.182025 0.753122 0.990524
O O7 0.000000 0.852084 0.000000
O O8 0.500000 0.656308 0.500000
O O9 0.444438 0.647795 0.266380
O O10 0.218878 0.572664 0.606176
O O11 0.149089 0.701075 0.655804
O O12 0.500000 0.565510 0.000000
O O13 0.799358 0.626677 0.911787
O O14 0.876925 0.459100 0.482796
O O15 0.500000 0.152062 0.000000
#
# Coordination Sequence:
#
# PCOD9124149 Si02
#       7
#     4   4   4   4   2   4   4
#     4  10  20  42  65  99 139 182 216 293 350 413
#     4  10  24  42  69  93 141 181 232 284 348 415
#     4  12  23  39  73 100 130 187 232 285 350 412
#     4  12  26  41  70 101 142 180 238 290 354 409
#     4  10  24  42  66 108 134 182 230 288 352 422
#     4  11  23  46  67  97 140 185 238 287 341 421
#     4  10  21  37  67 104 136 168 229 288 347 410
#
# _framework density 22.066507999999999
#
# number of rings (size 3 to 8) (size 9 to 14) (size 15 to 20)
#    0.000    1.231    4.615    0.462    6.462    3.077 
#    5.538    0.000    6.769    0.000    0.000    0.000 
#    0.000    0.000    0.000    0.000    0.000    0.000 
#
# Total GULP energy -72601.600401 kJ/mol
# GULP energy per Si atom -5584.738492 kJ/mol
# Density = 2.201628 g / cm^3
# Si number density = 22.066508 Si / 1000 Ang^3
#
#
#
# Elastic Constant Matrix: (Units=GPa)
#
#
# Indices 1 2 3 4 5 6 
#
# 1 125.4643 50.8472 18.0003 0.0000 18.6579 0.0000
# 2 50.8472 78.9556 8.5385 0.0000 3.1053 0.0000
# 3 18.0003 8.5385 58.0069 0.0000 -4.6010 0.0000
# 4 0.0000 0.0000 0.0000 25.6284 0.0000 -11.2725
# 5 18.6579 3.1053 -4.6010 0.0000 40.3080 0.0000
# 6 0.0000 0.0000 0.0000 -11.2725 0.0000 15.0509
#
#
#
# Elastic Compliance Matrix: (Units=1/GPa)
#
#
# Indices 1 2 3 4 5 6 
#
# 1 0.012185 -0.007294 -0.003139 0.000000 -0.005437 0.000000
# 2 -0.007294 0.017296 -0.000121 0.000000 0.002030 0.000000
# 3 -0.003139 -0.000121 0.018515 0.000000 0.003576 0.000000
# 4 0.000000 0.000000 0.000000 0.058188 0.000000 0.043580
# 5 -0.005437 0.002030 0.003576 0.000000 0.027577 0.000000
# 6 0.000000 0.000000 0.000000 0.043580 0.000000 0.099080
#
#
# Mechanical properties :
#
#
# Convention : Reuss Voigt Hill
#
# Bulk Modulus (GPa) = 37.19211 46.35544 41.77377
# Shear Modulus (GPa) = 19.01773 28.53352 23.77562
#
# Velocity S-wave (km/s) = 2.93889 3.59983 3.28602
# Velocity P-wave (km/s) = 5.32984 6.19121 5.77661
#
# Compressibility (1/GPa) = 0.02688742
#
# Stress axis : x y z
#
# Youngs Moduli (GPa) = 82.06623 57.81688 54.01076
#
# Poissons Ratio (x) = 0.42172 0.16953
# Poissons Ratio (y) = 0.59859 0.00656
# Poissons Ratio (z) = 0.25759 0.00702
#
# Static dielectric constant tensor:
#      x y z
#    x 1.842300 0.000000 -0.059060 
#    y 0.000000 1.844120 0.000000 
#    z -0.059060 0.000000 1.907250 
# 
# From -- ./inp_files/17015.got.cif
#   From: 2010.05.17/outbox.cif.g08.bks.cpg/sg5_9_cif.got.tgz:17015.got - 2010.06.03 18:56:24.
