data_PCOD9124545
_publ_section_title
;
Structure prediction by ZEFSAII (Michael W. Deem and Ramdas Pophale) SiO2 
 PCOD9124545
Probable space group: C 2
;
_chemical_formula_sum "Si O2"
_cell_formula_units_Z 20
_cell_length_a 18.982749
_cell_length_b 5.099318
_cell_length_c 10.236722
_cell_angle_alpha 90.000000
_cell_angle_beta 68.093235
_cell_angle_gamma 90.000000
_cell_volume 919.354130
_symmetry_space_group_name_H-M "C 2"
_symmetry_group_IT_number 5
_symmetry_cell_setting 'monoclinic'
loop_
_space_group_symop_operation_xyz
x,y,z
-x,y,-z
1/2+x,1/2+y,z
1/2-x,1/2+y,-z
loop_
_atom_site_type_symbol
_atom_site_label
_atom_site_fract_x
_atom_site_fract_y
_atom_site_fract_z
Si Si1 0.205201 0.827660 0.004418
Si Si2 0.169958 0.463578 0.605941
Si Si3 0.578187 0.451650 0.608882
Si Si4 0.766185 0.318320 0.705201
Si Si5 0.595726 0.518328 0.293426
O O1 0.232478 0.528251 0.979844
O O2 0.134549 0.857912 0.149348
O O3 0.206189 0.921393 0.852873
O O4 0.229780 0.549862 0.673892
O O5 0.131584 0.181123 0.626444
O O6 0.213853 0.484235 0.436390
O O7 0.992003 0.050351 0.683005
O O8 0.603269 0.180660 0.656494
O O9 0.591715 0.407272 0.443918
O O10 0.846404 0.261527 0.722516
#
# Coordination Sequence:
#
# PCOD9124545 Si02
#       5
#     4   4   4   4   4
#     4  10  21  36  59  89 117 149 194 243 286 336
#     4  11  22  37  58  87 117 149 191 240 289 340
#     4  10  22  37  59  87 118 151 189 238 291 341
#     4  10  21  39  63  87 115 153 198 240 285 341
#     4   9  20  38  60  86 116 152 194 237 285 343
#
# _framework density 21.754404000000001
#
# number of rings (size 3 to 8) (size 9 to 14) (size 15 to 20)
#    0.000    2.000    0.000    3.600    0.000   14.400 
#    0.000    1.000    0.000    4.800    0.000    0.000 
#    0.000    0.000    0.000    0.000    0.000    0.000 
#
# Total GULP energy -55731.072132 kJ/mol
# GULP energy per Si atom -5573.107213 kJ/mol
# Density = 2.170489 g / cm^3
# Si number density = 21.754404 Si / 1000 Ang^3
#
#
#
# Elastic Constant Matrix: (Units=GPa)
#
#
# Indices 1 2 3 4 5 6 
#
# 1 101.2716 33.3794 47.9694 0.0000 -24.6259 0.0000
# 2 33.3794 71.7542 12.8803 0.0000 -5.8484 0.0000
# 3 47.9694 12.8803 144.8686 0.0000 -3.6769 0.0000
# 4 0.0000 0.0000 0.0000 27.7270 0.0000 9.3127
# 5 -24.6259 -5.8484 -3.6769 0.0000 39.7826 0.0000
# 6 0.0000 0.0000 0.0000 9.3127 0.0000 26.5037
#
#
#
# Elastic Compliance Matrix: (Units=1/GPa)
#
#
# Indices 1 2 3 4 5 6 
#
# 1 0.016127 -0.005971 -0.004589 0.000000 0.008681 0.000000
# 2 -0.005971 0.016529 0.000476 0.000000 -0.001222 0.000000
# 3 -0.004589 0.000476 0.008329 0.000000 -0.002001 0.000000
# 4 0.000000 0.000000 0.000000 0.040892 0.000000 -0.014368
# 5 0.008681 -0.001222 -0.002001 0.000000 0.030146 0.000000
# 6 0.000000 0.000000 0.000000 -0.014368 0.000000 0.042779
#
#
# Mechanical properties :
#
#
# Convention : Reuss Voigt Hill
#
# Bulk Modulus (GPa) = 48.03391 56.26140 52.14766
# Shear Modulus (GPa) = 27.48650 33.71368 30.60009
#
# Velocity S-wave (km/s) = 3.55842 3.94094 3.75456
# Velocity P-wave (km/s) = 6.24589 6.82834 6.54360
#
# Compressibility (1/GPa) = 0.02081862
#
# Stress axis : x y z
#
# Youngs Moduli (GPa) = 62.00815 60.50006 120.06056
#
# Poissons Ratio (x) = 0.36124 0.55093
# Poissons Ratio (y) = 0.37024 -0.05721
# Poissons Ratio (z) = 0.28454 -0.02883
#
# Static dielectric constant tensor:
#      x y z
#    x 1.802030 0.000000 0.015450 
#    y 0.000000 1.841530 0.000000 
#    z 0.015450 0.000000 1.837140 
# 
# From -- ./inp_files/56294.got.cif
#   From: 2010.05.17/outbox.cif.g08.bks.cpg/sg5_29_cif.got.tgz:56294.got - 2010.06.03 18:56:24.
