data_PCOD9124702
_publ_section_title
;
Structure prediction by ZEFSAII (Michael W. Deem and Ramdas Pophale) SiO2 
 PCOD9124702
Probable space group: C 2
;
_chemical_formula_sum "Si O2"
_cell_formula_units_Z 30
_cell_length_a 11.522274
_cell_length_b 13.886634
_cell_length_c 12.974687
_cell_angle_alpha 90.000000
_cell_angle_beta 136.412925
_cell_angle_gamma 90.000000
_cell_volume 1431.326582
_symmetry_space_group_name_H-M "C 2"
_symmetry_group_IT_number 5
_symmetry_cell_setting 'monoclinic'
loop_
_space_group_symop_operation_xyz
x,y,z
-x,y,-z
1/2+x,1/2+y,z
1/2-x,1/2+y,-z
loop_
_atom_site_type_symbol
_atom_site_label
_atom_site_fract_x
_atom_site_fract_y
_atom_site_fract_z
Si Si1 0.224886 0.014170 0.869478
Si Si2 0.986974 0.606325 0.176193
Si Si3 0.311698 0.361604 0.336608
Si Si4 0.249085 0.369353 0.958416
Si Si5 0.500000 0.841299 0.500000
Si Si6 0.747270 0.215991 0.202299
Si Si7 0.183281 0.219302 0.088608
Si Si8 0.421275 0.942201 0.642812
O O1 0.172871 0.122456 0.804501
O O2 0.214841 0.950361 0.760384
O O3 0.407610 0.033984 0.039353
O O4 0.142755 0.947947 0.907784
O O5 0.824647 0.652449 0.127498
O O6 0.106856 0.676562 0.189679
O O7 0.099338 0.551525 0.333456
O O8 0.500000 0.359967 0.500000
O O9 0.263614 0.267314 0.241405
O O10 0.191868 0.377245 0.356506
O O11 0.322117 0.288992 0.929171
O O12 0.114789 0.422652 0.799663
O O13 0.158686 0.306933 0.990678
O O14 0.384432 0.772975 0.356390
O O15 0.397236 0.910606 0.510843
O O16 0.000000 0.177977 0.000000
#
# Coordination Sequence:
#
# PCOD9124702 Si02
#       8
#     4   4   4   4   2   4   4   4
#     4  10  21  37  65  98 129 168 225 273 336 395
#     4  11  23  39  72  98 127 175 232 285 331 404
#     4  11  24  39  66  97 131 176 224 272 336 414
#     4   9  20  36  65  96 126 169 216 283 330 388
#     4  10  26  42  64  92 142 186 214 280 356 400
#     4  11  21  39  68  99 130 176 238 269 338 415
#     4  11  22  40  66 100 130 170 225 283 344 398
#     4  10  21  44  63  89 133 181 218 268 343 401
#
# _framework density 20.959576999999999
#
# number of rings (size 3 to 8) (size 9 to 14) (size 15 to 20)
#    0.000    1.600    4.000    0.400    4.667    0.000 
#    1.200    1.333   17.600    0.000    0.000    0.000 
#    0.000    0.000    0.000    0.000    0.000    0.000 
#
# Total GULP energy -83596.794529 kJ/mol
# GULP energy per Si atom -5573.119635 kJ/mol
# Density = 2.091187 g / cm^3
# Si number density = 20.959577 Si / 1000 Ang^3
#
#
#
# Elastic Constant Matrix: (Units=GPa)
#
#
# Indices 1 2 3 4 5 6 
#
# 1 107.8049 60.1451 40.9813 0.0000 -22.6392 0.0000
# 2 60.1451 91.3402 43.0077 0.0000 -20.8564 0.0000
# 3 40.9813 43.0077 96.3884 0.0000 -19.1639 0.0000
# 4 0.0000 0.0000 0.0000 30.5283 0.0000 -13.5296
# 5 -22.6392 -20.8564 -19.1639 0.0000 32.2262 0.0000
# 6 0.0000 0.0000 0.0000 -13.5296 0.0000 31.9752
#
#
#
# Elastic Compliance Matrix: (Units=1/GPa)
#
#
# Indices 1 2 3 4 5 6 
#
# 1 0.015615 -0.008315 -0.002061 0.000000 0.004362 0.000000
# 2 -0.008315 0.019393 -0.004291 0.000000 0.004158 0.000000
# 3 -0.002061 -0.004291 0.013978 0.000000 0.004087 0.000000
# 4 0.000000 0.000000 0.000000 0.040317 0.000000 0.017059
# 5 0.004362 0.004158 0.004087 0.000000 0.039216 0.000000
# 6 0.000000 0.000000 0.000000 0.017059 0.000000 0.038492
#
#
# Mechanical properties :
#
#
# Convention : Reuss Voigt Hill
#
# Bulk Modulus (GPa) = 50.88816 64.86686 57.87751
# Shear Modulus (GPa) = 24.64289 29.03926 26.84108
#
# Velocity S-wave (km/s) = 3.43262 3.72625 3.58245
# Velocity P-wave (km/s) = 6.32791 7.03769 6.69221
#
# Compressibility (1/GPa) = 0.01965094
#
# Stress axis : x y z
#
# Youngs Moduli (GPa) = 64.04141 51.56411 71.53885
#
# Poissons Ratio (x) = 0.42877 0.14747
# Poissons Ratio (y) = 0.53252 0.30698
# Poissons Ratio (z) = 0.13202 0.22127
#
# Static dielectric constant tensor:
#      x y z
#    x 1.774560 0.000000 -0.021480 
#    y 0.000000 1.846930 0.000000 
#    z -0.021480 0.000000 1.742360 
# 
# From -- ./inp_files/40087.got.cif
#   From: 2010.05.17/outbox.cif.g08.bks.cpg/sg5_21_cif.got.tgz:40087.got - 2010.06.03 18:56:24.
