data_PCOD9124517
_publ_section_title
;
Structure prediction by ZEFSAII (Michael W. Deem and Ramdas Pophale) SiO2 
 PCOD9124517
Probable space group: C 2
;
_chemical_formula_sum "Si O2"
_cell_formula_units_Z 28
_cell_length_a 12.883780
_cell_length_b 5.206785
_cell_length_c 21.486139
_cell_angle_alpha 90.000000
_cell_angle_beta 82.121204
_cell_angle_gamma 90.000000
_cell_volume 1427.750192
_symmetry_space_group_name_H-M "C 2"
_symmetry_group_IT_number 5
_symmetry_cell_setting 'monoclinic'
loop_
_space_group_symop_operation_xyz
x,y,z
-x,y,-z
1/2+x,1/2+y,z
1/2-x,1/2+y,-z
loop_
_atom_site_type_symbol
_atom_site_label
_atom_site_fract_x
_atom_site_fract_y
_atom_site_fract_z
Si Si1 0.488397 0.083190 0.234119
Si Si2 0.336648 0.075055 0.127828
Si Si3 0.442344 0.996847 0.378833
Si Si4 0.158165 0.002142 0.550223
Si Si5 0.057463 0.072439 0.929533
Si Si6 0.396145 0.857524 0.545595
Si Si7 0.906583 0.080286 0.822596
O O1 0.400102 0.081006 0.187757
O O2 0.550087 0.350477 0.223635
O O3 0.440029 0.041805 0.305769
O O4 0.566086 0.850374 0.211287
O O5 0.366433 0.332237 0.088376
O O6 0.214950 0.054891 0.152679
O O7 0.378126 0.833216 0.085474
O O8 0.375385 0.752050 0.407308
O O9 0.561262 0.915212 0.389291
O O10 0.396688 0.253264 0.415656
O O11 0.283609 0.979501 0.542275
O O12 0.121081 0.072636 0.482671
O O13 0.971025 0.064764 0.881813
O O14 0.000000 0.060813 0.000000
O O15 0.500000 0.952094 0.500000
#
# Coordination Sequence:
#
# PCOD9124517 Si02
#       7
#     4   4   4   4   4   4   4
#     4  10  22  40  59  86 115 147 195 237 280 342
#     4  10  21  37  59  84 118 156 190 239 289 332
#     4  11  25  41  62  87 114 149 190 235 283 342
#     4  11  24  40  60  87 114 147 187 230 286 345
#     4  10  21  36  56  87 120 153 198 239 279 340
#     4  10  23  40  60  83 114 146 181 229 283 338
#     4  10  21  38  60  84 117 156 190 237 291 331
#
# _framework density 19.611274000000002
#
# number of rings (size 3 to 8) (size 9 to 14) (size 15 to 20)
#    0.000    1.714    0.000    3.857    0.000   14.286 
#    0.000    0.000    0.000    0.000    0.000    0.000 
#    0.000    0.000    0.000    0.000    0.000    0.000 
#
# Total GULP energy -78143.795850 kJ/mol
# GULP energy per Si atom -5581.699704 kJ/mol
# Density = 1.956664 g / cm^3
# Si number density = 19.611274 Si / 1000 Ang^3
#
#
#
# Elastic Constant Matrix: (Units=GPa)
#
#
# Indices 1 2 3 4 5 6 
#
# 1 99.6291 27.2954 1.8248 0.0000 -26.6577 0.0000
# 2 27.2954 101.2738 22.6932 0.0000 -0.8634 0.0000
# 3 1.8248 22.6932 72.9370 0.0000 -0.6444 0.0000
# 4 0.0000 0.0000 0.0000 21.1544 0.0000 -14.4839
# 5 -26.6577 -0.8634 -0.6444 0.0000 15.0580 0.0000
# 6 0.0000 0.0000 0.0000 -14.4839 0.0000 18.6751
#
#
#
# Elastic Compliance Matrix: (Units=1/GPa)
#
#
# Indices 1 2 3 4 5 6 
#
# 1 0.021980 -0.005964 0.001647 0.000000 0.038640 0.000000
# 2 -0.005964 0.012236 -0.003746 0.000000 -0.010016 0.000000
# 3 0.001647 -0.003746 0.014864 0.000000 0.003337 0.000000
# 4 0.000000 0.000000 0.000000 0.100796 0.000000 0.078175
# 5 0.038640 -0.010016 0.003337 0.000000 0.134384 0.000000
# 6 0.000000 0.000000 0.000000 0.078175 0.000000 0.114178
#
#
# Mechanical properties :
#
#
# Convention : Reuss Voigt Hill
#
# Bulk Modulus (GPa) = 30.34532 41.94074 36.14303
# Shear Modulus (GPa) = 11.74955 25.77927 18.76441
#
# Velocity S-wave (km/s) = 2.45035 3.62955 3.09660
# Velocity P-wave (km/s) = 4.84898 6.24479 5.59062
#
# Compressibility (1/GPa) = 0.03295401
#
# Stress axis : x y z
#
# Youngs Moduli (GPa) = 45.49618 81.72875 67.27525
#
# Poissons Ratio (x) = 0.48740 -0.11080
# Poissons Ratio (y) = 0.27132 0.25203
# Poissons Ratio (z) = -0.07493 0.30617
#
# Static dielectric constant tensor:
#      x y z
#    x 1.686220 0.000000 0.046180 
#    y 0.000000 1.706240 0.000000 
#    z 0.046180 0.000000 1.697700 
# 
# From -- ./inp_files/64863.got.cif
#   From: 2010.05.17/outbox.cif.g08.bks.cpg/sg5_33_cif.got.tgz:64863.got - 2010.06.03 18:56:24.
