data_PCOD9124071
_publ_section_title
;
Structure prediction by ZEFSAII (Michael W. Deem and Ramdas Pophale) SiO2 
 PCOD9124071
Probable space group: C 2
;
_chemical_formula_sum "Si O2"
_cell_formula_units_Z 28
_cell_length_a 10.605254
_cell_length_b 16.821557
_cell_length_c 7.508817
_cell_angle_alpha 90.000000
_cell_angle_beta 112.208321
_cell_angle_gamma 90.000000
_cell_volume 1240.176016
_symmetry_space_group_name_H-M "C 2"
_symmetry_group_IT_number 5
_symmetry_cell_setting 'monoclinic'
loop_
_space_group_symop_operation_xyz
x,y,z
-x,y,-z
1/2+x,1/2+y,z
1/2-x,1/2+y,-z
loop_
_atom_site_type_symbol
_atom_site_label
_atom_site_fract_x
_atom_site_fract_y
_atom_site_fract_z
Si Si1 0.052823 0.056690 0.231824
Si Si2 0.500000 0.430963 0.500000
Si Si3 0.636201 0.029773 0.690701
Si Si4 0.067718 0.693578 0.729391
Si Si5 0.000000 0.801929 0.000000
Si Si6 0.241880 0.326223 0.304759
Si Si7 0.493697 0.736230 0.214551
Si Si8 0.210613 0.367938 0.913210
O O1 0.007289 0.144459 0.273099
O O2 0.218416 0.050500 0.324986
O O3 0.992088 0.988158 0.324914
O O4 0.000000 0.048131 0.000000
O O5 0.367671 0.374607 0.452515
O O6 0.500000 0.023938 0.500000
O O7 0.657011 0.945335 0.790027
O O8 0.609465 0.105135 0.806254
O O9 0.197498 0.748527 0.761687
O O10 0.000000 0.687797 0.500000
O O11 0.980068 0.743009 0.822224
O O12 0.870083 0.855974 0.964883
O O13 0.119184 0.290471 0.351297
O O14 0.185271 0.377900 0.111019
O O15 0.360790 0.786657 0.188418
O O16 0.500000 0.735736 0.000000
#
# Coordination Sequence:
#
# PCOD9124071 Si02
#       8
#     4   2   4   4   2   4   4   4
#     4  11  25  47  72  98 139 182 227 284 340 412
#     4  12  26  40  72 108 128 174 242 276 336 408
#     4  11  25  44  66  99 142 181 224 288 349 393
#     4  10  21  44  67  98 133 178 224 280 337 405
#     4  10  24  44  74  98 130 184 236 270 346 414
#     4  10  20  41  70  97 134 181 223 281 341 409
#     4   9  20  44  69  93 137 184 222 275 352 407
#     4  10  23  43  67 102 132 182 232 281 342 408
#
# _framework density 22.577441
#
# number of rings (size 3 to 8) (size 9 to 14) (size 15 to 20)
#    0.000    1.714    2.143    0.857    9.000    0.000 
#   10.286    0.000    0.000    0.000    0.000    0.000 
#    0.000    0.000    0.000    0.000    0.000    0.000 
#
# Total GULP energy -78214.257677 kJ/mol
# GULP energy per Si atom -5586.732691 kJ/mol
# Density = 2.252605 g / cm^3
# Si number density = 22.577441 Si / 1000 Ang^3
#
#
#
# Elastic Constant Matrix: (Units=GPa)
#
#
# Indices 1 2 3 4 5 6 
#
# 1 48.3156 32.9752 29.0787 0.0000 25.7572 0.0000
# 2 32.9752 180.5665 59.0241 0.0000 16.5981 0.0000
# 3 29.0787 59.0241 77.6163 0.0000 6.9425 0.0000
# 4 0.0000 0.0000 0.0000 8.9509 0.0000 6.4130
# 5 25.7572 16.5981 6.9425 0.0000 33.9453 0.0000
# 6 0.0000 0.0000 0.0000 6.4130 0.0000 13.2873
#
#
#
# Elastic Compliance Matrix: (Units=1/GPa)
#
#
# Indices 1 2 3 4 5 6 
#
# 1 0.047031 -0.001069 -0.013916 0.000000 -0.032317 0.000000
# 2 -0.001069 0.007609 -0.005221 0.000000 -0.001842 0.000000
# 3 -0.013916 -0.005221 0.021285 0.000000 0.008759 0.000000
# 4 0.000000 0.000000 0.000000 0.170774 0.000000 -0.082423
# 5 -0.032317 -0.001842 0.008759 0.000000 0.053090 0.000000
# 6 0.000000 0.000000 0.000000 -0.082423 0.000000 0.115041
#
#
# Mechanical properties :
#
#
# Convention : Reuss Voigt Hill
#
# Bulk Modulus (GPa) = 28.15987 60.96157 44.56072
# Shear Modulus (GPa) = 10.70480 23.59806 17.15143
#
# Velocity S-wave (km/s) = 2.17983 3.23647 2.75920
# Velocity P-wave (km/s) = 4.33995 6.40516 5.47089
#
# Compressibility (1/GPa) = 0.03551152
#
# Stress axis : x y z
#
# Youngs Moduli (GPa) = 21.26263 131.41567 46.98214
#
# Poissons Ratio (x) = 0.14051 0.65381
# Poissons Ratio (y) = 0.02273 0.24531
# Poissons Ratio (z) = 0.29589 0.68617
#
# Static dielectric constant tensor:
#      x y z
#    x 2.256340 0.000000 0.537640 
#    y 0.000000 1.839930 0.000000 
#    z 0.537640 0.000000 2.655510 
# 
# From -- ./inp_files/20744.got.cif
#   From: 2010.05.17/outbox.cif.g08.bks.cpg/sg5_11_cif.got.tgz:20744.got - 2010.06.03 18:56:24.
