data_PCOD9124873
_publ_section_title
;
Structure prediction by ZEFSAII (Michael W. Deem and Ramdas Pophale) SiO2 
 PCOD9124873
Probable space group: C 2
;
_chemical_formula_sum "Si O2"
_cell_formula_units_Z 20
_cell_length_a 16.125000
_cell_length_b 5.320288
_cell_length_c 23.217169
_cell_angle_alpha 90.000000
_cell_angle_beta 22.081194
_cell_angle_gamma 90.000000
_cell_volume 748.754960
_symmetry_space_group_name_H-M "C 2"
_symmetry_group_IT_number 5
_symmetry_cell_setting 'monoclinic'
loop_
_space_group_symop_operation_xyz
x,y,z
-x,y,-z
1/2+x,1/2+y,z
1/2-x,1/2+y,-z
loop_
_atom_site_type_symbol
_atom_site_label
_atom_site_fract_x
_atom_site_fract_y
_atom_site_fract_z
Si Si1 0.009034 0.317750 0.120786
Si Si2 0.134351 0.819353 0.853030
Si Si3 0.515578 0.850248 0.679181
Si Si4 0.541507 0.346125 0.217397
Si Si5 0.702404 0.490965 0.412821
O O1 0.918823 0.557718 0.143664
O O2 0.898203 0.338653 0.254144
O O3 0.227408 0.846071 0.049261
O O4 0.938624 0.062527 0.135340
O O5 0.399758 0.836997 0.691995
O O6 0.000000 0.818632 0.000000
O O7 0.443433 0.589421 0.753690
O O8 0.769264 0.893084 0.538762
O O9 0.409450 0.102442 0.774430
O O10 0.297976 0.274971 0.351997
O O11 0.500000 0.462910 0.500000
#
# Coordination Sequence:
#
# PCOD9124873 Si02
#       5
#     4   4   4   4   4
#     4  12  24  38  71 101 133 170 227 275 340 395
#     4  12  21  40  64 106 133 167 215 291 338 393
#     4  10  22  39  68  89 136 164 218 267 340 378
#     4  10  21  38  67  95 125 166 223 266 325 384
#     4  10  27  46  66  97 138 185 221 275 330 404
#
# _framework density 26.711009000000001
#
# number of rings (size 3 to 8) (size 9 to 14) (size 15 to 20)
#    1.200    0.000    4.000    1.800    5.600    0.800 
#    0.000    2.000    0.000    0.000    0.000    0.000 
#    0.000    0.000    0.000    0.000    0.000    0.000 
#
# Total GULP energy -55899.026805 kJ/mol
# GULP energy per Si atom -5589.902680 kJ/mol
# Density = 2.665021 g / cm^3
# Si number density = 26.711009 Si / 1000 Ang^3
#
#
#
# Elastic Constant Matrix: (Units=GPa)
#
#
# Indices 1 2 3 4 5 6 
#
# 1 122.6994 53.2262 39.1106 0.0017 -38.7896 0.0013
# 2 53.2262 195.3850 13.4492 0.0049 -3.2646 0.0227
# 3 39.1106 13.4492 120.9177 -0.0103 -23.0035 0.0021
# 4 0.0017 0.0049 -0.0103 22.0942 -0.0009 -5.8607
# 5 -38.7896 -3.2646 -23.0035 -0.0009 62.2010 0.0004
# 6 0.0013 0.0227 0.0021 -5.8607 0.0004 34.5573
#
#
#
# Elastic Compliance Matrix: (Units=1/GPa)
#
#
# Indices 1 2 3 4 5 6 
#
# 1 0.012357 -0.003091 -0.002386 -0.000001 0.006662 0.000002
# 2 -0.003091 0.005931 0.000035 -0.000002 -0.001603 -0.000004
# 3 -0.002386 0.000035 0.009418 0.000005 0.001997 0.000000
# 4 -0.000001 -0.000002 0.000005 0.047393 0.000002 0.008038
# 5 0.006662 -0.001603 0.001997 0.000002 0.020886 0.000001
# 6 0.000002 -0.000004 0.000000 0.008038 0.000001 0.030301
#
#
# Mechanical properties :
#
#
# Convention : Reuss Voigt Hill
#
# Bulk Modulus (GPa) = 59.44336 72.28601 65.86468
# Shear Modulus (GPa) = 35.01998 45.98491 40.50245
#
# Velocity S-wave (km/s) = 3.62480 4.15368 3.89822
# Velocity P-wave (km/s) = 6.31042 7.07991 6.70621
#
# Compressibility (1/GPa) = 0.01682274
#
# Stress axis : x y z
#
# Youngs Moduli (GPa) = 80.92434 168.60897 106.18207
#
# Poissons Ratio (x) = 0.52113 0.25333
# Poissons Ratio (y) = 0.25012 -0.00372
# Poissons Ratio (z) = 0.19307 -0.00591
#
# Static dielectric constant tensor:
#      x y z
#    x 2.156190 0.000000 0.005000 
#    y 0.000000 2.052510 0.000000 
#    z 0.005000 0.000000 2.204180 
# 
# From -- ./inp_files/70773.got.cif
#   From: 2010.05.17/outbox.cif.g08.bks.cpg/sg5_36_cif.got.tgz:70773.got - 2010.06.03 18:56:24.
