data_PCOD9124605
_publ_section_title
;
Structure prediction by ZEFSAII (Michael W. Deem and Ramdas Pophale) SiO2 
 PCOD9124605
Probable space group: C 2
;
_chemical_formula_sum "Si O2"
_cell_formula_units_Z 22
_cell_length_a 23.700384
_cell_length_b 11.353464
_cell_length_c 11.588564
_cell_angle_alpha 90.000000
_cell_angle_beta 19.914651
_cell_angle_gamma 90.000000
_cell_volume 1062.144270
_symmetry_space_group_name_H-M "C 2"
_symmetry_group_IT_number 5
_symmetry_cell_setting 'monoclinic'
loop_
_space_group_symop_operation_xyz
x,y,z
-x,y,-z
1/2+x,1/2+y,z
1/2-x,1/2+y,-z
loop_
_atom_site_type_symbol
_atom_site_label
_atom_site_fract_x
_atom_site_fract_y
_atom_site_fract_z
Si Si1 0.500000 0.672200 0.000000
Si Si2 0.805198 0.557153 0.716543
Si Si3 0.937914 0.347017 0.737042
Si Si4 0.747892 0.271235 0.315514
Si Si5 0.568267 0.521352 0.645891
Si Si6 0.813779 0.044521 0.818127
O O1 0.348412 0.746661 0.238621
O O2 0.432261 0.591723 0.234144
O O3 0.856570 0.658859 0.528161
O O4 0.931981 0.449285 0.479660
O O5 0.624063 0.512725 0.023881
O O6 0.784134 0.606548 0.888676
O O7 0.000000 0.285324 0.500000
O O8 0.890008 0.276044 0.942027
O O9 0.772852 0.417289 0.020192
O O10 0.647345 0.392037 0.509845
O O11 0.672064 0.583952 0.342136
O O12 0.000000 0.028632 0.500000
#
# Coordination Sequence:
#
# PCOD9124605 Si02
#       6
#     2   4   4   4   4   4
#     4  10  22  36  54  76 106 142 188 230 256 302
#     4   9  18  35  57  83 111 135 170 221 270 325
#     4   9  18  34  56  85 113 136 172 219 266 326
#     4  10  21  37  57  78 104 146 181 216 273 316
#     4   9  19  37  55  77 110 141 179 226 262 309
#     4   8  15  32  55  79 111 138 163 215 270 312
#
# _framework density 20.712817000000001
#
# number of rings (size 3 to 8) (size 9 to 14) (size 15 to 20)
#    0.000    2.909    0.000    0.000    0.000    6.545 
#    0.000   40.000    0.000    0.000    0.000    0.000 
#    0.000    0.000    0.000    0.000    0.000    0.000 
#
# Total GULP energy -61307.394284 kJ/mol
# GULP energy per Si atom -5573.399480 kJ/mol
# Density = 2.066567 g / cm^3
# Si number density = 20.712817 Si / 1000 Ang^3
#
#
#
# Elastic Constant Matrix: (Units=GPa)
#
#
# Indices 1 2 3 4 5 6 
#
# 1 125.8317 49.7661 24.4611 0.0000 9.1053 0.0000
# 2 49.7661 80.1757 32.8455 0.0000 -17.8365 0.0000
# 3 24.4611 32.8455 52.9142 0.0000 -3.2013 0.0000
# 4 0.0000 0.0000 0.0000 31.8481 0.0000 5.7801
# 5 9.1053 -17.8365 -3.2013 0.0000 23.4221 0.0000
# 6 0.0000 0.0000 0.0000 5.7801 0.0000 31.6119
#
#
#
# Elastic Compliance Matrix: (Units=1/GPa)
#
#
# Indices 1 2 3 4 5 6 
#
# 1 0.013511 -0.011533 0.000065 0.000000 -0.014026 0.000000
# 2 -0.011533 0.030265 -0.011887 0.000000 0.025906 0.000000
# 3 0.000065 -0.011887 0.025912 0.000000 -0.005536 0.000000
# 4 0.000000 0.000000 0.000000 0.032477 0.000000 -0.005938
# 5 -0.014026 0.025906 -0.005536 0.000000 0.067119 0.000000
# 6 0.000000 0.000000 0.000000 -0.005938 0.000000 0.032719
#
#
# Mechanical properties :
#
#
# Convention : Reuss Voigt Hill
#
# Bulk Modulus (GPa) = 43.52326 52.56299 48.04312
# Shear Modulus (GPa) = 19.50280 27.49969 23.50124
#
# Velocity S-wave (km/s) = 3.07185 3.64767 3.37207
# Velocity P-wave (km/s) = 5.80000 6.57060 6.19729
#
# Compressibility (1/GPa) = 0.02297622
#
# Stress axis : x y z
#
# Youngs Moduli (GPa) = 74.01426 33.04195 38.59147
#
# Poissons Ratio (x) = 0.38108 -0.00250
# Poissons Ratio (y) = 0.85363 0.45875
# Poissons Ratio (z) = -0.00479 0.39278
#
# Static dielectric constant tensor:
#      x y z
#    x 1.778520 0.000000 0.037210 
#    y 0.000000 1.769100 0.000000 
#    z 0.037210 0.000000 1.763150 
# 
# From -- ./inp_files/35178.got.cif
#   From: 2010.05.17/outbox.cif.g08.bks.cpg/sg5_18_cif.got.tgz:35178.got - 2010.06.03 18:56:24.
