data_PCOD9124788
_publ_section_title
;
Structure prediction by ZEFSAII (Michael W. Deem and Ramdas Pophale) SiO2 
 PCOD9124788
Probable space group: C 2
;
_chemical_formula_sum "Si O2"
_cell_formula_units_Z 26
_cell_length_a 19.169580
_cell_length_b 12.132561
_cell_length_c 8.826635
_cell_angle_alpha 90.000000
_cell_angle_beta 44.296579
_cell_angle_gamma 90.000000
_cell_volume 1433.664103
_symmetry_space_group_name_H-M "C 2"
_symmetry_group_IT_number 5
_symmetry_cell_setting 'monoclinic'
loop_
_space_group_symop_operation_xyz
x,y,z
-x,y,-z
1/2+x,1/2+y,z
1/2-x,1/2+y,-z
loop_
_atom_site_type_symbol
_atom_site_label
_atom_site_fract_x
_atom_site_fract_y
_atom_site_fract_z
Si Si1 0.000000 0.239040 0.000000
Si Si2 0.032439 0.347394 0.648496
Si Si3 0.000000 0.693154 0.000000
Si Si4 0.664843 0.595111 0.912751
Si Si5 0.656236 0.757914 0.201260
Si Si6 0.000000 0.759018 0.500000
Si Si7 0.887833 0.590686 0.457691
Si Si8 0.127095 0.842730 0.033214
O O1 0.952977 0.315519 0.201419
O O2 0.917759 0.163791 0.048419
O O3 0.089590 0.255890 0.457804
O O4 0.075905 0.468296 0.553239
O O5 0.914945 0.339610 0.787892
O O6 0.935136 0.621986 0.220923
O O7 0.075189 0.768205 0.983862
O O8 0.769068 0.598307 0.660239
O O9 0.671898 0.652059 0.068972
O O10 0.633527 0.468754 0.974657
O O11 0.762819 0.801839 0.089899
O O12 0.929961 0.679117 0.511055
O O13 0.939201 0.830530 0.713600
#
# Coordination Sequence:
#
# PCOD9124788 Si02
#       8
#     2   4   2   4   4   2   4   4
#     4  10  24  40  58  90 126 154 198 238 296 364
#     4  10  21  39  64  88 121 150 199 252 292 341
#     4  10  26  38  58  88 130 150 204 234 298 356
#     4  11  23  39  65  86 120 160 197 239 305 346
#     4  10  21  38  62  90 115 150 202 249 291 344
#     4  10  22  38  62  86 124 146 204 242 294 352
#     4  11  21  39  64  89 115 161 195 246 295 346
#     4  11  22  41  60  89 120 158 192 249 293 355
#
# _framework density 18.135349000000001
#
# number of rings (size 3 to 8) (size 9 to 14) (size 15 to 20)
#    0.000    1.538    3.077    1.846    2.154    2.462 
#    0.000    0.000    3.385    0.000    0.000    0.000 
#    0.000    0.000    0.000    0.000    0.000    0.000 
#
# Total GULP energy -72495.007695 kJ/mol
# GULP energy per Si atom -5576.539053 kJ/mol
# Density = 1.809407 g / cm^3
# Si number density = 18.135349 Si / 1000 Ang^3
#
#
#
# Elastic Constant Matrix: (Units=GPa)
#
#
# Indices 1 2 3 4 5 6 
#
# 1 81.3201 21.3645 35.0535 0.0000 -4.7047 0.0000
# 2 21.3645 67.0471 37.7326 0.0000 -4.6494 0.0000
# 3 35.0535 37.7326 116.9844 0.0000 5.7627 0.0000
# 4 0.0000 0.0000 0.0000 -15.0543 0.0000 -7.4382
# 5 -4.7047 -4.6494 5.7627 0.0000 41.0974 0.0000
# 6 0.0000 0.0000 0.0000 -7.4382 0.0000 18.8958
#
#
#
# Elastic Compliance Matrix: (Units=1/GPa)
#
#
# Indices 1 2 3 4 5 6 
#
# 1 0.014644 -0.002457 -0.003690 0.000000 0.001916 0.000000
# 2 -0.002457 0.018986 -0.005518 0.000000 0.002640 0.000000
# 3 -0.003690 -0.005518 0.011565 0.000000 -0.002668 0.000000
# 4 0.000000 0.000000 0.000000 -0.055610 0.000000 -0.021891
# 5 0.001916 0.002640 -0.002668 0.000000 0.025225 0.000000
# 6 0.000000 0.000000 0.000000 -0.021891 0.000000 0.044305
#
#
# Mechanical properties :
#
#
# Convention : Reuss Voigt Hill
#
# Bulk Modulus (GPa) = 45.73299 50.40587 48.06943
# Shear Modulus (GPa) = 55.72176 20.40119 38.06147
#
# Velocity S-wave (km/s) = 5.54907 3.35765 4.58618
# Velocity P-wave (km/s) = 8.14424 6.54877 7.38969
#
# Compressibility (1/GPa) = 0.02186606
#
# Stress axis : x y z
#
# Youngs Moduli (GPa) = 68.28768 52.67006 86.46817
#
# Poissons Ratio (x) = 0.12940 0.31906
# Poissons Ratio (y) = 0.16777 0.47711
# Poissons Ratio (z) = 0.25197 0.29062
#
# Static dielectric constant tensor:
#      x y z
#    x 1.627240 0.000000 0.002180 
#    y 0.000000 1.585370 0.000000 
#    z 0.002180 0.000000 1.645060 
# 
# From -- ./inp_files/23340.got.cif
#   From: 2010.05.17/outbox.cif.g08.bks.cpg/sg5_12_cif.got.tgz:23340.got - 2010.06.03 18:56:24.
