data_PCOD9124006
_publ_section_title
;
Structure prediction by ZEFSAII (Michael W. Deem and Ramdas Pophale) SiO2 
 PCOD9124006
Probable space group: C 2
;
_chemical_formula_sum "Si O2"
_cell_formula_units_Z 26
_cell_length_a 27.989732
_cell_length_b 5.145269
_cell_length_c 7.313702
_cell_angle_alpha 90.000000
_cell_angle_beta 68.182250
_cell_angle_gamma 90.000000
_cell_volume 977.834886
_symmetry_space_group_name_H-M "C 2"
_symmetry_group_IT_number 5
_symmetry_cell_setting 'monoclinic'
loop_
_space_group_symop_operation_xyz
x,y,z
-x,y,-z
1/2+x,1/2+y,z
1/2-x,1/2+y,-z
loop_
_atom_site_type_symbol
_atom_site_label
_atom_site_fract_x
_atom_site_fract_y
_atom_site_fract_z
Si Si1 0.647994 0.229510 0.457098
Si Si2 0.245917 0.289691 0.626905
Si Si3 0.561691 0.553212 0.736017
Si Si4 0.453646 0.412117 0.854971
Si Si5 0.864842 0.458176 0.162555
Si Si6 0.604489 0.830496 0.259864
Si Si7 0.000000 0.520569 0.500000
O O1 0.702846 0.352399 0.327811
O O2 0.596896 0.410672 0.531278
O O3 0.651198 0.176046 0.669717
O O4 0.643179 0.964383 0.347728
O O5 0.248662 0.497868 0.457468
O O6 0.190198 0.318887 0.797885
O O7 0.501634 0.622396 0.791143
O O8 0.595945 0.778994 0.777882
O O9 0.556538 0.354704 0.918582
O O10 0.405158 0.557504 0.830053
O O11 0.483536 0.203246 0.690977
O O12 0.888812 0.513581 0.930464
O O13 0.552118 0.863746 0.449572
#
# Coordination Sequence:
#
# PCOD9124006 Si02
#       7
#     4   4   4   4   4   4   2
#     4  11  22  41  70  96 129 188 232 290 362 434
#     4  10  21  43  76 104 139 186 243 301 371 434
#     4  10  20  41  64  92 130 185 228 279 364 424
#     4  10  23  37  62  95 134 176 231 289 340 429
#     4  10  23  42  65  98 139 173 231 302 352 429
#     4  11  25  41  63  99 137 180 233 294 352 426
#     4  12  22  38  60  90 138 174 230 284 346 420
#
# _framework density 26.589358000000001
#
# number of rings (size 3 to 8) (size 9 to 14) (size 15 to 20)
#    0.000    1.538    3.077    1.385    4.308    0.000 
#    0.000    6.154    0.000    0.000    0.000    0.000 
#    0.000    0.000    0.000    0.000    0.000    0.000 
#
# Total GULP energy -72523.989432 kJ/mol
# GULP energy per Si atom -5578.768418 kJ/mol
# Density = 2.652884 g / cm^3
# Si number density = 26.589358 Si / 1000 Ang^3
#
#
#
# Elastic Constant Matrix: (Units=GPa)
#
#
# Indices 1 2 3 4 5 6 
#
# 1 113.2801 4.5833 15.3435 0.0000 -24.4335 0.0000
# 2 4.5833 80.8851 -9.5357 0.0000 1.9690 0.0000
# 3 15.3435 -9.5357 78.1290 0.0000 13.7641 0.0000
# 4 0.0000 0.0000 0.0000 36.2669 0.0000 -2.0780
# 5 -24.4335 1.9690 13.7641 0.0000 42.3470 0.0000
# 6 0.0000 0.0000 0.0000 -2.0780 0.0000 43.9237
#
#
#
# Elastic Compliance Matrix: (Units=1/GPa)
#
#
# Indices 1 2 3 4 5 6 
#
# 1 0.011011 -0.001239 -0.003652 0.000000 0.007598 0.000000
# 2 -0.001239 0.012736 0.002151 0.000000 -0.002007 0.000000
# 3 -0.003652 0.002151 0.015029 0.000000 -0.007092 0.000000
# 4 0.000000 0.000000 0.000000 0.027648 0.000000 0.001308
# 5 0.007598 -0.002007 -0.007092 0.000000 0.030397 0.000000
# 6 0.000000 0.000000 0.000000 0.001308 0.000000 0.022829
#
#
# Mechanical properties :
#
#
# Convention : Reuss Voigt Hill
#
# Bulk Modulus (GPa) = 30.03456 32.56402 31.29929
# Shear Modulus (GPa) = 36.70288 41.96773 39.33530
#
# Velocity S-wave (km/s) = 3.71935 3.97717 3.85042
# Velocity P-wave (km/s) = 5.45573 5.77617 5.61824
#
# Compressibility (1/GPa) = 0.03329498
#
# Stress axis : x y z
#
# Youngs Moduli (GPa) = 90.81507 78.51804 66.53965
#
# Poissons Ratio (x) = 0.09732 0.24303
# Poissons Ratio (y) = 0.11257 -0.14315
# Poissons Ratio (z) = 0.33169 -0.16892
#
# Static dielectric constant tensor:
#      x y z
#    x 2.316890 0.000000 0.032760 
#    y 0.000000 2.282330 0.000000 
#    z 0.032760 0.000000 2.045890 
# 
# From -- ./inp_files/31421.got.cif
#   From: 2010.05.17/outbox.cif.g08.bks.cpg/sg5_16_cif.got.tgz:31421.got - 2010.06.03 18:56:24.
