data_PCOD9124399
_publ_section_title
;
Structure prediction by ZEFSAII (Michael W. Deem and Ramdas Pophale) SiO2 
 PCOD9124399
Probable space group: C 2
;
_chemical_formula_sum "Si O2"
_cell_formula_units_Z 24
_cell_length_a 12.281795
_cell_length_b 8.463470
_cell_length_c 9.874919
_cell_angle_alpha 90.000000
_cell_angle_beta 69.618929
_cell_angle_gamma 90.000000
_cell_volume 962.204646
_symmetry_space_group_name_H-M "C 2"
_symmetry_group_IT_number 5
_symmetry_cell_setting 'monoclinic'
loop_
_space_group_symop_operation_xyz
x,y,z
-x,y,-z
1/2+x,1/2+y,z
1/2-x,1/2+y,-z
loop_
_atom_site_type_symbol
_atom_site_label
_atom_site_fract_x
_atom_site_fract_y
_atom_site_fract_z
Si Si1 0.761454 0.844410 0.108680
Si Si2 0.011167 0.268545 0.194394
Si Si3 0.500000 0.500688 0.000000
Si Si4 0.000000 0.319729 0.500000
Si Si5 0.279618 0.034909 0.615750
Si Si6 0.918753 0.604991 0.168119
Si Si7 0.599272 0.317635 0.563139
O O1 0.642336 0.808833 0.082785
O O2 0.727008 0.987433 0.224393
O O3 0.796877 0.683274 0.173460
O O4 0.886236 0.903979 0.000593
O O5 0.932675 0.423132 0.204110
O O6 0.691982 0.209731 0.441978
O O7 0.966436 0.117814 0.135097
O O8 0.977030 0.234474 0.651343
O O9 0.890504 0.432320 0.522396
O O10 0.168449 0.965763 0.589207
O O11 0.946925 0.714482 0.287637
O O12 0.000000 0.617668 0.000000
O O13 0.500000 0.354950 0.500000
#
# Coordination Sequence:
#
# PCOD9124399 Si02
#       7
#     4   4   2   2   4   4   4
#     4  10  25  43  63  94 135 169 211 274 321 377
#     4  11  24  43  69  95 125 176 213 263 330 383
#     4  12  26  40  68  98 126 170 224 260 326 386
#     4  10  20  46  66  94 134 164 214 274 316 388
#     4  10  21  40  68  92 128 170 210 265 324 374
#     4  11  22  44  66  91 133 169 213 267 319 386
#     4  11  22  43  66  95 126 172 214 265 325 380
#
# _framework density 24.942717999999999
#
# number of rings (size 3 to 8) (size 9 to 14) (size 15 to 20)
#    0.000    1.333    4.167    1.000    4.667    0.000 
#    1.500    5.000    0.000    0.000    0.000    0.000 
#    0.000    0.000    0.000    0.000    0.000    0.000 
#
# Total GULP energy -67077.576441 kJ/mol
# GULP energy per Si atom -5589.798037 kJ/mol
# Density = 2.488595 g / cm^3
# Si number density = 24.942718 Si / 1000 Ang^3
#
#
#
# Elastic Constant Matrix: (Units=GPa)
#
#
# Indices 1 2 3 4 5 6 
#
# 1 112.9232 61.9810 7.4550 0.0000 0.1257 0.0000
# 2 61.9810 84.8140 12.4056 0.0000 -7.3131 0.0000
# 3 7.4550 12.4056 81.5598 0.0000 -5.8479 0.0000
# 4 0.0000 0.0000 0.0000 17.5752 0.0000 -1.5754
# 5 0.1257 -7.3131 -5.8479 0.0000 32.9940 0.0000
# 6 0.0000 0.0000 0.0000 -1.5754 0.0000 16.5483
#
#
#
# Elastic Compliance Matrix: (Units=1/GPa)
#
#
# Indices 1 2 3 4 5 6 
#
# 1 0.014993 -0.011196 0.000152 0.000000 -0.002512 0.000000
# 2 -0.011196 0.020606 -0.001803 0.000000 0.004290 0.000000
# 3 0.000152 -0.001803 0.012653 0.000000 0.001842 0.000000
# 4 0.000000 0.000000 0.000000 0.057388 0.000000 0.005463
# 5 -0.002512 0.004290 0.001842 0.000000 0.031596 0.000000
# 6 0.000000 0.000000 0.000000 0.005463 0.000000 0.060949
#
#
# Mechanical properties :
#
#
# Convention : Reuss Voigt Hill
#
# Bulk Modulus (GPa) = 44.32765 49.22003 46.77384
# Shear Modulus (GPa) = 21.60766 26.58719 24.09743
#
# Velocity S-wave (km/s) = 2.94648 3.26840 3.11160
# Velocity P-wave (km/s) = 5.42088 5.83261 5.63051
#
# Compressibility (1/GPa) = 0.02255928
#
# Stress axis : x y z
#
# Youngs Moduli (GPa) = 66.69561 48.52950 79.03015
#
# Poissons Ratio (x) = 0.54333 -0.01204
# Poissons Ratio (y) = 0.74672 0.14251
# Poissons Ratio (z) = -0.01016 0.08751
#
# Static dielectric constant tensor:
#      x y z
#    x 1.963300 0.000000 -0.060680 
#    y 0.000000 1.997290 0.000000 
#    z -0.060680 0.000000 2.038290 
# 
# From -- ./inp_files/38290.got.cif
#   From: 2010.05.17/outbox.cif.g08.bks.cpg/sg5_20_cif.got.tgz:38290.got - 2010.06.03 18:56:24.
