data_PCOD9124511
_publ_section_title
;
Structure prediction by ZEFSAII (Michael W. Deem and Ramdas Pophale) SiO2 
 PCOD9124511
Probable space group: C 2
;
_chemical_formula_sum "Si O2"
_cell_formula_units_Z 28
_cell_length_a 9.703813
_cell_length_b 5.412277
_cell_length_c 20.634060
_cell_angle_alpha 90.000000
_cell_angle_beta 79.830000
_cell_angle_gamma 90.000000
_cell_volume 1066.668327
_symmetry_space_group_name_H-M "C 2"
_symmetry_group_IT_number 5
_symmetry_cell_setting 'monoclinic'
loop_
_space_group_symop_operation_xyz
x,y,z
-x,y,-z
1/2+x,1/2+y,z
1/2-x,1/2+y,-z
loop_
_atom_site_type_symbol
_atom_site_label
_atom_site_fract_x
_atom_site_fract_y
_atom_site_fract_z
Si Si1 0.371790 0.872960 0.703103
Si Si2 0.292577 0.701037 0.585888
Si Si3 0.865209 0.710772 0.537726
Si Si4 0.742775 0.875858 0.855600
Si Si5 0.656082 0.268594 0.019665
Si Si6 0.340086 0.379307 0.169440
Si Si7 0.045078 0.873396 0.272061
O O1 0.252292 0.810007 0.659727
O O2 0.311217 0.896007 0.780808
O O3 0.471934 0.634834 0.691105
O O4 0.450926 0.128410 0.686006
O O5 0.217708 0.690781 0.522671
O O6 0.308742 0.406557 0.594154
O O7 0.395907 0.935998 0.561363
O O8 0.000000 0.852086 0.500000
O O9 0.855703 0.816769 0.901493
O O10 0.638349 0.644146 0.864889
O O11 0.803407 0.894595 0.777459
O O12 0.672769 0.139926 0.873844
O O13 0.500000 0.273859 0.000000
O O14 0.759640 0.503331 0.992463
O O15 0.443930 0.345963 0.219928
#
# Coordination Sequence:
#
# PCOD9124511 Si02
#       7
#     4   4   4   4   4   4   4
#     4  10  21  36  55  89 115 150 195 253 308 374
#     4  10  21  36  56  81 117 143 195 250 295 371
#     4  10  21  38  56  80 107 156 193 237 305 367
#     4  10  23  39  66  89 128 171 210 271 322 396
#     4  12  28  49  73 112 148 191 248 302 363 429
#     4  10  21  40  61  90 119 163 209 252 327 387
#     4  10  21  38  60  86 120 157 204 248 319 381
#
# _framework density 26.249959
#
# number of rings (size 3 to 8) (size 9 to 14) (size 15 to 20)
#    0.000    1.714    0.000    3.429    4.000    2.286 
#    0.000    0.000    0.000    0.000    0.000    0.000 
#    0.000    0.000    0.000    0.000    0.000    0.000 
#
# Total GULP energy -77939.140868 kJ/mol
# GULP energy per Si atom -5567.081491 kJ/mol
# Density = 2.619021 g / cm^3
# Si number density = 26.249959 Si / 1000 Ang^3
#
#
#
# Elastic Constant Matrix: (Units=GPa)
#
#
# Indices 1 2 3 4 5 6 
#
# 1 55.7366 54.4885 16.8393 0.0000 20.8340 0.0000
# 2 54.4885 239.1864 35.5108 0.0000 31.9414 0.0000
# 3 16.8393 35.5108 91.6087 0.0000 8.6309 0.0000
# 4 0.0000 0.0000 0.0000 44.2570 0.0000 22.1719
# 5 20.8340 31.9414 8.6309 0.0000 34.7382 0.0000
# 6 0.0000 0.0000 0.0000 22.1719 0.0000 50.0737
#
#
#
# Elastic Compliance Matrix: (Units=1/GPa)
#
#
# Indices 1 2 3 4 5 6 
#
# 1 0.027235 -0.004293 -0.002227 0.000000 -0.011833 0.000000
# 2 -0.004293 0.005644 -0.001180 0.000000 -0.002322 0.000000
# 3 -0.002227 -0.001180 0.011832 0.000000 -0.000519 0.000000
# 4 0.000000 0.000000 0.000000 0.029036 0.000000 -0.012857
# 5 -0.011833 -0.002322 -0.000519 0.000000 0.038147 0.000000
# 6 0.000000 0.000000 0.000000 -0.012857 0.000000 0.025663
#
#
# Mechanical properties :
#
#
# Convention : Reuss Voigt Hill
#
# Bulk Modulus (GPa) = 34.11858 66.68987 50.40423
# Shear Modulus (GPa) = 30.72611 44.46000 37.59306
#
# Velocity S-wave (km/s) = 3.42500 4.11994 3.78844
# Velocity P-wave (km/s) = 5.35412 6.93490 6.19513
#
# Compressibility (1/GPa) = 0.02930955
#
# Stress axis : x y z
#
# Youngs Moduli (GPa) = 36.71778 177.17527 84.51904
#
# Poissons Ratio (x) = 0.76070 0.18823
# Poissons Ratio (y) = 0.15765 0.09973
# Poissons Ratio (z) = 0.08177 0.20905
#
# Static dielectric constant tensor:
#      x y z
#    x 2.193920 0.000000 -0.050360 
#    y 0.000000 2.146920 0.000000 
#    z -0.050360 0.000000 1.991220 
# 
# From -- ./inp_files/64988.got.cif
#   From: 2010.05.17/outbox.cif.g08.bks.cpg/sg5_33_cif.got.tgz:64988.got - 2010.06.03 18:56:24.
