data_PCOD9124540
_publ_section_title
;
Structure prediction by ZEFSAII (Michael W. Deem and Ramdas Pophale) SiO2 
 PCOD9124540
Probable space group: C 2
;
_chemical_formula_sum "Si O2"
_cell_formula_units_Z 28
_cell_length_a 12.570451
_cell_length_b 5.270275
_cell_length_c 20.883058
_cell_angle_alpha 90.000000
_cell_angle_beta 102.560349
_cell_angle_gamma 90.000000
_cell_volume 1350.386477
_symmetry_space_group_name_H-M "C 2"
_symmetry_group_IT_number 5
_symmetry_cell_setting 'monoclinic'
loop_
_space_group_symop_operation_xyz
x,y,z
-x,y,-z
1/2+x,1/2+y,z
1/2-x,1/2+y,-z
loop_
_atom_site_type_symbol
_atom_site_label
_atom_site_fract_x
_atom_site_fract_y
_atom_site_fract_z
Si Si1 0.175301 0.579930 0.683783
Si Si2 0.351476 0.039191 0.047973
Si Si3 0.400516 0.580053 0.264427
Si Si4 0.116836 0.078311 0.381040
Si Si5 0.389041 0.393744 0.950257
Si Si6 0.544068 0.537555 0.876356
Si Si7 0.959050 0.578279 0.567088
O O1 0.166063 0.332901 0.727119
O O2 0.278844 0.574472 0.651014
O O3 0.067291 0.578720 0.625315
O O4 0.168997 0.834226 0.724922
O O5 0.390079 0.290256 0.090652
O O6 0.222993 0.014843 0.042344
O O7 0.411535 0.795560 0.084899
O O8 0.376200 0.106213 0.976345
O O9 0.509535 0.579404 0.322002
O O10 0.437502 0.569635 0.196116
O O11 0.109588 0.330052 0.423107
O O12 0.108200 0.829586 0.423915
O O13 0.420948 0.462218 0.882173
O O14 0.500000 0.484073 0.000000
O O15 0.000000 0.575348 0.500000
#
# Coordination Sequence:
#
# PCOD9124540 Si02
#       7
#     4   4   4   4   4   4   4
#     4  10  21  39  60  83 120 160 194 242 294 339
#     4  11  24  41  62  88 116 150 189 235 294 354
#     4  10  22  40  59  86 117 150 200 244 282 346
#     4  10  21  38  60  85 120 163 192 237 300 336
#     4  10  23  41  61  84 116 148 183 232 290 349
#     4  11  25  41  62  89 115 150 195 241 289 346
#     4  10  21  36  58  91 122 153 202 245 282 346
#
# _framework density 20.734805999999999
#
# number of rings (size 3 to 8) (size 9 to 14) (size 15 to 20)
#    0.000    1.714    0.000    3.857    0.000   14.286 
#    0.000    0.000    0.000    0.000    0.000    0.000 
#    0.000    0.000    0.000    0.000    0.000    0.000 
#
# Total GULP energy -78167.098306 kJ/mol
# GULP energy per Si atom -5583.364165 kJ/mol
# Density = 2.068761 g / cm^3
# Si number density = 20.734806 Si / 1000 Ang^3
#
#
#
# Elastic Constant Matrix: (Units=GPa)
#
#
# Indices 1 2 3 4 5 6 
#
# 1 113.5955 54.2191 27.4917 0.0000 -50.9749 0.0000
# 2 54.2191 196.0693 73.6049 0.0000 -34.6486 0.0000
# 3 27.4917 73.6049 118.1434 0.0000 -54.9565 0.0000
# 4 0.0000 0.0000 0.0000 26.2374 0.0000 -15.5982
# 5 -50.9749 -34.6486 -54.9565 0.0000 45.7652 0.0000
# 6 0.0000 0.0000 0.0000 -15.5982 0.0000 24.5245
#
#
#
# Elastic Compliance Matrix: (Units=1/GPa)
#
#
# Indices 1 2 3 4 5 6 
#
# 1 0.038120 -0.009217 0.030304 0.000000 0.071872 0.000000
# 2 -0.009217 0.008886 -0.011412 0.000000 -0.017242 0.000000
# 3 0.030304 -0.011412 0.045773 0.000000 0.080080 0.000000
# 4 0.000000 0.000000 0.000000 0.061287 0.000000 0.038980
# 5 0.071872 -0.017242 0.080080 0.000000 0.185013 0.000000
# 6 0.000000 0.000000 0.000000 0.038980 0.000000 0.065568
#
#
# Mechanical properties :
#
#
# Convention : Reuss Voigt Hill
#
# Bulk Modulus (GPa) = 8.91819 82.04882 45.48351
# Shear Modulus (GPa) = 11.82948 37.47160 24.65054
#
# Velocity S-wave (km/s) = 2.39113 4.25571 3.45171
# Velocity P-wave (km/s) = 3.45453 7.98778 6.15379
#
# Compressibility (1/GPa) = 0.11213036
#
# Stress axis : x y z
#
# Youngs Moduli (GPa) = 26.23282 112.53629 21.84702
#
# Poissons Ratio (x) = 1.03721 -0.66206
# Poissons Ratio (y) = 0.24178 0.24932
# Poissons Ratio (z) = -0.79497 1.28425
#
# Static dielectric constant tensor:
#      x y z
#    x 1.735680 0.000000 -0.008030 
#    y 0.000000 1.763500 0.000000 
#    z -0.008030 0.000000 1.776600 
# 
# From -- ./inp_files/64882.got.cif
#   From: 2010.05.17/outbox.cif.g08.bks.cpg/sg5_33_cif.got.tgz:64882.got - 2010.06.03 18:56:24.
