data_PCOD9124411
_publ_section_title
;
Structure prediction by ZEFSAII (Michael W. Deem and Ramdas Pophale) SiO2 
 PCOD9124411
Probable space group: C 2
;
_chemical_formula_sum "Si O2"
_cell_formula_units_Z 22
_cell_length_a 18.094461
_cell_length_b 7.046787
_cell_length_c 9.544780
_cell_angle_alpha 90.000000
_cell_angle_beta 131.780244
_cell_angle_gamma 90.000000
_cell_volume 907.549303
_symmetry_space_group_name_H-M "C 2"
_symmetry_group_IT_number 5
_symmetry_cell_setting 'monoclinic'
loop_
_space_group_symop_operation_xyz
x,y,z
-x,y,-z
1/2+x,1/2+y,z
1/2-x,1/2+y,-z
loop_
_atom_site_type_symbol
_atom_site_label
_atom_site_fract_x
_atom_site_fract_y
_atom_site_fract_z
Si Si1 0.000000 0.505481 0.500000
Si Si2 0.520166 0.706885 0.777362
Si Si3 0.830239 0.893798 0.044887
Si Si4 0.299102 0.647546 0.488721
Si Si5 0.800340 0.559618 0.359451
Si Si6 0.171155 0.477972 0.076410
O O1 0.978067 0.364290 0.343809
O O2 0.902717 0.623650 0.418385
O O3 0.580597 0.526547 0.796535
O O4 0.413290 0.614082 0.678171
O O5 0.578456 0.833121 0.969108
O O6 0.746768 0.888629 0.058545
O O7 0.857798 0.685885 0.022089
O O8 0.782937 0.016989 0.859107
O O9 0.233579 0.666147 0.544911
O O10 0.236212 0.524258 0.297054
O O11 0.315500 0.847051 0.434559
#
# Coordination Sequence:
#
# PCOD9124411 Si02
#       6
#     2   4   4   4   4   4
#     4  10  20  46  72 100 138 188 244 296 358 446
#     4  11  22  44  72 100 147 192 240 297 374 428
#     4  11  21  40  70 103 144 184 251 296 356 443
#     4  10  25  44  68 102 149 185 240 306 367 432
#     4  10  22  43  68  99 143 183 234 306 355 434
#     4  11  22  42  71 103 145 195 234 306 360 437
#
# _framework density 24.241105999999998
#
# number of rings (size 3 to 8) (size 9 to 14) (size 15 to 20)
#    0.000    1.455    3.636    2.182    2.545    0.727 
#    9.818    0.909    0.000    0.000    0.000    0.000 
#    0.000    0.000    0.000    0.000    0.000    0.000 
#
# Total GULP energy -61410.591417 kJ/mol
# GULP energy per Si atom -5582.781038 kJ/mol
# Density = 2.418593 g / cm^3
# Si number density = 24.241106 Si / 1000 Ang^3
#
#
#
# Elastic Constant Matrix: (Units=GPa)
#
#
# Indices 1 2 3 4 5 6 
#
# 1 154.6653 54.9137 7.0889 0.0000 14.3908 0.0000
# 2 54.9137 163.6439 -28.0428 0.0000 23.8489 0.0000
# 3 7.0889 -28.0428 145.1209 0.0000 -10.9210 0.0000
# 4 0.0000 0.0000 0.0000 139.7910 0.0000 -56.8271
# 5 14.3908 23.8489 -10.9210 0.0000 39.1394 0.0000
# 6 0.0000 0.0000 0.0000 -56.8271 0.0000 59.0051
#
#
#
# Elastic Compliance Matrix: (Units=1/GPa)
#
#
# Indices 1 2 3 4 5 6 
#
# 1 0.007528 -0.002467 -0.000960 0.000000 -0.001532 0.000000
# 2 -0.002467 0.007663 0.001346 0.000000 -0.003386 0.000000
# 3 -0.000960 0.001346 0.007316 0.000000 0.001574 0.000000
# 4 0.000000 0.000000 0.000000 0.011756 0.000000 0.011322
# 5 -0.001532 -0.003386 0.001574 0.000000 0.028616 0.000000
# 6 0.000000 0.000000 0.000000 0.011322 0.000000 0.027852
#
#
# Mechanical properties :
#
#
# Convention : Reuss Voigt Hill
#
# Bulk Modulus (GPa) = 54.50755 59.03883 56.77319
# Shear Modulus (GPa) = 49.50082 76.21844 62.85963
#
# Velocity S-wave (km/s) = 4.52377 5.61338 5.09777
# Velocity P-wave (km/s) = 7.05836 8.14992 7.62370
#
# Compressibility (1/GPa) = 0.01834608
#
# Stress axis : x y z
#
# Youngs Moduli (GPa) = 132.83413 130.49599 136.68058
#
# Poissons Ratio (x) = 0.32198 0.13119
# Poissons Ratio (y) = 0.32775 -0.18404
# Poissons Ratio (z) = 0.12750 -0.17571
#
# Static dielectric constant tensor:
#      x y z
#    x 1.864690 0.000000 0.030760 
#    y 0.000000 1.938540 0.000000 
#    z 0.030760 0.000000 2.048070 
# 
# From -- ./inp_files/26847.got.cif
#   From: 2010.05.17/outbox.cif.g08.bks.cpg/sg5_14_cif.got.tgz:26847.got - 2010.06.03 18:56:24.
