data_PCOD9124905
_publ_section_title
;
Structure prediction by ZEFSAII (Michael W. Deem and Ramdas Pophale) SiO2 
 PCOD9124905
Probable space group: C 2
;
_chemical_formula_sum "Si O2"
_cell_formula_units_Z 30
_cell_length_a 14.621695
_cell_length_b 14.324391
_cell_length_c 14.855913
_cell_angle_alpha 90.000000
_cell_angle_beta 27.735253
_cell_angle_gamma 90.000000
_cell_volume 1448.062226
_symmetry_space_group_name_H-M "C 2"
_symmetry_group_IT_number 5
_symmetry_cell_setting 'monoclinic'
loop_
_space_group_symop_operation_xyz
x,y,z
-x,y,-z
1/2+x,1/2+y,z
1/2-x,1/2+y,-z
loop_
_atom_site_type_symbol
_atom_site_label
_atom_site_fract_x
_atom_site_fract_y
_atom_site_fract_z
Si Si1 0.154758 0.698080 0.040432
Si Si2 0.791843 0.891102 0.930554
Si Si3 0.028216 0.084295 0.727000
Si Si4 0.183830 0.793285 0.279076
Si Si5 0.647293 0.839774 0.689913
Si Si6 0.000000 0.614788 0.000000
Si Si7 0.321285 0.530863 0.588590
Si Si8 0.904908 0.667706 0.417595
O O1 0.110466 0.805348 0.101274
O O2 0.003920 0.642411 0.236468
O O3 0.372270 0.666635 0.881948
O O4 0.126360 0.674154 0.961114
O O5 0.788665 0.863113 0.827599
O O6 0.902395 0.988993 0.847363
O O7 0.564305 0.877301 0.156256
O O8 0.099623 0.094911 0.561418
O O9 0.238212 0.094533 0.594940
O O10 0.354253 0.796808 0.205946
O O11 0.000000 0.823105 0.500000
O O12 0.092910 0.697462 0.315593
O O13 0.770234 0.761845 0.528969
O O14 0.769980 0.934589 0.585093
O O15 0.139696 0.556833 0.811798
O O16 0.500000 0.523491 0.500000
#
# Coordination Sequence:
#
# PCOD9124905 Si02
#       8
#     4   4   4   4   4   2   4   4
#     4  11  23  42  59  91 122 167 214 255 321 373
#     4  11  23  37  61  92 128 170 212 256 314 386
#     4  12  22  39  60  91 128 167 216 256 310 384
#     4   9  19  35  57  88 122 160 201 252 324 375
#     4  11  21  38  62  92 129 163 200 264 332 383
#     4  12  24  38  62  88 128 160 204 262 310 384
#     4  12  23  35  58  94 127 159 199 259 330 375
#     4  10  21  39  59  85 128 166 204 254 309 383
#
# _framework density 20.717341000000001
#
# number of rings (size 3 to 8) (size 9 to 14) (size 15 to 20)
#    0.000    1.067    4.000    5.600    1.867    0.000 
#    0.000    0.000    0.000    8.000    0.000    0.000 
#    0.000    0.000    0.000    0.000    0.000    0.000 
#
# Total GULP energy -83528.954341 kJ/mol
# GULP energy per Si atom -5568.596956 kJ/mol
# Density = 2.067019 g / cm^3
# Si number density = 20.717341 Si / 1000 Ang^3
#
#
#
# Elastic Constant Matrix: (Units=GPa)
#
#
# Indices 1 2 3 4 5 6 
#
# 1 39.8139 15.5659 4.1876 -0.0012 -10.9116 0.0003
# 2 15.5659 69.7545 23.0756 -0.0001 -1.8433 0.0003
# 3 4.1876 23.0756 105.9954 0.0006 -2.3526 0.0001
# 4 -0.0012 -0.0001 0.0006 29.0759 0.0008 -7.2579
# 5 -10.9116 -1.8433 -2.3526 0.0008 39.1036 -0.0007
# 6 0.0003 0.0003 0.0001 -7.2579 -0.0007 20.0372
#
#
#
# Elastic Compliance Matrix: (Units=1/GPa)
#
#
# Indices 1 2 3 4 5 6 
#
# 1 0.029854 -0.006593 0.000434 0.000001 0.008046 0.000000
# 2 -0.006593 0.016915 -0.003450 0.000000 -0.001250 0.000000
# 3 0.000434 -0.003450 0.010181 0.000000 0.000571 0.000000
# 4 0.000001 0.000000 0.000000 0.037812 0.000000 0.013696
# 5 0.008046 -0.001250 0.000571 0.000000 0.027794 0.000001
# 6 0.000000 0.000000 0.000000 0.013696 0.000001 0.054868
#
#
# Mechanical properties :
#
#
# Convention : Reuss Voigt Hill
#
# Bulk Modulus (GPa) = 26.50173 33.46913 29.98543
# Shear Modulus (GPa) = 23.89846 29.15899 26.52872
#
# Velocity S-wave (km/s) = 3.40008 3.75569 3.58230
# Velocity P-wave (km/s) = 5.31355 5.91584 5.62277
#
# Compressibility (1/GPa) = 0.03773339
#
# Stress axis : x y z
#
# Youngs Moduli (GPa) = 33.49647 59.11746 98.22290
#
# Poissons Ratio (x) = 0.38977 -0.04267
# Poissons Ratio (y) = 0.22085 0.33885
# Poissons Ratio (z) = -0.01455 0.20395
#
# Static dielectric constant tensor:
#      x y z
#    x 1.855460 0.000000 -0.065650 
#    y 0.000000 1.811740 0.000000 
#    z -0.065650 0.000000 1.817550 
# 
# From -- ./inp_files/54767.got.cif
#   From: 2010.05.17/outbox.cif.g08.bks.cpg/sg5_28_cif.got.tgz:54767.got - 2010.06.03 18:56:24.
