data_PCOD9124408
_publ_section_title
;
Structure prediction by ZEFSAII (Michael W. Deem and Ramdas Pophale) SiO2 
 PCOD9124408
Probable space group: C 2
;
_chemical_formula_sum "Si O2"
_cell_formula_units_Z 24
_cell_length_a 16.052121
_cell_length_b 7.569406
_cell_length_c 9.411348
_cell_angle_alpha 90.000000
_cell_angle_beta 74.353800
_cell_angle_gamma 90.000000
_cell_volume 1101.153151
_symmetry_space_group_name_H-M "C 2"
_symmetry_group_IT_number 5
_symmetry_cell_setting 'monoclinic'
loop_
_space_group_symop_operation_xyz
x,y,z
-x,y,-z
1/2+x,1/2+y,z
1/2-x,1/2+y,-z
loop_
_atom_site_type_symbol
_atom_site_label
_atom_site_fract_x
_atom_site_fract_y
_atom_site_fract_z
Si Si1 0.000000 0.805380 0.500000
Si Si2 0.318749 0.311695 0.626613
Si Si3 0.830964 0.319260 0.815627
Si Si4 0.500000 0.400162 0.000000
Si Si5 0.665014 0.712725 0.495110
Si Si6 0.835514 0.708020 0.936780
Si Si7 0.006325 0.104998 0.731678
O O1 0.092110 0.711656 0.458503
O O2 0.994447 0.933340 0.638388
O O3 0.329553 0.513257 0.568507
O O4 0.237811 0.237955 0.579197
O O5 0.310804 0.302833 0.799506
O O6 0.822297 0.333967 0.648838
O O7 0.845260 0.504854 0.886898
O O8 0.915421 0.198811 0.800259
O O9 0.743674 0.235318 0.918837
O O10 0.576221 0.286224 0.037215
O O11 0.458194 0.527867 0.137754
O O12 0.572564 0.728115 0.615375
#
# Coordination Sequence:
#
# PCOD9124408 Si02
#       7
#     2   4   4   2   4   4   4
#     4  10  20  46  70  94 140 182 228 286 348 402
#     4  11  23  45  67 107 136 186 236 284 353 414
#     4  12  25  49  70 102 144 187 239 295 349 420
#     4  12  26  48  72 104 144 186 234 288 358 430
#     4  11  24  44  75 103 141 184 239 291 351 417
#     4  12  28  45  72 103 145 190 235 293 353 421
#     4  11  23  47  74  98 142 186 229 294 351 418
#
# _framework density 21.795332999999999
#
# number of rings (size 3 to 8) (size 9 to 14) (size 15 to 20)
#    0.000    0.667    5.000    3.000    9.333    0.667 
#    9.000    0.000    0.000    0.000    0.000    0.000 
#    0.000    0.000    0.000    0.000    0.000    0.000 
#
# Total GULP energy -67110.674513 kJ/mol
# GULP energy per Si atom -5592.556209 kJ/mol
# Density = 2.174573 g / cm^3
# Si number density = 21.795333 Si / 1000 Ang^3
#
#
#
# Elastic Constant Matrix: (Units=GPa)
#
#
# Indices 1 2 3 4 5 6 
#
# 1 162.9362 31.3372 80.4874 0.0000 -5.7197 0.0000
# 2 31.3372 67.0489 49.4291 0.0000 -4.9718 0.0000
# 3 80.4874 49.4291 160.8896 0.0000 -2.1353 0.0000
# 4 0.0000 0.0000 0.0000 29.8897 0.0000 2.9071
# 5 -5.7197 -4.9718 -2.1353 0.0000 49.8200 0.0000
# 6 0.0000 0.0000 0.0000 2.9071 0.0000 36.2747
#
#
#
# Elastic Compliance Matrix: (Units=1/GPa)
#
#
# Indices 1 2 3 4 5 6 
#
# 1 0.008231 -0.000992 -0.003804 0.000000 0.000683 0.000000
# 2 -0.000992 0.019541 -0.005486 0.000000 0.001601 0.000000
# 3 -0.003804 -0.005486 0.009796 0.000000 -0.000564 0.000000
# 4 0.000000 0.000000 0.000000 0.033719 0.000000 -0.002702
# 5 0.000683 0.001601 -0.000564 0.000000 0.020286 0.000000
# 6 0.000000 0.000000 0.000000 -0.002702 0.000000 0.027784
#
#
# Mechanical properties :
#
#
# Convention : Reuss Voigt Hill
#
# Bulk Modulus (GPa) = 58.80716 79.26469 69.03592
# Shear Modulus (GPa) = 34.34293 38.50495 36.42394
#
# Velocity S-wave (km/s) = 3.97382 4.20773 4.09244
# Velocity P-wave (km/s) = 6.93506 7.74941 7.35351
#
# Compressibility (1/GPa) = 0.01700473
#
# Stress axis : x y z
#
# Youngs Moduli (GPa) = 121.48857 51.17394 102.07921
#
# Poissons Ratio (x) = 0.05077 0.38830
# Poissons Ratio (y) = 0.12054 0.56000
# Poissons Ratio (z) = 0.46213 0.28074
#
# Static dielectric constant tensor:
#      x y z
#    x 1.794980 0.000000 0.001240 
#    y 0.000000 1.823080 0.000000 
#    z 0.001240 0.000000 1.809220 
# 
# From -- ./inp_files/22819.got.cif
#   From: 2010.05.17/outbox.cif.g08.bks.cpg/sg5_12_cif.got.tgz:22819.got - 2010.06.03 18:56:24.
