data_PCOD9124561
_publ_section_title
;
Structure prediction by ZEFSAII (Michael W. Deem and Ramdas Pophale) SiO2 
 PCOD9124561
Probable space group: C 2
;
_chemical_formula_sum "Si O2"
_cell_formula_units_Z 32
_cell_length_a 15.816509
_cell_length_b 12.103740
_cell_length_c 21.870181
_cell_angle_alpha 90.000000
_cell_angle_beta 23.045650
_cell_angle_gamma 90.000000
_cell_volume 1638.984628
_symmetry_space_group_name_H-M "C 2"
_symmetry_group_IT_number 5
_symmetry_cell_setting 'monoclinic'
loop_
_space_group_symop_operation_xyz
x,y,z
-x,y,-z
1/2+x,1/2+y,z
1/2-x,1/2+y,-z
loop_
_atom_site_type_symbol
_atom_site_label
_atom_site_fract_x
_atom_site_fract_y
_atom_site_fract_z
Si Si1 0.205817 0.517370 0.629747
Si Si2 0.078682 0.493703 0.850504
Si Si3 0.239317 0.640931 0.347920
Si Si4 0.968616 0.253082 0.086164
Si Si5 0.528252 0.244072 0.241168
Si Si6 0.431263 0.480141 0.813994
Si Si7 0.287933 0.785278 0.437602
Si Si8 0.413752 0.608856 0.699370
O O1 0.194508 0.483412 0.707915
O O2 0.164064 0.411860 0.613410
O O3 0.432455 0.566924 0.457137
O O4 0.048974 0.623099 0.726582
O O5 0.108682 0.379869 0.867858
O O6 0.177193 0.591787 0.826709
O O7 0.823928 0.496570 0.004546
O O8 0.307621 0.699182 0.240189
O O9 0.425569 0.554844 0.238244
O O10 0.244581 0.723901 0.402195
O O11 0.000000 0.593764 0.500000
O O12 0.000000 0.197151 0.000000
O O13 0.216536 0.250950 0.941450
O O14 0.466996 0.358033 0.248273
O O15 0.421490 0.265108 0.379442
O O16 0.447477 0.525092 0.733600
O O17 0.488034 0.724007 0.339775
#
# Coordination Sequence:
#
# PCOD9124561 Si02
#       8
#     4   4   4   4   4   4   4   4
#     4  11  21  36  63  90 127 162 209 260 315 379
#     4  11  21  36  61  95 121 159 209 264 314 370
#     4  11  23  38  62  92 118 163 212 266 309 385
#     4  11  22  36  60  90 123 154 209 268 313 361
#     4  10  21  39  61  88 123 167 204 251 319 380
#     4  10  21  40  61  85 125 162 207 257 323 372
#     4  10  21  39  59  92 126 162 208 260 320 374
#     4  10  21  36  61  90 124 161 206 262 319 371
#
# _framework density 19.524283
#
# number of rings (size 3 to 8) (size 9 to 14) (size 15 to 20)
#    0.000    1.500    2.500    3.750    1.750    0.000 
#    0.000    2.500    0.000    0.000    0.000    0.000 
#    0.000    0.000    0.000    0.000    0.000    0.000 
#
# Total GULP energy -89092.806630 kJ/mol
# GULP energy per Si atom -5568.300414 kJ/mol
# Density = 1.947984 g / cm^3
# Si number density = 19.524283 Si / 1000 Ang^3
#
#
#
# Elastic Constant Matrix: (Units=GPa)
#
#
# Indices 1 2 3 4 5 6 
#
# 1 73.6474 27.5624 32.1642 0.0039 1.5305 0.0055
# 2 27.5624 90.1307 8.6749 -0.0222 -16.0633 0.0219
# 3 32.1642 8.6749 72.2899 -0.0120 4.1213 0.0166
# 4 0.0039 -0.0222 -0.0120 52.9855 -0.0121 -4.2601
# 5 1.5305 -16.0633 4.1213 -0.0121 38.1710 0.0003
# 6 0.0055 0.0219 0.0166 -4.2601 0.0003 14.4127
#
#
#
# Elastic Compliance Matrix: (Units=1/GPa)
#
#
# Indices 1 2 3 4 5 6 
#
# 1 0.019030 -0.005479 -0.007682 -0.000005 -0.002239 0.000008
# 2 -0.005479 0.013793 0.000442 0.000006 0.005977 -0.000018
# 3 -0.007682 0.000442 0.017276 0.000003 -0.001371 -0.000017
# 4 -0.000005 0.000006 0.000003 0.019333 0.000009 0.005714
# 5 -0.002239 0.005977 -0.001371 0.000009 0.028951 -0.000005
# 6 0.000008 -0.000018 -0.000017 0.005714 -0.000005 0.071072
#
#
# Mechanical properties :
#
#
# Convention : Reuss Voigt Hill
#
# Bulk Modulus (GPa) = 40.54954 41.43010 40.98982
# Shear Modulus (GPa) = 24.61662 32.29160 28.45411
#
# Velocity S-wave (km/s) = 3.55466 4.07125 3.82169
# Velocity P-wave (km/s) = 6.13688 6.58529 6.36503
#
# Compressibility (1/GPa) = 0.02466119
#
# Stress axis : x y z
#
# Youngs Moduli (GPa) = 52.54756 72.49945 57.88263
#
# Poissons Ratio (x) = 0.39725 0.44466
# Poissons Ratio (y) = 0.28793 -0.02558
# Poissons Ratio (z) = 0.40367 -0.03205
#
# Static dielectric constant tensor:
#      x y z
#    x 1.609390 0.000010 0.076700 
#    y 0.000010 1.714220 0.000000 
#    z 0.076700 0.000000 1.621990 
# 
# From -- ./inp_files/69251.got.cif
#   From: 2010.05.17/outbox.cif.g08.bks.cpg/sg5_35_cif.got.tgz:69251.got - 2010.06.03 18:56:24.
