data_PCOD9124526
_publ_section_title
;
Structure prediction by ZEFSAII (Michael W. Deem and Ramdas Pophale) SiO2 
 PCOD9124526
Probable space group: C 2
;
_chemical_formula_sum "Si O2"
_cell_formula_units_Z 30
_cell_length_a 18.672021
_cell_length_b 10.852655
_cell_length_c 12.802572
_cell_angle_alpha 90.000000
_cell_angle_beta 147.479692
_cell_angle_gamma 90.000000
_cell_volume 1394.705796
_symmetry_space_group_name_H-M "C 2"
_symmetry_group_IT_number 5
_symmetry_cell_setting 'monoclinic'
loop_
_space_group_symop_operation_xyz
x,y,z
-x,y,-z
1/2+x,1/2+y,z
1/2-x,1/2+y,-z
loop_
_atom_site_type_symbol
_atom_site_label
_atom_site_fract_x
_atom_site_fract_y
_atom_site_fract_z
Si Si1 0.000000 0.604921 0.000000
Si Si2 0.883145 0.007891 0.286452
Si Si3 0.817771 0.168674 0.595295
Si Si4 0.359183 0.871514 0.088013
Si Si5 0.357443 0.943259 0.650766
Si Si6 0.274058 0.715708 0.298213
Si Si7 0.652274 0.972853 0.694181
Si Si8 0.392189 0.602784 0.070025
O O1 0.082820 0.514477 0.176230
O O2 0.115168 0.690821 0.090636
O O3 0.850679 0.136028 0.305612
O O4 0.918721 0.020246 0.207081
O O5 0.000000 0.949842 0.500000
O O6 0.744251 0.935614 0.116896
O O7 0.785266 0.311502 0.586152
O O8 0.814255 0.173257 0.463802
O O9 0.967756 0.134148 0.811055
O O10 0.724944 0.051650 0.508607
O O11 0.510066 0.903481 0.246584
O O12 0.335905 0.919382 0.174530
O O13 0.337611 0.727479 0.053727
O O14 0.318963 0.856381 0.343455
O O15 0.500000 0.020574 0.500000
O O16 0.779931 0.061083 0.850467
#
# Coordination Sequence:
#
# PCOD9124526 Si02
#       8
#     2   4   4   4   4   4   4   4
#     4  10  22  38  64  90 118 166 202 252 296 372
#     4  11  19  34  60  88 115 153 204 243 296 359
#     4  10  22  40  64  86 124 160 208 252 308 364
#     4  10  21  38  60  86 123 159 202 254 306 361
#     4  10  21  40  60  90 120 164 206 253 305 366
#     4  11  20  38  63  88 119 161 208 241 299 375
#     4  11  22  37  60  88 124 161 203 254 308 366
#     4  10  21  36  57  89 119 156 196 257 308 353
#
# _framework density 21.509912
#
# number of rings (size 3 to 8) (size 9 to 14) (size 15 to 20)
#    0.000    1.600    4.000    2.000    0.000    2.667 
#    0.000    5.333    0.000    0.000    0.000    0.000 
#    0.000    0.000    0.000    0.000    0.000    0.000 
#
# Total GULP energy -83624.986054 kJ/mol
# GULP energy per Si atom -5574.999070 kJ/mol
# Density = 2.146095 g / cm^3
# Si number density = 21.509912 Si / 1000 Ang^3
#
#
#
# Elastic Constant Matrix: (Units=GPa)
#
#
# Indices 1 2 3 4 5 6 
#
# 1 22.1577 -2.9119 8.1355 0.0000 2.8430 0.0000
# 2 -2.9119 56.0441 60.5918 0.0000 9.5388 0.0000
# 3 8.1355 60.5918 154.6765 0.0000 10.4582 0.0000
# 4 0.0000 0.0000 0.0000 28.0672 0.0000 -1.2240
# 5 2.8430 9.5388 10.4582 0.0000 25.4207 0.0000
# 6 0.0000 0.0000 0.0000 -1.2240 0.0000 15.8394
#
#
#
# Elastic Compliance Matrix: (Units=1/GPa)
#
#
# Indices 1 2 3 4 5 6 
#
# 1 0.049713 0.010553 -0.006280 0.000000 -0.006936 0.000000
# 2 0.010553 0.034384 -0.013446 0.000000 -0.008550 0.000000
# 3 -0.006280 -0.013446 0.012008 0.000000 0.000808 0.000000
# 4 0.000000 0.000000 0.000000 0.035749 0.000000 0.002763
# 5 -0.006936 -0.008550 0.000808 0.000000 0.042990 0.000000
# 6 0.000000 0.000000 0.000000 0.002763 0.000000 0.063347
#
#
# Mechanical properties :
#
#
# Convention : Reuss Voigt Hill
#
# Bulk Modulus (GPa) = 12.86024 40.50101 26.68063
# Shear Modulus (GPa) = 17.70176 25.00300 21.35238
#
# Velocity S-wave (km/s) = 2.87184 3.41309 3.15409
# Velocity P-wave (km/s) = 4.12169 5.86533 5.06905
#
# Compressibility (1/GPa) = 0.07775906
#
# Stress axis : x y z
#
# Youngs Moduli (GPa) = 20.11533 29.08334 83.27715
#
# Poissons Ratio (x) = -0.30691 0.52295
# Poissons Ratio (y) = -0.21227 1.11976
# Poissons Ratio (z) = 0.12632 0.39106
#
# Static dielectric constant tensor:
#      x y z
#    x 1.821220 0.000000 0.004170 
#    y 0.000000 1.827410 0.000000 
#    z 0.004170 0.000000 1.839430 
# 
# From -- ./inp_files/57018.got.cif
#   From: 2010.05.17/outbox.cif.g08.bks.cpg/sg5_29_cif.got.tgz:57018.got - 2010.06.03 18:56:24.
