data_PCOD9124767
_publ_section_title
;
Structure prediction by ZEFSAII (Michael W. Deem and Ramdas Pophale) SiO2 
 PCOD9124767
Probable space group: C 2
;
_chemical_formula_sum "Si O2"
_cell_formula_units_Z 24
_cell_length_a 7.610501
_cell_length_b 16.077096
_cell_length_c 13.777087
_cell_angle_alpha 90.000000
_cell_angle_beta 138.365066
_cell_angle_gamma 90.000000
_cell_volume 1119.943547
_symmetry_space_group_name_H-M "C 2"
_symmetry_group_IT_number 5
_symmetry_cell_setting 'monoclinic'
loop_
_space_group_symop_operation_xyz
x,y,z
-x,y,-z
1/2+x,1/2+y,z
1/2-x,1/2+y,-z
loop_
_atom_site_type_symbol
_atom_site_label
_atom_site_fract_x
_atom_site_fract_y
_atom_site_fract_z
Si Si1 0.677223 0.119370 0.164298
Si Si2 0.265601 0.096129 0.170473
Si Si3 0.772086 0.778367 0.171097
Si Si4 0.574448 0.950846 0.375808
Si Si5 0.394917 0.454001 0.308752
Si Si6 0.858293 0.272002 0.336489
O O1 0.484567 0.107538 0.176773
O O2 0.886685 0.189870 0.282068
O O3 0.802313 0.028287 0.200595
O O4 0.500000 0.145135 0.000000
O O5 0.255896 0.187669 0.215072
O O6 0.352087 0.021630 0.275977
O O7 0.000000 0.078794 0.000000
O O8 0.805388 0.861779 0.244916
O O9 0.042037 0.779696 0.219980
O O10 0.500000 0.783971 0.000000
O O11 0.750297 0.965549 0.352199
O O12 0.462655 0.857581 0.334242
O O13 0.788909 0.958238 0.549856
O O14 0.000000 0.260244 0.500000
#
# Coordination Sequence:
#
# PCOD9124767 Si02
#       6
#     4   4   4   4   4   4
#     4  10  23  39  62  89 119 159 201 245 301 360
#     4   9  21  39  61  84 121 158 199 246 304 352
#     4  10  21  39  63  86 120 160 198 248 303 355
#     4  10  22  37  60  89 118 162 199 249 299 360
#     4  10  21  38  61  87 125 156 203 243 306 354
#     4  11  23  40  63  92 121 159 205 248 300 357
#
# _framework density 21.429651
#
# number of rings (size 3 to 8) (size 9 to 14) (size 15 to 20)
#    0.000    2.000    1.667    0.500    7.000    8.667 
#    0.000    0.000    3.667    0.000    0.000    0.000 
#    0.000    0.000    0.000    0.000    0.000    0.000 
#
# Total GULP energy -66932.848387 kJ/mol
# GULP energy per Si atom -5577.737366 kJ/mol
# Density = 2.138088 g / cm^3
# Si number density = 21.429651 Si / 1000 Ang^3
#
#
#
# Elastic Constant Matrix: (Units=GPa)
#
#
# Indices 1 2 3 4 5 6 
#
# 1 36.4300 8.6766 17.8718 0.0000 12.1637 0.0001
# 2 8.6766 192.9982 102.9466 -0.0001 2.9721 0.0003
# 3 17.8718 102.9466 120.3380 0.0002 15.9399 0.0011
# 4 0.0000 -0.0001 0.0002 43.7908 0.0001 1.2758
# 5 12.1637 2.9721 15.9399 0.0001 33.1112 0.0004
# 6 0.0001 0.0003 0.0011 1.2758 0.0004 44.0315
#
#
#
# Elastic Compliance Matrix: (Units=1/GPa)
#
#
# Indices 1 2 3 4 5 6 
#
# 1 0.032705 0.001047 -0.004432 0.000000 -0.009975 0.000000
# 2 0.001047 0.009909 -0.009040 0.000000 0.003078 0.000000
# 3 -0.004432 -0.009040 0.017494 0.000000 -0.005982 0.000000
# 4 0.000000 0.000000 0.000000 0.022855 0.000000 -0.000662
# 5 -0.009975 0.003078 -0.005982 0.000000 0.036469 0.000000
# 6 0.000000 0.000000 0.000000 -0.000662 0.000000 0.022730
#
#
# Mechanical properties :
#
#
# Convention : Reuss Voigt Hill
#
# Bulk Modulus (GPa) = 28.36153 67.63960 48.00056
# Shear Modulus (GPa) = 27.96961 38.87143 33.42052
#
# Velocity S-wave (km/s) = 3.61665 4.26362 3.95339
# Velocity P-wave (km/s) = 5.54109 7.47463 6.57927
#
# Compressibility (1/GPa) = 0.03525903
#
# Stress axis : x y z
#
# Youngs Moduli (GPa) = 30.57615 100.91834 57.16188
#
# Poissons Ratio (x) = -0.10568 0.25333
# Poissons Ratio (y) = -0.03202 0.51675
# Poissons Ratio (z) = 0.13551 0.91232
#
# Static dielectric constant tensor:
#      x y z
#    x 1.865820 0.000000 0.035550 
#    y 0.000000 1.826860 0.000000 
#    z 0.035550 0.000000 1.787010 
# 
# From -- ./inp_files/50828.got.cif
#   From: 2010.05.17/outbox.cif.g08.bks.cpg/sg5_26_cif.got.tgz:50828.got - 2010.06.03 18:56:24.
