data_PCOD9124839
_publ_section_title
;
Structure prediction by ZEFSAII (Michael W. Deem and Ramdas Pophale) SiO2 
 PCOD9124839
Probable space group: C 2
;
_chemical_formula_sum "Si O2"
_cell_formula_units_Z 20
_cell_length_a 18.496465
_cell_length_b 4.725286
_cell_length_c 8.761446
_cell_angle_alpha 90.000000
_cell_angle_beta 80.482099
_cell_angle_gamma 90.000000
_cell_volume 755.218445
_symmetry_space_group_name_H-M "C 2"
_symmetry_group_IT_number 5
_symmetry_cell_setting 'monoclinic'
loop_
_space_group_symop_operation_xyz
x,y,z
-x,y,-z
1/2+x,1/2+y,z
1/2-x,1/2+y,-z
loop_
_atom_site_type_symbol
_atom_site_label
_atom_site_fract_x
_atom_site_fract_y
_atom_site_fract_z
Si Si1 0.958822 0.509570 0.155142
Si Si2 0.950139 0.982803 0.370572
Si Si3 0.219626 0.817930 0.532511
Si Si4 0.669413 0.330960 0.974092
Si Si5 0.249604 0.328525 0.784439
O O1 0.991980 0.751383 0.253440
O O2 0.936095 0.270423 0.283043
O O3 0.000000 0.364873 0.000000
O O4 0.900757 0.698895 0.083765
O O5 0.000000 0.039185 0.500000
O O6 0.814567 0.127751 0.116432
O O7 0.867513 0.862905 0.433886
O O8 0.246518 0.536419 0.621656
O O9 0.258907 0.080171 0.621604
O O10 0.231314 0.615940 0.893892
O O11 0.671379 0.289947 0.156366
#
# Coordination Sequence:
#
# PCOD9124839 Si02
#       5
#     4   4   4   4   4
#     4  12  26  47  74  99 141 194 239 285 350 426
#     4  12  28  49  72 107 148 185 239 298 356 429
#     4  12  24  42  72 101 141 184 235 285 364 417
#     4  10  21  40  65  98 138 168 235 283 345 403
#     4  10  21  38  65 101 131 177 220 296 340 414
#
# _framework density 26.482405
#
# number of rings (size 3 to 8) (size 9 to 14) (size 15 to 20)
#    0.000    0.800    0.000    8.400    2.800    0.000 
#    7.200    0.000    0.000    0.000    0.000    0.000 
#    0.000    0.000    0.000    0.000    0.000    0.000 
#
# Total GULP energy -55719.381340 kJ/mol
# GULP energy per Si atom -5571.938134 kJ/mol
# Density = 2.642213 g / cm^3
# Si number density = 26.482405 Si / 1000 Ang^3
#
#
#
# Elastic Constant Matrix: (Units=GPa)
#
#
# Indices 1 2 3 4 5 6 
#
# 1 106.0717 38.6233 67.6472 0.0000 7.7874 0.0000
# 2 38.6233 248.6823 67.5199 0.0000 10.6363 0.0000
# 3 67.6472 67.5199 281.0232 0.0000 13.9896 0.0000
# 4 0.0000 0.0000 0.0000 22.5865 0.0000 -15.0274
# 5 7.7874 10.6363 13.9896 0.0000 36.3754 0.0000
# 6 0.0000 0.0000 0.0000 -15.0274 0.0000 19.1188
#
#
#
# Elastic Compliance Matrix: (Units=1/GPa)
#
#
# Indices 1 2 3 4 5 6 
#
# 1 0.011462 -0.001065 -0.002443 0.000000 -0.001203 0.000000
# 2 -0.001065 0.004428 -0.000769 0.000000 -0.000771 0.000000
# 3 -0.002443 -0.000769 0.004378 0.000000 -0.000936 0.000000
# 4 0.000000 0.000000 0.000000 0.092807 0.000000 0.072946
# 5 -0.001203 -0.000771 -0.000936 0.000000 0.028334 0.000000
# 6 0.000000 0.000000 0.000000 0.072946 0.000000 0.109640
#
#
# Mechanical properties :
#
#
# Convention : Reuss Voigt Hill
#
# Bulk Modulus (GPa) = 85.37660 109.26198 97.31929
# Shear Modulus (GPa) = 18.97462 46.41526 32.69494
#
# Velocity S-wave (km/s) = 2.67965 4.19105 3.51749
# Velocity P-wave (km/s) = 6.47171 8.04784 7.30242
#
# Compressibility (1/GPa) = 0.01171281
#
# Stress axis : x y z
#
# Youngs Moduli (GPa) = 87.24480 225.81141 228.41746
#
# Poissons Ratio (x) = 0.24057 0.55808
# Poissons Ratio (y) = 0.09295 0.17569
# Poissons Ratio (z) = 0.21316 0.17369
#
# Static dielectric constant tensor:
#      x y z
#    x 2.179920 0.000000 0.100070 
#    y 0.000000 2.070840 0.000000 
#    z 0.100070 0.000000 2.440170 
# 
# From -- ./inp_files/43655.got.cif
#   From: 2010.05.17/outbox.cif.g08.bks.cpg/sg5_22_cif.got.tgz:43655.got - 2010.06.03 18:56:24.
