data_PCOD9124359
_publ_section_title
;
Structure prediction by ZEFSAII (Michael W. Deem and Ramdas Pophale) SiO2 
 PCOD9124359
Probable space group: C 2
;
_chemical_formula_sum "Si O2"
_cell_formula_units_Z 30
_cell_length_a 16.923105
_cell_length_b 14.067256
_cell_length_c 11.874608
_cell_angle_alpha 90.000000
_cell_angle_beta 31.064847
_cell_angle_gamma 90.000000
_cell_volume 1458.696889
_symmetry_space_group_name_H-M "C 2"
_symmetry_group_IT_number 5
_symmetry_cell_setting 'monoclinic'
loop_
_space_group_symop_operation_xyz
x,y,z
-x,y,-z
1/2+x,1/2+y,z
1/2-x,1/2+y,-z
loop_
_atom_site_type_symbol
_atom_site_label
_atom_site_fract_x
_atom_site_fract_y
_atom_site_fract_z
Si Si1 0.632893 0.802490 0.418785
Si Si2 0.662837 0.113950 0.267103
Si Si3 0.875788 0.485136 0.892987
Si Si4 0.182110 0.106988 0.296113
Si Si5 0.326018 0.485810 0.250795
Si Si6 0.897752 0.264319 0.893517
Si Si7 0.500000 0.835398 0.000000
Si Si8 0.189559 0.494388 0.651892
O O1 0.500000 0.839485 0.500000
O O2 0.720064 0.719163 0.245880
O O3 0.736173 0.888181 0.332918
O O4 0.539507 0.751383 0.634850
O O5 0.500000 0.159341 0.500000
O O6 0.621777 0.026813 0.234466
O O7 0.747289 0.070555 0.274068
O O8 0.767357 0.185521 0.065775
O O9 0.844483 0.372490 0.931879
O O10 0.033926 0.506150 0.767770
O O11 0.751880 0.542244 0.114538
O O12 0.000000 0.100496 0.500000
O O13 0.254338 0.069514 0.324700
O O14 0.314229 0.492909 0.400541
O O15 0.500000 0.479815 0.000000
O O16 0.961275 0.272106 0.941679
O O17 0.640830 0.902688 0.786986
#
# Coordination Sequence:
#
# PCOD9124359 Si02
#       8
#     4   4   4   4   4   4   2   4
#     4  11  23  46  68  97 139 183 226 283 346 407
#     4  12  25  44  68 104 142 180 227 285 349 413
#     4  11  22  46  70  92 137 188 223 276 343 416
#     4  11  24  39  71 103 132 173 230 285 340 402
#     4  12  27  43  69 103 141 182 226 288 347 404
#     4  11  23  42  71  96 131 185 231 276 346 407
#     4  10  20  44  70  92 132 188 224 278 342 406
#     4  11  21  45  68  97 131 180 224 275 344 403
#
# _framework density 20.566299999999998
#
# number of rings (size 3 to 8) (size 9 to 14) (size 15 to 20)
#    0.000    0.800    6.667    2.800    4.667    1.600 
#    0.000    1.333    0.000    0.000    0.000    0.000 
#    0.000    0.000    0.000    0.000    0.000    0.000 
#
# Total GULP energy -83708.418975 kJ/mol
# GULP energy per Si atom -5580.561265 kJ/mol
# Density = 2.051949 g / cm^3
# Si number density = 20.566300 Si / 1000 Ang^3
#
#
#
# Elastic Constant Matrix: (Units=GPa)
#
#
# Indices 1 2 3 4 5 6 
#
# 1 75.2855 11.5870 11.4991 0.0000 8.7071 0.0000
# 2 11.5870 86.8644 20.5818 0.0000 -9.9425 0.0000
# 3 11.4991 20.5818 106.2681 0.0000 3.4568 0.0000
# 4 0.0000 0.0000 0.0000 37.8418 0.0000 1.6999
# 5 8.7071 -9.9425 3.4568 0.0000 31.8680 0.0000
# 6 0.0000 0.0000 0.0000 1.6999 0.0000 31.2008
#
#
#
# Elastic Compliance Matrix: (Units=1/GPa)
#
#
# Indices 1 2 3 4 5 6 
#
# 1 0.014287 -0.002187 -0.000977 0.000000 -0.004480 0.000000
# 2 -0.002187 0.012940 -0.002429 0.000000 0.004898 0.000000
# 3 -0.000977 -0.002429 0.010038 0.000000 -0.001580 0.000000
# 4 0.000000 0.000000 0.000000 0.026491 0.000000 -0.001443
# 5 -0.004480 0.004898 -0.001580 0.000000 0.034303 0.000000
# 6 0.000000 0.000000 0.000000 -0.001443 0.000000 0.032129
#
#
# Mechanical properties :
#
#
# Convention : Reuss Voigt Hill
#
# Bulk Modulus (GPa) = 38.34472 39.52821 38.93646
# Shear Modulus (GPa) = 33.31880 35.16545 34.24213
#
# Velocity S-wave (km/s) = 4.02937 4.13953 4.08482
# Velocity P-wave (km/s) = 6.35080 6.48916 6.42036
#
# Compressibility (1/GPa) = 0.02607921
#
# Stress axis : x y z
#
# Youngs Moduli (GPa) = 69.99531 77.27924 99.62497
#
# Poissons Ratio (x) = 0.16902 0.09730
# Poissons Ratio (y) = 0.15309 0.24198
# Poissons Ratio (z) = 0.06836 0.18770
#
# Static dielectric constant tensor:
#      x y z
#    x 1.723810 0.000000 0.047740 
#    y 0.000000 1.733520 0.000000 
#    z 0.047740 0.000000 1.628320 
# 
# From -- ./inp_files/44902.got.cif
#   From: 2010.05.17/outbox.cif.g08.bks.cpg/sg5_23_cif.got.tgz:44902.got - 2010.06.03 18:56:24.
