data_PCOD9124445
_publ_section_title
;
Structure prediction by ZEFSAII (Michael W. Deem and Ramdas Pophale) SiO2 
 PCOD9124445
Probable space group: C 2
;
_chemical_formula_sum "Si O2"
_cell_formula_units_Z 20
_cell_length_a 24.746997
_cell_length_b 5.480182
_cell_length_c 8.050563
_cell_angle_alpha 90.000000
_cell_angle_beta 134.515828
_cell_angle_gamma 90.000000
_cell_volume 778.516575
_symmetry_space_group_name_H-M "C 2"
_symmetry_group_IT_number 5
_symmetry_cell_setting 'monoclinic'
loop_
_space_group_symop_operation_xyz
x,y,z
-x,y,-z
1/2+x,1/2+y,z
1/2-x,1/2+y,-z
loop_
_atom_site_type_symbol
_atom_site_label
_atom_site_fract_x
_atom_site_fract_y
_atom_site_fract_z
Si Si1 0.234106 0.188280 0.371638
Si Si2 0.287328 0.978654 0.138422
Si Si3 0.038465 0.088243 0.265235
Si Si4 0.540027 0.091474 0.265365
Si Si5 0.590054 0.843897 0.854998
O O1 0.270146 0.439065 0.525671
O O2 0.275262 0.084876 0.296161
O O3 0.152617 0.283177 0.129010
O O4 0.258127 0.218816 0.970527
O O5 0.365754 0.903768 0.216239
O O6 0.084004 0.338078 0.361321
O O7 0.971371 0.127887 0.254354
O O8 0.080928 0.840978 0.389851
O O9 0.000000 0.078244 0.000000
O O10 0.466838 0.063538 0.225065
O O11 0.500000 0.100957 0.000000
#
# Coordination Sequence:
#
# PCOD9124445 Si02
#       5
#     4   4   4   4   4
#     4  11  23  35  47  72 110 140 168 203 246 303
#     4  10  21  34  52  73  97 135 179 213 240 288
#     4   8  15  26  45  75 100 114 157 212 256 284
#     4   8  15  26  45  75 100 114 157 212 256 284
#     4   9  19  31  55  69 101 131 170 204 253 281
#
# _framework density 25.689885
#
# number of rings (size 3 to 8) (size 9 to 14) (size 15 to 20)
#    1.200    1.600    0.000    2.400    8.400    0.000 
#    0.000    0.000    0.000    0.000    0.000    5.600 
#    0.000    0.000    0.000    0.000    0.000    0.000 
#
# Total GULP energy -55679.777133 kJ/mol
# GULP energy per Si atom -5567.977713 kJ/mol
# Density = 2.563141 g / cm^3
# Si number density = 25.689885 Si / 1000 Ang^3
#
#
#
# Elastic Constant Matrix: (Units=GPa)
#
#
# Indices 1 2 3 4 5 6 
#
# 1 107.6581 15.7318 32.5097 0.0000 -22.5963 0.0000
# 2 15.7318 271.1344 34.1082 0.0000 -6.4548 0.0000
# 3 32.5097 34.1082 104.0158 0.0000 -23.3999 0.0000
# 4 0.0000 0.0000 0.0000 24.6495 0.0000 -14.4922
# 5 -22.5963 -6.4548 -23.3999 0.0000 39.5698 0.0000
# 6 0.0000 0.0000 0.0000 -14.4922 0.0000 36.0581
#
#
#
# Elastic Compliance Matrix: (Units=1/GPa)
#
#
# Indices 1 2 3 4 5 6 
#
# 1 0.011041 -0.000239 -0.002264 0.000000 0.004927 0.000000
# 2 -0.000239 0.003853 -0.001243 0.000000 -0.000243 0.000000
# 3 -0.002264 -0.001243 0.011988 0.000000 0.005593 0.000000
# 4 0.000000 0.000000 0.000000 0.053121 0.000000 0.021350
# 5 0.004927 -0.000243 0.005593 0.000000 0.031353 0.000000
# 6 0.000000 0.000000 0.000000 0.021350 0.000000 0.036314
#
#
# Mechanical properties :
#
#
# Convention : Reuss Voigt Hill
#
# Bulk Modulus (GPa) = 51.57503 71.94529 61.76016
# Shear Modulus (GPa) = 30.93562 46.75273 38.84417
#
# Velocity S-wave (km/s) = 3.47392 4.27064 3.89272
# Velocity P-wave (km/s) = 6.01751 7.23768 6.65561
#
# Compressibility (1/GPa) = 0.01938923
#
# Stress axis : x y z
#
# Youngs Moduli (GPa) = 90.56777 259.55904 83.41933
#
# Poissons Ratio (x) = 0.06191 0.18888
# Poissons Ratio (y) = 0.02160 0.10373
# Poissons Ratio (z) = 0.20507 0.32276
#
# Static dielectric constant tensor:
#      x y z
#    x 1.935330 0.000000 -0.018860 
#    y 0.000000 2.056440 0.000000 
#    z -0.018860 0.000000 2.151940 
# 
# From -- ./inp_files/31177.got.cif
#   From: 2010.05.17/outbox.cif.g08.bks.cpg/sg5_16_cif.got.tgz:31177.got - 2010.06.03 18:56:24.
