data_PCOD9124747
_publ_section_title
;
Structure prediction by ZEFSAII (Michael W. Deem and Ramdas Pophale) SiO2 
 PCOD9124747
Probable space group: C 2
;
_chemical_formula_sum "Si O2"
_cell_formula_units_Z 32
_cell_length_a 12.819148
_cell_length_b 19.211916
_cell_length_c 9.389575
_cell_angle_alpha 90.000000
_cell_angle_beta 46.270745
_cell_angle_gamma 90.000000
_cell_volume 1671.022592
_symmetry_space_group_name_H-M "C 2"
_symmetry_group_IT_number 5
_symmetry_cell_setting 'monoclinic'
loop_
_space_group_symop_operation_xyz
x,y,z
-x,y,-z
1/2+x,1/2+y,z
1/2-x,1/2+y,-z
loop_
_atom_site_type_symbol
_atom_site_label
_atom_site_fract_x
_atom_site_fract_y
_atom_site_fract_z
Si Si1 0.854253 0.792530 0.055884
Si Si2 0.360907 0.660830 0.231611
Si Si3 0.631559 0.250028 0.278790
Si Si4 0.345599 0.905602 0.425113
Si Si5 0.165538 0.005753 0.793420
Si Si6 0.835790 0.913132 0.684222
Si Si7 0.634580 0.747859 0.481739
Si Si8 0.185168 0.433604 0.115132
O O1 0.771204 0.743538 0.246849
O O2 0.754358 0.860321 0.110971
O O3 0.884162 0.752715 0.877900
O O4 0.000000 0.815382 0.000000
O O5 0.260219 0.706268 0.223535
O O6 0.315304 0.580816 0.295142
O O7 0.376093 0.696873 0.372228
O O8 0.500000 0.655719 0.000000
O O9 0.500000 0.224749 0.500000
O O10 0.651069 0.330924 0.298547
O O11 0.233095 0.946099 0.631342
O O12 0.275928 0.918542 0.338282
O O13 0.351207 0.824697 0.462876
O O14 0.512417 0.928766 0.276442
O O15 0.264453 0.998033 0.838290
O O16 0.000000 0.994292 0.000000
O O17 0.000000 0.938588 0.500000
O O18 0.760668 0.944311 0.892900
O O19 0.500000 0.743462 0.500000
#
# Coordination Sequence:
#
# PCOD9124747 Si02
#       8
#     4   4   4   4   4   4   4   4
#     4  11  22  35  61  96 131 166 215 280 334 391
#     4  11  25  42  65  90 130 184 220 275 329 411
#     4  10  21  38  59  91 127 171 215 265 335 392
#     4  12  22  39  65  99 130 167 218 281 343 389
#     4  11  24  43  63  91 129 177 227 263 334 405
#     4  10  22  36  62  97 132 167 213 274 330 393
#     4  12  22  39  65 100 131 168 224 286 341 392
#     4  11  22  38  62  96 127 170 216 277 335 391
#
# _framework density 19.149951999999999
#
# number of rings (size 3 to 8) (size 9 to 14) (size 15 to 20)
#    0.000    1.000    3.750    3.375    5.250    1.000 
#    0.000    4.375    0.000    1.500    0.000    0.000 
#    0.000    0.000    0.000    0.000    0.000    0.000 
#
# Total GULP energy -89216.115692 kJ/mol
# GULP energy per Si atom -5576.007231 kJ/mol
# Density = 1.910637 g / cm^3
# Si number density = 19.149952 Si / 1000 Ang^3
#
#
#
# Elastic Constant Matrix: (Units=GPa)
#
#
# Indices 1 2 3 4 5 6 
#
# 1 108.7397 28.1312 30.5157 0.0000 26.3535 0.0000
# 2 28.1312 77.4469 37.1475 0.0000 18.7936 0.0000
# 3 30.5157 37.1475 94.8375 0.0000 22.9334 0.0000
# 4 0.0000 0.0000 0.0000 22.8936 0.0000 9.3943
# 5 26.3535 18.7936 22.9334 0.0000 33.6123 0.0000
# 6 0.0000 0.0000 0.0000 9.3943 0.0000 20.5388
#
#
#
# Elastic Compliance Matrix: (Units=1/GPa)
#
#
# Indices 1 2 3 4 5 6 
#
# 1 0.011826 -0.001898 -0.001289 0.000000 -0.007331 0.000000
# 2 -0.001898 0.017121 -0.004958 0.000000 -0.004701 0.000000
# 3 -0.001289 -0.004958 0.014355 0.000000 -0.006011 0.000000
# 4 0.000000 0.000000 0.000000 0.053773 0.000000 -0.024595
# 5 -0.007331 -0.004701 -0.006011 0.000000 0.042229 0.000000
# 6 0.000000 0.000000 0.000000 -0.024595 0.000000 0.059938
#
#
# Mechanical properties :
#
#
# Convention : Reuss Voigt Hill
#
# Bulk Modulus (GPa) = 37.02295 52.51253 44.76774
# Shear Modulus (GPa) = 22.26811 27.75759 25.01285
#
# Velocity S-wave (km/s) = 3.41373 3.81134 3.61800
# Velocity P-wave (km/s) = 5.90874 6.84469 6.39386
#
# Compressibility (1/GPa) = 0.02701027
#
# Stress axis : x y z
#
# Youngs Moduli (GPa) = 84.56094 58.40862 69.66253
#
# Poissons Ratio (x) = 0.11088 0.08978
# Poissons Ratio (y) = 0.16052 0.34542
# Poissons Ratio (z) = 0.10898 0.28962
#
# Static dielectric constant tensor:
#      x y z
#    x 1.898940 0.000000 0.148380 
#    y 0.000000 1.667130 0.000000 
#    z 0.148380 0.000000 1.652490 
# 
# From -- ./inp_files/21934.got.cif
#   From: 2010.05.17/outbox.cif.g08.bks.cpg/sg5_11_cif.got.tgz:21934.got - 2010.06.03 18:56:24.
