data_PCOD9124757
_publ_section_title
;
Structure prediction by ZEFSAII (Michael W. Deem and Ramdas Pophale) SiO2 
 PCOD9124757
Probable space group: C 2
;
_chemical_formula_sum "Si O2"
_cell_formula_units_Z 28
_cell_length_a 8.659713
_cell_length_b 13.155233
_cell_length_c 11.261760
_cell_angle_alpha 90.000000
_cell_angle_beta 77.355604
_cell_angle_gamma 90.000000
_cell_volume 1251.831085
_symmetry_space_group_name_H-M "C 2"
_symmetry_group_IT_number 5
_symmetry_cell_setting 'monoclinic'
loop_
_space_group_symop_operation_xyz
x,y,z
-x,y,-z
1/2+x,1/2+y,z
1/2-x,1/2+y,-z
loop_
_atom_site_type_symbol
_atom_site_label
_atom_site_fract_x
_atom_site_fract_y
_atom_site_fract_z
Si Si1 0.965830 0.423150 0.778440
Si Si2 0.640739 0.719702 0.069647
Si Si3 0.767269 0.994731 0.615884
Si Si4 0.983297 0.054595 0.242503
Si Si5 0.917591 0.695063 0.391451
Si Si6 0.326234 0.137291 0.834332
Si Si7 0.272823 0.391916 0.366497
O O1 0.889006 0.320504 0.846404
O O2 0.896900 0.524957 0.851697
O O3 0.893771 0.426305 0.657678
O O4 0.155657 0.433200 0.729549
O O5 0.613465 0.611864 0.140485
O O6 0.500000 0.728760 0.000000
O O7 0.789314 0.701387 0.958540
O O8 0.920457 0.045287 0.650702
O O9 0.658785 0.085510 0.586364
O O10 0.802957 0.929103 0.494567
O O11 0.827542 0.118912 0.226609
O O12 0.904972 0.941825 0.256593
O O13 0.047289 0.692850 0.267468
O O14 0.000000 0.724608 0.500000
O O15 0.784827 0.772383 0.371942
#
# Coordination Sequence:
#
# PCOD9124757 Si02
#       7
#     4   4   4   4   4   4   4
#     4  10  22  41  62  88 123 164 209 258 314 379
#     4  10  22  40  62  89 122 162 208 261 314 370
#     4  11  22  39  63  91 124 162 208 261 321 383
#     4  10  21  38  60  89 121 156 203 257 313 375
#     4  11  22  39  62  89 123 164 209 262 319 378
#     4   9  22  42  62  87 123 163 210 259 313 377
#     4  11  23  39  60  91 125 163 206 258 320 382
#
# _framework density 22.367234
#
# number of rings (size 3 to 8) (size 9 to 14) (size 15 to 20)
#    0.000    1.714    0.000    5.143    0.000    8.000 
#    0.000   11.429    0.000    3.429    0.000    0.000 
#    0.000    0.000    0.000    0.000    0.000    0.000 
#
# Total GULP energy -77944.103472 kJ/mol
# GULP energy per Si atom -5567.435962 kJ/mol
# Density = 2.231633 g / cm^3
# Si number density = 22.367234 Si / 1000 Ang^3
#
#
#
# Elastic Constant Matrix: (Units=GPa)
#
#
# Indices 1 2 3 4 5 6 
#
# 1 44.9395 11.2441 6.3909 0.0000 5.1717 0.0000
# 2 11.2441 88.2961 42.9426 0.0000 -12.3568 0.0000
# 3 6.3909 42.9426 80.0369 0.0000 -12.4673 0.0000
# 4 0.0000 0.0000 0.0000 29.2704 0.0000 4.9482
# 5 5.1717 -12.3568 -12.4673 0.0000 33.7280 0.0000
# 6 0.0000 0.0000 0.0000 4.9482 0.0000 5.8423
#
#
#
# Elastic Compliance Matrix: (Units=1/GPa)
#
#
# Indices 1 2 3 4 5 6 
#
# 1 0.023812 -0.003304 -0.000940 0.000000 -0.005209 0.000000
# 2 -0.003304 0.016024 -0.007789 0.000000 0.003498 0.000000
# 3 -0.000940 -0.007789 0.017324 0.000000 0.003694 0.000000
# 4 0.000000 0.000000 0.000000 0.039873 0.000000 -0.033771
# 5 -0.005209 0.003498 0.003694 0.000000 0.033095 0.000000
# 6 0.000000 0.000000 0.000000 -0.033771 0.000000 0.199770
#
#
# Mechanical properties :
#
#
# Convention : Reuss Voigt Hill
#
# Bulk Modulus (GPa) = 30.21706 37.15863 33.68785
# Shear Modulus (GPa) = 13.69884 23.94780 18.82332
#
# Velocity S-wave (km/s) = 2.47746 3.27565 2.90411
# Velocity P-wave (km/s) = 4.66075 5.56377 5.13216
#
# Compressibility (1/GPa) = 0.03309388
#
# Stress axis : x y z
#
# Youngs Moduli (GPa) = 41.99557 62.40707 57.72479
#
# Poissons Ratio (x) = 0.20621 0.05426
# Poissons Ratio (y) = 0.13876 0.44959
# Poissons Ratio (z) = 0.03948 0.48606
#
# Static dielectric constant tensor:
#      x y z
#    x 1.849340 0.000000 -0.029360 
#    y 0.000000 1.870980 0.000000 
#    z -0.029360 0.000000 1.859010 
# 
# From -- ./inp_files/36103.got.cif
#   From: 2010.05.17/outbox.cif.g08.bks.cpg/sg5_19_cif.got.tgz:36103.got - 2010.06.03 18:56:24.
