data_PCOD9124483
_publ_section_title
;
Structure prediction by ZEFSAII (Michael W. Deem and Ramdas Pophale) SiO2 
 PCOD9124483
Probable space group: C 2
;
_chemical_formula_sum "Si O2"
_cell_formula_units_Z 24
_cell_length_a 7.422139
_cell_length_b 13.765156
_cell_length_c 11.452693
_cell_angle_alpha 90.000000
_cell_angle_beta 107.347525
_cell_angle_gamma 90.000000
_cell_volume 1116.863391
_symmetry_space_group_name_H-M "C 2"
_symmetry_group_IT_number 5
_symmetry_cell_setting 'monoclinic'
loop_
_space_group_symop_operation_xyz
x,y,z
-x,y,-z
1/2+x,1/2+y,z
1/2-x,1/2+y,-z
loop_
_atom_site_type_symbol
_atom_site_label
_atom_site_fract_x
_atom_site_fract_y
_atom_site_fract_z
Si Si1 0.688742 0.350540 0.199374
Si Si2 0.574044 0.805044 0.400797
Si Si3 0.643909 0.447642 0.423204
Si Si4 0.376811 0.630335 0.715001
Si Si5 0.688757 0.126100 0.158081
Si Si6 0.205493 0.544417 0.900097
O O1 0.575610 0.388631 0.292729
O O2 0.635044 0.241677 0.148288
O O3 0.712734 0.435983 0.107871
O O4 0.900210 0.341153 0.291488
O O5 0.500000 0.745917 0.500000
O O6 0.692956 0.888318 0.482447
O O7 0.690690 0.733798 0.342204
O O8 0.500000 0.464967 0.500000
O O9 0.714291 0.546868 0.380129
O O10 0.604470 0.621255 0.743490
O O11 0.326590 0.612009 0.838451
O O12 0.515362 0.063287 0.176586
O O13 0.716787 0.081907 0.034183
#
# Coordination Sequence:
#
# PCOD9124483 Si02
#       6
#     4   4   4   4   4   4
#     4   9  21  42  61  89 129 158 213 264 305 391
#     4   9  19  38  58  84 122 159 201 254 313 371
#     4  10  21  35  59  93 115 161 208 250 320 373
#     4  10  21  40  63  86 127 161 208 262 310 386
#     4  10  22  43  64  91 128 166 211 261 325 376
#     4  10  22  42  63  95 122 166 212 264 321 374
#
# _framework density 21.488751000000001
#
# number of rings (size 3 to 8) (size 9 to 14) (size 15 to 20)
#    0.000    2.333    0.000    1.000    4.667    0.000 
#   24.000    0.833    0.000    0.000    0.000    0.000 
#    0.000    0.000    0.000    0.000    0.000    0.000 
#
# Total GULP energy -66865.389690 kJ/mol
# GULP energy per Si atom -5572.115807 kJ/mol
# Density = 2.143984 g / cm^3
# Si number density = 21.488751 Si / 1000 Ang^3
#
#
#
# Elastic Constant Matrix: (Units=GPa)
#
#
# Indices 1 2 3 4 5 6 
#
# 1 53.0412 3.9548 5.6788 0.0000 -10.1459 0.0000
# 2 3.9548 88.3941 31.0283 0.0000 -10.2444 0.0000
# 3 5.6788 31.0283 61.9746 0.0000 -6.7216 0.0000
# 4 0.0000 0.0000 0.0000 32.5599 0.0000 -6.9257
# 5 -10.1459 -10.2444 -6.7216 0.0000 32.9919 0.0000
# 6 0.0000 0.0000 0.0000 -6.9257 0.0000 18.0840
#
#
#
# Elastic Compliance Matrix: (Units=1/GPa)
#
#
# Indices 1 2 3 4 5 6 
#
# 1 0.020123 0.000259 -0.001323 0.000000 0.005999 0.000000
# 2 0.000259 0.014010 -0.006706 0.000000 0.003064 0.000000
# 3 -0.001323 -0.006706 0.019781 0.000000 0.001541 0.000000
# 4 0.000000 0.000000 0.000000 0.033436 0.000000 0.012805
# 5 0.005999 0.003064 0.001541 0.000000 0.033421 0.000000
# 6 0.000000 0.000000 0.000000 0.012805 0.000000 0.060201
#
#
# Mechanical properties :
#
#
# Convention : Reuss Voigt Hill
#
# Bulk Modulus (GPa) = 26.05812 31.63707 28.84760
# Shear Modulus (GPa) = 23.88862 27.57704 25.73283
#
# Velocity S-wave (km/s) = 3.33780 3.58624 3.46425
# Velocity P-wave (km/s) = 5.19686 5.64825 5.42725
#
# Compressibility (1/GPa) = 0.03837575
#
# Stress axis : x y z
#
# Youngs Moduli (GPa) = 49.69395 71.37555 50.55247
#
# Poissons Ratio (x) = -0.01852 0.06689
# Poissons Ratio (y) = -0.01289 0.33900
# Poissons Ratio (z) = 0.06575 0.47864
#
# Static dielectric constant tensor:
#      x y z
#    x 1.856880 0.000000 -0.010700 
#    y 0.000000 1.824280 0.000000 
#    z -0.010700 0.000000 1.840210 
# 
# From -- ./inp_files/35959.got.cif
#   From: 2010.05.17/outbox.cif.g08.bks.cpg/sg5_18_cif.got.tgz:35959.got - 2010.06.03 18:56:24.
