data_PCOD9124329
_publ_section_title
;
Structure prediction by ZEFSAII (Michael W. Deem and Ramdas Pophale) SiO2 
 PCOD9124329
Probable space group: C 2
;
_chemical_formula_sum "Si O2"
_cell_formula_units_Z 28
_cell_length_a 12.849785
_cell_length_b 9.419480
_cell_length_c 18.530385
_cell_angle_alpha 90.000000
_cell_angle_beta 149.986809
_cell_angle_gamma 90.000000
_cell_volume 1121.890244
_symmetry_space_group_name_H-M "C 2"
_symmetry_group_IT_number 5
_symmetry_cell_setting 'monoclinic'
loop_
_space_group_symop_operation_xyz
x,y,z
-x,y,-z
1/2+x,1/2+y,z
1/2-x,1/2+y,-z
loop_
_atom_site_type_symbol
_atom_site_label
_atom_site_fract_x
_atom_site_fract_y
_atom_site_fract_z
Si Si1 0.956667 0.500000 0.311526
Si Si2 0.044452 0.385073 0.908067
Si Si3 0.000000 0.378980 0.500000
Si Si4 0.816059 0.669182 0.744342
Si Si5 0.500000 0.208794 0.000000
Si Si6 0.580042 0.718091 0.791501
Si Si7 0.810883 0.806562 0.192464
Si Si8 0.414524 0.533625 0.581744
O O1 0.186123 0.519892 0.414665
O O2 0.981598 0.462972 0.412252
O O3 0.864745 0.366370 0.213838
O O4 0.829383 0.639731 0.216815
O O5 0.979122 0.537365 0.833303
O O6 0.870033 0.360547 0.863385
O O7 0.028475 0.259384 0.840401
O O8 0.259045 0.351481 0.079369
O O9 0.788658 0.280916 0.373674
O O10 0.927737 0.758596 0.876464
O O11 0.600152 0.594730 0.643696
O O12 0.288876 0.129174 0.898914
O O13 0.400578 0.642306 0.640282
O O14 0.014752 0.883314 0.344839
#
# Coordination Sequence:
#
# PCOD9124329 Si02
#       8
#     4   4   2   4   2   4   4   4
#     4  12  26  43  65 105 149 184 234 300 372 424
#     4  10  23  44  73 100 135 185 251 296 365 413
#     4  12  26  44  66 112 144 194 232 300 374 420
#     4  10  22  45  74  99 136 190 244 298 355 437
#     4  10  20  44  64  98 138 180 236 296 352 434
#     4  11  24  42  70 102 132 188 242 300 357 429
#     4  10  24  46  68 100 146 185 239 305 352 438
#     4  10  22  45  66  95 138 188 236 288 351 437
#
# _framework density 24.957878000000001
#
# number of rings (size 3 to 8) (size 9 to 14) (size 15 to 20)
#    0.000    1.429    2.857    3.429    4.000    4.571 
#    0.000    0.000    0.000    0.000    0.000    0.000 
#    0.000    0.000    0.000    0.000    0.000    0.000 
#
# Total GULP energy -78039.834787 kJ/mol
# GULP energy per Si atom -5574.273913 kJ/mol
# Density = 2.490107 g / cm^3
# Si number density = 24.957878 Si / 1000 Ang^3
#
#
#
# Elastic Constant Matrix: (Units=GPa)
#
#
# Indices 1 2 3 4 5 6 
#
# 1 79.1171 15.1403 12.7139 0.0002 -14.7683 0.0000
# 2 15.1403 118.8074 27.9121 0.0005 -17.1692 0.0001
# 3 12.7139 27.9121 106.8278 0.0019 -21.3791 0.0006
# 4 0.0002 0.0005 0.0019 10.0797 0.0006 -12.3909
# 5 -14.7683 -17.1692 -21.3791 0.0006 41.6844 0.0001
# 6 0.0000 0.0001 0.0006 -12.3909 0.0001 18.0458
#
#
#
# Elastic Compliance Matrix: (Units=1/GPa)
#
#
# Indices 1 2 3 4 5 6 
#
# 1 0.013696 -0.001019 -0.000531 -0.000002 0.004160 -0.000001
# 2 -0.001019 0.009341 -0.001807 -0.000001 0.002560 -0.000001
# 3 -0.000531 -0.001807 0.010820 -0.000017 0.004617 -0.000012
# 4 -0.000002 -0.000001 -0.000017 0.636280 -0.000020 0.436893
# 5 0.004160 0.002560 0.004617 -0.000020 0.028886 -0.000014
# 6 -0.000001 -0.000001 -0.000012 0.436893 -0.000014 0.355401
#
#
# Mechanical properties :
#
#
# Convention : Reuss Voigt Hill
#
# Bulk Modulus (GPa) = 36.84246 46.25389 41.54817
# Shear Modulus (GPa) = 4.67207 30.56105 17.61656
#
# Velocity S-wave (km/s) = 1.36969 3.50309 2.65967
# Velocity P-wave (km/s) = 4.15876 5.91060 5.11031
#
# Compressibility (1/GPa) = 0.02714260
#
# Stress axis : x y z
#
# Youngs Moduli (GPa) = 73.01141 107.05091 92.41952
#
# Poissons Ratio (x) = 0.10913 0.04909
# Poissons Ratio (y) = 0.07443 0.16702
# Poissons Ratio (z) = 0.03878 0.19346
#
# Static dielectric constant tensor:
#      x y z
#    x 2.099740 0.000000 -0.036920 
#    y 0.000000 2.023180 0.000000 
#    z -0.036920 0.000000 2.017790 
# 
# From -- ./inp_files/66018.got.cif
#   From: 2010.05.17/outbox.cif.g08.bks.cpg/sg5_34_cif.got.tgz:66018.got - 2010.06.03 18:56:24.
