data_PCOD9124819
_publ_section_title
;
Structure prediction by ZEFSAII (Michael W. Deem and Ramdas Pophale) SiO2 
 PCOD9124819
Probable space group: C 2
;
_chemical_formula_sum "Si O2"
_cell_formula_units_Z 18
_cell_length_a 5.470946
_cell_length_b 19.462272
_cell_length_c 7.005979
_cell_angle_alpha 90.000000
_cell_angle_beta 103.355051
_cell_angle_gamma 90.000000
_cell_volume 725.802763
_symmetry_space_group_name_H-M "C 2"
_symmetry_group_IT_number 5
_symmetry_cell_setting 'monoclinic'
loop_
_space_group_symop_operation_xyz
x,y,z
-x,y,-z
1/2+x,1/2+y,z
1/2-x,1/2+y,-z
loop_
_atom_site_type_symbol
_atom_site_label
_atom_site_fract_x
_atom_site_fract_y
_atom_site_fract_z
Si Si1 0.550986 0.284930 0.738372
Si Si2 0.238705 0.999790 0.176516
Si Si3 0.452621 0.129469 0.719310
Si Si4 0.949793 0.358662 0.263541
Si Si5 0.500000 0.553365 0.500000
O O1 0.500000 0.286130 0.500000
O O2 0.521507 0.205689 0.793192
O O3 0.327146 0.325813 0.800340
O O4 0.826224 0.318226 0.800262
O O5 0.431731 0.937390 0.197264
O O6 0.369317 0.072301 0.158544
O O7 0.154244 0.005682 0.383297
O O8 0.000000 0.988332 0.000000
O O9 0.500000 0.128232 0.500000
O O10 0.166586 0.102327 0.667791
O O11 0.000000 0.356447 0.500000
#
# Coordination Sequence:
#
# PCOD9124819 Si02
#       5
#     4   4   4   4   2
#     4   9  20  35  65  96 129 170 223 275 333 401
#     4  11  25  42  64  99 133 177 227 278 333 407
#     4   9  20  38  64  97 127 172 222 272 335 400
#     4  10  21  38  63  96 131 175 221 273 336 398
#     4  10  22  40  74  94 132 174 226 282 340 402
#
# _framework density 24.800124
#
# number of rings (size 3 to 8) (size 9 to 14) (size 15 to 20)
#    0.000    2.222    0.000    2.000   18.667    0.889 
#    0.000    2.222    0.000    0.000    0.000    0.000 
#    0.000    0.000    0.000    0.000    0.000    0.000 
#
# Total GULP energy -50404.771610 kJ/mol
# GULP energy per Si atom -5600.530179 kJ/mol
# Density = 2.474368 g / cm^3
# Si number density = 24.800124 Si / 1000 Ang^3
#
#
#
# Elastic Constant Matrix: (Units=GPa)
#
#
# Indices 1 2 3 4 5 6 
#
# 1 144.4862 61.2706 55.8196 0.0000 7.4002 0.0000
# 2 61.2706 158.6312 37.6203 0.0000 21.2381 0.0000
# 3 55.8196 37.6203 117.7200 0.0000 8.3115 0.0000
# 4 0.0000 0.0000 0.0000 -37.4587 0.0000 29.0982
# 5 7.4002 21.2381 8.3115 0.0000 58.6564 0.0000
# 6 0.0000 0.0000 0.0000 29.0982 0.0000 20.6171
#
#
#
# Elastic Compliance Matrix: (Units=1/GPa)
#
#
# Indices 1 2 3 4 5 6 
#
# 1 0.009517 -0.002864 -0.003622 0.000000 0.000349 0.000000
# 2 -0.002864 0.007971 -0.001021 0.000000 -0.002380 0.000000
# 3 -0.003622 -0.001021 0.010586 0.000000 -0.000673 0.000000
# 4 0.000000 0.000000 0.000000 -0.012734 0.000000 0.017973
# 5 0.000349 -0.002380 -0.000673 0.000000 0.017962 0.000000
# 6 0.000000 0.000000 0.000000 0.017973 0.000000 0.023137
#
#
# Mechanical properties :
#
#
# Convention : Reuss Voigt Hill
#
# Bulk Modulus (GPa) = 76.57209 81.13982 78.85596
# Shear Modulus (GPa) = 65.95823 26.10475 46.03149
#
# Velocity S-wave (km/s) = 5.16272 3.24791 4.31292
# Velocity P-wave (km/s) = 8.15358 6.84498 7.52777
#
# Compressibility (1/GPa) = 0.01305959
#
# Stress axis : x y z
#
# Youngs Moduli (GPa) = 105.07647 125.45680 94.46244
#
# Poissons Ratio (x) = 0.35926 0.34216
# Poissons Ratio (y) = 0.30090 0.09648
# Poissons Ratio (z) = 0.38061 0.12814
#
# Static dielectric constant tensor:
#      x y z
#    x 1.980270 0.000000 0.041030 
#    y 0.000000 1.906070 0.000000 
#    z 0.041030 0.000000 2.016820 
# 
# From -- ./inp_files/11871.got.cif
#   From: 2010.05.17/outbox.cif.g08.bks.cpg/sg5_6_cif.got.tgz:11871.got - 2010.06.03 18:56:24.
