data_PCOD9124244
_publ_section_title
;
Structure prediction by ZEFSAII (Michael W. Deem and Ramdas Pophale) SiO2 
 PCOD9124244
Probable space group: C 2
;
_chemical_formula_sum "Si O2"
_cell_formula_units_Z 26
_cell_length_a 19.498827
_cell_length_b 7.470219
_cell_length_c 7.877020
_cell_angle_alpha 90.000000
_cell_angle_beta 59.010493
_cell_angle_gamma 90.000000
_cell_volume 983.596882
_symmetry_space_group_name_H-M "C 2"
_symmetry_group_IT_number 5
_symmetry_cell_setting 'monoclinic'
loop_
_space_group_symop_operation_xyz
x,y,z
-x,y,-z
1/2+x,1/2+y,z
1/2-x,1/2+y,-z
loop_
_atom_site_type_symbol
_atom_site_label
_atom_site_fract_x
_atom_site_fract_y
_atom_site_fract_z
Si Si1 0.194849 0.148570 0.729152
Si Si2 0.500000 0.455953 0.500000
Si Si3 0.660789 0.120786 0.976218
Si Si4 0.851695 0.525339 0.378304
Si Si5 0.164720 0.012746 0.135938
Si Si6 0.988329 0.382713 0.812534
Si Si7 0.045645 0.974636 0.776001
O O1 0.178684 0.340424 0.668651
O O2 0.286095 0.096396 0.590259
O O3 0.136891 0.017906 0.696565
O O4 0.168550 0.127718 0.957253
O O5 0.586775 0.548920 0.350820
O O6 0.523142 0.357123 0.643873
O O7 0.658596 0.307825 0.078962
O O8 0.594356 0.979399 0.127408
O O9 0.643345 0.147831 0.797037
O O10 0.751292 0.047057 0.878628
O O11 0.934208 0.477257 0.363517
O O12 0.005668 0.169683 0.780575
O O13 0.000000 0.414591 0.000000
O O14 0.000000 0.911093 0.000000
#
# Coordination Sequence:
#
# PCOD9124244 Si02
#       7
#     4   2   4   4   4   4   4
#     4  11  22  43  70 109 143 197 242 300 373 443
#     4  12  26  44  70 112 144 194 242 310 376 430
#     4  11  24  47  70 101 144 191 249 307 372 439
#     4  10  21  43  73 104 146 191 249 300 373 445
#     4  12  27  45  72 102 150 192 248 313 372 439
#     4   8  19  41  70  98 140 186 239 297 363 438
#     4  10  20  42  71  99 140 186 241 295 362 443
#
# _framework density 26.433595
#
# number of rings (size 3 to 8) (size 9 to 14) (size 15 to 20)
#    0.000    1.538    1.538    3.692    2.154    1.231 
#   16.615    0.000    0.000    0.000    0.000    0.000 
#    0.000    0.000    0.000    0.000    0.000    0.000 
#
# Total GULP energy -72775.625500 kJ/mol
# GULP energy per Si atom -5598.125038 kJ/mol
# Density = 2.637343 g / cm^3
# Si number density = 26.433595 Si / 1000 Ang^3
#
#
#
# Elastic Constant Matrix: (Units=GPa)
#
#
# Indices 1 2 3 4 5 6 
#
# 1 81.9163 3.9598 37.1796 0.0000 -28.6336 0.0000
# 2 3.9598 136.4589 32.5832 0.0000 -15.8706 0.0000
# 3 37.1796 32.5832 156.1988 0.0000 -35.9538 0.0000
# 4 0.0000 0.0000 0.0000 18.7991 0.0000 -12.2076
# 5 -28.6336 -15.8706 -35.9538 0.0000 66.3308 0.0000
# 6 0.0000 0.0000 0.0000 -12.2076 0.0000 22.9055
#
#
#
# Elastic Compliance Matrix: (Units=1/GPa)
#
#
# Indices 1 2 3 4 5 6 
#
# 1 0.015203 0.000792 -0.002548 0.000000 0.005371 0.000000
# 2 0.000792 0.007826 -0.001498 0.000000 0.001402 0.000000
# 3 -0.002548 -0.001498 0.007981 0.000000 0.002868 0.000000
# 4 0.000000 0.000000 0.000000 0.081348 0.000000 0.043355
# 5 0.005371 0.001402 0.002868 0.000000 0.019285 0.000000
# 6 0.000000 0.000000 0.000000 0.043355 0.000000 0.066764
#
#
# Mechanical properties :
#
#
# Convention : Reuss Voigt Hill
#
# Bulk Modulus (GPa) = 40.81215 58.00212 49.40714
# Shear Modulus (GPa) = 23.46515 41.66383 32.56449
#
# Velocity S-wave (km/s) = 2.98266 3.97441 3.51370
# Velocity P-wave (km/s) = 5.22826 6.56136 5.93238
#
# Compressibility (1/GPa) = 0.02450251
#
# Stress axis : x y z
#
# Youngs Moduli (GPa) = 65.77582 127.77815 125.29524
#
# Poissons Ratio (x) = -0.10118 0.31919
# Poissons Ratio (y) = -0.05208 0.18772
# Poissons Ratio (z) = 0.16757 0.19144
#
# Static dielectric constant tensor:
#      x y z
#    x 2.062240 0.000000 -0.006120 
#    y 0.000000 2.124190 0.000000 
#    z -0.006120 0.000000 2.124980 
# 
# From -- ./inp_files/29095.got.cif
#   From: 2010.05.17/outbox.cif.g08.bks.cpg/sg5_15_cif.got.tgz:29095.got - 2010.06.03 18:56:24.
