data_PCOD9124081
_publ_section_title
;
Structure prediction by ZEFSAII (Michael W. Deem and Ramdas Pophale) SiO2 
 PCOD9124081
Probable space group: C 2
;
_chemical_formula_sum "Si O2"
_cell_formula_units_Z 20
_cell_length_a 18.225099
_cell_length_b 7.655287
_cell_length_c 11.825261
_cell_angle_alpha 90.000000
_cell_angle_beta 152.822545
_cell_angle_gamma 90.000000
_cell_volume 753.561474
_symmetry_space_group_name_H-M "C 2"
_symmetry_group_IT_number 5
_symmetry_cell_setting 'monoclinic'
loop_
_space_group_symop_operation_xyz
x,y,z
-x,y,-z
1/2+x,1/2+y,z
1/2-x,1/2+y,-z
loop_
_atom_site_type_symbol
_atom_site_label
_atom_site_fract_x
_atom_site_fract_y
_atom_site_fract_z
Si Si1 0.911477 0.513860 0.487497
Si Si2 0.977010 0.880102 0.833482
Si Si3 0.278854 0.174865 0.964849
Si Si4 0.305134 0.817029 0.914624
Si Si5 0.857744 0.254580 0.610739
O O1 0.791144 0.669778 0.285385
O O2 0.845762 0.368323 0.481109
O O3 0.000000 0.431219 0.500000
O O4 0.059523 0.607521 0.752367
O O5 0.826093 0.753028 0.600327
O O6 0.146128 0.822679 0.012018
O O7 0.916257 0.056699 0.691987
O O8 0.000000 0.899996 0.000000
O O9 0.178527 0.244276 0.933511
O O10 0.220468 0.005660 0.814368
O O11 0.485618 0.842126 0.114212
#
# Coordination Sequence:
#
# PCOD9124081 Si02
#       5
#     4   4   4   4   4
#     4   9  20  41  70 103 136 175 226 290 353 408
#     4  12  27  46  67  98 141 188 234 286 347 409
#     4  10  22  42  68 101 138 181 232 284 345 418
#     4  10  20  41  72 102 137 178 229 290 347 409
#     4  11  23  42  68  98 136 180 234 284 338 416
#
# _framework density 26.540635999999999
#
# number of rings (size 3 to 8) (size 9 to 14) (size 15 to 20)
#    0.000    1.600    0.000    4.800    0.000    4.800 
#    0.000   16.000    0.000    0.000    0.000    0.000 
#    0.000    0.000    0.000    0.000    0.000    0.000 
#
# Total GULP energy -55928.037135 kJ/mol
# GULP energy per Si atom -5592.803714 kJ/mol
# Density = 2.648023 g / cm^3
# Si number density = 26.540636 Si / 1000 Ang^3
#
#
#
# Elastic Constant Matrix: (Units=GPa)
#
#
# Indices 1 2 3 4 5 6 
#
# 1 130.1905 40.6903 42.4582 0.0000 0.3203 0.0000
# 2 40.6903 154.4475 28.8715 0.0000 -11.3221 0.0000
# 3 42.4582 28.8715 110.3661 0.0000 9.6931 0.0000
# 4 0.0000 0.0000 0.0000 52.1825 0.0000 1.5258
# 5 0.3203 -11.3221 9.6931 0.0000 48.1953 0.0000
# 6 0.0000 0.0000 0.0000 1.5258 0.0000 46.3543
#
#
#
# Elastic Compliance Matrix: (Units=1/GPa)
#
#
# Indices 1 2 3 4 5 6 
#
# 1 0.009269 -0.001855 -0.003091 0.000000 0.000124 0.000000
# 2 -0.001855 0.007372 -0.001393 0.000000 0.002024 0.000000
# 3 -0.003091 -0.001393 0.010833 0.000000 -0.002485 0.000000
# 4 0.000000 0.000000 0.000000 0.019182 0.000000 -0.000631
# 5 0.000124 0.002024 -0.002485 0.000000 0.021723 0.000000
# 6 0.000000 0.000000 0.000000 -0.000631 0.000000 0.021594
#
#
# Mechanical properties :
#
#
# Convention : Reuss Voigt Hill
#
# Bulk Modulus (GPa) = 67.58854 68.78267 68.18561
# Shear Modulus (GPa) = 46.47600 48.21202 47.34401
#
# Velocity S-wave (km/s) = 4.18919 4.26671 4.22812
# Velocity P-wave (km/s) = 6.99431 7.08839 7.04151
#
# Compressibility (1/GPa) = 0.01479541
#
# Stress axis : x y z
#
# Youngs Moduli (GPa) = 107.89050 135.64619 92.31374
#
# Poissons Ratio (x) = 0.25161 0.28538
# Poissons Ratio (y) = 0.20013 0.12857
# Poissons Ratio (z) = 0.33353 0.18892
#
# Static dielectric constant tensor:
#      x y z
#    x 2.145410 0.000000 0.012040 
#    y 0.000000 2.141710 0.000000 
#    z 0.012040 0.000000 2.125950 
# 
# From -- ./inp_files/44340.got.cif
#   From: 2010.05.17/outbox.cif.g08.bks.cpg/sg5_23_cif.got.tgz:44340.got - 2010.06.03 18:56:24.
