data_PCOD9124036
_publ_section_title
;
Structure prediction by ZEFSAII (Michael W. Deem and Ramdas Pophale) SiO2 
 PCOD9124036
Probable space group: C 2
;
_chemical_formula_sum "Si O2"
_cell_formula_units_Z 30
_cell_length_a 18.805679
_cell_length_b 5.529096
_cell_length_c 13.081023
_cell_angle_alpha 90.000000
_cell_angle_beta 79.800791
_cell_angle_gamma 90.000000
_cell_volume 1338.650979
_symmetry_space_group_name_H-M "C 2"
_symmetry_group_IT_number 5
_symmetry_cell_setting 'monoclinic'
loop_
_space_group_symop_operation_xyz
x,y,z
-x,y,-z
1/2+x,1/2+y,z
1/2-x,1/2+y,-z
loop_
_atom_site_type_symbol
_atom_site_label
_atom_site_fract_x
_atom_site_fract_y
_atom_site_fract_z
Si Si1 0.287204 0.226670 0.461604
Si Si2 0.385524 0.031250 0.594484
Si Si3 0.062285 0.912974 0.296069
Si Si4 0.783732 0.169933 0.722019
Si Si5 0.028037 0.987368 0.875452
Si Si6 0.500000 0.672682 0.500000
Si Si7 0.224474 0.577460 0.959732
Si Si8 0.573312 0.988033 0.915070
O O1 0.260233 0.503643 0.478160
O O2 0.358182 0.212286 0.513683
O O3 0.279525 0.142327 0.345959
O O4 0.438048 0.136408 0.667786
O O5 0.321178 0.918410 0.677243
O O6 0.427939 0.831634 0.519841
O O7 0.145636 0.993929 0.294692
O O8 0.009034 0.030992 0.392308
O O9 0.036624 0.976757 0.189738
O O10 0.750981 0.154425 0.841189
O O11 0.073007 0.235465 0.853977
O O12 0.071004 0.736374 0.851750
O O13 0.000000 0.985959 0.000000
O O14 0.140577 0.506805 0.973966
O O15 0.263821 0.324959 0.979487
O O16 0.500000 0.984439 0.000000
#
# Coordination Sequence:
#
# PCOD9124036 Si02
#       8
#     4   4   4   4   4   2   4   4
#     4  10  20  41  66  98 130 181 229 297 362 431
#     4  10  22  43  71  99 142 183 239 303 367 443
#     4  11  23  43  72 102 139 197 240 307 366 437
#     4  10  25  41  69 100 140 186 246 298 376 426
#     4  10  24  42  73 101 142 187 244 294 363 431
#     4  10  24  42  64 108 136 186 240 300 360 450
#     4  12  29  46  74 108 149 192 250 309 361 439
#     4  10  24  46  68 102 141 191 237 302 368 424
#
# _framework density 22.410620999999999
#
# number of rings (size 3 to 8) (size 9 to 14) (size 15 to 20)
#    0.000    1.600    1.333    1.200   13.067    1.067 
#    2.400    0.000    0.000    0.000    0.000    0.000 
#    0.000    0.000    0.000    0.000    0.000    0.000 
#
# Total GULP energy -83564.755186 kJ/mol
# GULP energy per Si atom -5570.983679 kJ/mol
# Density = 2.235961 g / cm^3
# Si number density = 22.410621 Si / 1000 Ang^3
#
#
#
# Elastic Constant Matrix: (Units=GPa)
#
#
# Indices 1 2 3 4 5 6 
#
# 1 72.4694 18.9283 50.2318 0.0000 11.6571 0.0000
# 2 18.9283 106.6251 8.0626 0.0000 11.2265 0.0000
# 3 50.2318 8.0626 120.6948 0.0000 12.0192 0.0000
# 4 0.0000 0.0000 0.0000 19.2060 0.0000 14.0774
# 5 11.6571 11.2265 12.0192 0.0000 35.1962 0.0000
# 6 0.0000 0.0000 0.0000 14.0774 0.0000 10.2638
#
#
#
# Elastic Compliance Matrix: (Units=1/GPa)
#
#
# Indices 1 2 3 4 5 6 
#
# 1 0.020627 -0.002713 -0.008084 0.000000 -0.003206 0.000000
# 2 -0.002713 0.010076 0.000711 0.000000 -0.002558 0.000000
# 3 -0.008084 0.000711 0.011758 0.000000 -0.001565 0.000000
# 4 0.000000 0.000000 0.000000 -9.787669 0.000000 13.424420
# 5 -0.003206 -0.002558 -0.001565 0.000000 0.030824 0.000000
# 6 0.000000 0.000000 0.000000 13.424420 0.000000-18.315030
#
#
# Mechanical properties :
#
#
# Convention : Reuss Voigt Hill
#
# Bulk Modulus (GPa) = 44.86690 50.47051 47.66871
# Shear Modulus (GPa) = -0.17856 27.77096 13.79620
#
# Velocity S-wave (km/s) = -0.28258 3.52403 2.48384
# Velocity P-wave (km/s) = 4.46737 6.25524 5.43532
#
# Compressibility (1/GPa) = 0.02228814
#
# Stress axis : x y z
#
# Youngs Moduli (GPa) = 48.48107 99.24726 85.04696
#
# Poissons Ratio (x) = 0.26924 0.68753
# Poissons Ratio (y) = 0.13152 -0.06045
# Poissons Ratio (z) = 0.39193 -0.07054
#
# Static dielectric constant tensor:
#      x y z
#    x 1.867790 0.000000 0.028510 
#    y 0.000000 1.965440 0.000000 
#    z 0.028510 0.000000 1.801060 
# 
# From -- ./inp_files/45681.got.cif
#   From: 2010.05.17/outbox.cif.g08.bks.cpg/sg5_23_cif.got.tgz:45681.got - 2010.06.03 18:56:24.
