data_PCOD9124997
_publ_section_title
;
Structure prediction by ZEFSAII (Michael W. Deem and Ramdas Pophale) SiO2 
 PCOD9124997
Probable space group: C 2
;
_chemical_formula_sum "Si O2"
_cell_formula_units_Z 30
_cell_length_a 12.273499
_cell_length_b 9.870408
_cell_length_c 11.759593
_cell_angle_alpha 90.000000
_cell_angle_beta 119.051337
_cell_angle_gamma 90.000000
_cell_volume 1245.372069
_symmetry_space_group_name_H-M "C 2"
_symmetry_group_IT_number 5
_symmetry_cell_setting 'monoclinic'
loop_
_space_group_symop_operation_xyz
x,y,z
-x,y,-z
1/2+x,1/2+y,z
1/2-x,1/2+y,-z
loop_
_atom_site_type_symbol
_atom_site_label
_atom_site_fract_x
_atom_site_fract_y
_atom_site_fract_z
Si Si1 0.417354 0.993180 0.111795
Si Si2 0.176358 0.103115 0.388526
Si Si3 0.536474 0.412807 0.639831
Si Si4 0.263794 0.596576 0.165927
Si Si5 0.716113 0.886065 0.738140
Si Si6 0.587338 0.149009 0.351604
Si Si7 0.500000 0.938405 0.500000
Si Si8 0.011171 0.190955 0.879302
O O1 0.320675 0.974709 0.169903
O O2 0.444307 0.842635 0.086533
O O3 0.543303 0.065276 0.218820
O O4 0.348597 0.061095 0.973104
O O5 0.272017 0.170134 0.527508
O O6 0.113377 0.196977 0.260847
O O7 0.064009 0.032479 0.398121
O O8 0.228754 0.982550 0.332004
O O9 0.500000 0.351161 0.500000
O O10 0.674285 0.476408 0.725586
O O11 0.495078 0.286296 0.697615
O O12 0.227530 0.741400 0.203192
O O13 0.381995 0.618735 0.140008
O O14 0.587151 0.842052 0.615710
O O15 0.546885 0.042731 0.428887
O O16 0.000000 0.128933 0.000000
#
# Coordination Sequence:
#
# PCOD9124997 Si02
#       8
#     4   4   4   4   4   4   2   4
#     4  10  22  40  65  93 127 171 211 263 319 386
#     4  10  23  42  67  97 123 170 214 269 324 380
#     4  11  25  41  63  95 129 166 214 272 322 382
#     4  10  23  40  65  96 127 172 211 267 322 378
#     4   9  19  38  67  90 126 165 212 261 316 389
#     4  10  21  39  64  89 127 164 215 257 321 383
#     4   8  16  36  62  90 112 168 204 254 314 378
#     4  10  22  42  66  92 129 168 216 263 322 389
#
# _framework density 24.089186000000002
#
# number of rings (size 3 to 8) (size 9 to 14) (size 15 to 20)
#    0.000    2.133    0.667    0.800    6.533    2.133 
#    2.400    0.000    0.000    0.000    0.000    0.000 
#    0.000    0.000    0.000    0.000    0.000    0.000 
#
# Total GULP energy -83625.421047 kJ/mol
# GULP energy per Si atom -5575.028070 kJ/mol
# Density = 2.403436 g / cm^3
# Si number density = 24.089186 Si / 1000 Ang^3
#
#
#
# Elastic Constant Matrix: (Units=GPa)
#
#
# Indices 1 2 3 4 5 6 
#
# 1 32.7522 -0.5131 9.3496 0.0000 -2.4026 0.0000
# 2 -0.5131 63.7009 24.2465 0.0000 12.4302 0.0000
# 3 9.3496 24.2465 150.2098 0.0000 25.7780 0.0000
# 4 0.0000 0.0000 0.0000 43.2400 0.0000 5.3445
# 5 -2.4026 12.4302 25.7780 0.0000 31.4969 0.0000
# 6 0.0000 0.0000 0.0000 5.3445 0.0000 28.2353
#
#
#
# Elastic Compliance Matrix: (Units=1/GPa)
#
#
# Indices 1 2 3 4 5 6 
#
# 1 0.031680 0.000442 -0.002825 0.000000 0.004554 0.000000
# 2 0.000442 0.017470 -0.001943 0.000000 -0.005271 0.000000
# 3 -0.002825 -0.001943 0.008205 0.000000 -0.006164 0.000000
# 4 0.000000 0.000000 0.000000 0.023681 0.000000 -0.004482
# 5 0.004554 -0.005271 -0.006164 0.000000 0.039221 0.000000
# 6 0.000000 0.000000 0.000000 -0.004482 0.000000 0.036265
#
#
# Mechanical properties :
#
#
# Convention : Reuss Voigt Hill
#
# Bulk Modulus (GPa) = 20.53292 34.75876 27.64584
# Shear Modulus (GPa) = 27.56234 34.83310 31.19772
#
# Velocity S-wave (km/s) = 3.38624 3.80676 3.60264
# Velocity P-wave (km/s) = 4.88171 5.81227 5.36719
#
# Compressibility (1/GPa) = 0.04870229
#
# Stress axis : x y z
#
# Youngs Moduli (GPa) = 31.56598 57.24124 121.88360
#
# Poissons Ratio (x) = -0.02528 0.34428
# Poissons Ratio (y) = -0.01394 0.23681
# Poissons Ratio (z) = 0.08916 0.11122
#
# Static dielectric constant tensor:
#      x y z
#    x 2.155690 0.000000 -0.058600 
#    y 0.000000 1.878450 0.000000 
#    z -0.058600 0.000000 2.012810 
# 
# From -- ./inp_files/42682.got.cif
#   From: 2010.05.17/outbox.cif.g08.bks.cpg/sg5_22_cif.got.tgz:42682.got - 2010.06.03 18:56:24.
