data_PCOD9124789
_publ_section_title
;
Structure prediction by ZEFSAII (Michael W. Deem and Ramdas Pophale) SiO2 
 PCOD9124789
Probable space group: C 2
;
_chemical_formula_sum "Si O2"
_cell_formula_units_Z 26
_cell_length_a 20.734328
_cell_length_b 11.326672
_cell_length_c 7.390292
_cell_angle_alpha 90.000000
_cell_angle_beta 49.070685
_cell_angle_gamma 90.000000
_cell_volume 1311.290513
_symmetry_space_group_name_H-M "C 2"
_symmetry_group_IT_number 5
_symmetry_cell_setting 'monoclinic'
loop_
_space_group_symop_operation_xyz
x,y,z
-x,y,-z
1/2+x,1/2+y,z
1/2-x,1/2+y,-z
loop_
_atom_site_type_symbol
_atom_site_label
_atom_site_fract_x
_atom_site_fract_y
_atom_site_fract_z
Si Si1 0.369458 0.708840 0.690119
Si Si2 0.378426 0.316719 0.631290
Si Si3 0.684295 0.888589 0.918867
Si Si4 0.174605 0.661122 0.945359
Si Si5 0.000000 0.010760 0.500000
Si Si6 0.090507 0.357064 0.733944
Si Si7 0.091531 0.631437 0.733159
O O1 0.423399 0.602214 0.677443
O O2 0.404997 0.765959 0.439496
O O3 0.364856 0.809725 0.847323
O O4 0.273022 0.671879 0.821117
O O5 0.285101 0.372878 0.768865
O O6 0.375158 0.254908 0.836623
O O7 0.449561 0.417036 0.468585
O O8 0.397527 0.211818 0.459761
O O9 0.661472 0.843394 0.760137
O O10 0.652700 0.022560 0.006441
O O11 0.157909 0.676884 0.763299
O O12 0.101925 0.494506 0.657467
O O13 0.000000 0.346258 0.000000
O O14 0.000000 0.641267 0.000000
#
# Coordination Sequence:
#
# PCOD9124789 Si02
#       7
#     4   4   4   4   2   4   4
#     4  11  22  39  61  88 127 162 198 250 308 361
#     4  11  22  39  61  88 127 162 198 250 308 361
#     4  10  21  40  64  89 119 162 206 250 301 363
#     4  10  21  40  64  89 119 162 206 250 301 363
#     4  12  24  40  60  92 130 160 194 256 302 366
#     4  10  21  38  62  90 118 157 208 255 299 357
#     4  10  21  38  62  90 118 157 208 255 299 357
#
# _framework density 19.827794000000001
#
# number of rings (size 3 to 8) (size 9 to 14) (size 15 to 20)
#    0.000    1.538    1.538    3.692    0.000    0.000 
#    0.000   13.077    0.000    0.000    0.000    0.000 
#    0.000    0.000    0.000    0.000    0.000    0.000 
#
# Total GULP energy -72476.502178 kJ/mol
# GULP energy per Si atom -5575.115552 kJ/mol
# Density = 1.978267 g / cm^3
# Si number density = 19.827794 Si / 1000 Ang^3
#
#
#
# Elastic Constant Matrix: (Units=GPa)
#
#
# Indices 1 2 3 4 5 6 
#
# 1 72.2284 25.5124 10.6518 0.0000 -3.7729 0.0000
# 2 25.5124 81.4853 42.2951 0.0000 11.6890 0.0000
# 3 10.6518 42.2951 54.9746 0.0000 7.8360 0.0000
# 4 0.0000 0.0000 0.0000 14.5416 0.0000 -2.3902
# 5 -3.7729 11.6890 7.8360 0.0000 12.9940 0.0000
# 6 0.0000 0.0000 0.0000 -2.3902 0.0000 34.4629
#
#
#
# Elastic Compliance Matrix: (Units=1/GPa)
#
#
# Indices 1 2 3 4 5 6 
#
# 1 0.016864 -0.007234 0.000736 0.000000 0.010961 0.000000
# 2 -0.007234 0.024726 -0.015482 0.000000 -0.015007 0.000000
# 3 0.000736 -0.015482 0.030571 0.000000 -0.004295 0.000000
# 4 0.000000 0.000000 0.000000 0.069561 0.000000 0.004824
# 5 0.010961 -0.015007 -0.004295 0.000000 0.096231 0.000000
# 6 0.000000 0.000000 0.000000 0.004824 0.000000 0.029351
#
#
# Mechanical properties :
#
#
# Convention : Reuss Voigt Hill
#
# Bulk Modulus (GPa) = 35.46116 40.62302 38.04209
# Shear Modulus (GPa) = 15.59252 21.08162 18.33707
#
# Velocity S-wave (km/s) = 2.80732 3.26427 3.04438
# Velocity P-wave (km/s) = 5.33211 5.89403 5.62010
#
# Compressibility (1/GPa) = 0.02819987
#
# Stress axis : x y z
#
# Youngs Moduli (GPa) = 59.29694 40.44317 32.71044
#
# Poissons Ratio (x) = 0.29258 -0.02407
# Poissons Ratio (y) = 0.42897 0.50644
# Poissons Ratio (z) = -0.04364 0.62616
#
# Static dielectric constant tensor:
#      x y z
#    x 1.754030 0.000000 -0.007880 
#    y 0.000000 1.685480 0.000000 
#    z -0.007880 0.000000 1.668300 
# 
# From -- ./inp_files/9529.got.cif
#   From: 2010.05.17/outbox.cif.g08.bks.cpg/sg5_5_cif.got.tgz:9529.got - 2010.06.03 18:56:24.
