data_PCOD9124020
_publ_section_title
;
Structure prediction by ZEFSAII (Michael W. Deem and Ramdas Pophale) SiO2 
 PCOD9124020
Probable space group: C 2
;
_chemical_formula_sum "Si O2"
_cell_formula_units_Z 30
_cell_length_a 16.609938
_cell_length_b 8.846893
_cell_length_c 27.681841
_cell_angle_alpha 90.000000
_cell_angle_beta 158.214707
_cell_angle_gamma 90.000000
_cell_volume 1509.660270
_symmetry_space_group_name_H-M "C 2"
_symmetry_group_IT_number 5
_symmetry_cell_setting 'monoclinic'
loop_
_space_group_symop_operation_xyz
x,y,z
-x,y,-z
1/2+x,1/2+y,z
1/2-x,1/2+y,-z
loop_
_atom_site_type_symbol
_atom_site_label
_atom_site_fract_x
_atom_site_fract_y
_atom_site_fract_z
Si Si1 0.275672 0.639710 0.243863
Si Si2 0.367873 0.610789 0.183164
Si Si3 0.500000 0.619883 0.000000
Si Si4 0.027400 0.501572 0.852641
Si Si5 0.073913 0.862876 0.963885
Si Si6 0.637539 0.629464 0.526049
Si Si7 0.239197 0.815124 0.617904
Si Si8 0.076584 0.768716 0.801731
O O1 0.312968 0.599193 0.209207
O O2 0.482564 0.648729 0.393911
O O3 0.095470 0.529885 0.166530
O O4 0.152754 0.798629 0.179046
O O5 0.201989 0.731388 0.065732
O O6 0.605692 0.684521 0.313285
O O7 0.381635 0.445909 0.166867
O O8 0.518382 0.506149 0.965500
O O9 0.720654 0.714435 0.118159
O O10 0.257166 0.418968 0.982034
O O11 0.058951 0.656481 0.838766
O O12 0.866019 0.394859 0.732561
O O13 0.500000 0.643311 0.500000
O O14 0.716581 0.455127 0.568536
O O15 0.846860 0.736655 0.647001
O O16 0.000000 0.765860 0.500000
#
# Coordination Sequence:
#
# PCOD9124020 Si02
#       8
#     4   4   2   4   4   4   4   4
#     4  12  21  38  68  92 125 158 213 270 302 368
#     4  11  24  37  64  97 127 151 208 279 315 358
#     4  10  20  42  68  82 122 178 206 246 328 380
#     4   9  20  41  65  83 122 173 209 240 317 389
#     4  10  22  41  62  92 123 170 207 255 323 384
#     4  10  20  41  66  86 122 174 213 244 316 388
#     4   9  17  40  67  82 120 170 207 238 318 387
#     4  10  22  40  64  90 124 165 206 260 322 374
#
# _framework density 19.872021
#
# number of rings (size 3 to 8) (size 9 to 14) (size 15 to 20)
#    0.000    1.867    5.333    0.800    1.867    2.667 
#    2.400    0.000    0.000    0.000    0.000    0.000 
#    0.000    0.000    0.000    0.000    0.000    0.000 
#
# Total GULP energy -83667.745227 kJ/mol
# GULP energy per Si atom -5577.849682 kJ/mol
# Density = 1.982679 g / cm^3
# Si number density = 19.872021 Si / 1000 Ang^3
#
#
#
# Elastic Constant Matrix: (Units=GPa)
#
#
# Indices 1 2 3 4 5 6 
#
# 1 104.4876 46.5425 31.2823 -0.0010 17.7790 0.0003
# 2 46.5425 95.1064 38.3589 0.0013 14.1685 -0.0002
# 3 31.2823 38.3589 83.1637 0.0155 11.7908 -0.0019
# 4 -0.0010 0.0013 0.0155 28.5661 -0.0035 15.7162
# 5 17.7790 14.1685 11.7908 -0.0035 34.6974 -0.0001
# 6 0.0003 -0.0002 -0.0019 15.7162 -0.0001 22.7242
#
#
#
# Elastic Compliance Matrix: (Units=1/GPa)
#
#
# Indices 1 2 3 4 5 6 
#
# 1 0.013081 -0.004979 -0.002061 0.000002 -0.003969 -0.000002
# 2 -0.004979 0.015210 -0.004858 0.000003 -0.002009 -0.000002
# 3 -0.002061 -0.004858 0.015349 -0.000015 -0.002176 0.000011
# 4 0.000002 0.000003 -0.000015 0.056508 0.000008 -0.039081
# 5 -0.003969 -0.002009 -0.002176 0.000008 0.032414 -0.000006
# 6 -0.000002 -0.000002 0.000011 -0.039081 -0.000006 0.071035
#
#
# Mechanical properties :
#
#
# Convention : Reuss Voigt Hill
#
# Bulk Modulus (GPa) = 50.39353 57.23613 53.81483
# Shear Modulus (GPa) = 21.36697 28.30247 24.83472
#
# Velocity S-wave (km/s) = 3.28263 3.77800 3.53899
# Velocity P-wave (km/s) = 6.30727 6.92069 6.62109
#
# Compressibility (1/GPa) = 0.01984382
#
# Stress axis : x y z
#
# Youngs Moduli (GPa) = 76.44881 65.74836 65.15102
#
# Poissons Ratio (x) = 0.32734 0.13429
# Poissons Ratio (y) = 0.38061 0.31649
# Poissons Ratio (z) = 0.15758 0.31939
#
# Static dielectric constant tensor:
#      x y z
#    x 1.718450 0.000000 -0.001600 
#    y 0.000000 1.737870 0.000000 
#    z -0.001600 0.000000 1.712410 
# 
# From -- ./inp_files/72132.got.cif
#   From: 2010.05.17/outbox.cif.g08.bks.cpg/sg5_37_cif.got.tgz:72132.got - 2010.06.03 18:56:24.
