data_PCOD9124384
_publ_section_title
;
Structure prediction by ZEFSAII (Michael W. Deem and Ramdas Pophale) SiO2 
 PCOD9124384
Probable space group: C 2
;
_chemical_formula_sum "Si O2"
_cell_formula_units_Z 30
_cell_length_a 20.427364
_cell_length_b 11.572978
_cell_length_c 7.980537
_cell_angle_alpha 90.000000
_cell_angle_beta 48.137814
_cell_angle_gamma 90.000000
_cell_volume 1405.080900
_symmetry_space_group_name_H-M "C 2"
_symmetry_group_IT_number 5
_symmetry_cell_setting 'monoclinic'
loop_
_space_group_symop_operation_xyz
x,y,z
-x,y,-z
1/2+x,1/2+y,z
1/2-x,1/2+y,-z
loop_
_atom_site_type_symbol
_atom_site_label
_atom_site_fract_x
_atom_site_fract_y
_atom_site_fract_z
Si Si1 0.369418 0.745020 0.044283
Si Si2 0.268058 0.069275 0.857213
Si Si3 0.804756 0.166833 0.502464
Si Si4 0.500000 0.464957 0.000000
Si Si5 0.739940 0.446366 0.256012
Si Si6 0.324912 0.356218 0.155457
Si Si7 0.473587 0.633320 0.362869
Si Si8 0.894174 0.771568 0.674225
O O1 0.307267 0.664794 0.038129
O O2 0.361544 0.688319 0.240168
O O3 0.323812 0.866759 0.139190
O O4 0.463970 0.737940 0.800689
O O5 0.356968 0.144766 0.683927
O O6 0.239408 0.963251 0.785305
O O7 0.261219 0.019078 0.053972
O O8 0.728960 0.260098 0.650720
O O9 0.874190 0.175946 0.534499
O O10 0.771858 0.036192 0.573962
O O11 0.411456 0.394651 0.109108
O O12 0.486458 0.539194 0.194071
O O13 0.654668 0.366297 0.361886
O O14 0.357251 0.301543 0.923085
O O15 0.500000 0.588070 0.500000
O O16 0.000000 0.778053 0.500000
#
# Coordination Sequence:
#
# PCOD9124384 Si02
#       8
#     4   4   4   2   4   4   4   4
#     4  11  24  43  69 103 137 182 235 291 346 411
#     4  10  20  45  66  98 141 177 236 279 350 413
#     4  12  25  44  69 103 141 183 234 287 358 417
#     4  12  26  46  70 106 142 178 248 296 336 430
#     4  10  24  41  71  95 138 186 228 285 345 416
#     4  11  25  42  70 101 141 186 228 294 363 408
#     4  12  26  44  72 104 139 181 237 293 345 414
#     4  10  23  40  70 103 138 181 238 289 345 418
#
# _framework density 21.351084
#
# number of rings (size 3 to 8) (size 9 to 14) (size 15 to 20)
#    0.000    1.067    4.000    0.800   11.200    1.067 
#    2.400    0.000    2.933    0.000    0.000    0.000 
#    0.000    0.000    0.000    0.000    0.000    0.000 
#
# Total GULP energy -83851.806137 kJ/mol
# GULP energy per Si atom -5590.120409 kJ/mol
# Density = 2.130249 g / cm^3
# Si number density = 21.351084 Si / 1000 Ang^3
#
#
#
# Elastic Constant Matrix: (Units=GPa)
#
#
# Indices 1 2 3 4 5 6 
#
# 1 108.2833 51.6771 42.9581 0.0000 -2.0805 0.0000
# 2 51.6771 111.2850 43.1466 0.0000 -19.8214 0.0000
# 3 42.9581 43.1466 89.5344 0.0000 -2.8978 0.0000
# 4 0.0000 0.0000 0.0000 27.0871 0.0000 -8.5354
# 5 -2.0805 -19.8214 -2.8978 0.0000 49.8764 0.0000
# 6 0.0000 0.0000 0.0000 -8.5354 0.0000 25.1019
#
#
#
# Elastic Compliance Matrix: (Units=1/GPa)
#
#
# Indices 1 2 3 4 5 6 
#
# 1 0.013092 -0.004807 -0.004017 0.000000 -0.001597 0.000000
# 2 -0.004807 0.013716 -0.004141 0.000000 0.005010 0.000000
# 3 -0.004017 -0.004141 0.015061 0.000000 -0.000938 0.000000
# 4 0.000000 0.000000 0.000000 0.041348 0.000000 0.014060
# 5 -0.001597 0.005010 -0.000938 0.000000 0.021919 0.000000
# 6 0.000000 0.000000 0.000000 0.014060 0.000000 0.044618
#
#
# Mechanical properties :
#
#
# Convention : Reuss Voigt Hill
#
# Bulk Modulus (GPa) = 62.73643 64.96292 63.84968
# Shear Modulus (GPa) = 27.62465 31.83448 29.72957
#
# Velocity S-wave (km/s) = 3.60089 3.86554 3.73556
# Velocity P-wave (km/s) = 6.83634 7.10037 6.96961
#
# Compressibility (1/GPa) = 0.01593970
#
# Stress axis : x y z
#
# Youngs Moduli (GPa) = 76.38390 72.90797 66.39453
#
# Poissons Ratio (x) = 0.35044 0.26669
# Poissons Ratio (y) = 0.36714 0.27497
# Poissons Ratio (z) = 0.30682 0.30194
#
# Static dielectric constant tensor:
#      x y z
#    x 1.894860 0.000000 0.014880 
#    y 0.000000 1.800960 0.000000 
#    z 0.014880 0.000000 1.771460 
# 
# From -- ./inp_files/30922.got.cif
#   From: 2010.05.17/outbox.cif.g08.bks.cpg/sg5_16_cif.got.tgz:30922.got - 2010.06.03 18:56:24.
