data_PCOD9124617
_publ_section_title
;
Structure prediction by ZEFSAII (Michael W. Deem and Ramdas Pophale) SiO2 
 PCOD9124617
Probable space group: C 2
;
_chemical_formula_sum "Si O2"
_cell_formula_units_Z 28
_cell_length_a 9.128664
_cell_length_b 10.896244
_cell_length_c 13.678412
_cell_angle_alpha 90.000000
_cell_angle_beta 64.736865
_cell_angle_gamma 90.000000
_cell_volume 1230.438145
_symmetry_space_group_name_H-M "C 2"
_symmetry_group_IT_number 5
_symmetry_cell_setting 'monoclinic'
loop_
_space_group_symop_operation_xyz
x,y,z
-x,y,-z
1/2+x,1/2+y,z
1/2-x,1/2+y,-z
loop_
_atom_site_type_symbol
_atom_site_label
_atom_site_fract_x
_atom_site_fract_y
_atom_site_fract_z
Si Si1 0.995423 0.313390 0.788275
Si Si2 0.720527 0.640950 0.043988
Si Si3 0.144614 0.253123 0.383846
Si Si4 0.518373 0.321569 0.694260
Si Si5 0.225433 0.637687 0.198802
Si Si6 0.948385 0.925261 0.111899
Si Si7 0.769559 0.523099 0.235780
O O1 0.133762 0.216240 0.785715
O O2 0.073578 0.444011 0.785054
O O3 0.849261 0.271488 0.899765
O O4 0.940010 0.298277 0.692672
O O5 0.578656 0.537284 0.071630
O O6 0.798999 0.582230 0.119600
O O7 0.782204 0.660717 0.916386
O O8 0.294133 0.328994 0.390935
O O9 0.000000 0.234625 0.500000
O O10 0.229430 0.128163 0.324001
O O11 0.431384 0.191242 0.702004
O O12 0.535509 0.333575 0.805217
O O13 0.388386 0.431259 0.712172
O O14 0.281879 0.497014 0.182058
O O15 0.000000 0.855547 0.000000
#
# Coordination Sequence:
#
# PCOD9124617 Si02
#       7
#     4   4   4   4   4   4   4
#     4   9  18  36  60  85 116 156 193 233 289 347
#     4   8  15  32  58  88 122 153 184 222 271 340
#     4  11  25  42  59  82 112 149 200 259 308 346
#     4  10  21  37  58  83 112 150 194 238 288 346
#     4   9  17  34  59  87 121 155 189 227 274 346
#     4   8  15  29  51  81 117 151 176 216 273 329
#     4   9  20  40  62  86 117 152 192 241 292 348
#
# _framework density 22.756122000000001
#
# number of rings (size 3 to 8) (size 9 to 14) (size 15 to 20)
#    0.000    2.857    0.000    2.143    0.000    4.571 
#    0.000   12.143    0.000    5.143    0.000    0.000 
#    0.000    0.000    0.000    0.000    0.000    0.000 
#
# Total GULP energy -77974.785181 kJ/mol
# GULP energy per Si atom -5569.627513 kJ/mol
# Density = 2.270433 g / cm^3
# Si number density = 22.756122 Si / 1000 Ang^3
#
#
#
# Elastic Constant Matrix: (Units=GPa)
#
#
# Indices 1 2 3 4 5 6 
#
# 1 112.9011 43.8925 20.2799 0.0000 -15.8986 0.0000
# 2 43.8925 74.0078 16.6371 0.0000 -5.7888 0.0000
# 3 20.2799 16.6371 44.1303 0.0000 -9.0297 0.0000
# 4 0.0000 0.0000 0.0000 7.0557 0.0000 -10.4278
# 5 -15.8986 -5.7888 -9.0297 0.0000 18.9109 0.0000
# 6 0.0000 0.0000 0.0000 -10.4278 0.0000 42.6193
#
#
#
# Elastic Compliance Matrix: (Units=1/GPa)
#
#
# Indices 1 2 3 4 5 6 
#
# 1 0.012866 -0.006605 -0.001798 0.000000 0.007936 0.000000
# 2 -0.006605 0.018228 -0.004246 0.000000 -0.002001 0.000000
# 3 -0.001798 -0.004246 0.027166 0.000000 0.010160 0.000000
# 4 0.000000 0.000000 0.000000 0.222010 0.000000 0.054320
# 5 0.007936 -0.002001 0.010160 0.000000 0.063790 0.000000
# 6 0.000000 0.000000 0.000000 0.054320 0.000000 0.036754
#
#
# Mechanical properties :
#
#
# Convention : Reuss Voigt Hill
#
# Bulk Modulus (GPa) = 30.33947 43.62869 36.98408
# Shear Modulus (GPa) = 11.98757 23.73250 17.86003
#
# Velocity S-wave (km/s) = 2.29767 3.23291 2.80455
# Velocity P-wave (km/s) = 4.51668 5.75756 5.17445
#
# Compressibility (1/GPa) = 0.03296037
#
# Stress axis : x y z
#
# Youngs Moduli (GPa) = 77.72521 54.86199 36.81062
#
# Poissons Ratio (x) = 0.36239 0.06620
# Poissons Ratio (y) = 0.51341 0.15629
# Poissons Ratio (z) = 0.13978 0.23293
#
# Static dielectric constant tensor:
#      x y z
#    x 2.101730 0.000000 -0.039770 
#    y 0.000000 1.861960 0.000000 
#    z -0.039770 0.000000 1.821710 
# 
# From -- ./inp_files/50257.got.cif
#   From: 2010.05.17/outbox.cif.g08.bks.cpg/sg5_26_cif.got.tgz:50257.got - 2010.06.03 18:56:24.
