data_PCOD9124309
_publ_section_title
;
Structure prediction by ZEFSAII (Michael W. Deem and Ramdas Pophale) SiO2 
 PCOD9124309
Probable space group: C 2
;
_chemical_formula_sum "Si O2"
_cell_formula_units_Z 20
_cell_length_a 6.818135
_cell_length_b 14.281957
_cell_length_c 8.762909
_cell_angle_alpha 90.000000
_cell_angle_beta 96.234154
_cell_angle_gamma 90.000000
_cell_volume 848.253685
_symmetry_space_group_name_H-M "C 2"
_symmetry_group_IT_number 5
_symmetry_cell_setting 'monoclinic'
loop_
_space_group_symop_operation_xyz
x,y,z
-x,y,-z
1/2+x,1/2+y,z
1/2-x,1/2+y,-z
loop_
_atom_site_type_symbol
_atom_site_label
_atom_site_fract_x
_atom_site_fract_y
_atom_site_fract_z
Si Si1 0.564483 0.077290 0.766318
Si Si2 0.376590 0.802336 0.359696
Si Si3 0.723476 0.599525 0.539911
Si Si4 0.334520 0.737447 0.882779
Si Si5 0.210333 0.910719 0.079346
O O1 0.337874 0.064025 0.699539
O O2 0.671627 0.076092 0.609943
O O3 0.778699 0.859455 0.753849
O O4 0.645531 0.997052 0.881281
O O5 0.500000 0.857007 0.500000
O O6 0.544354 0.763871 0.258155
O O7 0.279947 0.711839 0.430555
O O8 0.500000 0.567465 0.500000
O O9 0.859335 0.675549 0.159014
O O10 0.500000 0.685664 0.000000
O O11 0.280480 0.831874 0.966853
O O12 0.000000 0.942245 0.000000
#
# Coordination Sequence:
#
# PCOD9124309 Si02
#       5
#     4   4   4   4   4
#     4  11  22  42  73 101 145 185 240 289 356 421
#     4  10  20  43  71  99 140 183 239 286 352 416
#     4  10  21  42  72 103 132 185 238 296 348 409
#     4  10  21  43  70 100 144 183 231 289 356 420
#     4  11  25  43  65 107 149 185 235 293 353 426
#
# _framework density 23.577853000000001
#
# number of rings (size 3 to 8) (size 9 to 14) (size 15 to 20)
#    0.000    1.600    4.000    1.800    2.800    0.000 
#   10.800    3.000    0.000    0.000    0.000    0.000 
#    0.000    0.000    0.000    0.000    0.000    0.000 
#
# Total GULP energy -55884.558334 kJ/mol
# GULP energy per Si atom -5588.455833 kJ/mol
# Density = 2.352419 g / cm^3
# Si number density = 23.577853 Si / 1000 Ang^3
#
#
#
# Elastic Constant Matrix: (Units=GPa)
#
#
# Indices 1 2 3 4 5 6 
#
# 1 55.0444 25.1513 58.2592 0.0000 31.3515 0.0000
# 2 25.1513 111.2699 59.7948 0.0000 13.9191 0.0000
# 3 58.2592 59.7948 196.1367 0.0000 45.2394 0.0000
# 4 0.0000 0.0000 0.0000 37.0194 0.0000 6.2239
# 5 31.3515 13.9191 45.2394 0.0000 59.2173 0.0000
# 6 0.0000 0.0000 0.0000 6.2239 0.0000 19.2466
#
#
#
# Elastic Compliance Matrix: (Units=1/GPa)
#
#
# Indices 1 2 3 4 5 6 
#
# 1 0.032699 -0.002581 -0.006158 0.000000 -0.012001 0.000000
# 2 -0.002581 0.010952 -0.002784 0.000000 0.000919 0.000000
# 3 -0.006158 -0.002784 0.008344 0.000000 -0.002460 0.000000
# 4 0.000000 0.000000 0.000000 0.028566 0.000000 -0.009238
# 5 -0.012001 0.000919 -0.002460 0.000000 0.024904 0.000000
# 6 0.000000 0.000000 0.000000 -0.009238 0.000000 0.054944
#
#
# Mechanical properties :
#
#
# Convention : Reuss Voigt Hill
#
# Bulk Modulus (GPa) = 34.54364 72.09571 53.31968
# Shear Modulus (GPa) = 25.89270 37.71304 31.80287
#
# Velocity S-wave (km/s) = 3.31747 4.00373 3.67665
# Velocity P-wave (km/s) = 5.41820 7.21230 6.37864
#
# Compressibility (1/GPa) = 0.02894889
#
# Stress axis : x y z
#
# Youngs Moduli (GPa) = 30.58151 91.30978 119.85090
#
# Poissons Ratio (x) = 0.23566 0.73804
# Poissons Ratio (y) = 0.07893 0.33369
# Poissons Ratio (z) = 0.18832 0.25422
#
# Static dielectric constant tensor:
#      x y z
#    x 1.929560 0.000000 0.039050 
#    y 0.000000 1.912260 0.000000 
#    z 0.039050 0.000000 1.945230 
# 
# From -- ./inp_files/35985.got.cif
#   From: 2010.05.17/outbox.cif.g08.bks.cpg/sg5_18_cif.got.tgz:35985.got - 2010.06.03 18:56:24.
