data_PCOD9124144
_publ_section_title
;
Structure prediction by ZEFSAII (Michael W. Deem and Ramdas Pophale) SiO2 
 PCOD9124144
Probable space group: C 2
;
_chemical_formula_sum "Si O2"
_cell_formula_units_Z 30
_cell_length_a 11.095361
_cell_length_b 9.363380
_cell_length_c 12.736072
_cell_angle_alpha 90.000000
_cell_angle_beta 84.175272
_cell_angle_gamma 90.000000
_cell_volume 1316.320126
_symmetry_space_group_name_H-M "C 2"
_symmetry_group_IT_number 5
_symmetry_cell_setting 'monoclinic'
loop_
_space_group_symop_operation_xyz
x,y,z
-x,y,-z
1/2+x,1/2+y,z
1/2-x,1/2+y,-z
loop_
_atom_site_type_symbol
_atom_site_label
_atom_site_fract_x
_atom_site_fract_y
_atom_site_fract_z
Si Si1 0.000000 0.596791 0.500000
Si Si2 0.658708 0.435705 0.241926
Si Si3 0.421405 0.266386 0.312871
Si Si4 0.365207 0.327562 0.972446
Si Si5 0.128329 0.091709 0.439921
Si Si6 0.588214 0.993987 0.830201
Si Si7 0.335144 0.006589 0.931484
Si Si8 0.290108 0.905744 0.570247
O O1 0.922950 0.689164 0.425653
O O2 0.908088 0.502670 0.578159
O O3 0.557180 0.326942 0.291566
O O4 0.627980 0.442939 0.121935
O O5 0.634122 0.574236 0.314280
O O6 0.803389 0.404645 0.234216
O O7 0.401450 0.150306 0.223659
O O8 0.312540 0.380836 0.331642
O O9 0.278951 0.401169 0.065662
O O10 0.500000 0.297693 0.000000
O O11 0.314586 0.178510 0.927991
O O12 0.160030 0.251914 0.465786
O O13 0.000000 0.053738 0.500000
O O14 0.221424 0.979885 0.480168
O O15 0.622869 0.991798 0.950158
O O16 0.445323 0.960814 0.845691
#
# Coordination Sequence:
#
# PCOD9124144 Si02
#       8
#     2   4   4   4   4   4   4   4
#     4  12  26  40  64  98 128 172 222 268 330 382
#     4  11  22  39  72  94 127 180 217 265 330 390
#     4  12  22  41  63  93 132 171 212 272 323 384
#     4  11  22  45  68  97 133 169 218 267 332 391
#     4  12  24  42  65  94 132 173 221 269 325 384
#     4  10  20  42  65  93 128 173 212 265 328 384
#     4  10  21  42  71  92 130 172 208 272 328 389
#     4  12  24  41  67  90 129 173 217 268 324 382
#
# _framework density 22.790807999999998
#
# number of rings (size 3 to 8) (size 9 to 14) (size 15 to 20)
#    0.000    0.800    7.333    0.800    0.000    0.000 
#    9.600    1.333    2.933    0.000    0.000    0.000 
#    0.000    0.000    0.000    0.000    0.000    0.000 
#
# Total GULP energy -83691.366647 kJ/mol
# GULP energy per Si atom -5579.424443 kJ/mol
# Density = 2.273894 g / cm^3
# Si number density = 22.790808 Si / 1000 Ang^3
#
#
#
# Elastic Constant Matrix: (Units=GPa)
#
#
# Indices 1 2 3 4 5 6 
#
# 1 111.2849 42.1415 22.8814 0.0000 -51.7459 0.0000
# 2 42.1415 52.8739 -0.9331 0.0000 -14.2485 0.0000
# 3 22.8814 -0.9331 67.4514 0.0000 -33.8556 0.0000
# 4 0.0000 0.0000 0.0000 22.9473 0.0000 -16.5908
# 5 -51.7459 -14.2485 -33.8556 0.0000 48.4209 0.0000
# 6 0.0000 0.0000 0.0000 -16.5908 0.0000 38.9272
#
#
#
# Elastic Compliance Matrix: (Units=1/GPa)
#
#
# Indices 1 2 3 4 5 6 
#
# 1 0.025110 -0.012894 0.004419 0.000000 0.026130 0.000000
# 2 -0.012894 0.028374 0.003145 0.000000 -0.003231 0.000000
# 3 0.004419 0.003145 0.024967 0.000000 0.023104 0.000000
# 4 0.000000 0.000000 0.000000 0.062987 0.000000 0.026845
# 5 0.026130 -0.003231 0.023104 0.000000 0.063780 0.000000
# 6 0.000000 0.000000 0.000000 0.026845 0.000000 0.037130
#
#
# Mechanical properties :
#
#
# Convention : Reuss Voigt Hill
#
# Bulk Modulus (GPa) = 14.75127 39.97667 27.36397
# Shear Modulus (GPa) = 18.14189 33.22709 25.68449
#
# Velocity S-wave (km/s) = 2.82444 3.82241 3.36068
# Velocity P-wave (km/s) = 4.13801 6.08768 5.20495
#
# Compressibility (1/GPa) = 0.06779077
#
# Stress axis : x y z
#
# Youngs Moduli (GPa) = 39.82487 35.24317 40.05349
#
# Poissons Ratio (x) = 0.45441 -0.17699
# Poissons Ratio (y) = 0.51349 -0.12596
# Poissons Ratio (z) = -0.17598 -0.11083
#
# Static dielectric constant tensor:
#      x y z
#    x 1.901620 0.000000 -0.035980 
#    y 0.000000 1.828190 0.000000 
#    z -0.035980 0.000000 1.896070 
# 
# From -- ./inp_files/52426.got.cif
#   From: 2010.05.17/outbox.cif.g08.bks.cpg/sg5_27_cif.got.tgz:52426.got - 2010.06.03 18:56:24.
