data_PCOD9124240
_publ_section_title
;
Structure prediction by ZEFSAII (Michael W. Deem and Ramdas Pophale) SiO2 
 PCOD9124240
Probable space group: C 2
;
_chemical_formula_sum "Si O2"
_cell_formula_units_Z 28
_cell_length_a 26.467762
_cell_length_b 7.223180
_cell_length_c 7.157882
_cell_angle_alpha 90.000000
_cell_angle_beta 120.617187
_cell_angle_gamma 90.000000
_cell_volume 1177.676830
_symmetry_space_group_name_H-M "C 2"
_symmetry_group_IT_number 5
_symmetry_cell_setting 'monoclinic'
loop_
_space_group_symop_operation_xyz
x,y,z
-x,y,-z
1/2+x,1/2+y,z
1/2-x,1/2+y,-z
loop_
_atom_site_type_symbol
_atom_site_label
_atom_site_fract_x
_atom_site_fract_y
_atom_site_fract_z
Si Si1 0.400881 0.837880 0.536652
Si Si2 0.202596 0.733619 0.970440
Si Si3 0.946569 0.979686 0.788877
Si Si4 0.623565 0.925791 0.945398
Si Si5 0.653866 0.518245 0.127598
Si Si6 0.217629 0.478885 0.661969
Si Si7 0.002673 0.611336 0.729315
O O1 0.416632 0.624950 0.593908
O O2 0.389534 0.884281 0.298566
O O3 0.343112 0.911214 0.536708
O O4 0.456456 0.956369 0.701371
O O5 0.179419 0.561997 0.049156
O O6 0.206484 0.661349 0.767387
O O7 0.159665 0.903685 0.943675
O O8 0.263909 0.812671 0.159892
O O9 0.894011 0.927321 0.829732
O O10 0.978632 0.804821 0.759800
O O11 0.000000 0.077424 0.000000
O O12 0.567070 0.041107 0.906028
O O13 0.634409 0.727474 0.056372
O O14 0.721153 0.508208 0.331154
O O15 0.000000 0.625068 0.500000
#
# Coordination Sequence:
#
# PCOD9124240 Si02
#       7
#     4   4   4   4   4   4   4
#     4  10  23  42  64  95 131 171 221 275 325 396
#     4   9  19  36  63 100 132 169 220 267 316 393
#     4  12  26  44  65  96 130 177 225 274 345 390
#     4  10  20  42  71 101 128 170 229 275 329 392
#     4  10  23  40  67 104 133 178 216 271 338 398
#     4   9  19  40  63 100 133 172 220 265 328 389
#     4  10  24  44  66  94 128 173 225 281 328 395
#
# _framework density 23.775621999999998
#
# number of rings (size 3 to 8) (size 9 to 14) (size 15 to 20)
#    0.857    1.143    0.000    3.429    0.000    9.143 
#    5.143    0.000    0.000    0.000    0.000    0.000 
#    0.000    0.000    0.000    0.000    0.000    0.000 
#
# Total GULP energy -78197.762357 kJ/mol
# GULP energy per Si atom -5585.554454 kJ/mol
# Density = 2.372151 g / cm^3
# Si number density = 23.775622 Si / 1000 Ang^3
#
#
#
# Elastic Constant Matrix: (Units=GPa)
#
#
# Indices 1 2 3 4 5 6 
#
# 1 172.8045 60.2994 35.0219 0.0000 28.3306 0.0000
# 2 60.2994 141.4321 26.7008 0.0000 12.1920 0.0000
# 3 35.0219 26.7008 31.1950 0.0000 -0.6249 0.0000
# 4 0.0000 0.0000 0.0000 14.4352 0.0000 10.5454
# 5 28.3306 12.1920 -0.6249 0.0000 28.0034 0.0000
# 6 0.0000 0.0000 0.0000 10.5454 0.0000 48.1068
#
#
#
# Elastic Compliance Matrix: (Units=1/GPa)
#
#
# Indices 1 2 3 4 5 6 
#
# 1 0.009923 -0.001506 -0.010043 0.000000 -0.009607 0.000000
# 2 -0.001506 0.009095 -0.006145 0.000000 -0.002573 0.000000
# 3 -0.010043 -0.006145 0.048870 0.000000 0.013927 0.000000
# 4 0.000000 0.000000 0.000000 0.082484 0.000000 -0.018081
# 5 -0.009607 -0.002573 0.013927 0.000000 0.046860 0.000000
# 6 0.000000 0.000000 0.000000 -0.018081 0.000000 0.024751
#
#
# Mechanical properties :
#
#
# Convention : Reuss Voigt Hill
#
# Bulk Modulus (GPa) = 30.77025 65.49731 48.13378
# Shear Modulus (GPa) = 18.64245 33.00305 25.82275
#
# Velocity S-wave (km/s) = 2.80321 3.72977 3.29918
# Velocity P-wave (km/s) = 4.84225 6.79383 5.89930
#
# Compressibility (1/GPa) = 0.03249892
#
# Stress axis : x y z
#
# Youngs Moduli (GPa) = 100.77487 109.95518 20.46229
#
# Poissons Ratio (x) = 0.16564 0.20551
# Poissons Ratio (y) = 0.15181 0.12573
# Poissons Ratio (z) = 1.01213 0.67564
#
# Static dielectric constant tensor:
#      x y z
#    x 1.931020 0.000000 -0.041700 
#    y 0.000000 1.873800 0.000000 
#    z -0.041700 0.000000 1.955480 
# 
# From -- ./inp_files/32319.got.cif
#   From: 2010.05.17/outbox.cif.g08.bks.cpg/sg5_17_cif.got.tgz:32319.got - 2010.06.03 18:56:24.
