data_PCOD9124829
_publ_section_title
;
Structure prediction by ZEFSAII (Michael W. Deem and Ramdas Pophale) SiO2 
 PCOD9124829
Probable space group: C 2
;
_chemical_formula_sum "Si O2"
_cell_formula_units_Z 30
_cell_length_a 7.089147
_cell_length_b 12.591752
_cell_length_c 20.325666
_cell_angle_alpha 90.000000
_cell_angle_beta 133.704751
_cell_angle_gamma 90.000000
_cell_volume 1311.623151
_symmetry_space_group_name_H-M "C 2"
_symmetry_group_IT_number 5
_symmetry_cell_setting 'monoclinic'
loop_
_space_group_symop_operation_xyz
x,y,z
-x,y,-z
1/2+x,1/2+y,z
1/2-x,1/2+y,-z
loop_
_atom_site_type_symbol
_atom_site_label
_atom_site_fract_x
_atom_site_fract_y
_atom_site_fract_z
Si Si1 0.000000 0.387060 0.500000
Si Si2 0.953223 0.854715 0.887688
Si Si3 0.505170 0.800318 0.312865
Si Si4 0.774500 0.523905 0.902180
Si Si5 0.846910 0.167506 0.768757
Si Si6 0.745246 0.704097 0.484819
Si Si7 0.444333 0.014187 0.610268
Si Si8 0.430077 0.819592 0.081725
O O1 0.781831 0.306228 0.474634
O O2 0.909399 0.460553 0.417615
O O3 0.786193 0.820493 0.784187
O O4 0.753673 0.848145 0.900186
O O5 0.058224 0.972842 0.898373
O O6 0.221011 0.795051 0.973448
O O7 0.669959 0.754156 0.292460
O O8 0.513107 0.719984 0.376263
O O9 0.635262 0.910101 0.368761
O O10 0.621614 0.606900 0.821786
O O11 0.904375 0.423340 0.897661
O O12 0.000000 0.576436 0.000000
O O13 0.621557 0.084053 0.701142
O O14 0.886784 0.225305 0.848002
O O15 0.000000 0.706742 0.500000
O O16 0.752745 0.596682 0.528374
#
# Coordination Sequence:
#
# PCOD9124829 Si02
#       8
#     2   4   4   4   4   4   4   4
#     4  10  24  42  68  92 126 164 204 268 318 368
#     4   9  18  40  61  89 134 158 205 270 296 362
#     4  10  21  38  64  92 121 162 206 261 309 365
#     4  10  21  38  64  92 125 172 211 251 315 373
#     4  11  21  38  65  93 125 171 206 254 318 369
#     4  11  22  44  64  93 124 165 210 256 328 376
#     4  11  21  43  63  91 132 158 206 272 306 374
#     4   9  21  37  63  91 130 170 206 254 312 367
#
# _framework density 22.872423000000001
#
# number of rings (size 3 to 8) (size 9 to 14) (size 15 to 20)
#    0.000    1.867    3.333    0.000    3.733    1.067 
#    4.800    8.000    8.800    0.000    0.000    0.000 
#    0.000    0.000    0.000    0.000    0.000    0.000 
#
# Total GULP energy -83687.976588 kJ/mol
# GULP energy per Si atom -5579.198439 kJ/mol
# Density = 2.282036 g / cm^3
# Si number density = 22.872423 Si / 1000 Ang^3
#
#
#
# Elastic Constant Matrix: (Units=GPa)
#
#
# Indices 1 2 3 4 5 6 
#
# 1 57.2250 23.8607 14.8026 0.0000 4.6355 0.0000
# 2 23.8607 118.5062 56.1896 0.0000 -6.8200 0.0000
# 3 14.8026 56.1896 138.8053 0.0000 -14.6213 0.0000
# 4 0.0000 0.0000 0.0000 49.0341 0.0000 -10.2820
# 5 4.6355 -6.8200 -14.6213 0.0000 16.9453 0.0000
# 6 0.0000 0.0000 0.0000 -10.2820 0.0000 30.5937
#
#
#
# Elastic Compliance Matrix: (Units=1/GPa)
#
#
# Indices 1 2 3 4 5 6 
#
# 1 0.020128 -0.003834 -0.001471 0.000000 -0.008318 0.000000
# 2 -0.003834 0.011179 -0.003885 0.000000 0.002196 0.000000
# 3 -0.001471 -0.003885 0.009693 0.000000 0.007202 0.000000
# 4 0.000000 0.000000 0.000000 0.021940 0.000000 0.007374
# 5 -0.008318 0.002196 0.007202 0.000000 0.068387 0.000000
# 6 0.000000 0.000000 0.000000 0.007374 0.000000 0.035165
#
#
# Mechanical properties :
#
#
# Convention : Reuss Voigt Hill
#
# Bulk Modulus (GPa) = 44.20964 56.02693 50.11829
# Shear Modulus (GPa) = 25.98617 33.96019 29.97318
#
# Velocity S-wave (km/s) = 3.37432 3.85745 3.62394
# Velocity P-wave (km/s) = 5.87810 6.66247 6.28254
#
# Compressibility (1/GPa) = 0.02261950
#
# Stress axis : x y z
#
# Youngs Moduli (GPa) = 49.68267 89.45471 103.17239
#
# Poissons Ratio (x) = 0.34297 0.15173
# Poissons Ratio (y) = 0.19049 0.40084
# Poissons Ratio (z) = 0.07306 0.34754
#
# Static dielectric constant tensor:
#      x y z
#    x 1.862980 0.000000 -0.010800 
#    y 0.000000 1.864240 0.000000 
#    z -0.010800 0.000000 1.907790 
# 
# From -- ./inp_files/67977.got.cif
#   From: 2010.05.17/outbox.cif.g08.bks.cpg/sg5_34_cif.got.tgz:67977.got - 2010.06.03 18:56:24.
