data_PCOD9124308
_publ_section_title
;
Structure prediction by ZEFSAII (Michael W. Deem and Ramdas Pophale) SiO2 
 PCOD9124308
Probable space group: C 2
;
_chemical_formula_sum "Si O2"
_cell_formula_units_Z 18
_cell_length_a 11.139149
_cell_length_b 8.441431
_cell_length_c 8.088102
_cell_angle_alpha 90.000000
_cell_angle_beta 73.152956
_cell_angle_gamma 90.000000
_cell_volume 727.886713
_symmetry_space_group_name_H-M "C 2"
_symmetry_group_IT_number 5
_symmetry_cell_setting 'monoclinic'
loop_
_space_group_symop_operation_xyz
x,y,z
-x,y,-z
1/2+x,1/2+y,z
1/2-x,1/2+y,-z
loop_
_atom_site_type_symbol
_atom_site_label
_atom_site_fract_x
_atom_site_fract_y
_atom_site_fract_z
Si Si1 0.500000 0.668280 0.500000
Si Si2 0.407142 0.636153 0.887494
Si Si3 0.429280 0.166195 0.354196
Si Si4 0.153087 0.508132 0.115859
Si Si5 0.775559 0.414974 0.553238
O O1 0.461977 0.588742 0.687184
O O2 0.383052 0.781777 0.504391
O O3 0.392088 0.828616 0.899531
O O4 0.500000 0.589231 0.000000
O O5 0.267529 0.566247 0.959770
O O6 0.500000 0.142009 0.500000
O O7 0.357067 0.330164 0.395618
O O8 0.533788 0.125593 0.176429
O O9 0.318447 0.035192 0.394455
O O10 0.212662 0.501831 0.276091
#
# Coordination Sequence:
#
# PCOD9124308 Si02
#       5
#     2   4   4   4   4
#     4  10  22  48  68 102 138 192 232 286 360 418
#     4  11  25  46  74  98 150 191 233 299 355 416
#     4  10  21  41  69 103 142 185 235 295 357 420
#     4  10  24  45  65 106 144 182 244 292 350 427
#     4  10  20  43  71  95 147 182 232 302 347 420
#
# _framework density 24.729125
#
# number of rings (size 3 to 8) (size 9 to 14) (size 15 to 20)
#    0.000    1.778    5.556    0.000    6.222    5.333 
#    2.000    0.000    0.000    0.000    0.000    0.000 
#    0.000    0.000    0.000    0.000    0.000    0.000 
#
# Total GULP energy -50342.910953 kJ/mol
# GULP energy per Si atom -5593.656773 kJ/mol
# Density = 2.467284 g / cm^3
# Si number density = 24.729125 Si / 1000 Ang^3
#
#
#
# Elastic Constant Matrix: (Units=GPa)
#
#
# Indices 1 2 3 4 5 6 
#
# 1 105.4223 86.8488 83.7217 0.0000 -28.8213 0.0000
# 2 86.8488 37.1230 46.2685 0.0000 -46.1275 0.0000
# 3 83.7217 46.2685 209.2035 0.0000 -32.8319 0.0000
# 4 0.0000 0.0000 0.0000 31.7319 0.0000 -24.9084
# 5 -28.8213 -46.1275 -32.8319 0.0000 45.8135 0.0000
# 6 0.0000 0.0000 0.0000 -24.9084 0.0000 58.0395
#
#
#
# Elastic Compliance Matrix: (Units=1/GPa)
#
#
# Indices 1 2 3 4 5 6 
#
# 1 0.002914 0.015149 -0.002068 0.000000 0.015604 0.000000
# 2 0.015149 -0.018706 -0.003814 0.000000 -0.012038 0.000000
# 3 -0.002068 -0.003814 0.006359 0.000000 -0.000584 0.000000
# 4 0.000000 0.000000 0.000000 0.047524 0.000000 0.020395
# 5 0.015604 -0.012038 -0.000584 0.000000 0.019105 0.000000
# 6 0.000000 0.000000 0.000000 0.020395 0.000000 0.025983
#
#
# Mechanical properties :
#
#
# Convention : Reuss Voigt Hill
#
# Bulk Modulus (GPa) = 109.88488 87.26963 98.57726
# Shear Modulus (GPa) = 73.87768 36.11097 54.99433
#
# Velocity S-wave (km/s) = 5.47171 3.82548 4.72091
# Velocity P-wave (km/s) = 9.18974 7.40805 8.34657
#
# Compressibility (1/GPa) = 0.00910043
#
# Stress axis : x y z
#
# Youngs Moduli (GPa) = 343.18010 -53.45872 157.24558
#
# Poissons Ratio (x) = 0.80982 0.32513
# Poissons Ratio (y) = -5.19870 0.59980
# Poissons Ratio (z) = 0.70958 -0.20391
#
# Static dielectric constant tensor:
#      x y z
#    x 1.966920 0.000000 0.006600 
#    y 0.000000 2.024120 0.000000 
#    z 0.006600 0.000000 1.957040 
# 
# From -- ./inp_files/18206.got.cif
#   From: 2010.05.17/outbox.cif.g08.bks.cpg/sg5_10_cif.got.tgz:18206.got - 2010.06.03 18:56:24.
