data_PCOD9124727
_publ_section_title
;
Structure prediction by ZEFSAII (Michael W. Deem and Ramdas Pophale) SiO2 
 PCOD9124727
Probable space group: C 2
;
_chemical_formula_sum "Si O2"
_cell_formula_units_Z 28
_cell_length_a 6.797687
_cell_length_b 7.667710
_cell_length_c 23.292939
_cell_angle_alpha 90.000000
_cell_angle_beta 127.294925
_cell_angle_gamma 90.000000
_cell_volume 965.842118
_symmetry_space_group_name_H-M "C 2"
_symmetry_group_IT_number 5
_symmetry_cell_setting 'monoclinic'
loop_
_space_group_symop_operation_xyz
x,y,z
-x,y,-z
1/2+x,1/2+y,z
1/2-x,1/2+y,-z
loop_
_atom_site_type_symbol
_atom_site_label
_atom_site_fract_x
_atom_site_fract_y
_atom_site_fract_z
Si Si1 0.303952 0.541210 0.831864
Si Si2 0.218774 0.680266 0.434465
Si Si3 0.484430 0.040123 0.887673
Si Si4 0.875154 0.903037 0.252499
Si Si5 0.765845 0.053572 0.605194
Si Si6 0.548943 0.904656 0.312698
Si Si7 0.166310 0.901207 0.972298
O O1 0.140519 0.492361 0.858492
O O2 0.201824 0.725119 0.791958
O O3 0.578802 0.535827 0.907152
O O4 0.217459 0.412550 0.765974
O O5 0.500000 0.640180 0.500000
O O6 0.192821 0.889825 0.428991
O O7 0.136206 0.578690 0.362015
O O8 0.018407 0.607482 0.442832
O O9 0.216058 0.041353 0.811629
O O10 0.584442 0.220011 0.930410
O O11 0.559777 0.909766 0.952360
O O12 0.731794 0.898533 0.288961
O O13 0.147144 0.958295 0.320347
O O14 0.908122 0.238709 0.637493
O O15 0.000000 0.931877 0.000000
#
# Coordination Sequence:
#
# PCOD9124727 Si02
#       7
#     4   4   4   4   4   4   4
#     4  10  21  40  65 101 143 192 252 314 381 456
#     4  12  31  51  80 115 157 202 255 323 400 479
#     4  10  22  36  62  94 142 191 252 313 380 448
#     4  11  23  43  71 109 143 199 255 321 382 467
#     4  12  26  49  76 112 150 199 255 313 393 471
#     4  11  24  47  75 111 150 199 257 322 383 477
#     4  10  21  38  57  92 138 192 246 313 378 454
#
# _framework density 28.990245000000002
#
# number of rings (size 3 to 8) (size 9 to 14) (size 15 to 20)
#    0.000    1.143    2.857    1.714    4.000    4.000 
#    0.000    0.000    0.000    0.000    0.000    0.000 
#    0.000    0.000    0.000    0.000    0.000    0.000 
#
# Total GULP energy -78388.230664 kJ/mol
# GULP energy per Si atom -5599.159333 kJ/mol
# Density = 2.892426 g / cm^3
# Si number density = 28.990245 Si / 1000 Ang^3
#
#
#
# Elastic Constant Matrix: (Units=GPa)
#
#
# Indices 1 2 3 4 5 6 
#
# 1 86.5966 12.2422 43.6373 0.0000 -7.2809 0.0000
# 2 12.2422 204.4420 70.4532 0.0000 5.5081 0.0000
# 3 43.6373 70.4532 205.5740 0.0000 29.8689 0.0000
# 4 0.0000 0.0000 0.0000 63.1686 0.0000 -2.5441
# 5 -7.2809 5.5081 29.8689 0.0000 65.9025 0.0000
# 6 0.0000 0.0000 0.0000 -2.5441 0.0000 39.6806
#
#
#
# Elastic Compliance Matrix: (Units=1/GPa)
#
#
# Indices 1 2 3 4 5 6 
#
# 1 0.013470 0.000281 -0.003392 0.000000 0.003002 0.000000
# 2 0.000281 0.005563 -0.002038 0.000000 0.000490 0.000000
# 3 -0.003392 -0.002038 0.006757 0.000000 -0.003267 0.000000
# 4 0.000000 0.000000 0.000000 0.015872 0.000000 0.001018
# 5 0.003002 0.000490 -0.003267 0.000000 0.016945 0.000000
# 6 0.000000 0.000000 0.000000 0.001018 0.000000 0.025266
#
#
# Mechanical properties :
#
#
# Convention : Reuss Voigt Hill
#
# Bulk Modulus (GPa) = 64.53872 83.25312 73.89592
# Shear Modulus (GPa) = 50.33488 58.43567 54.38528
#
# Velocity S-wave (km/s) = 4.17138 4.49453 4.33596
# Velocity P-wave (km/s) = 6.74619 7.46420 7.11426
#
# Compressibility (1/GPa) = 0.01549457
#
# Stress axis : x y z
#
# Youngs Moduli (GPa) = 74.24135 179.74339 147.98598
#
# Poissons Ratio (x) = -0.05058 0.50194
# Poissons Ratio (y) = -0.02089 0.30153
# Poissons Ratio (z) = 0.25181 0.36624
#
# Static dielectric constant tensor:
#      x y z
#    x 2.406470 0.000000 0.134490 
#    y 0.000000 2.262510 0.000000 
#    z 0.134490 0.000000 2.296370 
# 
# From -- ./inp_files/70166.got.cif
#   From: 2010.05.17/outbox.cif.g08.bks.cpg/sg5_36_cif.got.tgz:70166.got - 2010.06.03 18:56:24.
