data_PCOD9124433
_publ_section_title
;
Structure prediction by ZEFSAII (Michael W. Deem and Ramdas Pophale) SiO2 
 PCOD9124433
Probable space group: C 2
;
_chemical_formula_sum "Si O2"
_cell_formula_units_Z 26
_cell_length_a 24.591190
_cell_length_b 6.170496
_cell_length_c 21.316738
_cell_angle_alpha 90.000000
_cell_angle_beta 23.832755
_cell_angle_gamma 90.000000
_cell_volume 1306.998668
_symmetry_space_group_name_H-M "C 2"
_symmetry_group_IT_number 5
_symmetry_cell_setting 'monoclinic'
loop_
_space_group_symop_operation_xyz
x,y,z
-x,y,-z
1/2+x,1/2+y,z
1/2-x,1/2+y,-z
loop_
_atom_site_type_symbol
_atom_site_label
_atom_site_fract_x
_atom_site_fract_y
_atom_site_fract_z
Si Si1 0.332237 0.002960 0.767576
Si Si2 0.500000 0.295027 0.500000
Si Si3 0.709555 0.242428 0.627637
Si Si4 0.911702 0.388467 0.312237
Si Si5 0.063062 0.994378 0.104325
Si Si6 0.956868 0.118331 0.434756
Si Si7 0.057040 0.762184 0.233921
O O1 0.391546 0.139975 0.647567
O O2 0.353698 0.150919 0.807171
O O3 0.420578 0.785000 0.682710
O O4 0.172788 0.970810 0.934513
O O5 0.442254 0.453735 0.507693
O O6 0.792890 0.271285 0.474984
O O7 0.583577 0.403677 0.760847
O O8 0.820871 0.251048 0.564131
O O9 0.645766 0.004727 0.688617
O O10 0.030933 0.231410 0.165389
O O11 0.962107 0.572137 0.307485
O O12 0.118566 0.855447 0.104980
O O13 0.985774 0.964604 0.343915
#
# Coordination Sequence:
#
# PCOD9124433 Si02
#       7
#     4   2   4   4   4   4   4
#     4  11  24  42  65  93 131 167 222 276 321 383
#     4  10  26  44  70  88 114 180 232 280 320 362
#     4  11  20  34  63  92 131 176 205 257 319 396
#     4  11  19  36  55  98 139 167 206 242 319 408
#     4  11  24  34  61  98 142 166 205 264 330 395
#     4  11  22  43  67  90 123 170 232 267 319 383
#     4  10  21  32  60  95 131 174 199 255 323 389
#
# _framework density 19.892904000000001
#
# number of rings (size 3 to 8) (size 9 to 14) (size 15 to 20)
#    0.000    1.231    4.615    1.385    4.308    3.692 
#    0.000    0.000    0.000   13.846    0.000    0.000 
#    0.000    0.000    0.000    0.000    0.000    0.000 
#
# Total GULP energy -72532.280021 kJ/mol
# GULP energy per Si atom -5579.406155 kJ/mol
# Density = 1.984763 g / cm^3
# Si number density = 19.892904 Si / 1000 Ang^3
#
#
#
# Elastic Constant Matrix: (Units=GPa)
#
#
# Indices 1 2 3 4 5 6 
#
# 1 46.1411 21.8811 45.2885 0.0157 7.9177 0.0025
# 2 21.8811 99.9256 49.4492 0.0411 2.8909 0.0023
# 3 45.2885 49.4492 129.8509 0.0308 5.5257 0.0016
# 4 0.0157 0.0411 0.0308 21.5453 -0.0065 -2.3462
# 5 7.9177 2.8909 5.5257 -0.0065 21.3530 -0.0038
# 6 0.0025 0.0023 0.0016 -2.3462 -0.0038 33.3547
#
#
#
# Elastic Compliance Matrix: (Units=1/GPa)
#
#
# Indices 1 2 3 4 5 6 
#
# 1 0.035203 -0.001916 -0.011127 -0.000010 -0.009915 -0.000004
# 2 -0.001916 0.012440 -0.004073 -0.000017 0.000080 -0.000002
# 3 -0.011127 -0.004073 0.013078 -0.000002 0.001293 0.000000
# 4 -0.000010 -0.000017 -0.000002 0.046772 0.000021 0.003290
# 5 -0.009915 0.000080 0.001293 0.000021 0.050163 0.000008
# 6 -0.000004 -0.000002 0.000000 0.003290 0.000008 0.030212
#
#
# Mechanical properties :
#
#
# Convention : Reuss Voigt Hill
#
# Bulk Modulus (GPa) = 37.74816 56.57283 47.16050
# Shear Modulus (GPa) = 21.65173 25.87052 23.76112
#
# Velocity S-wave (km/s) = 3.30269 3.61014 3.45983
# Velocity P-wave (km/s) = 5.79315 6.77333 6.30232
#
# Compressibility (1/GPa) = 0.02649136
#
# Stress axis : x y z
#
# Youngs Moduli (GPa) = 28.40632 80.38591 76.46613
#
# Poissons Ratio (x) = 0.15400 0.85081
# Poissons Ratio (y) = 0.05442 0.31142
# Poissons Ratio (z) = 0.31606 0.32738
#
# Static dielectric constant tensor:
#      x y z
#    x 1.721570 0.000000 -0.030270 
#    y 0.000000 1.748990 0.000010 
#    z -0.030270 0.000010 1.716270 
# 
# From -- ./inp_files/31427.got.cif
#   From: 2010.05.17/outbox.cif.g08.bks.cpg/sg5_16_cif.got.tgz:31427.got - 2010.06.03 18:56:24.
