data_PCOD9124569
_publ_section_title
;
Structure prediction by ZEFSAII (Michael W. Deem and Ramdas Pophale) SiO2 
 PCOD9124569
Probable space group: C 2
;
_chemical_formula_sum "Si O2"
_cell_formula_units_Z 26
_cell_length_a 9.492041
_cell_length_b 13.558014
_cell_length_c 10.063069
_cell_angle_alpha 90.000000
_cell_angle_beta 78.657241
_cell_angle_gamma 90.000000
_cell_volume 1269.754107
_symmetry_space_group_name_H-M "C 2"
_symmetry_group_IT_number 5
_symmetry_cell_setting 'monoclinic'
loop_
_space_group_symop_operation_xyz
x,y,z
-x,y,-z
1/2+x,1/2+y,z
1/2-x,1/2+y,-z
loop_
_atom_site_type_symbol
_atom_site_label
_atom_site_fract_x
_atom_site_fract_y
_atom_site_fract_z
Si Si1 0.000000 0.114780 0.000000
Si Si2 0.754847 0.055982 0.592505
Si Si3 0.832415 0.281213 0.193524
Si Si4 0.832079 0.937608 0.343969
Si Si5 0.987045 0.410672 0.648955
Si Si6 0.662788 0.241191 0.491248
Si Si7 0.627223 0.456027 0.164103
O O1 0.901902 0.189258 0.104834
O O2 0.108159 0.040836 0.057790
O O3 0.733734 0.171893 0.588540
O O4 0.838439 0.031217 0.440366
O O5 0.599589 0.001066 0.615686
O O6 0.826689 0.011162 0.708617
O O7 0.737173 0.243227 0.334577
O O8 0.734505 0.362011 0.131106
O O9 0.958522 0.343028 0.242232
O O10 0.677726 0.940350 0.302782
O O11 0.835643 0.850237 0.450743
O O12 0.964045 0.921847 0.222174
O O13 0.000000 0.360433 0.500000
O O14 0.500000 0.208312 0.500000
#
# Coordination Sequence:
#
# PCOD9124569 Si02
#       7
#     2   4   4   4   4   4   4
#     4  12  30  44  70  96 136 204 242 262 332 412
#     4  10  21  36  62  99 138 166 218 274 361 411
#     4  11  24  45  67  98 142 177 232 277 335 419
#     4  11  19  38  69 101 132 164 207 290 363 394
#     4   9  18  36  63  99 135 167 201 286 357 396
#     4  12  20  36  70 105 132 162 211 289 360 407
#     4  11  24  48  66  96 136 182 233 288 330 398
#
# _framework density 20.476405
#
# number of rings (size 3 to 8) (size 9 to 14) (size 15 to 20)
#    0.000    1.231    6.154    2.769    2.154    1.231 
#    0.000    1.538    0.000    3.692    0.000    0.000 
#    0.000    0.000    0.000    0.000    0.000    0.000 
#
# Total GULP energy -72542.128614 kJ/mol
# GULP energy per Si atom -5580.163740 kJ/mol
# Density = 2.042980 g / cm^3
# Si number density = 20.476405 Si / 1000 Ang^3
#
#
#
# Elastic Constant Matrix: (Units=GPa)
#
#
# Indices 1 2 3 4 5 6 
#
# 1 97.3767 20.2036 24.5079 0.0000 8.2427 0.0000
# 2 20.2036 82.9283 40.8805 0.0000 6.9981 0.0000
# 3 24.5079 40.8805 58.1986 0.0000 -5.5726 0.0000
# 4 0.0000 0.0000 0.0000 35.2444 0.0000 11.2236
# 5 8.2427 6.9981 -5.5726 0.0000 23.6005 0.0000
# 6 0.0000 0.0000 0.0000 11.2236 0.0000 16.9719
#
#
#
# Elastic Compliance Matrix: (Units=1/GPa)
#
#
# Indices 1 2 3 4 5 6 
#
# 1 0.012179 0.000502 -0.006039 0.000000 -0.005828 0.000000
# 2 0.000502 0.020408 -0.015493 0.000000 -0.009885 0.000000
# 3 -0.006039 -0.015493 0.031973 0.000000 0.014253 0.000000
# 4 0.000000 0.000000 0.000000 0.035943 0.000000 -0.023769
# 5 -0.005828 -0.009885 0.014253 0.000000 0.050704 0.000000
# 6 0.000000 0.000000 0.000000 -0.023769 0.000000 0.074639
#
#
# Mechanical properties :
#
#
# Convention : Reuss Voigt Hill
#
# Bulk Modulus (GPa) = 44.44608 45.52086 44.98347
# Shear Modulus (GPa) = 18.15502 25.35745 21.75623
#
# Velocity S-wave (km/s) = 2.98087 3.52287 3.26314
# Velocity P-wave (km/s) = 5.79660 6.23110 6.01777
#
# Compressibility (1/GPa) = 0.02249917
#
# Stress axis : x y z
#
# Youngs Moduli (GPa) = 82.11165 49.00032 31.27617
#
# Poissons Ratio (x) = -0.02459 0.18888
# Poissons Ratio (y) = -0.04121 0.48456
# Poissons Ratio (z) = 0.49588 0.75917
#
# Static dielectric constant tensor:
#      x y z
#    x 1.778380 0.000000 -0.000860 
#    y 0.000000 1.731410 0.000000 
#    z -0.000860 0.000000 1.727900 
# 
# From -- ./inp_files/35843.got.cif
#   From: 2010.05.17/outbox.cif.g08.bks.cpg/sg5_18_cif.got.tgz:35843.got - 2010.06.03 18:56:24.
