data_PCOD9124413
_publ_section_title
;
Structure prediction by ZEFSAII (Michael W. Deem and Ramdas Pophale) SiO2 
 PCOD9124413
Probable space group: C 2
;
_chemical_formula_sum "Si O2"
_cell_formula_units_Z 14
_cell_length_a 11.194741
_cell_length_b 9.104568
_cell_length_c 7.982566
_cell_angle_alpha 90.000000
_cell_angle_beta 37.946799
_cell_angle_gamma 90.000000
_cell_volume 500.312383
_symmetry_space_group_name_H-M "C 2"
_symmetry_group_IT_number 5
_symmetry_cell_setting 'monoclinic'
loop_
_space_group_symop_operation_xyz
x,y,z
-x,y,-z
1/2+x,1/2+y,z
1/2-x,1/2+y,-z
loop_
_atom_site_type_symbol
_atom_site_label
_atom_site_fract_x
_atom_site_fract_y
_atom_site_fract_z
Si Si1 0.865019 0.556640 0.296282
Si Si2 0.663760 0.818156 0.068038
Si Si3 0.219329 0.033893 0.810342
Si Si4 0.000000 0.983138 0.500000
O O1 0.650311 0.563607 0.456737
O O2 0.836006 0.602123 0.522727
O O3 0.000000 0.625177 0.000000
O O4 0.968423 0.395273 0.210058
O O5 0.849643 0.887349 0.770234
O O6 0.689201 0.883343 0.224453
O O7 0.197814 0.149800 0.985802
O O8 0.000000 0.003288 0.000000
#
# Coordination Sequence:
#
# PCOD9124413 Si02
#       4
#     4   4   4   2
#     4  10  23  48  79 118 161 209 269 328 400 480
#     4  11  26  47  81 120 160 208 270 332 400 481
#     4  12  25  53  86 115 166 211 269 336 403 482
#     4  10  20  46  74 114 152 212 258 318 402 468
#
# _framework density 27.982517999999999
#
# number of rings (size 3 to 8) (size 9 to 14) (size 15 to 20)
#    0.000    1.143    2.857    3.429    4.000    0.000 
#    5.143   11.429    0.000    0.000    0.000    2.000 
#    0.000    0.000    0.000    0.000    0.000    0.000 
#
# Total GULP energy -39144.196938 kJ/mol
# GULP energy per Si atom -5592.028134 kJ/mol
# Density = 2.791883 g / cm^3
# Si number density = 27.982518 Si / 1000 Ang^3
#
#
#
# Elastic Constant Matrix: (Units=GPa)
#
#
# Indices 1 2 3 4 5 6 
#
# 1 171.6608 65.9461 58.5000 0.0000 5.6831 0.0000
# 2 65.9461 139.3343 41.4937 0.0000 2.7885 0.0000
# 3 58.5000 41.4937 215.8658 0.0000 21.3100 0.0000
# 4 0.0000 0.0000 0.0000 27.1418 0.0000 -1.7241
# 5 5.6831 2.7885 21.3100 0.0000 44.8967 0.0000
# 6 0.0000 0.0000 0.0000 -1.7241 0.0000 30.0565
#
#
#
# Elastic Compliance Matrix: (Units=1/GPa)
#
#
# Indices 1 2 3 4 5 6 
#
# 1 0.007517 -0.003131 -0.001428 0.000000 -0.000080 0.000000
# 2 -0.003131 0.008919 -0.000892 0.000000 0.000266 0.000000
# 3 -0.001428 -0.000892 0.005422 0.000000 -0.002337 0.000000
# 4 0.000000 0.000000 0.000000 0.036978 0.000000 0.002121
# 5 -0.000080 0.000266 -0.002337 0.000000 0.023376 0.000000
# 6 0.000000 0.000000 0.000000 0.002121 0.000000 0.033392
#
#
# Mechanical properties :
#
#
# Convention : Reuss Voigt Hill
#
# Bulk Modulus (GPa) = 91.26941 95.41562 93.34251
# Shear Modulus (GPa) = 38.41449 44.48043 41.44746
#
# Velocity S-wave (km/s) = 3.70916 3.99128 3.85280
# Velocity P-wave (km/s) = 7.14361 7.44397 7.29534
#
# Compressibility (1/GPa) = 0.01095657
#
# Stress axis : x y z
#
# Youngs Moduli (GPa) = 133.02336 112.11575 184.44808
#
# Poissons Ratio (x) = 0.35107 0.26330
# Poissons Ratio (y) = 0.41653 0.16455
# Poissons Ratio (z) = 0.18989 0.10002
#
# Static dielectric constant tensor:
#      x y z
#    x 2.205590 0.000000 0.079320 
#    y 0.000000 2.173140 0.000000 
#    z 0.079320 0.000000 2.169970 
# 
# From -- ./inp_files/1781.got.cif
#   From: 2010.05.17/outbox.cif.g08.bks.cpg/sg5_1_cif.got.tgz:1781.got - 2010.06.03 18:56:24.
