data_PCOD9124175
_publ_section_title
;
Structure prediction by ZEFSAII (Michael W. Deem and Ramdas Pophale) SiO2 
 PCOD9124175
Probable space group: C 2
;
_chemical_formula_sum "Si O2"
_cell_formula_units_Z 18
_cell_length_a 15.100230
_cell_length_b 8.365787
_cell_length_c 5.260940
_cell_angle_alpha 90.000000
_cell_angle_beta 102.637915
_cell_angle_gamma 90.000000
_cell_volume 648.488311
_symmetry_space_group_name_H-M "C 2"
_symmetry_group_IT_number 5
_symmetry_cell_setting 'monoclinic'
loop_
_space_group_symop_operation_xyz
x,y,z
-x,y,-z
1/2+x,1/2+y,z
1/2-x,1/2+y,-z
loop_
_atom_site_type_symbol
_atom_site_label
_atom_site_fract_x
_atom_site_fract_y
_atom_site_fract_z
Si Si1 0.807430 0.986450 0.716561
Si Si2 0.166140 0.287585 0.945433
Si Si3 0.500000 0.605726 0.000000
Si Si4 0.106227 0.816024 0.599611
Si Si5 0.605164 0.114946 0.101377
O O1 0.826587 0.962387 0.427318
O O2 0.788040 0.152575 0.846963
O O3 0.730640 0.857648 0.759879
O O4 0.917684 0.993369 0.854047
O O5 0.061754 0.216615 0.846378
O O6 0.151084 0.446351 0.096868
O O7 0.121166 0.738014 0.880704
O O8 0.000000 0.854843 0.500000
O O9 0.124871 0.687452 0.388656
O O10 0.500000 0.081378 0.000000
#
# Coordination Sequence:
#
# PCOD9124175 Si02
#       5
#     4   4   2   4   4
#     4  10  21  42  68 112 145 205 250 317 378 469
#     4  10  20  42  73 106 153 199 260 313 390 461
#     4   8  22  38  72 108 160 194 254 324 390 446
#     4  10  23  39  70 102 147 192 254 306 382 452
#     4  10  20  42  67 104 141 195 247 313 375 452
#
# _framework density 27.756861000000001
#
# number of rings (size 3 to 8) (size 9 to 14) (size 15 to 20)
#    1.333    0.889    1.111    1.333    4.667    0.000 
#    0.000   16.667    0.000    0.000    0.000    0.000 
#    0.000    0.000    0.000    0.000    0.000    0.000 
#
# Total GULP energy -50126.673064 kJ/mol
# GULP energy per Si atom -5569.630340 kJ/mol
# Density = 2.769369 g / cm^3
# Si number density = 27.756861 Si / 1000 Ang^3
#
#
#
# Elastic Constant Matrix: (Units=GPa)
#
#
# Indices 1 2 3 4 5 6 
#
# 1 221.6438 48.8545 54.9152 0.0000 -29.8611 0.0000
# 2 48.8545 132.7907 64.9671 0.0000 -44.0614 0.0000
# 3 54.9152 64.9671 128.6486 0.0000 -23.9875 0.0000
# 4 0.0000 0.0000 0.0000 18.5608 0.0000 -36.6326
# 5 -29.8611 -44.0614 -23.9875 0.0000 64.3696 0.0000
# 6 0.0000 0.0000 0.0000 -36.6326 0.0000 59.2333
#
#
#
# Elastic Compliance Matrix: (Units=1/GPa)
#
#
# Indices 1 2 3 4 5 6 
#
# 1 0.005252 -0.000675 -0.001647 0.000000 0.001361 0.000000
# 2 -0.000675 0.012143 -0.004678 0.000000 0.006256 0.000000
# 3 -0.001647 -0.004678 0.010853 0.000000 0.000078 0.000000
# 4 0.000000 0.000000 0.000000 -0.244234 0.000000 -0.151046
# 5 0.001361 0.006256 0.000078 0.000000 0.020478 0.000000
# 6 0.000000 0.000000 0.000000 -0.151046 0.000000 -0.076531
#
#
# Mechanical properties :
#
#
# Convention : Reuss Voigt Hill
#
# Bulk Modulus (GPa) = 70.18322 91.17296 80.67809
# Shear Modulus (GPa) = -19.74025 49.38916 14.82445
#
# Velocity S-wave (km/s) = -2.66970 4.22281 2.31353
# Velocity P-wave (km/s) = 3.97955 7.52957 6.02210
#
# Compressibility (1/GPa) = 0.01424842
#
# Stress axis : x y z
#
# Youngs Moduli (GPa) = 190.40540 82.35004 92.13878
#
# Poissons Ratio (x) = 0.05557 0.15179
# Poissons Ratio (y) = 0.12848 0.43101
# Poissons Ratio (z) = 0.31367 0.38522
#
# Static dielectric constant tensor:
#      x y z
#    x 2.209690 0.000000 0.014770 
#    y 0.000000 2.245200 0.000000 
#    z 0.014770 0.000000 2.226760 
# 
# From -- ./inp_files/8002.got.cif
#   From: 2010.05.17/outbox.cif.g08.bks.cpg/sg5_5_cif.got.tgz:8002.got - 2010.06.03 18:56:24.
