data_PCOD9124355
_publ_section_title
;
Structure prediction by ZEFSAII (Michael W. Deem and Ramdas Pophale) SiO2 
 PCOD9124355
Probable space group: C 2
;
_chemical_formula_sum "Si O2"
_cell_formula_units_Z 20
_cell_length_a 17.022085
_cell_length_b 4.790830
_cell_length_c 11.515346
_cell_angle_alpha 90.000000
_cell_angle_beta 137.654300
_cell_angle_gamma 90.000000
_cell_volume 632.563356
_symmetry_space_group_name_H-M "C 2"
_symmetry_group_IT_number 5
_symmetry_cell_setting 'monoclinic'
loop_
_space_group_symop_operation_xyz
x,y,z
-x,y,-z
1/2+x,1/2+y,z
1/2-x,1/2+y,-z
loop_
_atom_site_type_symbol
_atom_site_label
_atom_site_fract_x
_atom_site_fract_y
_atom_site_fract_z
Si Si1 0.247124 0.800690 0.709216
Si Si2 0.500000 0.523211 0.000000
Si Si3 0.962091 0.050719 0.209216
Si Si4 0.737771 0.057356 0.033708
Si Si5 0.000000 0.773211 0.500000
Si Si6 0.295936 0.807331 0.533707
O O1 0.380479 0.695414 0.885630
O O2 0.250526 0.038051 0.599059
O O3 0.128636 0.636817 0.634000
O O4 0.243602 0.040208 0.810164
O O5 0.494634 0.386826 0.865995
O O6 0.848536 0.288084 0.099067
O O7 0.066563 0.290221 0.310166
O O8 0.005147 0.945422 0.385626
O O9 0.837935 0.833279 0.082200
O O10 0.244271 0.583245 0.582211
#
# Coordination Sequence:
#
# PCOD9124355 Si02
#       6
#     4   2   4   4   2   4
#     4  10  22  44  72 108 146 196 244 310 370 446
#     4  10  20  44  70 108 144 196 246 306 370 444
#     4  10  22  44  72 108 146 196 244 310 370 446
#     4  11  24  45  70 105 145 192 244 307 364 445
#     4  10  20  44  70 108 144 196 246 306 370 444
#     4  11  24  45  70 105 145 192 244 307 364 445
#
# _framework density 31.617386
#
# number of rings (size 3 to 8) (size 9 to 14) (size 15 to 20)
#    0.000    1.600    4.000    0.000    0.000    3.200 
#    0.000    0.000    0.000    0.000    0.000    0.000 
#    0.000    0.000    0.000    0.000    0.000    0.000 
#
# Total GULP energy -55831.616214 kJ/mol
# GULP energy per Si atom -5583.161621 kJ/mol
# Density = 3.154542 g / cm^3
# Si number density = 31.617386 Si / 1000 Ang^3
#
#
#
# Elastic Constant Matrix: (Units=GPa)
#
#
# Indices 1 2 3 4 5 6 
#
# 1 347.8107 80.0538 114.0351 -0.0001 2.8929 -0.0001
# 2 80.0538 340.6637 96.1760 0.0012 1.2079 0.0010
# 3 114.0351 96.1760 174.8086 0.0000 -15.7532 0.0002
# 4 -0.0001 0.0012 0.0000 66.0747 0.0003 0.1766
# 5 2.8929 1.2079 -15.7532 0.0003 134.9473 0.0001
# 6 -0.0001 0.0010 0.0002 0.1766 0.0001 63.6468
#
#
#
# Elastic Compliance Matrix: (Units=1/GPa)
#
#
# Indices 1 2 3 4 5 6 
#
# 1 0.003687 -0.000210 -0.002321 0.000000 -0.000348 0.000000
# 2 -0.000210 0.003496 -0.001808 0.000000 -0.000238 0.000000
# 3 -0.002321 -0.001808 0.008323 0.000000 0.001038 0.000000
# 4 0.000000 0.000000 0.000000 0.015134 0.000000 -0.000042
# 5 -0.000348 -0.000238 0.001038 0.000000 0.007541 0.000000
# 6 0.000000 0.000000 0.000000 -0.000042 0.000000 0.015712
#
#
# Mechanical properties :
#
#
# Convention : Reuss Voigt Hill
#
# Bulk Modulus (GPa) = 146.45371 160.42364 153.43867
# Shear Modulus (GPa) = 77.10303 91.13496 84.11899
#
# Velocity S-wave (km/s) = 4.94360 5.37465 5.16363
# Velocity P-wave (km/s) = 8.88858 9.45331 9.17529
#
# Compressibility (1/GPa) = 0.00682810
#
# Stress axis : x y z
#
# Youngs Moduli (GPa) = 271.19166 286.03819 120.14835
#
# Poissons Ratio (x) = 0.06005 0.27891
# Poissons Ratio (y) = 0.05693 0.21722
# Poissons Ratio (z) = 0.62953 0.51714
#
# Static dielectric constant tensor:
#      x y z
#    x 2.414650 0.000000 -0.007250 
#    y 0.000000 2.330650 0.000000 
#    z -0.007250 0.000000 2.317140 
# 
# From -- ./inp_files/43705.got.cif
#   From: 2010.05.17/outbox.cif.g08.bks.cpg/sg5_22_cif.got.tgz:43705.got - 2010.06.03 18:56:24.
