data_PCOD9124226
_publ_section_title
;
Structure prediction by ZEFSAII (Michael W. Deem and Ramdas Pophale) SiO2 
 PCOD9124226
Probable space group: C 2
;
_chemical_formula_sum "Si O2"
_cell_formula_units_Z 18
_cell_length_a 16.412030
_cell_length_b 8.096323
_cell_length_c 10.940934
_cell_angle_alpha 90.000000
_cell_angle_beta 34.687104
_cell_angle_gamma 90.000000
_cell_volume 827.349267
_symmetry_space_group_name_H-M "C 2"
_symmetry_group_IT_number 5
_symmetry_cell_setting 'monoclinic'
loop_
_space_group_symop_operation_xyz
x,y,z
-x,y,-z
1/2+x,1/2+y,z
1/2-x,1/2+y,-z
loop_
_atom_site_type_symbol
_atom_site_label
_atom_site_fract_x
_atom_site_fract_y
_atom_site_fract_z
Si Si1 0.000000 0.433200 0.500000
Si Si2 0.111080 0.204139 0.161423
Si Si3 0.662567 0.900899 0.521534
Si Si4 0.151111 0.891836 0.262114
Si Si5 0.332678 0.096182 0.238673
O O1 0.106936 0.312163 0.292157
O O2 0.091345 0.507036 0.498739
O O3 0.964338 0.271415 0.284023
O O4 0.113644 0.015990 0.197473
O O5 0.246796 0.249998 0.913766
O O6 0.785910 0.785904 0.314889
O O7 0.697306 0.008189 0.595014
O O8 0.000000 0.835093 0.500000
O O9 0.239084 0.001164 0.252036
O O10 0.500000 0.083486 0.000000
#
# Coordination Sequence:
#
# PCOD9124226 Si02
#       5
#     2   4   4   4   4
#     4   8  16  44  62  80 128 172 192 260 314 366
#     4  10  20  42  70  87 127 173 206 268 309 378
#     4  10  21  41  67  89 133 167 207 263 325 364
#     4  12  22  44  69  91 131 171 216 259 324 375
#     4  12  22  42  65  95 131 167 204 274 315 372
#
# _framework density 21.756229999999999
#
# number of rings (size 3 to 8) (size 9 to 14) (size 15 to 20)
#    1.333    0.000    7.778    0.000    0.000    1.778 
#    6.000    1.111    0.000    0.000    0.000    0.000 
#    0.000    0.000    0.000    0.000    0.000    0.000 
#
# Total GULP energy -50199.456895 kJ/mol
# GULP energy per Si atom -5577.717433 kJ/mol
# Density = 2.170671 g / cm^3
# Si number density = 21.756230 Si / 1000 Ang^3
#
#
#
# Elastic Constant Matrix: (Units=GPa)
#
#
# Indices 1 2 3 4 5 6 
#
# 1 69.6903 29.5010 21.6135 0.0000 -2.8022 0.0000
# 2 29.5010 52.3530 18.2823 0.0000 4.7907 0.0000
# 3 21.6135 18.2823 151.0718 0.0000 -9.0055 0.0000
# 4 0.0000 0.0000 0.0000 21.9646 0.0000 6.3770
# 5 -2.8022 4.7907 -9.0055 0.0000 30.4243 0.0000
# 6 0.0000 0.0000 0.0000 6.3770 0.0000 30.0456
#
#
#
# Elastic Compliance Matrix: (Units=1/GPa)
#
#
# Indices 1 2 3 4 5 6 
#
# 1 0.019442 -0.010789 -0.001291 0.000000 0.003108 0.000000
# 2 -0.010789 0.026402 -0.001994 0.000000 -0.005741 0.000000
# 3 -0.001291 -0.001994 0.007184 0.000000 0.002321 0.000000
# 4 0.000000 0.000000 0.000000 0.048517 0.000000 -0.010298
# 5 0.003108 -0.005741 0.002321 0.000000 0.034746 0.000000
# 6 0.000000 0.000000 0.000000 -0.010298 0.000000 0.035468
#
#
# Mechanical properties :
#
#
# Convention : Reuss Voigt Hill
#
# Bulk Modulus (GPa) = 40.19166 45.76763 42.97965
# Shear Modulus (GPa) = 24.01539 30.06811 27.04175
#
# Velocity S-wave (km/s) = 3.32601 3.72162 3.52936
# Velocity P-wave (km/s) = 5.76746 6.28884 6.03378
#
# Compressibility (1/GPa) = 0.02488078
#
# Stress axis : x y z
#
# Youngs Moduli (GPa) = 51.43617 37.87532 139.20447
#
# Poissons Ratio (x) = 0.40864 0.17965
# Poissons Ratio (y) = 0.55495 0.27755
# Poissons Ratio (z) = 0.06638 0.07552
#
# Static dielectric constant tensor:
#      x y z
#    x 1.772010 0.000000 -0.004710 
#    y 0.000000 1.784880 0.000000 
#    z -0.004710 0.000000 1.781030 
# 
# From -- ./inp_files/44275.got.cif
#   From: 2010.05.17/outbox.cif.g08.bks.cpg/sg5_23_cif.got.tgz:44275.got - 2010.06.03 18:56:24.
