data_PCOD9124449
_publ_section_title
;
Structure prediction by ZEFSAII (Michael W. Deem and Ramdas Pophale) SiO2 
 PCOD9124449
Probable space group: C 2
;
_chemical_formula_sum "Si O2"
_cell_formula_units_Z 30
_cell_length_a 13.780353
_cell_length_b 25.534205
_cell_length_c 5.100379
_cell_angle_alpha 90.000000
_cell_angle_beta 65.926538
_cell_angle_gamma 90.000000
_cell_volume 1638.577358
_symmetry_space_group_name_H-M "C 2"
_symmetry_group_IT_number 5
_symmetry_cell_setting 'monoclinic'
loop_
_space_group_symop_operation_xyz
x,y,z
-x,y,-z
1/2+x,1/2+y,z
1/2-x,1/2+y,-z
loop_
_atom_site_type_symbol
_atom_site_label
_atom_site_fract_x
_atom_site_fract_y
_atom_site_fract_z
Si Si1 0.071099 0.663230 0.181181
Si Si2 0.114094 0.773377 0.023025
Si Si3 0.783653 0.499086 0.237680
Si Si4 0.900186 0.941001 0.261344
Si Si5 0.500000 0.349941 0.500000
Si Si6 0.237391 0.360761 0.316804
Si Si7 0.882401 0.387931 0.050762
Si Si8 0.374001 0.052082 0.643623
O O1 0.143255 0.712959 0.032225
O O2 0.121559 0.611607 0.253565
O O3 0.000000 0.684789 0.500000
O O4 0.000000 0.649910 0.000000
O O5 0.089042 0.810591 0.297016
O O6 0.203036 0.806446 0.782413
O O7 0.000000 0.772425 0.000000
O O8 0.669105 0.477372 0.466457
O O9 0.861674 0.449219 0.130359
O O10 0.828339 0.539520 0.406488
O O11 0.796936 0.523367 0.935487
O O12 0.814067 0.911171 0.175046
O O13 0.951819 0.890365 0.345303
O O14 0.000000 0.966605 0.000000
O O15 0.198708 0.362925 0.655225
O O16 0.144164 0.370343 0.212417
O O17 0.000000 0.373783 0.000000
O O18 0.500000 0.035454 0.500000
#
# Coordination Sequence:
#
# PCOD9124449 Si02
#       8
#     4   4   4   4   2   4   4   4
#     4  10  21  34  55  82 110 144 183 227 289 346
#     4  11  20  32  54  86 118 151 173 219 292 354
#     4  11  23  35  55  78 106 150 189 221 285 319
#     4  11  23  33  54  84 119 154 181 230 271 359
#     4  12  18  34  54  78 132 144 178 216 282 340
#     4  11  21  35  55  81 113 148 186 218 285 335
#     4  11  23  37  53  78 110 149 195 235 262 329
#     4  11  21  38  55  77 108 144 188 242 272 320
#
# _framework density 18.308564000000001
#
# number of rings (size 3 to 8) (size 9 to 14) (size 15 to 20)
#    0.000    1.067    3.333    6.400    1.867    0.000 
#    0.000    0.000    0.000    0.000    0.000    5.600 
#    0.000    0.000    0.000    0.000    0.000    0.000 
#
# Total GULP energy -83630.462435 kJ/mol
# GULP energy per Si atom -5575.364162 kJ/mol
# Density = 1.826689 g / cm^3
# Si number density = 18.308564 Si / 1000 Ang^3
#
#
#
# Elastic Constant Matrix: (Units=GPa)
#
#
# Indices 1 2 3 4 5 6 
#
# 1 51.2541 0.3925 -5.2648 0.0000 5.2333 0.0000
# 2 0.3925 84.8985 9.3506 0.0000 -2.8980 0.0000
# 3 -5.2648 9.3506 48.4149 0.0000 0.0161 0.0000
# 4 0.0000 0.0000 0.0000 16.9112 0.0000 -1.1331
# 5 5.2333 -2.8980 0.0161 0.0000 36.0783 0.0000
# 6 0.0000 0.0000 0.0000 -1.1331 0.0000 9.9891
#
#
#
# Elastic Compliance Matrix: (Units=1/GPa)
#
#
# Indices 1 2 3 4 5 6 
#
# 1 0.020047 -0.000443 0.002267 0.000000 -0.002945 0.000000
# 2 -0.000443 0.012078 -0.002381 0.000000 0.001036 0.000000
# 3 0.002267 -0.002381 0.021361 0.000000 -0.000530 0.000000
# 4 0.000000 0.000000 0.000000 0.059585 0.000000 0.006759
# 5 -0.002945 0.001036 -0.000530 0.000000 0.028228 0.000000
# 6 0.000000 0.000000 0.000000 0.006759 0.000000 0.100876
#
#
# Mechanical properties :
#
#
# Convention : Reuss Voigt Hill
#
# Bulk Modulus (GPa) = 19.09410 21.50268 20.29839
# Shear Modulus (GPa) = 19.17554 24.60167 21.88860
#
# Velocity S-wave (km/s) = 3.23980 3.66966 3.46141
# Velocity P-wave (km/s) = 4.94436 5.45209 5.20442
#
# Compressibility (1/GPa) = 0.05237219
#
# Stress axis : x y z
#
# Youngs Moduli (GPa) = 49.88155 82.79223 46.81347
#
# Poissons Ratio (x) = 0.03666 -0.10610
# Poissons Ratio (y) = 0.02209 0.11148
# Poissons Ratio (z) = -0.11306 0.19715
#
# Static dielectric constant tensor:
#      x y z
#    x 1.691930 0.000000 0.004090 
#    y 0.000000 1.646320 0.000000 
#    z 0.004090 0.000000 1.726490 
# 
# From -- ./inp_files/7670.got.cif
#   From: 2010.05.17/outbox.cif.g08.bks.cpg/sg5_4_cif.got.tgz:7670.got - 2010.06.03 18:56:24.
