data_PCOD9124163
_publ_section_title
;
Structure prediction by ZEFSAII (Michael W. Deem and Ramdas Pophale) SiO2 
 PCOD9124163
Probable space group: C 2
;
_chemical_formula_sum "Si O2"
_cell_formula_units_Z 24
_cell_length_a 10.054407
_cell_length_b 13.474919
_cell_length_c 13.572041
_cell_angle_alpha 90.000000
_cell_angle_beta 33.929333
_cell_angle_gamma 90.000000
_cell_volume 1026.347083
_symmetry_space_group_name_H-M "C 2"
_symmetry_group_IT_number 5
_symmetry_cell_setting 'monoclinic'
loop_
_space_group_symop_operation_xyz
x,y,z
-x,y,-z
1/2+x,1/2+y,z
1/2-x,1/2+y,-z
loop_
_atom_site_type_symbol
_atom_site_label
_atom_site_fract_x
_atom_site_fract_y
_atom_site_fract_z
Si Si1 0.428730 0.209690 0.334915
Si Si2 0.500000 0.466566 0.000000
Si Si3 0.368581 0.780253 0.177128
Si Si4 0.500000 0.423656 0.500000
Si Si5 0.765758 0.897414 0.331323
Si Si6 0.247627 0.116007 0.000326
Si Si7 0.059580 0.066176 0.647543
O O1 0.658094 0.208511 0.265392
O O2 0.411917 0.322563 0.309571
O O3 0.199791 0.164329 0.528202
O O4 0.494586 0.147493 0.196455
O O5 0.348832 0.401312 0.168179
O O6 0.657780 0.534694 0.975845
O O7 0.572001 0.711466 0.098813
O O8 0.230531 0.855771 0.332753
O O9 0.500000 0.826735 0.000000
O O10 0.545032 0.493828 0.564565
O O11 0.500000 0.860053 0.500000
O O12 0.786736 0.006994 0.364645
O O13 0.193863 0.080282 0.143137
#
# Coordination Sequence:
#
# PCOD9124163 Si02
#       7
#     4   2   4   2   4   4   4
#     4  11  22  44  64  94 129 171 210 263 323 374
#     4  10  20  42  66  94 124 162 220 270 308 374
#     4  10  21  41  69  93 121 167 220 268 311 371
#     4  12  24  44  60  98 134 168 210 266 324 384
#     4  11  25  42  66  97 131 169 214 262 320 383
#     4  10  21  42  69  94 123 168 220 266 314 375
#     4  11  26  40  68  93 131 171 216 260 321 380
#
# _framework density 23.383901999999999
#
# number of rings (size 3 to 8) (size 9 to 14) (size 15 to 20)
#    0.000    1.333    4.167    2.000    3.500    2.667 
#    6.000    0.000    0.000    0.000    0.000    0.000 
#    0.000    0.000    0.000    0.000    0.000    0.000 
#
# Total GULP energy -67091.014931 kJ/mol
# GULP energy per Si atom -5590.917911 kJ/mol
# Density = 2.333068 g / cm^3
# Si number density = 23.383902 Si / 1000 Ang^3
#
#
#
# Elastic Constant Matrix: (Units=GPa)
#
#
# Indices 1 2 3 4 5 6 
#
# 1 34.8315 5.1088 30.7869 -0.0014 24.8165 0.0001
# 2 5.1088 63.0086 38.1454 -0.0008 22.5785 0.0011
# 3 30.7869 38.1454 124.2719 -0.0083 43.8014 0.0021
# 4 -0.0014 -0.0008 -0.0083 131.3272 0.0023 30.6200
# 5 24.8165 22.5785 43.8014 0.0023 39.4749 -0.0010
# 6 0.0001 0.0011 0.0021 30.6200 -0.0010 22.5080
#
#
#
# Elastic Compliance Matrix: (Units=1/GPa)
#
#
# Indices 1 2 3 4 5 6 
#
# 1 0.058328 0.011766 -0.004541 0.000002 -0.038359 -0.000005
# 2 0.011766 0.023281 -0.004533 0.000001 -0.015682 -0.000003
# 3 -0.004541 -0.004533 0.014195 0.000002 -0.010303 -0.000004
# 4 0.000002 0.000001 0.000002 0.011152 -0.000005 -0.015171
# 5 -0.038359 -0.015682 -0.010303 -0.000005 0.069849 0.000012
# 6 -0.000005 -0.000003 -0.000004 -0.015171 0.000012 0.065067
#
#
# Mechanical properties :
#
#
# Convention : Reuss Voigt Hill
#
# Bulk Modulus (GPa) = 9.88281 41.13269 25.50775
# Shear Modulus (GPa) = 18.50351 48.53342 33.51847
#
# Velocity S-wave (km/s) = 2.81604 4.56071 3.79013
# Velocity P-wave (km/s) = 3.84824 6.73512 5.48502
#
# Compressibility (1/GPa) = 0.10118582
#
# Stress axis : x y z
#
# Youngs Moduli (GPa) = 17.14443 42.95329 70.44862
#
# Poissons Ratio (x) = -0.50538 0.31993
# Poissons Ratio (y) = -0.20172 0.31938
# Poissons Ratio (z) = 0.07786 0.19473
#
# Static dielectric constant tensor:
#      x y z
#    x 1.865410 0.000000 0.006530 
#    y 0.000000 1.893890 0.000000 
#    z 0.006530 0.000000 1.895910 
# 
# From -- ./inp_files/19389.got.cif
#   From: 2010.05.17/outbox.cif.g08.bks.cpg/sg5_10_cif.got.tgz:19389.got - 2010.06.03 18:56:24.
