data_PCOD9124836
_publ_section_title
;
Structure prediction by ZEFSAII (Michael W. Deem and Ramdas Pophale) SiO2 
 PCOD9124836
Probable space group: C 2
;
_chemical_formula_sum "Si O2"
_cell_formula_units_Z 24
_cell_length_a 25.150830
_cell_length_b 4.930103
_cell_length_c 25.960356
_cell_angle_alpha 90.000000
_cell_angle_beta 161.650391
_cell_angle_gamma 90.000000
_cell_volume 1013.382808
_symmetry_space_group_name_H-M "C 2"
_symmetry_group_IT_number 5
_symmetry_cell_setting 'monoclinic'
loop_
_space_group_symop_operation_xyz
x,y,z
-x,y,-z
1/2+x,1/2+y,z
1/2-x,1/2+y,-z
loop_
_atom_site_type_symbol
_atom_site_label
_atom_site_fract_x
_atom_site_fract_y
_atom_site_fract_z
Si Si1 0.985117 0.468380 0.426123
Si Si2 0.023010 0.722799 0.802838
Si Si3 0.338717 0.189022 0.737462
Si Si4 0.844325 0.992558 0.244897
Si Si5 0.991491 0.207660 0.930567
Si Si6 0.086364 0.223357 0.801211
O O1 0.154771 0.316790 0.565878
O O2 0.000000 0.521594 0.500000
O O3 0.838524 0.248216 0.278566
O O4 0.953560 0.747558 0.368028
O O5 0.019329 0.521550 0.750933
O O6 0.991490 0.022541 0.753000
O O7 0.215247 0.717138 0.000940
O O8 0.905663 0.635558 0.741689
O O9 0.347694 0.918157 0.779916
O O10 0.457027 0.420095 0.872351
O O11 0.918595 0.115520 0.260903
O O12 0.662977 0.852812 0.069259
O O13 0.000000 0.184199 0.000000
#
# Coordination Sequence:
#
# PCOD9124836 Si02
#       6
#     4   4   4   4   4   4
#     4  12  26  45  66  97 144 186 216 270 348 407
#     4  10  21  38  65  98 130 165 218 276 336 386
#     4  12  24  43  67  99 135 181 223 275 343 395
#     4  12  24  43  69  99 133 180 229 276 332 400
#     4  12  24  41  68 101 132 171 236 288 320 391
#     4  10  21  38  65 100 126 167 218 279 331 385
#
# _framework density 23.683053000000001
#
# number of rings (size 3 to 8) (size 9 to 14) (size 15 to 20)
#    0.000    0.667    1.667    7.000    4.667    0.000 
#    0.000    3.333    0.000    0.000    0.000    0.000 
#    0.000    0.000    0.000    0.000    0.000    0.000 
#
# Total GULP energy -67268.538418 kJ/mol
# GULP energy per Si atom -5605.711535 kJ/mol
# Density = 2.362915 g / cm^3
# Si number density = 23.683053 Si / 1000 Ang^3
#
#
#
# Elastic Constant Matrix: (Units=GPa)
#
#
# Indices 1 2 3 4 5 6 
#
# 1 84.9156 15.9987 9.9746 0.0001 0.5966 -0.0002
# 2 15.9987 110.1150 15.8025 -0.0031 -11.6342 0.0160
# 3 9.9746 15.8025 50.4567 0.0035 -3.1839 0.0014
# 4 0.0001 -0.0031 0.0035 35.9418 -0.0008 -15.5732
# 5 0.5966 -11.6342 -3.1839 -0.0008 29.3495 0.0024
# 6 -0.0002 0.0160 0.0014 -15.5732 0.0024 44.7870
#
#
#
# Elastic Compliance Matrix: (Units=1/GPa)
#
#
# Indices 1 2 3 4 5 6 
#
# 1 0.012324 -0.001621 -0.001999 0.000000 -0.001110 0.000001
# 2 -0.001621 0.010086 -0.002602 0.000000 0.003749 -0.000004
# 3 -0.001999 -0.002602 0.021111 -0.000003 0.001299 -0.000001
# 4 0.000000 0.000000 -0.000003 0.032758 -0.000001 0.011391
# 5 -0.001110 0.003749 0.001299 -0.000001 0.035722 -0.000003
# 6 0.000001 -0.000004 -0.000001 0.011391 -0.000003 0.026289
#
#
# Mechanical properties :
#
#
# Convention : Reuss Voigt Hill
#
# Bulk Modulus (GPa) = 32.17669 36.55989 34.36829
# Shear Modulus (GPa) = 31.03791 35.59641 33.31716
#
# Velocity S-wave (km/s) = 3.62408 3.88110 3.75479
# Velocity P-wave (km/s) = 5.57923 5.96277 5.77419
#
# Compressibility (1/GPa) = 0.03107839
#
# Stress axis : x y z
#
# Youngs Moduli (GPa) = 81.13985 99.14299 47.36872
#
# Poissons Ratio (x) = 0.16072 0.09468
# Poissons Ratio (y) = 0.13153 0.12325
# Poissons Ratio (z) = 0.16217 0.25796
#
# Static dielectric constant tensor:
#      x y z
#    x 1.842110 -0.000010 -0.009380 
#    y -0.000010 1.847620 0.000000 
#    z -0.009380 0.000000 1.957210 
# 
# From -- ./inp_files/71190.got.cif
#   From: 2010.05.17/outbox.cif.g08.bks.cpg/sg5_36_cif.got.tgz:71190.got - 2010.06.03 18:56:24.
