data_PCOD9124401
_publ_section_title
;
Structure prediction by ZEFSAII (Michael W. Deem and Ramdas Pophale) SiO2 
 PCOD9124401
Probable space group: C 2
;
_chemical_formula_sum "Si O2"
_cell_formula_units_Z 24
_cell_length_a 6.620859
_cell_length_b 15.068238
_cell_length_c 11.360005
_cell_angle_alpha 90.000000
_cell_angle_beta 70.648692
_cell_angle_gamma 90.000000
_cell_volume 1069.299477
_symmetry_space_group_name_H-M "C 2"
_symmetry_group_IT_number 5
_symmetry_cell_setting 'monoclinic'
loop_
_space_group_symop_operation_xyz
x,y,z
-x,y,-z
1/2+x,1/2+y,z
1/2-x,1/2+y,-z
loop_
_atom_site_type_symbol
_atom_site_label
_atom_site_fract_x
_atom_site_fract_y
_atom_site_fract_z
Si Si1 0.948048 0.593420 0.254457
Si Si2 0.278408 0.258686 0.746313
Si Si3 0.551558 0.687720 0.363041
Si Si4 0.780498 0.962305 0.087503
Si Si5 0.000000 0.335930 0.000000
Si Si6 0.500000 0.004233 0.500000
Si Si7 0.824698 0.869668 0.332009
O O1 0.704288 0.616907 0.269273
O O2 0.073664 0.685831 0.221306
O O3 0.078148 0.525028 0.150655
O O4 0.963659 0.559789 0.387214
O O5 0.434466 0.339794 0.682460
O O6 0.166494 0.212678 0.657923
O O7 0.088264 0.283976 0.870822
O O8 0.500000 0.649599 0.500000
O O9 0.681377 0.779897 0.356440
O O10 0.700003 0.893074 0.006325
O O11 0.824496 0.911900 0.201710
O O12 0.000000 0.006072 0.000000
O O13 0.704439 0.940283 0.437590
#
# Coordination Sequence:
#
# PCOD9124401 Si02
#       7
#     4   4   4   4   2   2   4
#     4  10  25  43  66 100 140 176 223 280 351 403
#     4  11  24  43  69 100 132 186 229 278 344 406
#     4  11  22  43  67 102 135 176 224 282 338 419
#     4  11  23  44  66  99 136 177 228 289 336 406
#     4  12  24  42  70  98 132 184 234 282 340 404
#     4  10  20  46  68 102 144 178 224 286 342 410
#     4  10  21  41  70  98 132 174 231 280 334 405
#
# _framework density 22.444599
#
# number of rings (size 3 to 8) (size 9 to 14) (size 15 to 20)
#    0.000    1.333    4.167    1.000    1.167    3.333 
#    3.000    1.667    0.000    0.000    0.000    0.000 
#    0.000    0.000    0.000    0.000    0.000    0.000 
#
# Total GULP energy -67095.714904 kJ/mol
# GULP energy per Si atom -5591.309575 kJ/mol
# Density = 2.239351 g / cm^3
# Si number density = 22.444599 Si / 1000 Ang^3
#
#
#
# Elastic Constant Matrix: (Units=GPa)
#
#
# Indices 1 2 3 4 5 6 
#
# 1 93.5625 7.0133 13.1783 0.0000 -14.7725 0.0000
# 2 7.0133 46.4351 6.3928 0.0000 -17.2477 0.0000
# 3 13.1783 6.3928 66.8037 0.0000 -18.4032 0.0000
# 4 0.0000 0.0000 0.0000 0.5750 0.0000 -26.5652
# 5 -14.7725 -17.2477 -18.4032 0.0000 31.6716 0.0000
# 6 0.0000 0.0000 0.0000 -26.5652 0.0000 39.9307
#
#
#
# Elastic Compliance Matrix: (Units=1/GPa)
#
#
# Indices 1 2 3 4 5 6 
#
# 1 0.011590 0.000231 -0.000934 0.000000 0.004989 0.000000
# 2 0.000231 0.027173 0.001739 0.000000 0.015916 0.000000
# 3 -0.000934 0.001739 0.018011 0.000000 0.010977 0.000000
# 4 0.000000 0.000000 0.000000 -0.058485 0.000000 -0.038909
# 5 0.004989 0.015916 0.010977 0.000000 0.048947 0.000000
# 6 0.000000 0.000000 0.000000 -0.038909 0.000000 -0.000842
#
#
# Mechanical properties :
#
#
# Convention : Reuss Voigt Hill
#
# Bulk Modulus (GPa) = 16.99369 28.88556 22.93962
# Shear Modulus (GPa) = 78.20237 26.44992 52.32614
#
# Velocity S-wave (km/s) = 5.90915 3.43659 4.83364
# Velocity P-wave (km/s) = 7.35834 5.35205 6.43388
#
# Compressibility (1/GPa) = 0.05884538
#
# Stress axis : x y z
#
# Youngs Moduli (GPa) = 86.28129 36.80140 55.52158
#
# Poissons Ratio (x) = -0.00851 0.05186
# Poissons Ratio (y) = -0.01995 -0.09653
# Poissons Ratio (z) = 0.08059 -0.06398
#
# Static dielectric constant tensor:
#      x y z
#    x 1.871070 0.000000 -0.018910 
#    y 0.000000 1.825530 0.000000 
#    z -0.018910 0.000000 1.810040 
# 
# From -- ./inp_files/33494.got.cif
#   From: 2010.05.17/outbox.cif.g08.bks.cpg/sg5_17_cif.got.tgz:33494.got - 2010.06.03 18:56:24.
