data_PCOD9124258
_publ_section_title
;
Structure prediction by ZEFSAII (Michael W. Deem and Ramdas Pophale) SiO2 
 PCOD9124258
Probable space group: C 2
;
_chemical_formula_sum "Si O2"
_cell_formula_units_Z 18
_cell_length_a 5.341541
_cell_length_b 25.129185
_cell_length_c 5.283344
_cell_angle_alpha 90.000000
_cell_angle_beta 88.528549
_cell_angle_gamma 90.000000
_cell_volume 708.941866
_symmetry_space_group_name_H-M "C 2"
_symmetry_group_IT_number 5
_symmetry_cell_setting 'monoclinic'
loop_
_space_group_symop_operation_xyz
x,y,z
-x,y,-z
1/2+x,1/2+y,z
1/2-x,1/2+y,-z
loop_
_atom_site_type_symbol
_atom_site_label
_atom_site_fract_x
_atom_site_fract_y
_atom_site_fract_z
Si Si1 0.748756 0.522350 0.853614
Si Si2 0.837895 0.173562 0.765782
Si Si3 0.745044 0.289583 0.671923
Si Si4 0.500000 0.096174 0.500000
Si Si5 0.254508 0.404090 0.329925
O O1 0.739871 0.458775 0.820504
O O2 0.784731 0.556087 0.598715
O O3 0.500000 0.538473 0.000000
O O4 0.000000 0.533668 0.000000
O O5 0.754245 0.234444 0.820874
O O6 0.606388 0.135569 0.709984
O O7 0.000000 0.173593 0.500000
O O8 0.000000 0.156293 0.000000
O O9 0.500000 0.287159 0.500000
O O10 0.741784 0.346899 0.810489
O O11 0.000000 0.290513 0.500000
O O12 0.500000 0.404739 0.500000
O O13 0.000000 0.406083 0.500000
#
# Coordination Sequence:
#
# PCOD9124258 Si02
#       5
#     4   4   4   2   4
#     4  12  29  47  76 113 152 209 268 327 399 475
#     4  11  27  49  79 115 159 211 271 331 406 478
#     4   9  19  42  73 110 152 200 253 326 396 477
#     4  12  30  50  76 110 166 210 274 332 396 482
#     4  10  20  42  74 107 155 198 253 324 400 471
#
# _framework density 25.389952000000001
#
# number of rings (size 3 to 8) (size 9 to 14) (size 15 to 20)
#    0.000    1.333    2.222    1.333    6.222    0.889 
#    0.000    4.444    0.000    0.000    0.000    0.000 
#    0.000    0.000    0.000    0.000    0.000    0.000 
#
# Total GULP energy -50436.673841 kJ/mol
# GULP energy per Si atom -5604.074871 kJ/mol
# Density = 2.533216 g / cm^3
# Si number density = 25.389952 Si / 1000 Ang^3
#
#
#
# Elastic Constant Matrix: (Units=GPa)
#
#
# Indices 1 2 3 4 5 6 
#
# 1 194.0290 39.6545 51.9225 0.0000 -3.2831 0.0000
# 2 39.6545 250.9974 40.3651 0.0000 2.1631 0.0000
# 3 51.9225 40.3651 83.4453 0.0000 -4.3100 0.0000
# 4 0.0000 0.0000 0.0000 39.4182 0.0000 54.8256
# 5 -3.2831 2.1631 -4.3100 0.0000 60.6465 0.0000
# 6 0.0000 0.0000 0.0000 54.8256 0.0000 39.3970
#
#
#
# Elastic Compliance Matrix: (Units=1/GPa)
#
#
# Indices 1 2 3 4 5 6 
#
# 1 0.006219 -0.000392 -0.003675 0.000000 0.000089 0.000000
# 2 -0.000392 0.004351 -0.001876 0.000000 -0.000310 0.000000
# 3 -0.003675 -0.001876 0.015228 0.000000 0.000950 0.000000
# 4 0.000000 0.000000 0.000000 -0.027116 0.000000 0.037736
# 5 0.000089 -0.000310 0.000950 0.000000 0.016572 0.000000
# 6 0.000000 0.000000 0.000000 0.037736 0.000000 -0.027131
#
#
# Mechanical properties :
#
#
# Convention : Reuss Voigt Hill
#
# Bulk Modulus (GPa) = 71.89513 88.03954 79.96733
# Shear Modulus (GPa) = 1076.00017 54.32765 565.16391
#
# Velocity S-wave (km/s) = 20.60849 4.63074 14.93575
# Velocity P-wave (km/s) = 24.38560 7.95876 18.13835
#
# Compressibility (1/GPa) = 0.01390915
#
# Stress axis : x y z
#
# Youngs Moduli (GPa) = 160.79544 229.85842 65.67027
#
# Poissons Ratio (x) = 0.09016 0.24136
# Poissons Ratio (y) = 0.06307 0.12322
# Poissons Ratio (z) = 0.59098 0.43131
#
# Static dielectric constant tensor:
#      x y z
#    x 1.996780 0.000000 -0.045360 
#    y 0.000000 2.003090 0.000000 
#    z -0.045360 0.000000 2.053230 
# 
# From -- ./inp_files/850.got.cif
#   From: 2010.05.17/outbox.cif.g08.bks.cpg/sg5_1_cif.got.tgz:850.got - 2010.06.03 18:56:24.
