data_PCOD9124383
_publ_section_title
;
Structure prediction by ZEFSAII (Michael W. Deem and Ramdas Pophale) SiO2 
 PCOD9124383
Probable space group: C 2
;
_chemical_formula_sum "Si O2"
_cell_formula_units_Z 30
_cell_length_a 8.027950
_cell_length_b 12.108348
_cell_length_c 15.924423
_cell_angle_alpha 90.000000
_cell_angle_beta 136.454397
_cell_angle_gamma 90.000000
_cell_volume 1066.422812
_symmetry_space_group_name_H-M "C 2"
_symmetry_group_IT_number 5
_symmetry_cell_setting 'monoclinic'
loop_
_space_group_symop_operation_xyz
x,y,z
-x,y,-z
1/2+x,1/2+y,z
1/2-x,1/2+y,-z
loop_
_atom_site_type_symbol
_atom_site_label
_atom_site_fract_x
_atom_site_fract_y
_atom_site_fract_z
Si Si1 0.952016 0.666220 0.291160
Si Si2 0.684533 0.310053 0.244164
Si Si3 0.416174 0.517450 0.676502
Si Si4 0.042652 0.511424 0.098260
Si Si5 0.215449 0.237491 0.440039
Si Si6 0.924504 0.107131 0.061700
Si Si7 0.236279 0.451158 0.334116
Si Si8 0.500000 0.382164 0.000000
O O1 0.980757 0.740936 0.218474
O O2 0.100804 0.731509 0.415997
O O3 0.742404 0.622680 0.400907
O O4 0.105219 0.553832 0.331513
O O5 0.688977 0.425547 0.299137
O O6 0.241869 0.343529 0.391142
O O7 0.653368 0.320827 0.130736
O O8 0.331794 0.637231 0.798853
O O9 0.678848 0.552446 0.808490
O O10 0.506407 0.476632 0.616268
O O11 0.064090 0.439338 0.189506
O O12 0.861322 0.615968 0.027696
O O13 0.000000 0.440673 0.000000
O O14 0.932170 0.246914 0.359059
O O15 0.897865 0.974869 0.029052
O O16 0.000000 0.156919 0.000000
#
# Coordination Sequence:
#
# PCOD9124383 Si02
#       8
#     4   4   4   4   4   4   4   2
#     4  12  26  50  89 126 176 237 291 367 442 538
#     4  12  25  52  84 132 167 235 292 365 450 527
#     4  10  26  50  84 126 171 220 299 359 444 525
#     4  10  20  44  85 117 173 217 277 371 434 520
#     4  12  27  53  89 122 177 240 289 368 443 522
#     4  10  20  45  82 114 171 221 276 360 433 516
#     4  10  24  52  82 123 175 219 293 369 438 521
#     4  10  24  48  86 118 180 216 298 370 444 526
#
# _framework density 28.131429000000001
#
# number of rings (size 3 to 8) (size 9 to 14) (size 15 to 20)
#    1.200    0.000    2.667    2.800    1.867    0.000 
#   16.800    2.000    7.333    0.000    0.000    0.000 
#    0.000    0.000    0.000    0.000    0.000    0.000 
#
# Total GULP energy -83703.596867 kJ/mol
# GULP energy per Si atom -5580.239791 kJ/mol
# Density = 2.806740 g / cm^3
# Si number density = 28.131429 Si / 1000 Ang^3
#
#
#
# Elastic Constant Matrix: (Units=GPa)
#
#
# Indices 1 2 3 4 5 6 
#
# 1 134.8986 44.1474 55.9747 0.0000 16.5450 0.0000
# 2 44.1474 157.9256 73.1291 0.0000 -7.2118 0.0000
# 3 55.9747 73.1291 220.4367 0.0000 14.9129 0.0001
# 4 0.0000 0.0000 0.0000 34.8227 0.0001 1.0198
# 5 16.5450 -7.2118 14.9129 0.0001 45.7217 0.0001
# 6 0.0000 0.0000 0.0001 1.0198 0.0001 33.5783
#
#
#
# Elastic Compliance Matrix: (Units=1/GPa)
#
#
# Indices 1 2 3 4 5 6 
#
# 1 0.009044 -0.002015 -0.001416 0.000000 -0.003129 0.000000
# 2 -0.002015 0.008120 -0.002370 0.000000 0.002783 0.000000
# 3 -0.001416 -0.002370 0.005801 0.000000 -0.001754 0.000000
# 4 0.000000 0.000000 0.000000 0.028742 0.000000 -0.000873
# 5 -0.003129 0.002783 -0.001754 0.000000 0.024015 0.000000
# 6 0.000000 0.000000 0.000000 -0.000873 0.000000 0.029808
#
#
# Mechanical properties :
#
#
# Convention : Reuss Voigt Hill
#
# Bulk Modulus (GPa) = 88.01805 95.52928 91.77366
# Shear Modulus (GPa) = 41.34941 45.49184 43.42063
#
# Velocity S-wave (km/s) = 3.83804 4.02570 3.93299
# Velocity P-wave (km/s) = 7.14121 7.45924 7.30196
#
# Compressibility (1/GPa) = 0.01136131
#
# Stress axis : x y z
#
# Youngs Moduli (GPa) = 110.57219 123.14989 172.38146
#
# Poissons Ratio (x) = 0.24817 0.24414
# Poissons Ratio (y) = 0.22283 0.40862
# Poissons Ratio (z) = 0.15660 0.29192
#
# Static dielectric constant tensor:
#      x y z
#    x 2.569060 0.000000 -0.044260 
#    y 0.000000 2.217170 0.000000 
#    z -0.044260 0.000000 2.341640 
# 
# From -- ./inp_files/50764.got.cif
#   From: 2010.05.17/outbox.cif.g08.bks.cpg/sg5_26_cif.got.tgz:50764.got - 2010.06.03 18:56:24.
