data_PCOD9124441
_publ_section_title
;
Structure prediction by ZEFSAII (Michael W. Deem and Ramdas Pophale) SiO2 
 PCOD9124441
Probable space group: C 2
;
_chemical_formula_sum "Si O2"
_cell_formula_units_Z 28
_cell_length_a 20.732125
_cell_length_b 6.785748
_cell_length_c 18.921191
_cell_angle_alpha 90.000000
_cell_angle_beta 150.481548
_cell_angle_gamma 90.000000
_cell_volume 1311.523132
_symmetry_space_group_name_H-M "C 2"
_symmetry_group_IT_number 5
_symmetry_cell_setting 'monoclinic'
loop_
_space_group_symop_operation_xyz
x,y,z
-x,y,-z
1/2+x,1/2+y,z
1/2-x,1/2+y,-z
loop_
_atom_site_type_symbol
_atom_site_label
_atom_site_fract_x
_atom_site_fract_y
_atom_site_fract_z
Si Si1 0.288887 0.743610 0.433284
Si Si2 0.086137 0.586220 0.836323
Si Si3 0.078125 0.320047 0.689533
Si Si4 0.694318 0.582705 0.137180
Si Si5 0.807134 0.929564 0.149665
Si Si6 0.670865 0.881994 0.367999
Si Si7 0.415591 0.535834 0.816678
O O1 0.423529 0.823956 0.527613
O O2 0.288558 0.817545 0.514751
O O3 0.280170 0.506472 0.430427
O O4 0.167376 0.841101 0.277756
O O5 0.098172 0.428402 0.784209
O O6 0.104125 0.799985 0.818899
O O7 0.946373 0.539038 0.735690
O O8 0.198423 0.540337 0.999489
O O9 0.183112 0.433937 0.742052
O O10 0.114818 0.093274 0.733611
O O11 0.740318 0.775539 0.139112
O O12 0.639636 0.623636 0.162694
O O13 0.570003 0.498073 0.974509
O O14 0.616002 0.693807 0.274252
#
# Coordination Sequence:
#
# PCOD9124441 Si02
#       7
#     4   4   4   4   4   4   4
#     4  11  25  40  65  96 132 172 214 268 337 389
#     4  10  21  33  60  96 127 172 206 274 327 383
#     4  10  24  40  60  95 133 172 221 262 325 394
#     4  10  25  44  67  94 129 180 220 270 325 390
#     4  11  20  37  63  94 134 166 220 269 330 387
#     4  11  23  39  65  97 131 169 218 272 334 389
#     4  11  24  45  67  95 133 172 223 273 325 392
#
# _framework density 21.349222000000001
#
# number of rings (size 3 to 8) (size 9 to 14) (size 15 to 20)
#    0.000    1.429    4.286    0.000    4.000    2.857 
#    0.000    2.857    0.000    0.000    0.000    0.000 
#    0.000    0.000    0.000    0.000    0.000    0.000 
#
# Total GULP energy -78243.783291 kJ/mol
# GULP energy per Si atom -5588.841664 kJ/mol
# Density = 2.130063 g / cm^3
# Si number density = 21.349222 Si / 1000 Ang^3
#
#
#
# Elastic Constant Matrix: (Units=GPa)
#
#
# Indices 1 2 3 4 5 6 
#
# 1 60.2776 5.3073 7.1722 0.0000 10.0959 0.0000
# 2 5.3073 59.2952 8.1297 0.0000 12.0510 0.0000
# 3 7.1722 8.1297 64.3693 0.0000 6.8805 0.0000
# 4 0.0000 0.0000 0.0000 31.5126 0.0000 7.8831
# 5 10.0959 12.0510 6.8805 0.0000 27.4997 0.0000
# 6 0.0000 0.0000 0.0000 7.8831 0.0000 16.2157
#
#
#
# Elastic Compliance Matrix: (Units=1/GPa)
#
#
# Indices 1 2 3 4 5 6 
#
# 1 0.017787 -0.000167 -0.001305 0.000000 -0.006130 0.000000
# 2 -0.000167 0.018659 -0.001511 0.000000 -0.007738 0.000000
# 3 -0.001305 -0.001511 0.016182 0.000000 -0.002908 0.000000
# 4 0.000000 0.000000 0.000000 0.036127 0.000000 -0.017563
# 5 -0.006130 -0.007738 -0.002908 0.000000 0.042733 0.000000
# 6 0.000000 0.000000 0.000000 -0.017563 0.000000 0.070207
#
#
# Mechanical properties :
#
#
# Convention : Reuss Voigt Hill
#
# Bulk Modulus (GPa) = 21.43099 25.01784 23.22441
# Shear Modulus (GPa) = 22.39985 25.93446 24.16716
#
# Velocity S-wave (km/s) = 3.24267 3.48914 3.36816
# Velocity P-wave (km/s) = 4.90713 5.28923 5.10176
#
# Compressibility (1/GPa) = 0.04666140
#
# Stress axis : x y z
#
# Youngs Moduli (GPa) = 56.22185 53.59215 61.79541
#
# Poissons Ratio (x) = 0.00896 0.08067
# Poissons Ratio (y) = 0.00940 0.09337
# Poissons Ratio (z) = 0.07340 0.08098
#
# Static dielectric constant tensor:
#      x y z
#    x 1.804440 0.000000 0.036560 
#    y 0.000000 1.750640 0.000000 
#    z 0.036560 0.000000 1.767920 
# 
# From -- ./inp_files/67250.got.cif
#   From: 2010.05.17/outbox.cif.g08.bks.cpg/sg5_34_cif.got.tgz:67250.got - 2010.06.03 18:56:24.
