data_PCOD9124514
_publ_section_title
;
Structure prediction by ZEFSAII (Michael W. Deem and Ramdas Pophale) SiO2 
 PCOD9124514
Probable space group: C 2
;
_chemical_formula_sum "Si O2"
_cell_formula_units_Z 32
_cell_length_a 29.711229
_cell_length_b 4.950450
_cell_length_c 26.715756
_cell_angle_alpha 90.000000
_cell_angle_beta 152.522457
_cell_angle_gamma 90.000000
_cell_volume 1813.055986
_symmetry_space_group_name_H-M "C 2"
_symmetry_group_IT_number 5
_symmetry_cell_setting 'monoclinic'
loop_
_space_group_symop_operation_xyz
x,y,z
-x,y,-z
1/2+x,1/2+y,z
1/2-x,1/2+y,-z
loop_
_atom_site_type_symbol
_atom_site_label
_atom_site_fract_x
_atom_site_fract_y
_atom_site_fract_z
Si Si1 0.687384 0.651210 0.997657
Si Si2 0.762739 0.894297 0.220691
Si Si3 0.961981 0.848500 0.907594
Si Si4 0.051816 0.107566 0.655006
Si Si5 0.324464 0.648981 0.130205
Si Si6 0.933222 0.369133 0.030600
Si Si7 0.259077 0.891547 0.283179
Si Si8 0.959155 0.628019 0.515301
O O1 0.737001 0.360418 0.056137
O O2 0.777776 0.855925 0.091614
O O3 0.652340 0.674626 0.905717
O O4 0.605350 0.746218 0.955369
O O5 0.756318 0.584560 0.231380
O O6 0.853083 0.966815 0.275175
O O7 0.774665 0.085151 0.280729
O O8 0.663465 0.962317 0.094322
O O9 0.994325 0.622857 0.899499
O O10 0.846571 0.899229 0.795778
O O11 0.015885 0.126647 0.948812
O O12 0.000000 0.754950 0.000000
O O13 0.083511 0.176843 0.742635
O O14 0.024984 0.381800 0.600165
O O15 0.969427 0.884807 0.561801
O O16 0.350425 0.009564 0.403401
O O17 0.000000 0.702981 0.500000
#
# Coordination Sequence:
#
# PCOD9124514 Si02
#       8
#     4   4   4   4   4   4   4   4
#     4  10  21  36  56  84 115 144 180 227 279 337
#     4  12  20  32  56  77 110 149 184 220 270 326
#     4  12  23  37  52  80 109 152 193 226 270 326
#     4  12  22  35  56  81 111 152 186 219 277 338
#     4  10  21  36  56  84 115 144 180 227 279 337
#     4  12  22  35  56  81 111 152 186 219 277 338
#     4  12  24  36  52  75 114 149 190 238 258 312
#     4  12  23  37  52  80 109 152 193 226 270 326
#
# _framework density 17.649757999999999
#
# number of rings (size 3 to 8) (size 9 to 14) (size 15 to 20)
#    0.000    0.500    6.250    3.750    1.750    0.000 
#    0.000    0.000    0.000    0.000    0.000    3.500 
#    0.000    0.000    0.000    0.000    0.000    0.000 
#
# Total GULP energy -89395.378718 kJ/mol
# GULP energy per Si atom -5587.211170 kJ/mol
# Density = 1.760959 g / cm^3
# Si number density = 17.649758 Si / 1000 Ang^3
#
#
#
# Elastic Constant Matrix: (Units=GPa)
#
#
# Indices 1 2 3 4 5 6 
#
# 1 54.3223 3.3931 44.3456 -0.0010 -1.9932 0.0026
# 2 3.3931 67.0224 7.6650 -0.0070 -5.9739 0.0010
# 3 44.3456 7.6650 93.4455 0.0051 -6.5629 -0.0002
# 4 -0.0010 -0.0070 0.0051 25.9778 0.0020 3.1585
# 5 -1.9932 -5.9739 -6.5629 0.0020 28.9915 0.0004
# 6 0.0026 0.0010 -0.0002 3.1585 0.0004 20.3404
#
#
#
# Elastic Compliance Matrix: (Units=1/GPa)
#
#
# Indices 1 2 3 4 5 6 
#
# 1 0.030090 0.000014 -0.014364 0.000005 -0.001180 -0.000005
# 2 0.000014 0.015300 -0.001057 0.000004 0.002914 -0.000002
# 3 -0.014364 -0.001057 0.017803 -0.000005 0.002825 0.000003
# 4 0.000005 0.000004 -0.000005 0.039235 -0.000003 -0.006093
# 5 -0.001180 0.002914 0.002825 -0.000003 0.035652 0.000000
# 6 -0.000005 -0.000002 0.000003 -0.006093 0.000000 0.050109
#
#
# Mechanical properties :
#
#
# Convention : Reuss Voigt Hill
#
# Bulk Modulus (GPa) = 30.88293 36.17750 33.53022
# Shear Modulus (GPa) = 21.75841 25.68770 23.72305
#
# Velocity S-wave (km/s) = 3.51492 3.81913 3.67018
# Velocity P-wave (km/s) = 5.83168 6.32373 6.08268
#
# Compressibility (1/GPa) = 0.03238035
#
# Stress axis : x y z
#
# Youngs Moduli (GPa) = 33.23351 65.35810 56.17051
#
# Poissons Ratio (x) = -0.00093 0.80681
# Poissons Ratio (y) = -0.00047 0.05938
# Poissons Ratio (z) = 0.47735 0.06909
#
# Static dielectric constant tensor:
#      x y z
#    x 1.618220 0.000000 -0.022410 
#    y 0.000000 1.618460 0.000000 
#    z -0.022410 0.000000 1.630620 
# 
# From -- ./inp_files/69578.got.cif
#   From: 2010.05.17/outbox.cif.g08.bks.cpg/sg5_35_cif.got.tgz:69578.got - 2010.06.03 18:56:24.
