data_PCOD9124577
_publ_section_title
;
Structure prediction by ZEFSAII (Michael W. Deem and Ramdas Pophale) SiO2 
 PCOD9124577
Probable space group: C 2
;
_chemical_formula_sum "Si O2"
_cell_formula_units_Z 28
_cell_length_a 7.192082
_cell_length_b 29.552862
_cell_length_c 5.380311
_cell_angle_alpha 90.000000
_cell_angle_beta 73.611560
_cell_angle_gamma 90.000000
_cell_volume 1097.104778
_symmetry_space_group_name_H-M "C 2"
_symmetry_group_IT_number 5
_symmetry_cell_setting 'monoclinic'
loop_
_space_group_symop_operation_xyz
x,y,z
-x,y,-z
1/2+x,1/2+y,z
1/2-x,1/2+y,-z
loop_
_atom_site_type_symbol
_atom_site_label
_atom_site_fract_x
_atom_site_fract_y
_atom_site_fract_z
Si Si1 0.717217 0.484850 0.530436
Si Si2 0.237951 0.080514 0.400276
Si Si3 0.289374 0.298635 0.705932
Si Si4 0.693395 0.900974 0.780805
Si Si5 0.795976 0.208080 0.475925
Si Si6 0.500000 0.448851 0.000000
Si Si7 0.500000 0.239753 0.000000
Si Si8 0.768522 0.131230 0.103002
O O1 0.500000 0.484137 0.500000
O O2 0.810882 0.528665 0.373844
O O3 0.804850 0.436009 0.445263
O O4 0.666374 0.483129 0.839140
O O5 0.297558 0.099567 0.646079
O O6 0.000000 0.078945 0.500000
O O7 0.294517 0.112153 0.144440
O O8 0.500000 0.302225 0.500000
O O9 0.198815 0.347747 0.731045
O O10 0.170208 0.259736 0.614522
O O11 0.342072 0.274673 0.945309
O O12 0.885674 0.915039 0.861058
O O13 0.500000 0.911153 0.000000
O O14 0.627526 0.211332 0.749375
O O15 0.738525 0.180342 0.247775
O O16 0.000000 0.188787 0.500000
O O17 0.000000 0.127981 0.000000
#
# Coordination Sequence:
#
# PCOD9124577 Si02
#       8
#     4   4   4   4   4   2   2   4
#     4   9  20  37  64  97 133 183 232 295 359 435
#     4   9  19  34  63 100 140 178 240 291 359 430
#     4  10  23  44  65  96 139 183 244 297 363 449
#     4  11  24  40  66 102 139 184 240 302 370 445
#     4  11  25  42  71 102 144 191 243 309 376 439
#     4  10  21  40  68  96 142 186 238 294 371 436
#     4  10  25  44  68 100 138 190 244 302 371 444
#     4  10  21  36  64 106 137 181 238 300 353 444
#
# _framework density 25.521722
#
# number of rings (size 3 to 8) (size 9 to 14) (size 15 to 20)
#    0.000    2.000    0.000    3.000   13.000    1.714 
#    0.000    0.000    1.571    0.000    3.714    0.000 
#    0.000    0.000    0.000    0.000    0.000    0.000 
#
# Total GULP energy -78150.859269 kJ/mol
# GULP energy per Si atom -5582.204233 kJ/mol
# Density = 2.546363 g / cm^3
# Si number density = 25.521722 Si / 1000 Ang^3
#
#
#
# Elastic Constant Matrix: (Units=GPa)
#
#
# Indices 1 2 3 4 5 6 
#
# 1 70.4199 27.8075 27.4356 0.0000 -6.6465 0.0000
# 2 27.8075 194.4831 82.2631 0.0000 5.7891 0.0000
# 3 27.4356 82.2631 156.7573 0.0000 6.4236 0.0000
# 4 0.0000 0.0000 0.0000 21.4407 0.0000 -3.9122
# 5 -6.6465 5.7891 6.4236 0.0000 37.5580 0.0000
# 6 0.0000 0.0000 0.0000 -3.9122 0.0000 6.9718
#
#
#
# Elastic Compliance Matrix: (Units=1/GPa)
#
#
# Indices 1 2 3 4 5 6 
#
# 1 0.015944 -0.001468 -0.002160 0.000000 0.003417 0.000000
# 2 -0.001468 0.006751 -0.003255 0.000000 -0.000744 0.000000
# 3 -0.002160 -0.003255 0.008521 0.000000 -0.001338 0.000000
# 4 0.000000 0.000000 0.000000 0.051960 0.000000 0.029157
# 5 0.003417 -0.000744 -0.001338 0.000000 0.027574 0.000000
# 6 0.000000 0.000000 0.000000 0.029157 0.000000 0.159797
#
#
# Mechanical properties :
#
#
# Convention : Reuss Voigt Hill
#
# Bulk Modulus (GPa) = 57.31033 77.40808 67.35921
# Shear Modulus (GPa) = 17.23365 32.13770 24.68568
#
# Velocity S-wave (km/s) = 2.60138 3.55241 3.11343
# Velocity P-wave (km/s) = 5.61491 6.87185 6.27493
#
# Compressibility (1/GPa) = 0.01744886
#
# Stress axis : x y z
#
# Youngs Moduli (GPa) = 62.71823 148.13138 117.36318
#
# Poissons Ratio (x) = 0.21740 0.25355
# Poissons Ratio (y) = 0.09205 0.38206
# Poissons Ratio (z) = 0.13550 0.48222
#
# Static dielectric constant tensor:
#      x y z
#    x 2.026180 0.000000 0.062010 
#    y 0.000000 2.034470 0.000000 
#    z 0.062010 0.000000 2.406650 
# 
# From -- ./inp_files/3890.got.cif
#   From: 2010.05.17/outbox.cif.g08.bks.cpg/sg5_2_cif.got.tgz:3890.got - 2010.06.03 18:56:24.
