data_PCOD9124629
_publ_section_title
;
Structure prediction by ZEFSAII (Michael W. Deem and Ramdas Pophale) SiO2 
 PCOD9124629
Probable space group: C 2
;
_chemical_formula_sum "Si O2"
_cell_formula_units_Z 24
_cell_length_a 29.858254
_cell_length_b 9.589488
_cell_length_c 24.138787
_cell_angle_alpha 90.000000
_cell_angle_beta 169.741603
_cell_angle_gamma 90.000000
_cell_volume 1230.861937
_symmetry_space_group_name_H-M "C 2"
_symmetry_group_IT_number 5
_symmetry_cell_setting 'monoclinic'
loop_
_space_group_symop_operation_xyz
x,y,z
-x,y,-z
1/2+x,1/2+y,z
1/2-x,1/2+y,-z
loop_
_atom_site_type_symbol
_atom_site_label
_atom_site_fract_x
_atom_site_fract_y
_atom_site_fract_z
Si Si1 0.922685 0.629810 0.350486
Si Si2 0.793058 0.391575 0.788692
Si Si3 0.823654 0.182622 0.620493
Si Si4 0.459103 0.982384 0.795995
Si Si5 0.116830 0.965160 0.782269
Si Si6 0.552781 0.143685 0.740930
O O1 0.095737 0.770457 0.564181
O O2 0.000000 0.547973 0.500000
O O3 0.983595 0.574147 0.363478
O O4 0.623153 0.657512 0.987355
O O5 0.642831 0.495476 0.565365
O O6 0.000000 0.325166 0.000000
O O7 0.916257 0.462947 0.992037
O O8 0.784269 0.347929 0.574414
O O9 0.680053 0.126032 0.500278
O O10 0.700721 0.116160 0.416247
O O11 0.676578 0.969743 0.014792
O O12 0.097059 0.808434 0.782903
O O13 0.207343 0.073799 0.937975
#
# Coordination Sequence:
#
# PCOD9124629 Si02
#       6
#     4   4   4   4   4   4
#     4  11  21  36  59  86 118 152 199 245 285 346
#     4  11  20  33  62  89 117 157 205 241 287 354
#     4  11  23  36  63  88 121 156 199 245 298 349
#     4  11  21  39  59  92 117 158 200 245 294 357
#     4  10  21  37  59  86 120 153 198 248 290 350
#     4  10  22  36  58  90 117 154 199 243 298 351
#
# _framework density 19.498529999999999
#
# number of rings (size 3 to 8) (size 9 to 14) (size 15 to 20)
#    0.000    1.333    5.000    2.500    4.667    0.000 
#    0.000    0.000    3.667    0.000    0.000    0.000 
#    0.000    0.000    0.000    0.000    0.000    0.000 
#
# Total GULP energy -66883.013579 kJ/mol
# GULP energy per Si atom -5573.584465 kJ/mol
# Density = 1.945415 g / cm^3
# Si number density = 19.498530 Si / 1000 Ang^3
#
#
#
# Elastic Constant Matrix: (Units=GPa)
#
#
# Indices 1 2 3 4 5 6 
#
# 1 146.9904 26.7633 63.3452 0.0135 -20.6274 0.0084
# 2 26.7633 40.0878 35.4342 0.0162 -29.9082 0.0139
# 3 63.3452 35.4342 115.6627 0.0392 -18.8952 0.0138
# 4 0.0135 0.0162 0.0392 26.3849 0.0087 -7.6335
# 5 -20.6274 -29.9082 -18.8952 0.0087 58.1746 0.0147
# 6 0.0084 0.0139 0.0138 -7.6335 0.0147 21.8416
#
#
#
# Elastic Compliance Matrix: (Units=1/GPa)
#
#
# Indices 1 2 3 4 5 6 
#
# 1 0.009096 -0.001391 -0.004377 0.000002 0.001088 0.000000
# 2 -0.001391 0.053770 -0.011907 -0.000038 0.023283 -0.000055
# 3 -0.004377 -0.011907 0.014190 -0.000011 -0.003065 -0.000002
# 4 0.000002 -0.000038 -0.000011 0.042164 -0.000032 0.014736
# 5 0.001088 0.023283 -0.003065 -0.000032 0.028550 -0.000044
# 6 0.000000 -0.000055 -0.000002 0.014736 -0.000044 0.050934
#
#
# Mechanical properties :
#
#
# Convention : Reuss Voigt Hill
#
# Bulk Modulus (GPa) = 23.97869 61.53624 42.75746
# Shear Modulus (GPa) = 20.16481 33.09344 26.62912
#
# Velocity S-wave (km/s) = 3.21934 4.12421 3.69955
# Velocity P-wave (km/s) = 5.11305 7.36931 6.34232
#
# Compressibility (1/GPa) = 0.04170370
#
# Stress axis : x y z
#
# Youngs Moduli (GPa) = 109.94309 18.59788 70.47016
#
# Poissons Ratio (x) = 0.02588 0.30848
# Poissons Ratio (y) = 0.15298 0.83910
# Poissons Ratio (z) = 0.48126 0.22145
#
# Static dielectric constant tensor:
#      x y z
#    x 1.781630 -0.000010 0.013060 
#    y -0.000010 1.691150 -0.000010 
#    z 0.013060 -0.000010 1.744340 
# 
# From -- ./inp_files/54533.got.cif
#   From: 2010.05.17/outbox.cif.g08.bks.cpg/sg5_28_cif.got.tgz:54533.got - 2010.06.03 18:56:24.
