data_PCOD9124886
_publ_section_title
;
Structure prediction by ZEFSAII (Michael W. Deem and Ramdas Pophale) SiO2 
 PCOD9124886
Probable space group: C 2
;
_chemical_formula_sum "Si O2"
_cell_formula_units_Z 32
_cell_length_a 21.903931
_cell_length_b 5.239197
_cell_length_c 11.656237
_cell_angle_alpha 90.000000
_cell_angle_beta 114.166969
_cell_angle_gamma 90.000000
_cell_volume 1220.420878
_symmetry_space_group_name_H-M "C 2"
_symmetry_group_IT_number 5
_symmetry_cell_setting 'monoclinic'
loop_
_space_group_symop_operation_xyz
x,y,z
-x,y,-z
1/2+x,1/2+y,z
1/2-x,1/2+y,-z
loop_
_atom_site_type_symbol
_atom_site_label
_atom_site_fract_x
_atom_site_fract_y
_atom_site_fract_z
Si Si1 0.248227 0.312370 0.924071
Si Si2 0.675982 0.637292 0.370046
Si Si3 0.937371 0.796148 0.777809
Si Si4 0.437058 0.574916 0.115666
Si Si5 0.884226 0.577895 0.957973
Si Si6 0.379290 0.761730 0.300631
Si Si7 0.590810 0.014233 0.450359
Si Si8 0.207862 0.891446 0.616465
O O1 0.181250 0.415492 0.807887
O O2 0.271671 0.564865 0.012245
O O3 0.307352 0.181490 0.894083
O O4 0.637987 0.394992 0.294852
O O5 0.721400 0.760969 0.307709
O O6 0.720669 0.571287 0.515685
O O7 0.618648 0.807902 0.382622
O O8 0.957452 0.680637 0.668486
O O9 0.928228 0.609780 0.877273
O O10 0.984584 0.031522 0.846758
O O11 0.411908 0.289333 0.068922
O O12 0.426192 0.652563 0.238763
O O13 0.399439 0.794595 0.015228
O O14 0.332379 0.545689 0.320902
O O15 0.422136 0.886045 0.436348
O O16 0.654407 0.185117 0.533734
#
# Coordination Sequence:
#
# PCOD9124886 Si02
#       8
#     4   4   4   4   4   4   4   4
#     4  12  25  47  77 122 162 205 270 332 419 492
#     4  10  21  41  66 113 152 199 255 327 404 482
#     4  11  29  48  80 115 155 214 281 338 406 490
#     4  12  29  55  81 112 163 218 281 335 399 486
#     4  12  28  51  82 116 158 218 276 345 406 478
#     4  11  26  45  79 114 160 209 263 336 414 490
#     4  10  24  45  74 112 155 206 260 326 416 477
#     4  10  21  38  69 108 154 200 252 324 409 477
#
# _framework density 26.220462999999999
#
# number of rings (size 3 to 8) (size 9 to 14) (size 15 to 20)
#    0.000    1.000    3.750    0.375   10.500    1.000 
#    0.000    6.875    0.000    0.000    0.000    0.000 
#    0.000    0.000    0.000    0.000    0.000    0.000 
#
# Total GULP energy -89440.323092 kJ/mol
# GULP energy per Si atom -5590.020193 kJ/mol
# Density = 2.616078 g / cm^3
# Si number density = 26.220463 Si / 1000 Ang^3
#
#
#
# Elastic Constant Matrix: (Units=GPa)
#
#
# Indices 1 2 3 4 5 6 
#
# 1 93.3813 19.6048 48.7986 0.0000 -7.0798 0.0000
# 2 19.6048 89.6792 40.5273 0.0000 -6.1152 0.0000
# 3 48.7986 40.5273 110.3444 0.0000 -17.9272 0.0000
# 4 0.0000 0.0000 0.0000 48.8642 0.0000 -0.0474
# 5 -7.0798 -6.1152 -17.9272 0.0000 38.1850 0.0000
# 6 0.0000 0.0000 0.0000 -0.0474 0.0000 33.6559
#
#
#
# Elastic Compliance Matrix: (Units=1/GPa)
#
#
# Indices 1 2 3 4 5 6 
#
# 1 0.013939 -0.000311 -0.006104 0.000000 -0.000331 0.000000
# 2 -0.000311 0.013378 -0.004803 0.000000 -0.000170 0.000000
# 3 -0.006104 -0.004803 0.014309 0.000000 0.004817 0.000000
# 4 0.000000 0.000000 0.000000 0.020465 0.000000 0.000029
# 5 -0.000331 -0.000170 0.004817 0.000000 0.028361 0.000000
# 6 0.000000 0.000000 0.000000 0.000029 0.000000 0.029713
#
#
# Mechanical properties :
#
#
# Convention : Reuss Voigt Hill
#
# Bulk Modulus (GPa) = 52.11515 56.80737 54.46126
# Shear Modulus (GPa) = 33.55775 36.43928 34.99851
#
# Velocity S-wave (km/s) = 3.58135 3.73195 3.65743
# Velocity P-wave (km/s) = 6.08444 6.34683 6.21702
#
# Compressibility (1/GPa) = 0.01918828
#
# Stress axis : x y z
#
# Youngs Moduli (GPa) = 71.74294 74.74923 69.88810
#
# Poissons Ratio (x) = 0.02328 0.42657
# Poissons Ratio (y) = 0.02234 0.33571
# Poissons Ratio (z) = 0.43789 0.35906
#
# Static dielectric constant tensor:
#      x y z
#    x 2.082530 0.000000 0.036560 
#    y 0.000000 2.109800 0.000000 
#    z 0.036560 0.000000 2.181830 
# 
# From -- ./inp_files/47048.got.cif
#   From: 2010.05.17/outbox.cif.g08.bks.cpg/sg5_24_cif.got.tgz:47048.got - 2010.06.03 18:56:24.
