data_PCOD9124152
_publ_section_title
;
Structure prediction by ZEFSAII (Michael W. Deem and Ramdas Pophale) SiO2 
 PCOD9124152
Probable space group: C 2
;
_chemical_formula_sum "Si O2"
_cell_formula_units_Z 22
_cell_length_a 21.188745
_cell_length_b 8.362884
_cell_length_c 14.940495
_cell_angle_alpha 90.000000
_cell_angle_beta 22.782723
_cell_angle_gamma 90.000000
_cell_volume 1025.188680
_symmetry_space_group_name_H-M "C 2"
_symmetry_group_IT_number 5
_symmetry_cell_setting 'monoclinic'
loop_
_space_group_symop_operation_xyz
x,y,z
-x,y,-z
1/2+x,1/2+y,z
1/2-x,1/2+y,-z
loop_
_atom_site_type_symbol
_atom_site_label
_atom_site_fract_x
_atom_site_fract_y
_atom_site_fract_z
Si Si1 0.500000 0.647120 0.000000
Si Si2 0.265109 0.980199 0.771430
Si Si3 0.489681 0.866221 0.687939
Si Si4 0.666382 0.188087 0.151087
Si Si5 0.173534 0.200193 0.596514
Si Si6 0.021659 0.861386 0.736350
O O1 0.349991 0.544981 0.157345
O O2 0.429178 0.735131 0.178965
O O3 0.320338 0.127581 0.763497
O O4 0.152986 0.236581 0.115569
O O5 0.146660 0.875542 0.988537
O O6 0.620830 0.826935 0.591436
O O7 0.395991 0.033013 0.820364
O O8 0.410908 0.885794 0.533932
O O9 0.536225 0.321846 0.289152
O O10 0.360111 0.225498 0.379178
O O11 0.117462 0.027582 0.631003
#
# Coordination Sequence:
#
# PCOD9124152 Si02
#       6
#     2   4   4   4   4   4
#     4  10  20  42  66 106 134 192 242 284 378 422
#     4  11  23  42  75 104 142 198 235 294 380 421
#     4  12  23  44  73 104 146 189 248 294 367 436
#     4  12  23  42  73 107 142 190 244 300 362 436
#     4  11  23  44  71 106 145 198 241 308 362 437
#     4  11  23  43  70 106 150 189 247 303 363 435
#
# _framework density 21.459464000000001
#
# number of rings (size 3 to 8) (size 9 to 14) (size 15 to 20)
#    0.000    0.727    5.455    4.909    0.000    0.000 
#    0.000    3.636   12.000    1.091    0.000    0.000 
#    0.000    0.000    0.000    0.000    0.000    0.000 
#
# Total GULP energy -61381.797133 kJ/mol
# GULP energy per Si atom -5580.163376 kJ/mol
# Density = 2.141062 g / cm^3
# Si number density = 21.459464 Si / 1000 Ang^3
#
#
#
# Elastic Constant Matrix: (Units=GPa)
#
#
# Indices 1 2 3 4 5 6 
#
# 1 173.0114 34.0284 40.4681 0.0000 -8.5277 0.0000
# 2 34.0284 63.1387 35.2727 0.0000 3.9499 0.0000
# 3 40.4681 35.2727 115.3515 0.0000 0.0997 0.0000
# 4 0.0000 0.0000 0.0000 44.4730 0.0000 -9.0802
# 5 -8.5277 3.9499 0.0997 0.0000 39.6347 0.0000
# 6 0.0000 0.0000 0.0000 -9.0802 0.0000 52.6376
#
#
#
# Elastic Compliance Matrix: (Units=1/GPa)
#
#
# Indices 1 2 3 4 5 6 
#
# 1 0.006792 -0.002941 -0.001485 0.000000 0.001758 0.000000
# 2 -0.002941 0.020517 -0.005240 0.000000 -0.002664 0.000000
# 3 -0.001485 -0.005240 0.010792 0.000000 0.000175 0.000000
# 4 0.000000 0.000000 0.000000 0.023306 0.000000 0.004020
# 5 0.001758 -0.002664 0.000175 0.000000 0.025874 0.000000
# 6 0.000000 0.000000 0.000000 0.004020 0.000000 0.019691
#
#
# Mechanical properties :
#
#
# Convention : Reuss Voigt Hill
#
# Bulk Modulus (GPa) = 53.27669 63.44889 58.36279
# Shear Modulus (GPa) = 37.71822 43.46456 40.59139
#
# Velocity S-wave (km/s) = 4.19698 4.50536 4.35390
# Velocity P-wave (km/s) = 6.95462 7.52963 7.24783
#
# Compressibility (1/GPa) = 0.01876993
#
# Stress axis : x y z
#
# Youngs Moduli (GPa) = 147.22171 48.73984 92.65907
#
# Poissons Ratio (x) = 0.14335 0.13761
# Poissons Ratio (y) = 0.43299 0.48551
# Poissons Ratio (z) = 0.21865 0.25538
#
# Static dielectric constant tensor:
#      x y z
#    x 1.829130 0.000000 -0.019520 
#    y 0.000000 1.837460 0.000000 
#    z -0.019520 0.000000 1.793880 
# 
# From -- ./inp_files/56672.got.cif
#   From: 2010.05.17/outbox.cif.g08.bks.cpg/sg5_29_cif.got.tgz:56672.got - 2010.06.03 18:56:24.
