data_PCOD9124594
_publ_section_title
;
Structure prediction by ZEFSAII (Michael W. Deem and Ramdas Pophale) SiO2 
 PCOD9124594
Probable space group: C 2
;
_chemical_formula_sum "Si O2"
_cell_formula_units_Z 30
_cell_length_a 29.988970
_cell_length_b 11.274341
_cell_length_c 17.130482
_cell_angle_alpha 90.000000
_cell_angle_beta 15.738372
_cell_angle_gamma 90.000000
_cell_volume 1571.029093
_symmetry_space_group_name_H-M "C 2"
_symmetry_group_IT_number 5
_symmetry_cell_setting 'monoclinic'
loop_
_space_group_symop_operation_xyz
x,y,z
-x,y,-z
1/2+x,1/2+y,z
1/2-x,1/2+y,-z
loop_
_atom_site_type_symbol
_atom_site_label
_atom_site_fract_x
_atom_site_fract_y
_atom_site_fract_z
Si Si1 0.534048 0.627710 0.677084
Si Si2 0.116295 0.376319 0.053988
Si Si3 0.598490 0.209449 0.913929
Si Si4 0.632246 0.557365 0.342369
Si Si5 0.500000 0.619505 0.000000
Si Si6 0.516669 0.123449 0.219325
Si Si7 0.258936 0.798075 0.318814
Si Si8 0.034398 0.953020 0.805583
O O1 0.436540 0.748800 0.828660
O O2 0.713364 0.667408 0.407645
O O3 0.558430 0.564585 0.553385
O O4 0.457314 0.540037 0.870420
O O5 0.987861 0.484169 0.284141
O O6 0.283163 0.428588 0.809863
O O7 0.148596 0.363597 0.906835
O O8 0.500000 0.190347 0.000000
O O9 0.519419 0.141985 0.121124
O O10 0.580626 0.347994 0.968076
O O11 0.500000 0.584581 0.500000
O O12 0.794502 0.641633 0.070900
O O13 0.625507 0.704373 0.832979
O O14 0.584058 0.534552 0.794559
O O15 0.390761 0.219286 0.463485
O O16 0.183172 0.888616 0.509343
#
# Coordination Sequence:
#
# PCOD9124594 Si02
#       8
#     4   4   4   4   2   4   4   4
#     4  11  22  40  61  87 122 154 198 246 300 349
#     4  10  21  39  61  86 112 159 184 250 304 345
#     4  10  21  37  55  82 121 166 198 237 286 337
#     4   9  20  45  62  88 117 148 200 248 307 363
#     4  12  26  32  56  92 116 174 204 238 282 352
#     4   8  21  37  58  84 115 157 191 247 291 345
#     4  11  22  41  55  85 125 158 204 243 291 338
#     4  11  23  38  54  84 120 162 203 247 280 340
#
# _framework density 19.095763999999999
#
# number of rings (size 3 to 8) (size 9 to 14) (size 15 to 20)
#    0.800    1.067    3.333    0.000    5.600    1.067 
#    4.800    0.000    0.000    0.000    0.000    0.933 
#    0.000    0.000    0.000    0.000    0.000    0.000 
#
# Total GULP energy -83596.867700 kJ/mol
# GULP energy per Si atom -5573.124513 kJ/mol
# Density = 1.905230 g / cm^3
# Si number density = 19.095764 Si / 1000 Ang^3
#
#
#
# Elastic Constant Matrix: (Units=GPa)
#
#
# Indices 1 2 3 4 5 6 
#
# 1 81.3293 4.4859 12.2667 -0.0001 -21.7829 0.0004
# 2 4.4859 70.4507 4.9297 -0.0001 -6.1389 0.0001
# 3 12.2667 4.9297 27.6672 0.0000 -6.6847 0.0004
# 4 -0.0001 -0.0001 0.0000 26.8841 0.0000 -1.8158
# 5 -21.7829 -6.1389 -6.6847 0.0000 19.2940 -0.0005
# 6 0.0004 0.0001 0.0004 -1.8158 -0.0005 13.1921
#
#
#
# Elastic Compliance Matrix: (Units=1/GPa)
#
#
# Indices 1 2 3 4 5 6 
#
# 1 0.017944 0.000781 -0.003427 0.000000 0.019320 0.000000
# 2 0.000781 0.014699 -0.001771 0.000000 0.004945 0.000000
# 3 -0.003427 -0.001771 0.040280 0.000000 0.009523 -0.000001
# 4 0.000000 0.000000 0.000000 0.037546 0.000000 0.005168
# 5 0.019320 0.004945 0.009523 0.000000 0.078515 0.000002
# 6 0.000000 0.000000 -0.000001 0.005168 0.000002 0.076514
#
#
# Mechanical properties :
#
#
# Convention : Reuss Voigt Hill
#
# Bulk Modulus (GPa) = 15.60313 24.75687 20.18000
# Shear Modulus (GPa) = 16.90935 22.39170 19.65052
#
# Velocity S-wave (km/s) = 2.97897 3.42804 3.21136
# Velocity P-wave (km/s) = 4.47449 5.35363 4.93368
#
# Compressibility (1/GPa) = 0.06408970
#
# Stress axis : x y z
#
# Youngs Moduli (GPa) = 55.72869 68.03002 24.82638
#
# Poissons Ratio (x) = -0.05311 0.08508
# Poissons Ratio (y) = -0.04351 0.04396
# Poissons Ratio (z) = 0.19098 0.12045
#
# Static dielectric constant tensor:
#      x y z
#    x 1.619300 0.000000 0.006870 
#    y 0.000000 1.700960 0.000000 
#    z 0.006870 0.000000 1.694110 
# 
# From -- ./inp_files/58183.got.cif
#   From: 2010.05.17/outbox.cif.g08.bks.cpg/sg5_30_cif.got.tgz:58183.got - 2010.06.03 18:56:24.
