data_PCOD9124202
_publ_section_title
;
Structure prediction by ZEFSAII (Michael W. Deem and Ramdas Pophale) SiO2 
 PCOD9124202
Probable space group: C 2
;
_chemical_formula_sum "Si O2"
_cell_formula_units_Z 28
_cell_length_a 12.758277
_cell_length_b 7.180182
_cell_length_c 13.938018
_cell_angle_alpha 90.000000
_cell_angle_beta 109.927420
_cell_angle_gamma 90.000000
_cell_volume 1200.367311
_symmetry_space_group_name_H-M "C 2"
_symmetry_group_IT_number 5
_symmetry_cell_setting 'monoclinic'
loop_
_space_group_symop_operation_xyz
x,y,z
-x,y,-z
1/2+x,1/2+y,z
1/2-x,1/2+y,-z
loop_
_atom_site_type_symbol
_atom_site_label
_atom_site_fract_x
_atom_site_fract_y
_atom_site_fract_z
Si Si1 0.458255 0.747000 0.743242
Si Si2 0.655559 0.053054 0.993937
Si Si3 0.916045 0.464128 0.385053
Si Si4 0.408781 0.621833 0.047130
Si Si5 0.278251 0.269299 0.398056
Si Si6 0.784930 0.699583 0.619489
Si Si7 0.065412 0.623530 0.165728
O O1 0.528022 0.864602 0.687511
O O2 0.535842 0.612494 0.829690
O O3 0.344842 0.680438 0.657756
O O4 0.418800 0.903958 0.806239
O O5 0.784027 0.043353 0.004837
O O6 0.636431 0.150422 0.091019
O O7 0.612980 0.840396 0.983013
O O8 0.565480 0.152000 0.896030
O O9 0.866181 0.670543 0.355510
O O10 0.812123 0.340519 0.385104
O O11 0.000000 0.465038 0.500000
O O12 0.500000 0.549212 0.000000
O O13 0.262499 0.489637 0.383872
O O14 0.316269 0.226002 0.518485
O O15 0.884332 0.723350 0.726281
#
# Coordination Sequence:
#
# PCOD9124202 Si02
#       7
#     4   4   4   4   4   4   4
#     4  10  21  41  64  93 135 174 218 284 334 397
#     4  10  20  42  68  92 134 174 217 284 336 394
#     4  12  23  41  66  98 137 180 229 280 337 404
#     4  11  22  43  67  96 136 172 223 281 340 399
#     4  11  23  42  66  93 137 179 224 276 338 404
#     4  11  21  41  67  95 137 180 226 282 337 408
#     4   9  19  41  67  91 132 179 219 275 345 396
#
# _framework density 23.326194000000001
#
# number of rings (size 3 to 8) (size 9 to 14) (size 15 to 20)
#    0.000    1.429    5.714    1.714    0.000    2.857 
#    5.143    0.000    0.000    0.000    0.000    0.000 
#    0.000    0.000    0.000    0.000    0.000    0.000 
#
# Total GULP energy -78266.475026 kJ/mol
# GULP energy per Si atom -5590.462502 kJ/mol
# Density = 2.327310 g / cm^3
# Si number density = 23.326194 Si / 1000 Ang^3
#
#
#
# Elastic Constant Matrix: (Units=GPa)
#
#
# Indices 1 2 3 4 5 6 
#
# 1 145.7744 19.9279 65.7984 0.0000 13.2893 0.0000
# 2 19.9279 63.9826 12.9252 0.0000 2.9528 0.0000
# 3 65.7984 12.9252 151.1002 0.0000 15.1326 0.0000
# 4 0.0000 0.0000 0.0000 17.3753 0.0000 0.5589
# 5 13.2893 2.9528 15.1326 0.0000 34.9405 0.0000
# 6 0.0000 0.0000 0.0000 0.5589 0.0000 -2.3275
#
#
#
# Elastic Compliance Matrix: (Units=1/GPa)
#
#
# Indices 1 2 3 4 5 6 
#
# 1 0.008875 -0.001974 -0.003528 0.000000 -0.001681 0.000000
# 2 -0.001974 0.016364 -0.000498 0.000000 -0.000416 0.000000
# 3 -0.003528 -0.000498 0.008424 0.000000 -0.002264 0.000000
# 4 0.000000 0.000000 0.000000 0.057112 0.000000 0.013715
# 5 -0.001681 -0.000416 -0.002264 0.000000 0.030275 0.000000
# 6 0.000000 0.000000 0.000000 0.013715 0.000000 -0.426357
#
#
# Mechanical properties :
#
#
# Convention : Reuss Voigt Hill
#
# Bulk Modulus (GPa) = 46.16246 62.01780 54.09013
# Shear Modulus (GPa) = -17.47726 27.47804 5.00039
#
# Velocity S-wave (km/s) = -2.74022 3.43591 1.46572
# Velocity P-wave (km/s) = 3.13388 6.51042 5.10915
#
# Compressibility (1/GPa) = 0.02166262
#
# Stress axis : x y z
#
# Youngs Moduli (GPa) = 112.67216 61.10972 118.71271
#
# Poissons Ratio (x) = 0.12064 0.41878
# Poissons Ratio (y) = 0.22243 0.05917
# Poissons Ratio (z) = 0.39747 0.03046
#
# Static dielectric constant tensor:
#      x y z
#    x 1.883210 0.000000 0.003200 
#    y 0.000000 1.941600 0.000000 
#    z 0.003200 0.000000 1.909050 
# 
# From -- ./inp_files/52315.got.cif
#   From: 2010.05.17/outbox.cif.g08.bks.cpg/sg5_27_cif.got.tgz:52315.got - 2010.06.03 18:56:24.
