data_PCOD9124023
_publ_section_title
;
Structure prediction by ZEFSAII (Michael W. Deem and Ramdas Pophale) SiO2 
 PCOD9124023
Probable space group: C 2
;
_chemical_formula_sum "Si O2"
_cell_formula_units_Z 28
_cell_length_a 20.380454
_cell_length_b 12.249428
_cell_length_c 17.501152
_cell_angle_alpha 90.000000
_cell_angle_beta 19.113690
_cell_angle_gamma 90.000000
_cell_volume 1430.648361
_symmetry_space_group_name_H-M "C 2"
_symmetry_group_IT_number 5
_symmetry_cell_setting 'monoclinic'
loop_
_space_group_symop_operation_xyz
x,y,z
-x,y,-z
1/2+x,1/2+y,z
1/2-x,1/2+y,-z
loop_
_atom_site_type_symbol
_atom_site_label
_atom_site_fract_x
_atom_site_fract_y
_atom_site_fract_z
Si Si1 0.704245 0.398580 0.817926
Si Si2 0.295402 0.735783 0.264787
Si Si3 0.619362 0.765028 0.516128
Si Si4 0.787944 0.849308 0.490082
Si Si5 0.606590 0.071594 0.746035
Si Si6 0.500000 0.087450 0.500000
Si Si7 0.846283 0.758964 0.975182
Si Si8 0.500000 0.941362 0.000000
O O1 0.836575 0.336411 0.607841
O O2 0.823966 0.503337 0.717961
O O3 0.500000 0.430764 0.000000
O O4 0.648439 0.316173 0.947216
O O5 0.296285 0.762354 0.354408
O O6 0.107092 0.664851 0.444827
O O7 0.500000 0.689380 0.000000
O O8 0.310157 0.860144 0.216778
O O9 0.704973 0.822686 0.497536
O O10 0.739317 0.651828 0.380837
O O11 0.385566 0.745977 0.786418
O O12 0.027202 0.833658 0.221981
O O13 0.723163 0.971944 0.579519
O O14 0.469236 0.146169 0.843672
O O15 0.471469 0.014995 0.958318
#
# Coordination Sequence:
#
# PCOD9124023 Si02
#       8
#     4   4   4   4   4   2   4   2
#     4  12  22  42  67  93 131 170 215 271 327 382
#     4   9  22  45  63  92 126 172 221 261 316 384
#     4  11  23  41  66  98 128 167 220 265 321 397
#     4  10  23  43  64  91 137 171 211 270 325 380
#     4  10  20  41  66  90 124 170 201 268 334 362
#     4  12  24  40  70  96 126 182 220 262 324 384
#     4  11  23  42  62  98 131 164 219 270 314 399
#     4   8  18  42  66  86 124 162 208 268 308 380
#
# _framework density 19.571545
#
# number of rings (size 3 to 8) (size 9 to 14) (size 15 to 20)
#    0.429    1.143    4.286    1.286    0.000    4.571 
#   12.857    0.000    0.000    0.000    0.000    0.000 
#    0.000    0.000    0.000    0.000    0.000    0.000 
#
# Total GULP energy -77984.734251 kJ/mol
# GULP energy per Si atom -5570.338161 kJ/mol
# Density = 1.952700 g / cm^3
# Si number density = 19.571545 Si / 1000 Ang^3
#
#
#
# Elastic Constant Matrix: (Units=GPa)
#
#
# Indices 1 2 3 4 5 6 
#
# 1 53.2561 29.1639 18.8543 0.0039 8.4827 -0.0012
# 2 29.1639 99.0338 24.3358 0.0106 3.0681 -0.0034
# 3 18.8543 24.3358 105.6876 0.0174 -4.9927 -0.0049
# 4 0.0039 0.0106 0.0174 17.4783 -0.0086 -6.2949
# 5 8.4827 3.0681 -4.9927 -0.0086 39.6459 0.0017
# 6 -0.0012 -0.0034 -0.0049 -6.2949 0.0017 22.8218
#
#
#
# Elastic Compliance Matrix: (Units=1/GPa)
#
#
# Indices 1 2 3 4 5 6 
#
# 1 0.024061 -0.006164 -0.003112 -0.000001 -0.005063 0.000000
# 2 -0.006164 0.012334 -0.001734 -0.000004 0.000146 0.000000
# 3 -0.003112 -0.001734 0.010517 -0.000008 0.002124 0.000000
# 4 -0.000001 -0.000004 -0.000008 0.063524 0.000013 0.017522
# 5 -0.005063 0.000146 0.002124 0.000013 0.026563 0.000002
# 6 0.000000 0.000000 0.000000 0.017522 0.000002 0.048651
#
#
# Mechanical properties :
#
#
# Convention : Reuss Voigt Hill
#
# Bulk Modulus (GPa) = 40.17316 44.74283 42.45800
# Shear Modulus (GPa) = 23.15169 28.36408 25.75789
#
# Velocity S-wave (km/s) = 3.44310 3.81103 3.63173
# Velocity P-wave (km/s) = 6.03137 6.50201 6.27111
#
# Compressibility (1/GPa) = 0.02489224
#
# Stress axis : x y z
#
# Youngs Moduli (GPa) = 41.56112 81.07532 95.08778
#
# Poissons Ratio (x) = 0.49974 0.29594
# Poissons Ratio (y) = 0.25618 0.16484
# Poissons Ratio (z) = 0.12935 0.14055
#
# Static dielectric constant tensor:
#      x y z
#    x 1.682700 0.000000 0.008850 
#    y 0.000000 1.697350 0.000000 
#    z 0.008850 0.000000 1.718120 
# 
# From -- ./inp_files/62892.got.cif
#   From: 2010.05.17/outbox.cif.g08.bks.cpg/sg5_32_cif.got.tgz:62892.got - 2010.06.03 18:56:24.
