data_PCOD9124884
_publ_section_title
;
Structure prediction by ZEFSAII (Michael W. Deem and Ramdas Pophale) SiO2 
 PCOD9124884
Probable space group: C 2
;
_chemical_formula_sum "Si O2"
_cell_formula_units_Z 18
_cell_length_a 5.505173
_cell_length_b 18.256988
_cell_length_c 6.791641
_cell_angle_alpha 90.000000
_cell_angle_beta 74.397901
_cell_angle_gamma 90.000000
_cell_volume 657.460969
_symmetry_space_group_name_H-M "C 2"
_symmetry_group_IT_number 5
_symmetry_cell_setting 'monoclinic'
loop_
_space_group_symop_operation_xyz
x,y,z
-x,y,-z
1/2+x,1/2+y,z
1/2-x,1/2+y,-z
loop_
_atom_site_type_symbol
_atom_site_label
_atom_site_fract_x
_atom_site_fract_y
_atom_site_fract_z
Si Si1 0.000000 0.133240 0.000000
Si Si2 0.229431 0.043267 0.298166
Si Si3 0.719527 0.828282 0.258274
Si Si4 0.735728 0.380570 0.213693
Si Si5 0.479951 0.183560 0.770156
O O1 0.861237 0.078058 0.885994
O O2 0.177250 0.182889 0.820703
O O3 0.000000 0.038472 0.500000
O O4 0.331994 0.963209 0.225811
O O5 0.420508 0.106195 0.326252
O O6 0.416205 0.837370 0.328391
O O7 0.930802 0.883603 0.300071
O O8 0.742808 0.844658 0.011494
O O9 0.159254 0.752024 0.687914
O O10 0.500000 0.183919 0.000000
#
# Coordination Sequence:
#
# PCOD9124884 Si02
#       5
#     2   4   4   4   4
#     4  10  24  42  78 100 140 194 238 310 364 422
#     4  11  26  45  69 108 144 191 245 300 363 443
#     4  10  21  38  69 102 136 187 244 293 361 438
#     4  10  22  38  65 100 141 183 232 300 357 429
#     4  10  22  39  69 105 136 187 242 295 361 430
#
# _framework density 27.378048
#
# number of rings (size 3 to 8) (size 9 to 14) (size 15 to 20)
#    0.000    1.778    2.222    1.333   18.667    0.889 
#    0.000    2.222    0.000    0.000    0.000    0.000 
#    0.000    0.000    0.000    0.000    0.000    0.000 
#
# Total GULP energy -50194.324041 kJ/mol
# GULP energy per Si atom -5577.147116 kJ/mol
# Density = 2.731573 g / cm^3
# Si number density = 27.378048 Si / 1000 Ang^3
#
#
#
# Elastic Constant Matrix: (Units=GPa)
#
#
# Indices 1 2 3 4 5 6 
#
# 1 161.4670 64.1726 28.3006 0.0000 5.0036 0.0000
# 2 64.1726 235.3849 19.7340 0.0000 -4.0376 0.0000
# 3 28.3006 19.7340 75.2686 0.0000 8.3177 0.0000
# 4 0.0000 0.0000 0.0000 5.6852 0.0000 -32.4169
# 5 5.0036 -4.0376 8.3177 0.0000 70.1970 0.0000
# 6 0.0000 0.0000 0.0000 -32.4169 0.0000 -0.5584
#
#
#
# Elastic Compliance Matrix: (Units=1/GPa)
#
#
# Indices 1 2 3 4 5 6 
#
# 1 0.007317 -0.001814 -0.002236 0.000000 -0.000361 0.000000
# 2 -0.001814 0.004804 -0.000631 0.000000 0.000480 0.000000
# 3 -0.002236 -0.000631 0.014468 0.000000 -0.001591 0.000000
# 4 0.000000 0.000000 0.000000 0.000530 0.000000 -0.030755
# 5 -0.000361 0.000480 -0.001591 0.000000 0.014488 0.000000
# 6 0.000000 0.000000 0.000000 -0.030755 0.000000 -0.005394
#
#
# Mechanical properties :
#
#
# Convention : Reuss Voigt Hill
#
# Bulk Modulus (GPa) = 58.04358 77.39277 67.71818
# Shear Modulus (GPa) = 97.43730 39.05896 68.24813
#
# Velocity S-wave (km/s) = 5.97217 3.78120 4.99822
# Velocity P-wave (km/s) = 8.29473 6.88425 7.62219
#
# Compressibility (1/GPa) = 0.01722843
#
# Stress axis : x y z
#
# Youngs Moduli (GPa) = 136.66701 208.16379 69.12004
#
# Poissons Ratio (x) = 0.37752 0.15454
# Poissons Ratio (y) = 0.24786 0.04359
# Poissons Ratio (z) = 0.30556 0.13128
#
# Static dielectric constant tensor:
#      x y z
#    x 2.811680 0.000000 -0.302250 
#    y 0.000000 2.131030 0.000000 
#    z -0.302250 0.000000 2.343190 
# 
# From -- ./inp_files/2177.got.cif
#   From: 2010.05.17/outbox.cif.g08.bks.cpg/sg5_2_cif.got.tgz:2177.got - 2010.06.03 18:56:24.
