data_PCOD9124711
_publ_section_title
;
Structure prediction by ZEFSAII (Michael W. Deem and Ramdas Pophale) SiO2 
 PCOD9124711
Probable space group: C 2
;
_chemical_formula_sum "Si O2"
_cell_formula_units_Z 28
_cell_length_a 11.949417
_cell_length_b 14.401019
_cell_length_c 9.647109
_cell_angle_alpha 90.000000
_cell_angle_beta 48.490430
_cell_angle_gamma 90.000000
_cell_volume 1243.165875
_symmetry_space_group_name_H-M "C 2"
_symmetry_group_IT_number 5
_symmetry_cell_setting 'monoclinic'
loop_
_space_group_symop_operation_xyz
x,y,z
-x,y,-z
1/2+x,1/2+y,z
1/2-x,1/2+y,-z
loop_
_atom_site_type_symbol
_atom_site_label
_atom_site_fract_x
_atom_site_fract_y
_atom_site_fract_z
Si Si1 0.151696 0.290720 0.795061
Si Si2 0.799610 0.870340 0.924017
Si Si3 0.487800 0.871276 0.347875
Si Si4 0.429344 0.563647 0.709430
Si Si5 0.073243 0.566850 0.314564
Si Si6 0.634355 0.184174 0.994567
Si Si7 0.866565 0.073406 0.203937
O O1 0.280365 0.333870 0.782161
O O2 0.161346 0.181123 0.807487
O O3 0.132715 0.319788 0.650577
O O4 0.000000 0.320942 0.000000
O O5 0.885417 0.791899 0.942552
O O6 0.853727 0.974440 0.847405
O O7 0.643131 0.864546 0.136172
O O8 0.500000 0.841574 0.500000
O O9 0.464552 0.982227 0.365395
O O10 0.500000 0.548198 0.500000
O O11 0.572831 0.579055 0.690721
O O12 0.301994 0.646431 0.811955
O O13 0.108020 0.625667 0.154342
O O14 0.221318 0.523798 0.263633
O O15 0.000000 0.623675 0.500000
O O16 0.500000 0.161129 0.000000
O O17 0.000000 0.037402 0.000000
#
# Coordination Sequence:
#
# PCOD9124711 Si02
#       7
#     4   4   4   4   4   4   4
#     4   9  19  36  67  92 135 187 229 277 343 429
#     4  11  23  46  66 102 143 188 232 293 371 417
#     4  10  21  37  67 102 133 177 238 282 338 418
#     4  12  28  46  73 110 143 188 243 296 358 423
#     4  11  24  42  68  99 134 182 232 279 352 419
#     4  12  27  48  73 104 146 185 238 304 360 421
#     4  11  20  44  69  93 139 189 230 284 348 430
#
# _framework density 22.523140000000001
#
# number of rings (size 3 to 8) (size 9 to 14) (size 15 to 20)
#    0.000    1.143    4.286    1.714    4.000    5.714 
#    0.000    0.000    0.000    0.000    0.000    0.000 
#    0.000    0.000    0.000    0.000    0.000    0.000 
#
# Total GULP energy -77974.695883 kJ/mol
# GULP energy per Si atom -5569.621135 kJ/mol
# Density = 2.247188 g / cm^3
# Si number density = 22.523140 Si / 1000 Ang^3
#
#
#
# Elastic Constant Matrix: (Units=GPa)
#
#
# Indices 1 2 3 4 5 6 
#
# 1 103.9573 12.3668 28.1273 0.0000 36.5659 0.0000
# 2 12.3668 55.7744 2.2261 0.0000 3.3756 0.0000
# 3 28.1273 2.2261 124.2752 0.0000 27.9757 0.0000
# 4 0.0000 0.0000 0.0000 16.3321 0.0000 6.1518
# 5 36.5659 3.3756 27.9757 0.0000 35.8272 0.0000
# 6 0.0000 0.0000 0.0000 6.1518 0.0000 20.7025
#
#
#
# Elastic Compliance Matrix: (Units=1/GPa)
#
#
# Indices 1 2 3 4 5 6 
#
# 1 0.015337 -0.002467 0.000054 0.000000 -0.015463 0.000000
# 2 -0.002467 0.018430 0.000063 0.000000 0.000732 0.000000
# 3 0.000054 0.000063 0.009763 0.000000 -0.007684 0.000000
# 4 0.000000 0.000000 0.000000 0.068946 0.000000 -0.020488
# 5 -0.015463 0.000732 -0.007684 0.000000 0.049625 0.000000
# 6 0.000000 0.000000 0.000000 -0.020488 0.000000 0.054391
#
#
# Mechanical properties :
#
#
# Convention : Reuss Voigt Hill
#
# Bulk Modulus (GPa) = 25.75293 41.04970 33.40131
# Shear Modulus (GPa) = 21.35512 30.65812 26.00662
#
# Velocity S-wave (km/s) = 3.08253 3.69342 3.40172
# Velocity P-wave (km/s) = 4.91204 6.03768 5.50372
#
# Compressibility (1/GPa) = 0.03883054
#
# Stress axis : x y z
#
# Youngs Moduli (GPa) = 65.20090 54.26067 102.42542
#
# Poissons Ratio (x) = 0.13386 -0.00551
# Poissons Ratio (y) = 0.16085 -0.00650
# Poissons Ratio (z) = -0.00351 -0.00344
#
# Static dielectric constant tensor:
#      x y z
#    x 1.923100 0.000000 -0.053490 
#    y 0.000000 1.880940 0.000000 
#    z -0.053490 0.000000 1.890660 
# 
# From -- ./inp_files/20562.got.cif
#   From: 2010.05.17/outbox.cif.g08.bks.cpg/sg5_11_cif.got.tgz:20562.got - 2010.06.03 18:56:24.
