data_PCOD9124639
_publ_section_title
;
Structure prediction by ZEFSAII (Michael W. Deem and Ramdas Pophale) SiO2 
 PCOD9124639
Probable space group: C 2
;
_chemical_formula_sum "Si O2"
_cell_formula_units_Z 26
_cell_length_a 10.498288
_cell_length_b 9.530502
_cell_length_c 17.619889
_cell_angle_alpha 90.000000
_cell_angle_beta 52.096819
_cell_angle_gamma 90.000000
_cell_volume 1391.047437
_symmetry_space_group_name_H-M "C 2"
_symmetry_group_IT_number 5
_symmetry_cell_setting 'monoclinic'
loop_
_space_group_symop_operation_xyz
x,y,z
-x,y,-z
1/2+x,1/2+y,z
1/2-x,1/2+y,-z
loop_
_atom_site_type_symbol
_atom_site_label
_atom_site_fract_x
_atom_site_fract_y
_atom_site_fract_z
Si Si1 0.351236 0.111130 0.111583
Si Si2 0.602371 0.121064 0.584208
Si Si3 0.852170 0.278074 0.112189
Si Si4 0.336562 0.822669 0.422978
Si Si5 0.471404 0.779988 0.798672
Si Si6 0.000000 0.815712 0.500000
Si Si7 0.027021 0.612071 0.200332
O O1 0.194083 0.194682 0.143110
O O2 0.414586 0.155866 0.171384
O O3 0.315340 0.944582 0.126947
O O4 0.500000 0.132746 0.000000
O O5 0.478785 0.214989 0.580565
O O6 0.564305 0.131288 0.686497
O O7 0.229679 0.196457 0.501322
O O8 0.586194 0.958436 0.566831
O O9 0.694473 0.194968 0.143806
O O10 0.914421 0.235773 0.173220
O O11 0.000000 0.255801 0.000000
O O12 0.440859 0.767831 0.314854
O O13 0.168914 0.890386 0.450792
O O14 0.438642 0.946044 0.821974
#
# Coordination Sequence:
#
# PCOD9124639 Si02
#       7
#     4   4   4   4   4   2   4
#     4  10  22  39  57  83 117 146 184 234 280 332
#     4   9  19  37  53  79 110 143 183 226 270 326
#     4  10  21  37  60  84 109 147 191 229 278 338
#     4   9  19  37  54  79 109 146 182 227 272 326
#     4  10  21  38  56  84 116 145 187 232 279 329
#     4   8  18  36  54  72 114 142 176 232 274 310
#     4  10  21  38  56  84 115 144 188 233 274 334
#
# _framework density 18.690950999999998
#
# number of rings (size 3 to 8) (size 9 to 14) (size 15 to 20)
#    0.923    1.538    0.000    1.846    0.000    3.077 
#   11.077    0.000    0.000    0.000    0.000    0.000 
#    0.000    0.000    0.000    0.000    0.000    0.000 
#
# Total GULP energy -72403.019946 kJ/mol
# GULP energy per Si atom -5569.463073 kJ/mol
# Density = 1.864841 g / cm^3
# Si number density = 18.690951 Si / 1000 Ang^3
#
#
#
# Elastic Constant Matrix: (Units=GPa)
#
#
# Indices 1 2 3 4 5 6 
#
# 1 47.9944 3.4123 -9.8579 0.0000 2.1527 0.0000
# 2 3.4123 27.2036 13.0396 0.0000 3.4884 0.0000
# 3 -9.8579 13.0396 40.4007 0.0000 -0.2102 0.0000
# 4 0.0000 0.0000 0.0000 16.5470 0.0000 -6.0535
# 5 2.1527 3.4884 -0.2102 0.0000 31.9938 0.0000
# 6 0.0000 0.0000 0.0000 -6.0535 0.0000 21.8395
#
#
#
# Elastic Compliance Matrix: (Units=1/GPa)
#
#
# Indices 1 2 3 4 5 6 
#
# 1 0.022904 -0.006446 0.007665 0.000000 -0.000788 0.000000
# 2 -0.006446 0.046062 -0.016464 0.000000 -0.004697 0.000000
# 3 0.007665 -0.016464 0.031944 0.000000 0.001489 0.000000
# 4 0.000000 0.000000 0.000000 0.067254 0.000000 0.018642
# 5 -0.000788 -0.004697 0.001489 0.000000 0.031831 0.000000
# 6 0.000000 0.000000 0.000000 0.018642 0.000000 0.050956
#
#
# Mechanical properties :
#
#
# Convention : Reuss Voigt Hill
#
# Bulk Modulus (GPa) = 14.20057 14.30965 14.25511
# Shear Modulus (GPa) = 16.39807 21.34304 18.87055
#
# Velocity S-wave (km/s) = 2.96518 3.38285 3.18088
# Velocity P-wave (km/s) = 4.39740 4.78861 4.59717
#
# Compressibility (1/GPa) = 0.07041971
#
# Stress axis : x y z
#
# Youngs Moduli (GPa) = 43.66102 21.70967 31.30485
#
# Poissons Ratio (x) = 0.13994 -0.23995
# Poissons Ratio (y) = 0.28144 0.51541
# Poissons Ratio (z) = -0.33466 0.35743
#
# Static dielectric constant tensor:
#      x y z
#    x 1.646760 0.000000 0.018910 
#    y 0.000000 1.625010 0.000000 
#    z 0.018910 0.000000 1.634900 
# 
# From -- ./inp_files/64383.got.cif
#   From: 2010.05.17/outbox.cif.g08.bks.cpg/sg5_33_cif.got.tgz:64383.got - 2010.06.03 18:56:24.
