data_PCOD9124190
_publ_section_title
;
Structure prediction by ZEFSAII (Michael W. Deem and Ramdas Pophale) SiO2 
 PCOD9124190
Probable space group: C 2
;
_chemical_formula_sum "Si O2"
_cell_formula_units_Z 28
_cell_length_a 15.802545
_cell_length_b 9.377332
_cell_length_c 9.691543
_cell_angle_alpha 90.000000
_cell_angle_beta 52.329187
_cell_angle_gamma 90.000000
_cell_volume 1136.761482
_symmetry_space_group_name_H-M "C 2"
_symmetry_group_IT_number 5
_symmetry_cell_setting 'monoclinic'
loop_
_space_group_symop_operation_xyz
x,y,z
-x,y,-z
1/2+x,1/2+y,z
1/2-x,1/2+y,-z
loop_
_atom_site_type_symbol
_atom_site_label
_atom_site_fract_x
_atom_site_fract_y
_atom_site_fract_z
Si Si1 0.100164 0.088330 0.998625
Si Si2 0.787364 0.380324 0.447265
Si Si3 0.317016 0.180681 0.663192
Si Si4 0.235390 0.658229 0.693364
Si Si5 0.104898 0.961595 0.295258
Si Si6 0.471517 0.880099 0.823960
Si Si7 0.500000 0.967491 0.500000
Si Si8 0.000000 0.627867 0.000000
O O1 0.094614 0.255115 0.044784
O O2 0.086350 0.002794 0.154818
O O3 0.215700 0.086733 0.811471
O O4 0.000000 0.054185 0.000000
O O5 0.705981 0.288808 0.438120
O O6 0.762838 0.543329 0.435571
O O7 0.788540 0.305119 0.593873
O O8 0.904282 0.347684 0.271734
O O9 0.357497 0.296278 0.735948
O O10 0.410026 0.072780 0.531959
O O11 0.302491 0.569972 0.740478
O O12 0.111600 0.697705 0.845761
O O13 0.000000 0.977610 0.500000
O O14 0.458371 0.028431 0.915279
O O15 0.456544 0.885067 0.675430
#
# Coordination Sequence:
#
# PCOD9124190 Si02
#       8
#     4   4   4   4   4   4   2   2
#     4  12  25  46  74 100 138 183 237 291 349 413
#     4  10  20  42  68 101 135 181 228 280 343 416
#     4  11  24  47  68  98 144 186 223 284 357 416
#     4  10  22  39  73 101 141 188 233 286 351 420
#     4  11  25  45  72 100 143 183 232 295 353 412
#     4  11  22  43  70 100 128 182 230 280 332 417
#     4  12  28  42  72 102 140 180 234 280 350 424
#     4  10  20  42  70  96 138 182 226 272 348 418
#
# _framework density 24.631375999999999
#
# number of rings (size 3 to 8) (size 9 to 14) (size 15 to 20)
#    0.000    1.143    2.857    4.286    7.000    0.000 
#    0.000    0.000    1.571    3.429    0.000    0.000 
#    0.000    0.000    0.000    0.000    0.000    0.000 
#
# Total GULP energy -78308.071561 kJ/mol
# GULP energy per Si atom -5593.433683 kJ/mol
# Density = 2.457531 g / cm^3
# Si number density = 24.631376 Si / 1000 Ang^3
#
#
#
# Elastic Constant Matrix: (Units=GPa)
#
#
# Indices 1 2 3 4 5 6 
#
# 1 92.1741 24.8065 24.8382 0.0000 11.1007 0.0000
# 2 24.8065 49.3149 39.5332 0.0000 -8.1974 0.0000
# 3 24.8382 39.5332 89.8611 0.0000 1.0420 0.0000
# 4 0.0000 0.0000 0.0000 31.3343 0.0000 3.4089
# 5 11.1007 -8.1974 1.0420 0.0000 59.5408 0.0000
# 6 0.0000 0.0000 0.0000 3.4089 0.0000 19.4913
#
#
#
# Elastic Compliance Matrix: (Units=1/GPa)
#
#
# Indices 1 2 3 4 5 6 
#
# 1 0.013235 -0.006669 -0.000685 0.000000 -0.003374 0.000000
# 2 -0.006669 0.035972 -0.014057 0.000000 0.006442 0.000000
# 3 -0.000685 -0.014057 0.017526 0.000000 -0.002114 0.000000
# 4 0.000000 0.000000 0.000000 0.032533 0.000000 -0.005690
# 5 -0.003374 0.006442 -0.002114 0.000000 0.018348 0.000000
# 6 0.000000 0.000000 0.000000 -0.005690 0.000000 0.052300
#
#
# Mechanical properties :
#
#
# Convention : Reuss Voigt Hill
#
# Bulk Modulus (GPa) = 41.82125 45.52286 43.67206
# Shear Modulus (GPa) = 22.65461 31.55143 27.10302
#
# Velocity S-wave (km/s) = 3.03602 3.58291 3.32074
# Velocity P-wave (km/s) = 5.41347 5.96977 5.69841
#
# Compressibility (1/GPa) = 0.02391129
#
# Stress axis : x y z
#
# Youngs Moduli (GPa) = 75.55870 27.79954 57.05730
#
# Poissons Ratio (x) = 0.18539 0.03909
# Poissons Ratio (y) = 0.50389 0.80204
# Poissons Ratio (z) = 0.05177 0.39077
#
# Static dielectric constant tensor:
#      x y z
#    x 2.040600 0.000000 0.054950 
#    y 0.000000 1.952730 0.000000 
#    z 0.054950 0.000000 1.959520 
# 
# From -- ./inp_files/23816.got.cif
#   From: 2010.05.17/outbox.cif.g08.bks.cpg/sg5_12_cif.got.tgz:23816.got - 2010.06.03 18:56:24.
