data_PCOD9124521
_publ_section_title
;
Structure prediction by ZEFSAII (Michael W. Deem and Ramdas Pophale) SiO2 
 PCOD9124521
Probable space group: C 2
;
_chemical_formula_sum "Si O2"
_cell_formula_units_Z 26
_cell_length_a 9.188085
_cell_length_b 10.249570
_cell_length_c 20.587981
_cell_angle_alpha 90.000000
_cell_angle_beta 141.697403
_cell_angle_gamma 90.000000
_cell_volume 1201.728089
_symmetry_space_group_name_H-M "C 2"
_symmetry_group_IT_number 5
_symmetry_cell_setting 'monoclinic'
loop_
_space_group_symop_operation_xyz
x,y,z
-x,y,-z
1/2+x,1/2+y,z
1/2-x,1/2+y,-z
loop_
_atom_site_type_symbol
_atom_site_label
_atom_site_fract_x
_atom_site_fract_y
_atom_site_fract_z
Si Si1 0.482458 0.382040 0.313006
Si Si2 0.338157 0.526853 0.004923
Si Si3 0.264496 0.764305 0.067603
Si Si4 0.610949 0.403308 0.221358
Si Si5 0.023948 0.173866 0.650559
Si Si6 0.500000 0.775424 0.500000
Si Si7 0.294262 0.678049 0.697987
O O1 0.435550 0.367537 0.219290
O O2 0.409895 0.525390 0.310454
O O3 0.763588 0.360488 0.415763
O O4 0.367700 0.273963 0.318168
O O5 0.255213 0.662993 0.005023
O O6 0.485646 0.455501 0.113478
O O7 0.500000 0.555434 0.000000
O O8 0.157391 0.412237 0.921908
O O9 0.442482 0.705597 0.182462
O O10 0.000000 0.774464 0.000000
O O11 0.775431 0.280676 0.265276
O O12 0.755245 0.528536 0.299558
O O13 0.979201 0.191150 0.558457
O O14 0.810927 0.199517 0.626629
#
# Coordination Sequence:
#
# PCOD9124521 Si02
#       7
#     4   4   4   4   4   2   4
#     4  10  23  41  63  87 114 155 196 237 294 352
#     4  10  21  36  57  85 118 157 199 243 287 339
#     4  10  22  38  56  85 121 155 196 244 289 337
#     4   9  21  40  57  85 123 153 192 246 290 339
#     4  10  21  39  63  87 117 154 190 240 293 351
#     4  10  24  40  58  90 122 144 188 248 296 346
#     4  10  22  39  61  87 117 157 198 238 290 347
#
# _framework density 21.635508999999999
#
# number of rings (size 3 to 8) (size 9 to 14) (size 15 to 20)
#    0.000    2.154    0.000    1.846    0.000   16.000 
#    0.000    0.000    0.000    0.923    0.000    0.000 
#    0.000    0.000    0.000    0.000    0.000    0.000 
#
# Total GULP energy -72572.053519 kJ/mol
# GULP energy per Si atom -5582.465655 kJ/mol
# Density = 2.158627 g / cm^3
# Si number density = 21.635509 Si / 1000 Ang^3
#
#
#
# Elastic Constant Matrix: (Units=GPa)
#
#
# Indices 1 2 3 4 5 6 
#
# 1 144.4302 76.6775 34.8530 0.0000 -25.6291 0.0000
# 2 76.6775 132.5474 -2.3203 0.0000 4.2340 0.0000
# 3 34.8530 -2.3203 46.1229 0.0000 -5.5460 0.0000
# 4 0.0000 0.0000 0.0000 17.5060 0.0000 -7.9603
# 5 -25.6291 4.2340 -5.5460 0.0000 36.1528 0.0000
# 6 0.0000 0.0000 0.0000 -7.9603 0.0000 47.4236
#
#
#
# Elastic Compliance Matrix: (Units=1/GPa)
#
#
# Indices 1 2 3 4 5 6 
#
# 1 0.017968 -0.011002 -0.012679 0.000000 0.012081 0.000000
# 2 -0.011002 0.014313 0.008043 0.000000 -0.008242 0.000000
# 3 -0.012679 0.008043 0.031045 0.000000 -0.005167 0.000000
# 4 0.000000 0.000000 0.000000 0.061844 0.000000 0.010381
# 5 0.012081 -0.008242 -0.005167 0.000000 0.036398 0.000000
# 6 0.000000 0.000000 0.000000 0.010381 0.000000 0.022829
#
#
# Mechanical properties :
#
#
# Convention : Reuss Voigt Hill
#
# Bulk Modulus (GPa) = 31.20052 60.16897 45.68475
# Shear Modulus (GPa) = 22.08910 34.47585 28.28248
#
# Velocity S-wave (km/s) = 3.19872 3.99618 3.61948
# Velocity P-wave (km/s) = 5.30044 7.01165 6.21522
#
# Compressibility (1/GPa) = 0.03205075
#
# Stress axis : x y z
#
# Youngs Moduli (GPa) = 55.65392 69.86519 32.21126
#
# Poissons Ratio (x) = 0.76868 0.40839
# Poissons Ratio (y) = 0.61232 -0.25907
# Poissons Ratio (z) = 0.70561 -0.56192
#
# Static dielectric constant tensor:
#      x y z
#    x 1.793200 0.000000 -0.019410 
#    y 0.000000 1.786500 0.000000 
#    z -0.019410 0.000000 1.836690 
# 
# From -- ./inp_files/64585.got.cif
#   From: 2010.05.17/outbox.cif.g08.bks.cpg/sg5_33_cif.got.tgz:64585.got - 2010.06.03 18:56:24.
