data_PCOD9124180
_publ_section_title
;
Structure prediction by ZEFSAII (Michael W. Deem and Ramdas Pophale) SiO2 
 PCOD9124180
Probable space group: C 2
;
_chemical_formula_sum "Si O2"
_cell_formula_units_Z 32
_cell_length_a 10.027962
_cell_length_b 13.866102
_cell_length_c 13.340590
_cell_angle_alpha 90.000000
_cell_angle_beta 121.028000
_cell_angle_gamma 90.000000
_cell_volume 1589.571646
_symmetry_space_group_name_H-M "C 2"
_symmetry_group_IT_number 5
_symmetry_cell_setting 'monoclinic'
loop_
_space_group_symop_operation_xyz
x,y,z
-x,y,-z
1/2+x,1/2+y,z
1/2-x,1/2+y,-z
loop_
_atom_site_type_symbol
_atom_site_label
_atom_site_fract_x
_atom_site_fract_y
_atom_site_fract_z
Si Si1 0.577464 0.596480 0.142269
Si Si2 0.645293 0.998470 0.272766
Si Si3 0.318425 0.811810 0.966466
Si Si4 0.440512 0.300661 0.591325
Si Si5 0.899150 0.381521 0.556754
Si Si6 0.105279 0.644742 0.786624
Si Si7 0.385279 0.464829 0.215880
Si Si8 0.505531 0.797122 0.788349
O O1 0.760400 0.575757 0.204755
O O2 0.489137 0.524090 0.180080
O O3 0.566190 0.698578 0.197853
O O4 0.500000 0.597330 0.000000
O O5 0.513303 0.076689 0.200605
O O6 0.651917 0.974308 0.394636
O O7 0.797419 0.024409 0.268981
O O8 0.597919 0.890043 0.219578
O O9 0.209110 0.724318 0.886084
O O10 0.241446 0.909901 0.901139
O O11 0.500000 0.804468 0.000000
O O12 0.332291 0.806626 0.091751
O O13 0.500000 0.306445 0.500000
O O14 0.256585 0.320265 0.523990
O O15 0.504516 0.202744 0.665907
O O16 0.517857 0.385219 0.686452
O O17 0.000000 0.408541 0.500000
O O18 0.004660 0.313423 0.669894
#
# Coordination Sequence:
#
# PCOD9124180 Si02
#       8
#     4   4   4   4   4   4   4   4
#     4  12  24  41  68 105 137 174 234 283 341 421
#     4  10  23  43  66  99 136 177 226 276 352 405
#     4  11  18  41  70  91 132 184 222 269 342 429
#     4  11  22  47  71  93 134 187 236 266 347 432
#     4  10  23  42  70  99 131 179 228 288 332 397
#     4  11  23  40  69 104 133 176 227 288 346 409
#     4  11  25  40  70 101 132 180 230 282 346 409
#     4  10  20  42  67  89 138 183 221 263 352 410
#
# _framework density 20.131209999999999
#
# number of rings (size 3 to 8) (size 9 to 14) (size 15 to 20)
#    0.750    0.500    5.000    1.500    3.500    1.500 
#    2.250    0.625    2.750    0.000    0.000    0.000 
#    0.000    0.000    0.000    0.000    0.000    0.000 
#
# Total GULP energy -89104.599353 kJ/mol
# GULP energy per Si atom -5569.037460 kJ/mol
# Density = 2.008539 g / cm^3
# Si number density = 20.131210 Si / 1000 Ang^3
#
#
#
# Elastic Constant Matrix: (Units=GPa)
#
#
# Indices 1 2 3 4 5 6 
#
# 1 116.6496 34.5832 39.6311 0.0000 -4.9619 0.0000
# 2 34.5832 59.0094 12.6405 0.0000 4.3542 0.0000
# 3 39.6311 12.6405 99.5699 0.0000 4.5111 0.0000
# 4 0.0000 0.0000 0.0000 14.1736 0.0000 1.2892
# 5 -4.9619 4.3542 4.5111 0.0000 22.9961 0.0000
# 6 0.0000 0.0000 0.0000 1.2892 0.0000 14.6720
#
#
#
# Elastic Compliance Matrix: (Units=1/GPa)
#
#
# Indices 1 2 3 4 5 6 
#
# 1 0.012150 -0.006564 -0.004215 0.000000 0.004692 0.000000
# 2 -0.006564 0.021159 0.000174 0.000000 -0.005457 0.000000
# 3 -0.004215 0.000174 0.011847 0.000000 -0.003266 0.000000
# 4 0.000000 0.000000 0.000000 0.071122 0.000000 -0.006249
# 5 0.004692 -0.005457 -0.003266 0.000000 0.046172 0.000000
# 6 0.000000 0.000000 0.000000 -0.006249 0.000000 0.068706
#
#
# Mechanical properties :
#
#
# Convention : Reuss Voigt Hill
#
# Bulk Modulus (GPa) = 41.76283 49.88207 45.82245
# Shear Modulus (GPa) = 19.20494 22.92662 21.06578
#
# Velocity S-wave (km/s) = 3.09202 3.37836 3.23836
# Velocity P-wave (km/s) = 5.79118 6.32851 6.06580
#
# Compressibility (1/GPa) = 0.02394474
#
# Stress axis : x y z
#
# Youngs Moduli (GPa) = 82.30136 47.26157 84.40989
#
# Poissons Ratio (x) = 0.31023 0.35582
# Poissons Ratio (y) = 0.54024 -0.01467
# Poissons Ratio (z) = 0.34693 -0.00821
#
# Static dielectric constant tensor:
#      x y z
#    x 1.760900 0.000000 -0.033120 
#    y 0.000000 1.740010 0.000000 
#    z -0.033120 0.000000 1.781570 
# 
# From -- ./inp_files/50946.got.cif
#   From: 2010.05.17/outbox.cif.g08.bks.cpg/sg5_26_cif.got.tgz:50946.got - 2010.06.03 18:56:24.
