data_PCOD9124440
_publ_section_title
;
Structure prediction by ZEFSAII (Michael W. Deem and Ramdas Pophale) SiO2 
 PCOD9124440
Probable space group: C 2
;
_chemical_formula_sum "Si O2"
_cell_formula_units_Z 32
_cell_length_a 12.436362
_cell_length_b 18.657123
_cell_length_c 9.264060
_cell_angle_alpha 90.000000
_cell_angle_beta 146.902852
_cell_angle_gamma 90.000000
_cell_volume 1173.761774
_symmetry_space_group_name_H-M "C 2"
_symmetry_group_IT_number 5
_symmetry_cell_setting 'monoclinic'
loop_
_space_group_symop_operation_xyz
x,y,z
-x,y,-z
1/2+x,1/2+y,z
1/2-x,1/2+y,-z
loop_
_atom_site_type_symbol
_atom_site_label
_atom_site_fract_x
_atom_site_fract_y
_atom_site_fract_z
Si Si1 0.772937 0.173820 0.288152
Si Si2 0.850395 0.673076 0.180281
Si Si3 0.700039 0.970979 0.089933
Si Si4 0.283947 0.031118 0.590809
Si Si5 0.626072 0.529575 0.968128
Si Si6 0.644400 0.366153 0.027462
Si Si7 0.899222 0.311094 0.101041
Si Si8 0.667909 0.267529 0.441020
O O1 0.668740 0.168297 0.016739
O O2 0.729832 0.104889 0.337843
O O3 0.705534 0.235953 0.321518
O O4 0.000000 0.176956 0.500000
O O5 0.758927 0.599763 0.142733
O O6 0.707556 0.738136 0.061664
O O7 0.075441 0.703865 0.437634
O O8 0.680847 0.887295 0.040250
O O9 0.507054 0.010310 0.800477
O O10 0.730013 0.975574 0.293212
O O11 0.869253 0.015314 0.200152
O O12 0.111896 0.033989 0.276693
O O13 0.696706 0.450532 0.093786
O O14 0.493037 0.330918 0.739900
O O15 0.500000 0.358091 0.000000
O O16 0.841309 0.322297 0.207053
O O17 0.119972 0.301331 0.293872
#
# Coordination Sequence:
#
# PCOD9124440 Si02
#       8
#     4   4   4   4   4   4   4   4
#     4  12  19  31  54  87 120 147 183 249 314 359
#     4  11  21  34  55  85 116 155 200 250 307 362
#     4  10  21  33  55  82 123 157 195 237 297 376
#     4  11  20  34  55  87 123 154 196 244 313 369
#     4  11  20  37  57  84 121 159 201 253 305 358
#     4  10  23  37  56  84 119 161 204 247 298 364
#     4  10  21  38  54  84 119 158 200 244 296 360
#     4  11  21  34  56  81 121 156 194 243 309 366
#
# _framework density 27.262771999999998
#
# number of rings (size 3 to 8) (size 9 to 14) (size 15 to 20)
#    0.000    1.250    3.750    3.750    1.750    0.000 
#    0.000    0.000    2.750    0.000    0.000    0.000 
#   11.250    0.000    0.000    0.000    0.000    0.000 
#
# Total GULP energy -89279.903676 kJ/mol
# GULP energy per Si atom -5579.993980 kJ/mol
# Density = 2.720072 g / cm^3
# Si number density = 27.262772 Si / 1000 Ang^3
#
#
#
# Elastic Constant Matrix: (Units=GPa)
#
#
# Indices 1 2 3 4 5 6 
#
# 1 91.9316 54.1245 29.6263 0.0000 46.8540 0.0000
# 2 54.1245 239.9093 62.4003 0.0000 26.5322 0.0000
# 3 29.6263 62.4003 114.0319 0.0000 40.4056 0.0000
# 4 0.0000 0.0000 0.0000 22.3998 0.0000 8.9567
# 5 46.8540 26.5322 40.4056 0.0000 47.6751 0.0000
# 6 0.0000 0.0000 0.0000 8.9567 0.0000 54.2570
#
#
#
# Elastic Compliance Matrix: (Units=1/GPa)
#
#
# Indices 1 2 3 4 5 6 
#
# 1 0.025463 -0.004107 0.005273 0.000000 -0.027208 0.000000
# 2 -0.004107 0.005536 -0.003289 0.000000 0.003742 0.000000
# 3 0.005273 -0.003289 0.014845 0.000000 -0.015933 0.000000
# 4 0.000000 0.000000 0.000000 0.047798 0.000000 -0.007891
# 5 -0.027208 0.003742 -0.015933 0.000000 0.059135 0.000000
# 6 0.000000 0.000000 0.000000 -0.007891 0.000000 0.019733
#
#
# Mechanical properties :
#
#
# Convention : Reuss Voigt Hill
#
# Bulk Modulus (GPa) = 24.03950 82.01945 53.02947
# Shear Modulus (GPa) = 26.22976 44.84783 35.53879
#
# Velocity S-wave (km/s) = 3.10515 4.06029 3.61441
# Velocity P-wave (km/s) = 4.65755 7.22020 6.07553
#
# Compressibility (1/GPa) = 0.04159821
#
# Stress axis : x y z
#
# Youngs Moduli (GPa) = 39.27235 180.62654 67.36366
#
# Poissons Ratio (x) = 0.74184 -0.35518
# Poissons Ratio (y) = 0.16129 0.22153
# Poissons Ratio (z) = -0.20707 0.59401
#
# Static dielectric constant tensor:
#      x y z
#    x 2.288370 0.000000 -0.059080 
#    y 0.000000 2.124120 0.000000 
#    z -0.059080 0.000000 2.257260 
# 
# From -- ./inp_files/43381.got.cif
#   From: 2010.05.17/outbox.cif.g08.bks.cpg/sg5_22_cif.got.tgz:43381.got - 2010.06.03 18:56:24.
