data_PCOD9124344
_publ_section_title
;
Structure prediction by ZEFSAII (Michael W. Deem and Ramdas Pophale) SiO2 
 PCOD9124344
Probable space group: C 2
;
_chemical_formula_sum "Si O2"
_cell_formula_units_Z 18
_cell_length_a 13.040770
_cell_length_b 7.373743
_cell_length_c 19.678177
_cell_angle_alpha 90.000000
_cell_angle_beta 23.555866
_cell_angle_gamma 90.000000
_cell_volume 756.220358
_symmetry_space_group_name_H-M "C 2"
_symmetry_group_IT_number 5
_symmetry_cell_setting 'monoclinic'
loop_
_space_group_symop_operation_xyz
x,y,z
-x,y,-z
1/2+x,1/2+y,z
1/2-x,1/2+y,-z
loop_
_atom_site_type_symbol
_atom_site_label
_atom_site_fract_x
_atom_site_fract_y
_atom_site_fract_z
Si Si1 0.500000 0.209950 0.500000
Si Si2 0.171295 0.784871 0.526593
Si Si3 0.499826 0.937064 0.851829
Si Si4 0.250451 0.170815 0.891365
Si Si5 0.443806 0.662517 0.613040
O O1 0.616224 0.137867 0.500201
O O2 0.761985 0.308247 0.314138
O O3 0.450524 0.783606 0.390378
O O4 0.970050 0.745958 0.708473
O O5 0.104530 0.977374 0.532338
O O6 0.349235 0.007705 0.878153
O O7 0.329077 0.831736 0.009002
O O8 0.646940 0.109046 0.795553
O O9 0.000000 0.123570 0.000000
O O10 0.500000 0.716233 0.500000
#
# Coordination Sequence:
#
# PCOD9124344 Si02
#       5
#     2   4   4   4   4
#     4  10  20  44  68  94 126 172 214 264 304 392
#     4  11  21  42  70  89 132 169 208 264 324 363
#     4  11  23  45  63  93 133 160 217 263 314 378
#     4  12  23  43  64  93 133 170 200 272 321 374
#     4  11  21  44  66  92 127 167 215 264 304 384
#
# _framework density 23.802588
#
# number of rings (size 3 to 8) (size 9 to 14) (size 15 to 20)
#    0.000    0.889   11.111    0.000    0.000    1.778 
#   10.000    0.000    0.000    0.000    0.000    0.000 
#    0.000    0.000    0.000    0.000    0.000    0.000 
#
# Total GULP energy -50216.821373 kJ/mol
# GULP energy per Si atom -5579.646819 kJ/mol
# Density = 2.374841 g / cm^3
# Si number density = 23.802588 Si / 1000 Ang^3
#
#
#
# Elastic Constant Matrix: (Units=GPa)
#
#
# Indices 1 2 3 4 5 6 
#
# 1 194.5606 25.5623 29.1634 -0.0145 5.5248 0.0051
# 2 25.5623 15.7454 -5.1938 -0.0057 3.0984 0.0018
# 3 29.1634 -5.1938 99.6881 -0.0212 23.2505 0.0103
# 4 -0.0145 -0.0057 -0.0212 18.1835 0.0127 3.9937
# 5 5.5248 3.0984 23.2505 0.0127 44.1011 -0.0051
# 6 0.0051 0.0018 0.0103 3.9937 -0.0051 51.0142
#
#
#
# Elastic Compliance Matrix: (Units=1/GPa)
#
#
# Indices 1 2 3 4 5 6 
#
# 1 0.007323 -0.013295 -0.003237 -0.000004 0.001723 0.000001
# 2 -0.013295 0.090829 0.011085 0.000040 -0.010560 -0.000008
# 3 -0.003237 0.011085 0.013275 0.000023 -0.007372 -0.000005
# 4 -0.000004 0.000040 0.000023 0.055957 -0.000031 -0.004381
# 5 0.001723 -0.010560 -0.007372 -0.000031 0.027088 0.000007
# 6 0.000001 -0.000008 -0.000005 -0.004381 0.000007 0.019945
#
#
# Mechanical properties :
#
#
# Convention : Reuss Voigt Hill
#
# Bulk Modulus (GPa) = 9.94707 45.45088 27.69897
# Shear Modulus (GPa) = 19.31821 40.02391 29.67106
#
# Velocity S-wave (km/s) = 2.85195 4.10505 3.53448
# Velocity P-wave (km/s) = 3.87723 6.45019 5.32155
#
# Compressibility (1/GPa) = 0.10053213
#
# Stress axis : x y z
#
# Youngs Moduli (GPa) = 136.55938 11.00968 75.32882
#
# Poissons Ratio (x) = 0.14638 0.24383
# Poissons Ratio (y) = 1.81558 -0.83499
# Poissons Ratio (z) = 0.44202 -0.12204
#
# Static dielectric constant tensor:
#      x y z
#    x 2.011230 -0.000020 -0.015760 
#    y -0.000020 2.169280 0.000020 
#    z -0.015760 0.000020 1.856040 
# 
# From -- ./inp_files/44051.got.cif
#   From: 2010.05.17/outbox.cif.g08.bks.cpg/sg5_23_cif.got.tgz:44051.got - 2010.06.03 18:56:24.
