data_PCOD9124638
_publ_section_title
;
Structure prediction by ZEFSAII (Michael W. Deem and Ramdas Pophale) SiO2 
 PCOD9124638
Probable space group: C 2
;
_chemical_formula_sum "Si O2"
_cell_formula_units_Z 18
_cell_length_a 23.371582
_cell_length_b 4.944839
_cell_length_c 8.951537
_cell_angle_alpha 90.000000
_cell_angle_beta 125.366914
_cell_angle_gamma 90.000000
_cell_volume 843.609956
_symmetry_space_group_name_H-M "C 2"
_symmetry_group_IT_number 5
_symmetry_cell_setting 'monoclinic'
loop_
_space_group_symop_operation_xyz
x,y,z
-x,y,-z
1/2+x,1/2+y,z
1/2-x,1/2+y,-z
loop_
_atom_site_type_symbol
_atom_site_label
_atom_site_fract_x
_atom_site_fract_y
_atom_site_fract_z
Si Si1 0.500000 0.560890 0.000000
Si Si2 0.050031 0.780728 0.348258
Si Si3 0.260962 0.461129 0.913410
Si Si4 0.415645 0.603694 0.139413
Si Si5 0.619378 0.781229 0.593962
O O1 0.549842 0.366836 0.174261
O O2 0.454550 0.723489 0.052614
O O3 0.071822 0.482885 0.426216
O O4 0.103030 0.981969 0.512746
O O5 0.970956 0.871487 0.272874
O O6 0.200804 0.361805 0.710814
O O7 0.261442 0.246852 0.049971
O O8 0.340262 0.489382 0.978084
O O9 0.401971 0.787126 0.263187
#
# Coordination Sequence:
#
# PCOD9124638 Si02
#       5
#     2   4   4   4   4
#     4   8  22  46  60  92 132 166 200 256 330 362
#     4  10  23  40  63  92 123 161 211 252 309 363
#     4  10  21  37  59  91 125 158 201 258 312 358
#     4   9  21  41  64  90 129 162 205 253 318 365
#     4  11  21  38  64  95 117 161 215 257 292 369
#
# _framework density 21.336876
#
# number of rings (size 3 to 8) (size 9 to 14) (size 15 to 20)
#    1.333    0.889    0.000    3.333    0.000    9.778 
#    0.000    2.222    0.000    0.000    0.000    0.000 
#    0.000    0.000    0.000    0.000    0.000    0.000 
#
# Total GULP energy -50196.197782 kJ/mol
# GULP energy per Si atom -5577.355309 kJ/mol
# Density = 2.128831 g / cm^3
# Si number density = 21.336876 Si / 1000 Ang^3
#
#
#
# Elastic Constant Matrix: (Units=GPa)
#
#
# Indices 1 2 3 4 5 6 
#
# 1 84.1440 0.7295 50.6524 0.0000 24.6323 0.0000
# 2 0.7295 41.8578 2.3402 0.0000 0.9817 0.0000
# 3 50.6524 2.3402 103.3119 0.0000 7.1851 0.0000
# 4 0.0000 0.0000 0.0000 27.0187 0.0000 0.5546
# 5 24.6323 0.9817 7.1851 0.0000 43.1642 0.0000
# 6 0.0000 0.0000 0.0000 0.5546 0.0000 16.4770
#
#
#
# Elastic Compliance Matrix: (Units=1/GPa)
#
#
# Indices 1 2 3 4 5 6 
#
# 1 0.020471 0.000403 -0.009341 0.000000 -0.010136 0.000000
# 2 0.000403 0.023938 -0.000694 0.000000 -0.000659 0.000000
# 3 -0.009341 -0.000694 0.014066 0.000000 0.003005 0.000000
# 4 0.000000 0.000000 0.000000 0.037037 0.000000 -0.001247
# 5 -0.010136 -0.000659 0.003005 0.000000 0.028467 0.000000
# 6 0.000000 0.000000 0.000000 -0.001247 0.000000 0.060732
#
#
# Mechanical properties :
#
#
# Convention : Reuss Voigt Hill
#
# Bulk Modulus (GPa) = 25.50295 37.41753 31.46024
# Shear Modulus (GPa) = 23.03671 29.03809 26.03740
#
# Velocity S-wave (km/s) = 3.28939 3.69309 3.49707
# Velocity P-wave (km/s) = 5.13861 5.97995 5.57517
#
# Compressibility (1/GPa) = 0.03921115
#
# Stress axis : x y z
#
# Youngs Moduli (GPa) = 48.84905 41.77522 71.09396
#
# Poissons Ratio (x) = -0.01684 0.66408
# Poissons Ratio (y) = -0.01970 0.04935
# Poissons Ratio (z) = 0.45630 0.02900
#
# Static dielectric constant tensor:
#      x y z
#    x 1.779390 0.000000 0.001950 
#    y 0.000000 1.762660 0.000000 
#    z 0.001950 0.000000 1.796670 
# 
# From -- ./inp_files/30197.got.cif
#   From: 2010.05.17/outbox.cif.g08.bks.cpg/sg5_16_cif.got.tgz:30197.got - 2010.06.03 18:56:24.
