data_PCOD9124362
_publ_section_title
;
Structure prediction by ZEFSAII (Michael W. Deem and Ramdas Pophale) SiO2 
 PCOD9124362
Probable space group: C 2
;
_chemical_formula_sum "Si O2"
_cell_formula_units_Z 22
_cell_length_a 13.472159
_cell_length_b 11.726345
_cell_length_c 6.559320
_cell_angle_alpha 90.000000
_cell_angle_beta 80.580086
_cell_angle_gamma 90.000000
_cell_volume 1022.262728
_symmetry_space_group_name_H-M "C 2"
_symmetry_group_IT_number 5
_symmetry_cell_setting 'monoclinic'
loop_
_space_group_symop_operation_xyz
x,y,z
-x,y,-z
1/2+x,1/2+y,z
1/2-x,1/2+y,-z
loop_
_atom_site_type_symbol
_atom_site_label
_atom_site_fract_x
_atom_site_fract_y
_atom_site_fract_z
Si Si1 0.000000 0.048170 0.500000
Si Si2 0.904178 0.193743 0.181329
Si Si3 0.616553 0.939833 0.899922
Si Si4 0.740284 0.513883 0.801530
Si Si5 0.450362 0.360281 0.235114
Si Si6 0.397148 0.116046 0.435243
O O1 0.069672 0.132793 0.611575
O O2 0.973860 0.952234 0.682255
O O3 0.865898 0.321746 0.224456
O O4 0.825836 0.116124 0.084162
O O5 0.000000 0.198117 0.000000
O O6 0.632346 0.049688 0.757701
O O7 0.500000 0.942422 0.000000
O O8 0.687564 0.948143 0.070226
O O9 0.655817 0.426864 0.748034
O O10 0.808836 0.583607 0.619295
O O11 0.423958 0.245641 0.366462
O O12 0.500000 0.332402 0.000000
O O13 0.500000 0.067766 0.500000
#
# Coordination Sequence:
#
# PCOD9124362 Si02
#       6
#     2   4   4   4   4   4
#     4  10  20  44  72 100 136 180 236 280 356 412
#     4  10  25  45  71 103 139 185 230 295 352 426
#     4  11  25  45  68  95 147 184 227 290 355 416
#     4  11  26  44  69 107 134 184 243 287 350 421
#     4  11  26  47  76 104 144 186 239 296 354 429
#     4  12  26  44  71 102 141 189 236 291 356 418
#
# _framework density 21.520885
#
# number of rings (size 3 to 8) (size 9 to 14) (size 15 to 20)
#    0.000    1.091    2.727    2.727    6.364    5.818 
#    3.273    0.000    0.000    0.000    0.000    0.000 
#    0.000    0.000    0.000    0.000    0.000    0.000 
#
# Total GULP energy -61302.074499 kJ/mol
# GULP energy per Si atom -5572.915864 kJ/mol
# Density = 2.147190 g / cm^3
# Si number density = 21.520885 Si / 1000 Ang^3
#
#
#
# Elastic Constant Matrix: (Units=GPa)
#
#
# Indices 1 2 3 4 5 6 
#
# 1 87.5135 34.3315 39.7578 0.0000 0.1339 0.0000
# 2 34.3315 156.4791 49.2571 0.0000 9.8841 0.0000
# 3 39.7578 49.2571 76.7903 0.0000 6.1069 0.0000
# 4 0.0000 0.0000 0.0000 34.0959 0.0000 -0.8384
# 5 0.1339 9.8841 6.1069 0.0000 36.2925 0.0000
# 6 0.0000 0.0000 0.0000 -0.8384 0.0000 12.0229
#
#
#
# Elastic Compliance Matrix: (Units=1/GPa)
#
#
# Indices 1 2 3 4 5 6 
#
# 1 0.015158 -0.001142 -0.007233 0.000000 0.001472 0.000000
# 2 -0.001142 0.008158 -0.004526 0.000000 -0.001456 0.000000
# 3 -0.007233 -0.004526 0.019836 0.000000 -0.002078 0.000000
# 4 0.000000 0.000000 0.000000 0.029379 0.000000 0.002049
# 5 0.001472 -0.001456 -0.002078 0.000000 0.028295 0.000000
# 6 0.000000 0.000000 0.000000 0.002049 0.000000 0.083318
#
#
# Mechanical properties :
#
#
# Convention : Reuss Voigt Hill
#
# Bulk Modulus (GPa) = 57.63440 63.05288 60.34364
# Shear Modulus (GPa) = 23.17730 29.64467 26.41099
#
# Velocity S-wave (km/s) = 3.28528 3.71547 3.50698
# Velocity P-wave (km/s) = 6.42103 6.91147 6.67076
#
# Compressibility (1/GPa) = 0.01735075
#
# Stress axis : x y z
#
# Youngs Moduli (GPa) = 65.96983 122.58224 50.41452
#
# Poissons Ratio (x) = 0.13999 0.36464
# Poissons Ratio (y) = 0.07534 0.22816
# Poissons Ratio (z) = 0.47714 0.55478
#
# Static dielectric constant tensor:
#      x y z
#    x 1.755780 0.000000 0.019730 
#    y 0.000000 1.791060 0.000000 
#    z 0.019730 0.000000 1.783470 
# 
# From -- ./inp_files/6589.got.cif
#   From: 2010.05.17/outbox.cif.g08.bks.cpg/sg5_4_cif.got.tgz:6589.got - 2010.06.03 18:56:24.
