data_PCOD9124553
_publ_section_title
;
Structure prediction by ZEFSAII (Michael W. Deem and Ramdas Pophale) SiO2 
 PCOD9124553
Probable space group: C 2
;
_chemical_formula_sum "Si O2"
_cell_formula_units_Z 32
_cell_length_a 13.308434
_cell_length_b 9.263457
_cell_length_c 11.995624
_cell_angle_alpha 90.000000
_cell_angle_beta 79.303253
_cell_angle_gamma 90.000000
_cell_volume 1453.148385
_symmetry_space_group_name_H-M "C 2"
_symmetry_group_IT_number 5
_symmetry_cell_setting 'monoclinic'
loop_
_space_group_symop_operation_xyz
x,y,z
-x,y,-z
1/2+x,1/2+y,z
1/2-x,1/2+y,-z
loop_
_atom_site_type_symbol
_atom_site_label
_atom_site_fract_x
_atom_site_fract_y
_atom_site_fract_z
Si Si1 0.260244 0.037380 0.588609
Si Si2 0.375839 0.327703 0.534214
Si Si3 0.875235 0.323678 0.704970
Si Si4 0.789461 0.828721 0.076700
Si Si5 0.596143 0.506036 0.265492
Si Si6 0.529839 0.877335 0.866570
Si Si7 0.601304 0.554798 0.815584
Si Si8 0.794105 0.517033 0.085965
O O1 0.315168 0.178398 0.527332
O O2 0.197464 0.080514 0.713659
O O3 0.178930 0.951001 0.529258
O O4 0.349160 0.925809 0.607837
O O5 0.500000 0.316696 0.500000
O O6 0.363339 0.382349 0.663231
O O7 0.768419 0.305846 0.794007
O O8 0.912347 0.161689 0.670832
O O9 0.951929 0.393662 0.780085
O O10 0.827213 0.672257 0.032050
O O11 0.868665 0.954375 0.087454
O O12 0.710180 0.891031 0.004189
O O13 0.486395 0.474482 0.236325
O O14 0.677987 0.527652 0.151279
O O15 0.557396 0.708258 0.861234
O O16 0.631976 0.971120 0.829406
O O17 0.500000 0.918993 0.000000
#
# Coordination Sequence:
#
# PCOD9124553 Si02
#       8
#     4   4   4   4   4   4   4   4
#     4  11  24  47  70  97 133 171 216 284 338 398
#     4  12  25  47  71 103 133 170 228 282 343 403
#     4   9  21  42  64  91 129 170 216 264 331 391
#     4  10  21  36  60  87 125 165 214 267 313 392
#     4  10  22  42  66  92 126 173 216 273 332 400
#     4  11  21  39  61  93 132 176 217 264 322 396
#     4  10  22  40  66  90 126 174 215 265 331 398
#     4  11  22  38  58  91 127 172 219 265 329 385
#
# _framework density 22.021153000000002
#
# number of rings (size 3 to 8) (size 9 to 14) (size 15 to 20)
#    0.000    1.500    2.500    2.250    3.500    2.000 
#   11.250    0.000    0.000    0.000    0.000    0.000 
#    0.000    0.000    0.000    0.000    0.000    0.000 
#
# Total GULP energy -89278.412520 kJ/mol
# GULP energy per Si atom -5579.900782 kJ/mol
# Density = 2.197103 g / cm^3
# Si number density = 22.021153 Si / 1000 Ang^3
#
#
#
# Elastic Constant Matrix: (Units=GPa)
#
#
# Indices 1 2 3 4 5 6 
#
# 1 106.0921 30.7027 17.8469 0.0000 27.4609 0.0000
# 2 30.7027 70.9523 20.3800 0.0000 15.7422 0.0000
# 3 17.8469 20.3800 34.9441 0.0000 12.8900 0.0000
# 4 0.0000 0.0000 0.0000 27.9222 0.0000 11.1630
# 5 27.4609 15.7422 12.8900 0.0000 29.4811 0.0000
# 6 0.0000 0.0000 0.0000 11.1630 0.0000 33.5652
#
#
#
# Elastic Compliance Matrix: (Units=1/GPa)
#
#
# Indices 1 2 3 4 5 6 
#
# 1 0.013126 -0.003111 -0.001183 0.000000 -0.010048 0.000000
# 2 -0.003111 0.018489 -0.007895 0.000000 -0.003524 0.000000
# 3 -0.001183 -0.007895 0.037992 0.000000 -0.011293 0.000000
# 4 0.000000 0.000000 0.000000 0.041306 0.000000 -0.013737
# 5 -0.010048 -0.003524 -0.011293 0.000000 0.050099 0.000000
# 6 0.000000 0.000000 0.000000 -0.013737 0.000000 0.034361
#
#
# Mechanical properties :
#
#
# Convention : Reuss Voigt Hill
#
# Bulk Modulus (GPa) = 22.10933 38.87195 30.49064
# Shear Modulus (GPa) = 21.29227 27.73098 24.51162
#
# Velocity S-wave (km/s) = 3.11288 3.55249 3.33993
# Velocity P-wave (km/s) = 4.79394 5.87515 5.36187
#
# Compressibility (1/GPa) = 0.04522977
#
# Stress axis : x y z
#
# Youngs Moduli (GPa) = 76.18554 54.08476 26.32154
#
# Poissons Ratio (x) = 0.16824 0.03114
# Poissons Ratio (y) = 0.23699 0.20781
# Poissons Ratio (z) = 0.09013 0.42700
#
# Static dielectric constant tensor:
#      x y z
#    x 1.837900 0.000000 -0.021250 
#    y 0.000000 1.834960 0.000000 
#    z -0.021250 0.000000 1.826470 
# 
# From -- ./inp_files/41982.got.cif
#   From: 2010.05.17/outbox.cif.g08.bks.cpg/sg5_21_cif.got.tgz:41982.got - 2010.06.03 18:56:24.
