data_PCOD9124150
_publ_section_title
;
Structure prediction by ZEFSAII (Michael W. Deem and Ramdas Pophale) SiO2 
 PCOD9124150
Probable space group: C 2
;
_chemical_formula_sum "Si O2"
_cell_formula_units_Z 26
_cell_length_a 28.031774
_cell_length_b 5.239056
_cell_length_c 9.442528
_cell_angle_alpha 90.000000
_cell_angle_beta 68.603182
_cell_angle_gamma 90.000000
_cell_volume 1291.151112
_symmetry_space_group_name_H-M "C 2"
_symmetry_group_IT_number 5
_symmetry_cell_setting 'monoclinic'
loop_
_space_group_symop_operation_xyz
x,y,z
-x,y,-z
1/2+x,1/2+y,z
1/2-x,1/2+y,-z
loop_
_atom_site_type_symbol
_atom_site_label
_atom_site_fract_x
_atom_site_fract_y
_atom_site_fract_z
Si Si1 0.918285 0.657290 0.591707
Si Si2 0.956232 0.162247 0.712838
Si Si3 0.592765 0.638332 0.926420
Si Si4 0.044458 0.437293 0.732001
Si Si5 0.195041 0.094953 0.948204
Si Si6 0.189339 0.598186 0.150807
Si Si7 0.500000 0.259173 0.000000
O O1 0.944526 0.414466 0.636920
O O2 0.929738 0.611820 0.414174
O O3 0.858218 0.630696 0.692736
O O4 0.940993 0.912439 0.639745
O O5 0.015580 0.192889 0.695056
O O6 0.922887 0.179285 0.892353
O O7 0.580678 0.851415 0.821983
O O8 0.653061 0.589377 0.870009
O O9 0.551783 0.419686 0.933066
O O10 0.999229 0.589403 0.860705
O O11 0.254528 0.101750 0.838879
O O12 0.186320 0.340466 0.059921
O O13 0.187380 0.839122 0.047615
#
# Coordination Sequence:
#
# PCOD9124150 Si02
#       7
#     4   4   4   4   4   4   2
#     4  12  26  43  70  96 138 171 228 286 340 388
#     4  12  24  44  65  98 131 181 221 273 335 410
#     4  12  23  41  67  95 133 178 225 274 337 410
#     4  12  28  41  65 101 138 184 229 282 337 413
#     4  10  22  38  72  96 128 171 226 282 333 408
#     4  10  20  42  66 102 125 167 230 283 339 393
#     4  12  24  42  64  90 138 184 230 264 338 426
#
# _framework density 20.137067999999999
#
# number of rings (size 3 to 8) (size 9 to 14) (size 15 to 20)
#    0.000    0.615    6.154    1.385    4.308    2.462 
#    0.000    0.000    3.385    0.000    0.000    0.000 
#    0.000    0.000    0.000    0.000    0.000    0.000 
#
# Total GULP energy -72615.583316 kJ/mol
# GULP energy per Si atom -5585.814101 kJ/mol
# Density = 2.009124 g / cm^3
# Si number density = 20.137068 Si / 1000 Ang^3
#
#
#
# Elastic Constant Matrix: (Units=GPa)
#
#
# Indices 1 2 3 4 5 6 
#
# 1 162.8987 42.4371 47.4161 0.0000 -0.5303 0.0000
# 2 42.4371 120.0569 39.3567 0.0000 12.0338 0.0000
# 3 47.4161 39.3567 130.1608 0.0000 -2.4058 0.0000
# 4 0.0000 0.0000 0.0000 22.6259 0.0000 -11.6125
# 5 -0.5303 12.0338 -2.4058 0.0000 29.3091 0.0000
# 6 0.0000 0.0000 0.0000 -11.6125 0.0000 46.4994
#
#
#
# Elastic Compliance Matrix: (Units=1/GPa)
#
#
# Indices 1 2 3 4 5 6 
#
# 1 0.007246 -0.001974 -0.002028 0.000000 0.000775 0.000000
# 2 -0.001974 0.010285 -0.002473 0.000000 -0.004462 0.000000
# 3 -0.002028 -0.002473 0.009202 0.000000 0.001734 0.000000
# 4 0.000000 0.000000 0.000000 0.050695 0.000000 0.012660
# 5 0.000775 -0.004462 0.001734 0.000000 0.036107 0.000000
# 6 0.000000 0.000000 0.000000 0.012660 0.000000 0.024667
#
#
# Mechanical properties :
#
#
# Convention : Reuss Voigt Hill
#
# Bulk Modulus (GPa) = 72.56186 74.61512 73.58849
# Shear Modulus (GPa) = 32.10322 38.61397 35.35860
#
# Velocity S-wave (km/s) = 3.99712 4.38374 4.19489
# Velocity P-wave (km/s) = 7.57726 7.92193 7.75151
#
# Compressibility (1/GPa) = 0.01378134
#
# Stress axis : x y z
#
# Youngs Moduli (GPa) = 138.00733 97.22768 108.67634
#
# Poissons Ratio (x) = 0.19193 0.22044
# Poissons Ratio (y) = 0.27243 0.26879
# Poissons Ratio (z) = 0.27994 0.24047
#
# Static dielectric constant tensor:
#      x y z
#    x 1.774470 0.000000 0.016430 
#    y 0.000000 1.770540 0.000000 
#    z 0.016430 0.000000 1.719620 
# 
# From -- ./inp_files/31371.got.cif
#   From: 2010.05.17/outbox.cif.g08.bks.cpg/sg5_16_cif.got.tgz:31371.got - 2010.06.03 18:56:24.
