data_PCOD9124435
_publ_section_title
;
Structure prediction by ZEFSAII (Michael W. Deem and Ramdas Pophale) SiO2 
 PCOD9124435
Probable space group: C 2
;
_chemical_formula_sum "Si O2"
_cell_formula_units_Z 30
_cell_length_a 25.224613
_cell_length_b 5.115414
_cell_length_c 18.687659
_cell_angle_alpha 90.000000
_cell_angle_beta 141.400798
_cell_angle_gamma 90.000000
_cell_volume 1504.365642
_symmetry_space_group_name_H-M "C 2"
_symmetry_group_IT_number 5
_symmetry_cell_setting 'monoclinic'
loop_
_space_group_symop_operation_xyz
x,y,z
-x,y,-z
1/2+x,1/2+y,z
1/2-x,1/2+y,-z
loop_
_atom_site_type_symbol
_atom_site_label
_atom_site_fract_x
_atom_site_fract_y
_atom_site_fract_z
Si Si1 0.866148 0.096920 0.128692
Si Si2 0.344592 0.937646 0.636340
Si Si3 0.950331 0.915403 0.718383
Si Si4 0.500000 0.715192 0.500000
Si Si5 0.197204 0.599113 0.856735
Si Si6 0.718899 0.795232 0.578546
Si Si7 0.425149 0.446987 0.535196
Si Si8 0.670864 0.052540 0.663168
O O1 0.857185 0.364801 0.164196
O O2 0.955611 0.037322 0.184504
O O3 0.845497 0.864992 0.161869
O O4 0.790616 0.090764 0.990703
O O5 0.419617 0.152703 0.724966
O O6 0.276388 0.041908 0.622560
O O7 0.387266 0.650028 0.678225
O O8 0.290459 0.962270 0.504267
O O9 0.941614 0.811042 0.626823
O O10 0.505890 0.531210 0.575379
O O11 0.584373 0.884368 0.582581
O O12 0.203901 0.587797 0.778078
O O13 0.622080 0.703700 0.486922
O O14 0.735421 0.928115 0.672608
O O15 0.363292 0.306958 0.414351
#
# Coordination Sequence:
#
# PCOD9124435 Si02
#       8
#     4   4   4   2   4   4   4   4
#     4  10  22  42  61  88 117 160 209 244 297 356
#     4  11  22  37  58  84 116 158 194 251 286 360
#     4  11  22  36  59  85 115 151 203 244 295 344
#     4  10  22  32  48  82 126 154 188 224 310 360
#     4  10  23  39  63  87 120 161 201 250 294 361
#     4  10  22  37  54  84 119 155 202 235 305 363
#     4  10  21  33  50  82 116 155 183 239 293 371
#     4  11  22  35  56  87 120 162 196 243 306 368
#
# _framework density 19.941959000000001
#
# number of rings (size 3 to 8) (size 9 to 14) (size 15 to 20)
#    0.000    1.600    1.333    3.600    9.333    0.000 
#    0.000    0.000    0.000    0.800    0.000    0.000 
#    0.000    0.000    0.000    0.000    0.000    0.000 
#
# Total GULP energy -83537.417447 kJ/mol
# GULP energy per Si atom -5569.161163 kJ/mol
# Density = 1.989657 g / cm^3
# Si number density = 19.941959 Si / 1000 Ang^3
#
#
#
# Elastic Constant Matrix: (Units=GPa)
#
#
# Indices 1 2 3 4 5 6 
#
# 1 105.0035 27.8078 29.7334 -0.0004 -3.9053 -0.0008
# 2 27.8078 87.8118 16.8157 -0.0005 -5.6292 0.0016
# 3 29.7334 16.8157 73.2849 0.0000 -7.9519 -0.0002
# 4 -0.0004 -0.0005 0.0000 11.1888 0.0000 -3.1198
# 5 -3.9053 -5.6292 -7.9519 0.0000 36.3428 -0.0002
# 6 -0.0008 0.0016 -0.0002 -3.1198 -0.0002 35.5286
#
#
#
# Elastic Compliance Matrix: (Units=1/GPa)
#
#
# Indices 1 2 3 4 5 6 
#
# 1 0.011404 -0.002854 -0.003981 0.000000 -0.000088 0.000000
# 2 -0.002854 0.012684 -0.001611 0.000000 0.001306 -0.000001
# 3 -0.003981 -0.001611 0.015935 0.000000 0.002809 0.000000
# 4 0.000000 0.000000 0.000000 0.091619 0.000000 0.008045
# 5 -0.000088 0.001306 0.002809 0.000000 0.028323 0.000000
# 6 0.000000 -0.000001 0.000000 0.008045 0.000000 0.028853
#
#
# Mechanical properties :
#
#
# Convention : Reuss Voigt Hill
#
# Bulk Modulus (GPa) = 43.23403 46.09045 44.66224
# Shear Modulus (GPa) = 23.42800 29.39491 26.41145
#
# Velocity S-wave (km/s) = 3.43127 3.84347 3.64320
# Velocity P-wave (km/s) = 6.11761 6.54666 6.33577
#
# Compressibility (1/GPa) = 0.02312993
#
# Stress axis : x y z
#
# Youngs Moduli (GPa) = 87.69230 78.83915 62.75468
#
# Poissons Ratio (x) = 0.22504 0.24984
# Poissons Ratio (y) = 0.25031 0.10108
# Poissons Ratio (z) = 0.34912 0.12698
#
# Static dielectric constant tensor:
#      x y z
#    x 1.778630 0.000000 -0.019380 
#    y 0.000000 1.797700 0.000000 
#    z -0.019380 0.000000 1.754000 
# 
# From -- ./inp_files/63167.got.cif
#   From: 2010.05.17/outbox.cif.g08.bks.cpg/sg5_32_cif.got.tgz:63167.got - 2010.06.03 18:56:24.
