data_PCOD9124932
_publ_section_title
;
Structure prediction by ZEFSAII (Michael W. Deem and Ramdas Pophale) SiO2 
 PCOD9124932
Probable space group: C 2
;
_chemical_formula_sum "Si O2"
_cell_formula_units_Z 32
_cell_length_a 11.532261
_cell_length_b 8.257693
_cell_length_c 25.780298
_cell_angle_alpha 90.000000
_cell_angle_beta 34.021165
_cell_angle_gamma 90.000000
_cell_volume 1373.600783
_symmetry_space_group_name_H-M "C 2"
_symmetry_group_IT_number 5
_symmetry_cell_setting 'monoclinic'
loop_
_space_group_symop_operation_xyz
x,y,z
-x,y,-z
1/2+x,1/2+y,z
1/2-x,1/2+y,-z
loop_
_atom_site_type_symbol
_atom_site_label
_atom_site_fract_x
_atom_site_fract_y
_atom_site_fract_z
Si Si1 0.609010 0.001480 0.283792
Si Si2 0.597186 0.241658 0.035184
Si Si3 0.010661 0.101593 0.074573
Si Si4 0.658603 0.928856 0.873283
Si Si5 0.657519 0.702904 0.626477
Si Si6 0.463644 0.300346 0.203525
Si Si7 0.483098 0.214333 0.589313
Si Si8 0.216965 0.005229 0.283440
O O1 0.777796 0.067660 0.180827
O O2 0.497191 0.129117 0.362349
O O3 0.447983 0.874048 0.320782
O O4 0.761712 0.905689 0.266390
O O5 0.583758 0.429809 0.022111
O O6 0.561991 0.263889 0.110383
O O7 0.422864 0.109973 0.083554
O O8 0.812870 0.145897 0.948395
O O9 0.986569 0.277611 0.057313
O O10 0.877699 0.888880 0.817972
O O11 0.663422 0.919226 0.808427
O O12 0.803892 0.641227 0.618423
O O13 0.464212 0.594979 0.681526
O O14 0.807885 0.719586 0.521084
O O15 0.371746 0.127976 0.254597
O O16 0.397351 0.390221 0.634648
#
# Coordination Sequence:
#
# PCOD9124932 Si02
#       8
#     4   4   4   4   4   4   4   4
#     4  10  21  40  60  86 121 158 202 253 308 362
#     4  10  22  41  62  87 126 167 207 257 307 362
#     4  11  21  38  64  87 124 167 206 256 311 366
#     4  11  21  41  65  88 126 165 205 262 308 364
#     4  10  23  39  59  91 122 155 202 258 304 369
#     4   9  22  39  62  90 120 163 207 256 303 368
#     4  11  21  37  64  89 119 160 202 246 316 375
#     4  10  21  39  61  90 125 160 206 253 311 370
#
# _framework density 23.296431999999999
#
# number of rings (size 3 to 8) (size 9 to 14) (size 15 to 20)
#    0.000    1.750    2.500    2.250    1.750    0.500 
#    0.000    0.000    8.250    6.000    0.000    0.000 
#    0.000    0.000    0.000    0.000    0.000    0.000 
#
# Total GULP energy -89276.023494 kJ/mol
# GULP energy per Si atom -5579.751468 kJ/mol
# Density = 2.324341 g / cm^3
# Si number density = 23.296432 Si / 1000 Ang^3
#
#
#
# Elastic Constant Matrix: (Units=GPa)
#
#
# Indices 1 2 3 4 5 6 
#
# 1 50.6290 23.4697 12.2510 0.0000 -13.8286 0.0000
# 2 23.4697 129.8920 23.8118 0.0000 -16.4732 0.0000
# 3 12.2510 23.8118 85.3776 -0.0001 -4.3581 0.0000
# 4 0.0000 0.0000 -0.0001 21.5626 0.0000 -3.4659
# 5 -13.8286 -16.4732 -4.3581 0.0000 33.6676 -0.0001
# 6 0.0000 0.0000 0.0000 -3.4659 -0.0001 -105.4497
#
#
#
# Elastic Compliance Matrix: (Units=1/GPa)
#
#
# Indices 1 2 3 4 5 6 
#
# 1 0.023829 -0.002875 -0.002204 0.000000 0.008095 0.000000
# 2 -0.002875 0.008946 -0.001932 0.000000 0.002946 0.000000
# 3 -0.002204 -0.001932 0.012556 0.000000 -0.000225 0.000000
# 4 0.000000 0.000000 0.000000 0.046133 0.000000 -0.001516
# 5 0.008095 0.002946 -0.000225 0.000000 0.034440 0.000000
# 6 0.000000 0.000000 0.000000 -0.001516 0.000000 -0.009433
#
#
# Mechanical properties :
#
#
# Convention : Reuss Voigt Hill
#
# Bulk Modulus (GPa) = 31.93995 42.77373 37.35684
# Shear Modulus (GPa) = 35.47897 3.71386 19.59642
#
# Velocity S-wave (km/s) = 3.90671 1.26398 2.90345
# Velocity P-wave (km/s) = 5.83866 4.53108 5.22592
#
# Compressibility (1/GPa) = 0.03130875
#
# Stress axis : x y z
#
# Youngs Moduli (GPa) = 41.96626 111.78202 79.64111
#
# Poissons Ratio (x) = 0.32135 0.17555
# Poissons Ratio (y) = 0.12064 0.15388
# Poissons Ratio (z) = 0.09250 0.21598
#
# Static dielectric constant tensor:
#      x y z
#    x 1.905650 0.000000 0.004970 
#    y 0.000000 1.951040 0.000000 
#    z 0.004970 0.000000 1.857520 
# 
# From -- ./inp_files/52444.got.cif
#   From: 2010.05.17/outbox.cif.g08.bks.cpg/sg5_27_cif.got.tgz:52444.got - 2010.06.03 18:56:24.
