data_PCOD9124874
_publ_section_title
;
Structure prediction by ZEFSAII (Michael W. Deem and Ramdas Pophale) SiO2 
 PCOD9124874
Probable space group: C 2
;
_chemical_formula_sum "Si O2"
_cell_formula_units_Z 30
_cell_length_a 15.127331
_cell_length_b 8.156418
_cell_length_c 12.053213
_cell_angle_alpha 90.000000
_cell_angle_beta 117.944436
_cell_angle_gamma 90.000000
_cell_volume 1313.781734
_symmetry_space_group_name_H-M "C 2"
_symmetry_group_IT_number 5
_symmetry_cell_setting 'monoclinic'
loop_
_space_group_symop_operation_xyz
x,y,z
-x,y,-z
1/2+x,1/2+y,z
1/2-x,1/2+y,-z
loop_
_atom_site_type_symbol
_atom_site_label
_atom_site_fract_x
_atom_site_fract_y
_atom_site_fract_z
Si Si1 0.903707 0.890970 0.005657
Si Si2 0.296859 0.465928 0.364769
Si Si3 0.226290 0.476089 0.748638
Si Si4 0.505405 0.901739 0.341262
Si Si5 0.734836 0.321825 0.879856
Si Si6 0.500000 0.625258 0.500000
Si Si7 0.811020 0.619513 0.500003
Si Si8 0.445542 0.776605 0.077914
O O1 0.860775 0.824194 0.096197
O O2 0.934189 0.079100 0.058477
O O3 0.814119 0.879780 0.862525
O O4 0.000000 0.818719 0.000000
O O5 0.254209 0.446734 0.216002
O O6 0.409951 0.516686 0.406327
O O7 0.241015 0.592936 0.412113
O O8 0.301273 0.298153 0.439363
O O9 0.111724 0.420264 0.697350
O O10 0.234762 0.650155 0.816082
O O11 0.239277 0.504919 0.624999
O O12 0.542226 0.745079 0.431198
O O13 0.508043 0.846031 0.216238
O O14 0.574863 0.054675 0.414953
O O15 0.832036 0.340099 0.013855
O O16 0.500000 0.834168 0.000000
#
# Coordination Sequence:
#
# PCOD9124874 Si02
#       8
#     4   4   4   4   4   2   4   4
#     4  10  21  41  67  98 130 175 225 282 339 406
#     4  11  26  43  68 102 137 179 228 287 334 416
#     4  10  22  40  66  92 136 176 219 279 341 402
#     4  12  22  43  69  95 134 182 224 276 337 414
#     4  10  21  41  65  95 134 173 223 283 336 401
#     4  12  26  40  70  98 128 182 230 276 348 398
#     4  11  24  44  68  99 141 178 230 275 346 398
#     4  10  21  38  67  95 127 175 222 269 340 403
#
# _framework density 22.834844
#
# number of rings (size 3 to 8) (size 9 to 14) (size 15 to 20)
#    0.000    1.333    2.667    2.400    3.733    5.333 
#    0.000    0.667    0.000    0.000    0.000    0.000 
#    0.000    0.000    0.000    0.000    0.000    0.000 
#
# Total GULP energy -83788.211869 kJ/mol
# GULP energy per Si atom -5585.880791 kJ/mol
# Density = 2.278287 g / cm^3
# Si number density = 22.834844 Si / 1000 Ang^3
#
#
#
# Elastic Constant Matrix: (Units=GPa)
#
#
# Indices 1 2 3 4 5 6 
#
# 1 101.3936 -5.7612 14.7678 0.0000 -10.5426 0.0000
# 2 -5.7612 33.4233 7.0933 0.0000 1.8164 0.0000
# 3 14.7678 7.0933 110.2185 0.0000 -16.4058 0.0000
# 4 0.0000 0.0000 0.0000 18.1744 0.0000 3.3598
# 5 -10.5426 1.8164 -16.4058 0.0000 44.7748 0.0000
# 6 0.0000 0.0000 0.0000 3.3598 0.0000 30.7791
#
#
#
# Elastic Compliance Matrix: (Units=1/GPa)
#
#
# Indices 1 2 3 4 5 6 
#
# 1 0.010350 0.001941 -0.001228 0.000000 0.001908 0.000000
# 2 0.001941 0.030878 -0.002502 0.000000 -0.001712 0.000000
# 3 -0.001228 -0.002502 0.009911 0.000000 0.003444 0.000000
# 4 0.000000 0.000000 0.000000 0.056156 0.000000 -0.006130
# 5 0.001908 -0.001712 0.003444 0.000000 0.024115 0.000000
# 6 0.000000 0.000000 0.000000 -0.006130 0.000000 0.033159
#
#
# Mechanical properties :
#
#
# Convention : Reuss Voigt Hill
#
# Bulk Modulus (GPa) = 21.02555 30.80391 25.91473
# Shear Modulus (GPa) = 27.17396 34.00801 30.59099
#
# Velocity S-wave (km/s) = 3.45341 3.86334 3.66411
# Velocity P-wave (km/s) = 5.01289 5.78097 5.41058
#
# Compressibility (1/GPa) = 0.04756118
#
# Stress axis : x y z
#
# Youngs Moduli (GPa) = 96.61767 32.38564 100.89776
#
# Poissons Ratio (x) = -0.06286 0.12386
# Poissons Ratio (y) = -0.18752 0.25246
# Poissons Ratio (z) = 0.11861 0.08103
#
# Static dielectric constant tensor:
#      x y z
#    x 1.894890 0.000000 0.020600 
#    y 0.000000 1.888390 0.000000 
#    z 0.020600 0.000000 1.742230 
# 
# From -- ./inp_files/42055.got.cif
#   From: 2010.05.17/outbox.cif.g08.bks.cpg/sg5_22_cif.got.tgz:42055.got - 2010.06.03 18:56:24.
