data_PCOD9124649
_publ_section_title
;
Structure prediction by ZEFSAII (Michael W. Deem and Ramdas Pophale) SiO2 
 PCOD9124649
Probable space group: C 2
;
_chemical_formula_sum "Si O2"
_cell_formula_units_Z 30
_cell_length_a 14.439291
_cell_length_b 5.187115
_cell_length_c 20.651636
_cell_angle_alpha 90.000000
_cell_angle_beta 120.176196
_cell_angle_gamma 90.000000
_cell_volume 1337.158908
_symmetry_space_group_name_H-M "C 2"
_symmetry_group_IT_number 5
_symmetry_cell_setting 'monoclinic'
loop_
_space_group_symop_operation_xyz
x,y,z
-x,y,-z
1/2+x,1/2+y,z
1/2-x,1/2+y,-z
loop_
_atom_site_type_symbol
_atom_site_label
_atom_site_fract_x
_atom_site_fract_y
_atom_site_fract_z
Si Si1 0.287741 0.388110 0.092569
Si Si2 0.500000 0.172223 0.500000
Si Si3 0.676060 0.415253 0.744836
Si Si4 0.615508 0.885404 0.936443
Si Si5 0.175296 0.910875 0.471413
Si Si6 0.134944 0.414815 0.657245
Si Si7 0.420171 0.935755 0.783931
Si Si8 0.382131 0.434435 0.694408
O O1 0.313717 0.446979 0.175348
O O2 0.352596 0.598068 0.073803
O O3 0.323803 0.100085 0.086102
O O4 0.164345 0.420597 0.025302
O O5 0.593609 0.343539 0.500494
O O6 0.551479 0.992456 0.573023
O O7 0.617961 0.641910 0.685268
O O8 0.797528 0.427924 0.762071
O O9 0.631543 0.138123 0.709710
O O10 0.493377 0.922404 0.873233
O O11 0.262346 0.679635 0.498321
O O12 0.115225 0.917105 0.381629
O O13 0.255087 0.425335 0.668704
O O14 0.433519 0.692272 0.741442
O O15 0.436891 0.195355 0.749505
#
# Coordination Sequence:
#
# PCOD9124649 Si02
#       8
#     4   2   4   4   4   4   4   4
#     4  10  21  38  60  89 128 164 205 266 319 368
#     4  12  28  46  74 102 132 184 238 276 360 422
#     4  10  22  40  63  89 127 164 204 273 318 374
#     4  10  21  37  60  90 126 166 209 259 313 391
#     4  12  27  46  71  98 137 178 226 294 343 409
#     4  10  23  41  64  92 127 164 216 272 329 401
#     4  10  21  38  65  90 123 167 211 252 325 389
#     4  10  21  42  64  89 130 170 203 277 332 379
#
# _framework density 22.435628000000001
#
# number of rings (size 3 to 8) (size 9 to 14) (size 15 to 20)
#    0.000    1.600    1.333    2.400    3.733    5.867 
#    0.000    0.000    0.000    9.600    0.000    0.000 
#    0.000    0.000    0.000    0.000    0.000    0.000 
#
# Total GULP energy -83954.628601 kJ/mol
# GULP energy per Si atom -5596.975240 kJ/mol
# Density = 2.238456 g / cm^3
# Si number density = 22.435628 Si / 1000 Ang^3
#
#
#
# Elastic Constant Matrix: (Units=GPa)
#
#
# Indices 1 2 3 4 5 6 
#
# 1 59.2835 5.2613 21.7957 0.0000 2.1956 -0.0001
# 2 5.2613 76.8896 -11.0142 0.0001 5.8212 -0.0002
# 3 21.7957 -11.0142 92.6844 0.0000 6.8726 -0.0001
# 4 0.0000 0.0001 0.0000 31.8157 0.0000 3.9392
# 5 2.1956 5.8212 6.8726 0.0000 37.9306 0.0000
# 6 -0.0001 -0.0002 -0.0001 3.9392 0.0000 8.0195
#
#
#
# Elastic Compliance Matrix: (Units=1/GPa)
#
#
# Indices 1 2 3 4 5 6 
#
# 1 0.018747 -0.001952 -0.004645 0.000000 0.000056 0.000000
# 2 -0.001952 0.013644 0.002258 0.000000 -0.002390 0.000000
# 3 -0.004645 0.002258 0.012321 0.000000 -0.002310 0.000000
# 4 0.000000 0.000000 0.000000 0.033466 0.000000 -0.016439
# 5 0.000056 -0.002390 -0.002310 0.000000 0.027146 0.000000
# 6 0.000000 0.000000 0.000000 -0.016439 0.000000 0.132770
#
#
# Mechanical properties :
#
#
# Convention : Reuss Voigt Hill
#
# Bulk Modulus (GPa) = 27.75243 28.99367 28.37305
# Shear Modulus (GPa) = 19.32116 29.74083 24.53100
#
# Velocity S-wave (km/s) = 2.93777 3.64484 3.31024
# Velocity P-wave (km/s) = 4.88917 5.53753 5.22342
#
# Compressibility (1/GPa) = 0.03603288
#
# Stress axis : x y z
#
# Youngs Moduli (GPa) = 53.34206 73.29448 81.16135
#
# Poissons Ratio (x) = 0.14310 0.37697
# Poissons Ratio (y) = 0.10414 -0.18324
# Poissons Ratio (z) = 0.24776 -0.16548
#
# Static dielectric constant tensor:
#      x y z
#    x 1.863330 0.000000 0.028420 
#    y 0.000000 1.796930 0.000000 
#    z 0.028420 0.000000 1.798540 
# 
# From -- ./inp_files/61266.got.cif
#   From: 2010.05.17/outbox.cif.g08.bks.cpg/sg5_31_cif.got.tgz:61266.got - 2010.06.03 18:56:24.
