data_PCOD9124476
_publ_section_title
;
Structure prediction by ZEFSAII (Michael W. Deem and Ramdas Pophale) SiO2 
 PCOD9124476
Probable space group: C 2
;
_chemical_formula_sum "Si O2"
_cell_formula_units_Z 30
_cell_length_a 8.294101
_cell_length_b 20.780618
_cell_length_c 18.012293
_cell_angle_alpha 90.000000
_cell_angle_beta 147.160877
_cell_angle_gamma 90.000000
_cell_volume 1683.534443
_symmetry_space_group_name_H-M "C 2"
_symmetry_group_IT_number 5
_symmetry_cell_setting 'monoclinic'
loop_
_space_group_symop_operation_xyz
x,y,z
-x,y,-z
1/2+x,1/2+y,z
1/2-x,1/2+y,-z
loop_
_atom_site_type_symbol
_atom_site_label
_atom_site_fract_x
_atom_site_fract_y
_atom_site_fract_z
Si Si1 0.189384 0.663510 0.922038
Si Si2 0.194524 0.058398 0.911265
Si Si3 0.684383 0.315545 0.919339
Si Si4 0.000000 0.886689 0.000000
Si Si5 0.268043 0.898217 0.347981
Si Si6 0.854122 0.032147 0.640825
Si Si7 0.832532 0.476810 0.229598
Si Si8 0.217505 0.086581 0.646246
O O1 0.154717 0.739242 0.920555
O O2 0.925852 0.637062 0.768668
O O3 0.500000 0.652859 0.000000
O O4 0.211654 0.619809 0.004199
O O5 0.993154 0.073278 0.761770
O O6 0.500000 0.027442 0.000000
O O7 0.987034 0.010564 0.877838
O O8 0.625839 0.348397 0.976998
O O9 0.438286 0.344381 0.767886
O O10 0.000000 0.327555 0.000000
O O11 0.732876 0.930429 0.864387
O O12 0.500000 0.875440 0.500000
O O13 0.416154 0.935152 0.334644
O O14 0.089501 0.957243 0.317321
O O15 0.500000 0.040105 0.500000
O O16 0.011703 0.052376 0.627240
O O17 0.068283 0.532236 0.305589
O O18 0.000000 0.114881 0.500000
#
# Coordination Sequence:
#
# PCOD9124476 Si02
#       8
#     4   4   4   2   4   4   4   4
#     4  11  23  40  58  85 116 155 198 241 283 341
#     4  11  20  35  59  86 117 153 188 236 295 353
#     4  10  24  40  60  85 113 157 205 239 286 334
#     4  10  22  38  62  86 120 148 194 252 282 346
#     4   9  19  38  58  80 115 149 185 238 287 349
#     4  10  22  35  56  89 117 149 182 233 301 356
#     4  10  21  35  57  91 117 145 187 240 300 353
#     4  12  22  35  58  86 119 151 185 237 296 352
#
# _framework density 17.819652999999999
#
# number of rings (size 3 to 8) (size 9 to 14) (size 15 to 20)
#    0.000    1.600    2.667    3.200    2.800    4.267 
#    0.000    0.000    0.000    0.000    0.000    0.000 
#    0.000    0.000    0.000    0.000    0.000    0.000 
#
# Total GULP energy -83675.962919 kJ/mol
# GULP energy per Si atom -5578.397528 kJ/mol
# Density = 1.777910 g / cm^3
# Si number density = 17.819653 Si / 1000 Ang^3
#
#
#
# Elastic Constant Matrix: (Units=GPa)
#
#
# Indices 1 2 3 4 5 6 
#
# 1 89.7412 32.9489 52.4732 -0.0024 2.4615 -0.0017
# 2 32.9489 51.8945 54.1314 -0.0009 -1.4190 0.0004
# 3 52.4732 54.1314 148.6755 -0.0052 -15.2954 -0.0042
# 4 -0.0024 -0.0009 -0.0052 12.9432 -0.0020 -3.1540
# 5 2.4615 -1.4190 -15.2954 -0.0020 35.7145 -0.0014
# 6 -0.0017 0.0004 -0.0042 -3.1540 -0.0014 19.9451
#
#
#
# Elastic Compliance Matrix: (Units=1/GPa)
#
#
# Indices 1 2 3 4 5 6 
#
# 1 0.015584 -0.006340 -0.003482 0.000001 -0.002817 0.000001
# 2 -0.006340 0.034143 -0.010471 -0.000005 -0.002691 -0.000004
# 3 -0.003482 -0.010471 0.012291 0.000005 0.005088 0.000004
# 4 0.000001 -0.000005 0.000005 0.080357 0.000007 0.012707
# 5 -0.002817 -0.002691 0.005088 0.000007 0.030266 0.000004
# 6 0.000001 -0.000004 0.000004 0.012707 0.000004 0.052147
#
#
# Mechanical properties :
#
#
# Convention : Reuss Voigt Hill
#
# Bulk Modulus (GPa) = 46.65539 63.26869 54.96204
# Shear Modulus (GPa) = 18.34751 23.77107 21.05929
#
# Velocity S-wave (km/s) = 3.21225 3.65633 3.44146
# Velocity P-wave (km/s) = 6.32431 7.30802 6.83389
#
# Compressibility (1/GPa) = 0.02143375
#
# Stress axis : x y z
#
# Youngs Moduli (GPa) = 64.16868 29.28818 81.36329
#
# Poissons Ratio (x) = 0.18568 0.28328
# Poissons Ratio (y) = 0.40681 0.85192
# Poissons Ratio (z) = 0.22342 0.30667
#
# Static dielectric constant tensor:
#      x y z
#    x 1.649500 0.000000 -0.016890 
#    y 0.000000 1.595200 0.000000 
#    z -0.016890 0.000000 1.624010 
# 
# From -- ./inp_files/59910.got.cif
#   From: 2010.05.17/outbox.cif.g08.bks.cpg/sg5_30_cif.got.tgz:59910.got - 2010.06.03 18:56:24.
