data_PCOD9124134
_publ_section_title
;
Structure prediction by ZEFSAII (Michael W. Deem and Ramdas Pophale) SiO2 
 PCOD9124134
Probable space group: C 2
;
_chemical_formula_sum "Si O2"
_cell_formula_units_Z 24
_cell_length_a 13.553346
_cell_length_b 5.178851
_cell_length_c 24.633920
_cell_angle_alpha 90.000000
_cell_angle_beta 148.392832
_cell_angle_gamma 90.000000
_cell_volume 906.194408
_symmetry_space_group_name_H-M "C 2"
_symmetry_group_IT_number 5
_symmetry_cell_setting 'monoclinic'
loop_
_space_group_symop_operation_xyz
x,y,z
-x,y,-z
1/2+x,1/2+y,z
1/2-x,1/2+y,-z
loop_
_atom_site_type_symbol
_atom_site_label
_atom_site_fract_x
_atom_site_fract_y
_atom_site_fract_z
Si Si1 0.000000 0.675850 0.500000
Si Si2 0.536950 0.275953 0.125991
Si Si3 0.635803 0.041070 0.865305
Si Si4 0.893385 0.166132 0.239383
Si Si5 0.715104 0.929456 0.448785
Si Si6 0.829354 0.881769 0.702012
Si Si7 0.000000 0.106567 0.000000
O O1 0.865804 0.855820 0.473035
O O2 0.876293 0.485930 0.404214
O O3 0.596097 0.465718 0.203379
O O4 0.372960 0.099575 0.074906
O O5 0.496651 0.441846 0.054080
O O6 0.714428 0.099960 0.191794
O O7 0.412683 0.092912 0.746961
O O8 0.673470 0.786230 0.849216
O O9 0.792817 0.231067 0.910642
O O10 0.006603 0.381400 0.327427
O O11 0.053712 0.972470 0.295666
O O12 0.748825 0.710994 0.510477
#
# Coordination Sequence:
#
# PCOD9124134 Si02
#       7
#     2   4   4   4   4   4   2
#     4  10  22  44  68  96 148 190 234 294 350 420
#     4   9  21  41  62  91 130 166 229 283 346 424
#     4   9  22  42  62  92 132 171 227 287 343 425
#     4  10  21  41  63  88 134 178 219 290 344 410
#     4  11  26  41  67 106 141 191 246 287 350 423
#     4   9  21  42  61  99 128 176 225 282 339 424
#     4  10  20  42  64  92 134 174 218 298 356 424
#
# _framework density 26.484385
#
# number of rings (size 3 to 8) (size 9 to 14) (size 15 to 20)
#    1.000    1.333    0.000    1.000    4.667    6.000 
#    9.000    0.833    0.000    0.000    0.000    0.000 
#    0.000    0.000    0.000    0.000    0.000    0.000 
#
# Total GULP energy -66864.447047 kJ/mol
# GULP energy per Si atom -5572.037254 kJ/mol
# Density = 2.642410 g / cm^3
# Si number density = 26.484385 Si / 1000 Ang^3
#
#
#
# Elastic Constant Matrix: (Units=GPa)
#
#
# Indices 1 2 3 4 5 6 
#
# 1 216.3775 33.5323 40.4954 -0.0004 11.2974 0.0009
# 2 33.5323 60.1264 12.7473 -0.0014 -14.2697 0.0037
# 3 40.4954 12.7473 99.1591 0.0003 -19.0779 0.0001
# 4 -0.0004 -0.0014 0.0003 18.3217 -0.0003 -1.3891
# 5 11.2974 -14.2697 -19.0779 -0.0003 53.2391 -0.0002
# 6 0.0009 0.0037 0.0001 -1.3891 -0.0002 41.3575
#
#
#
# Elastic Compliance Matrix: (Units=1/GPa)
#
#
# Indices 1 2 3 4 5 6 
#
# 1 0.005778 -0.003412 -0.002506 0.000000 -0.003039 0.000000
# 2 -0.003412 0.019978 -0.000006 0.000001 0.006077 -0.000002
# 3 -0.002506 -0.000006 0.012041 0.000000 0.004845 0.000000
# 4 0.000000 0.000001 0.000000 0.054719 0.000001 0.001838
# 5 -0.003039 0.006077 0.004845 0.000001 0.022793 0.000000
# 6 0.000000 -0.000002 0.000000 0.001838 0.000000 0.024241
#
#
# Mechanical properties :
#
#
# Convention : Reuss Voigt Hill
#
# Bulk Modulus (GPa) = 38.53555 61.02364 49.77959
# Shear Modulus (GPa) = 31.24081 41.84285 36.54183
#
# Velocity S-wave (km/s) = 3.43825 3.97912 3.71853
# Velocity P-wave (km/s) = 5.50853 6.64850 6.10518
#
# Compressibility (1/GPa) = 0.02595007
#
# Stress axis : x y z
#
# Youngs Moduli (GPa) = 173.07256 50.05500 83.05007
#
# Poissons Ratio (x) = 0.17080 0.20809
# Poissons Ratio (y) = 0.59057 0.00046
# Poissons Ratio (z) = 0.43365 0.00028
#
# Static dielectric constant tensor:
#      x y z
#    x 2.099790 0.000000 0.060110 
#    y 0.000000 2.230840 0.000000 
#    z 0.060110 0.000000 2.323780 
# 
# From -- ./inp_files/70517.got.cif
#   From: 2010.05.17/outbox.cif.g08.bks.cpg/sg5_36_cif.got.tgz:70517.got - 2010.06.03 18:56:24.
