data_PCOD9124050
_publ_section_title
;
Structure prediction by ZEFSAII (Michael W. Deem and Ramdas Pophale) SiO2 
 PCOD9124050
Probable space group: C 2
;
_chemical_formula_sum "Si O2"
_cell_formula_units_Z 30
_cell_length_a 16.818817
_cell_length_b 16.531144
_cell_length_c 13.815365
_cell_angle_alpha 90.000000
_cell_angle_beta 21.655224
_cell_angle_gamma 90.000000
_cell_volume 1417.461446
_symmetry_space_group_name_H-M "C 2"
_symmetry_group_IT_number 5
_symmetry_cell_setting 'monoclinic'
loop_
_space_group_symop_operation_xyz
x,y,z
-x,y,-z
1/2+x,1/2+y,z
1/2-x,1/2+y,-z
loop_
_atom_site_type_symbol
_atom_site_label
_atom_site_fract_x
_atom_site_fract_y
_atom_site_fract_z
Si Si1 0.907433 0.731180 0.454999
Si Si2 0.834674 0.883301 0.275280
Si Si3 0.189006 0.126577 0.979445
Si Si4 0.014283 0.907403 0.289327
Si Si5 0.447820 0.979903 0.779774
Si Si6 0.168565 0.532157 0.728991
Si Si7 0.273357 0.702580 0.549689
Si Si8 0.000000 0.141766 0.000000
O O1 0.924651 0.826976 0.440057
O O2 0.877568 0.707420 0.375325
O O3 0.697640 0.696865 0.743520
O O4 0.120166 0.689713 0.255276
O O5 0.950631 0.900859 0.247519
O O6 0.630656 0.943801 0.503051
O O7 0.743505 0.791035 0.384191
O O8 0.000000 0.891331 0.000000
O O9 0.075959 0.095377 0.009293
O O10 0.304732 0.051384 0.898062
O O11 0.007987 0.174009 0.245683
O O12 0.893392 0.983822 0.473690
O O13 0.271089 0.912692 0.007387
O O14 0.566504 0.012403 0.740265
O O15 0.202328 0.628294 0.697164
O O16 0.000000 0.504188 0.000000
#
# Coordination Sequence:
#
# PCOD9124050 Si02
#       8
#     4   4   4   4   4   4   4   2
#     4  10  21  41  64  89 127 171 211 260 324 389
#     4  10  23  43  67  98 129 174 219 265 327 392
#     4  11  21  42  64  93 131 170 216 265 324 385
#     4  10  23  43  64  93 135 168 208 272 328 382
#     4  11  23  44  65  94 134 171 211 269 331 386
#     4  11  23  41  67  97 126 169 217 271 326 386
#     4  10  20  41  68  91 129 168 214 273 321 377
#     4  10  24  38  62 100 120 170 220 264 316 384
#
# _framework density 21.164596
#
# number of rings (size 3 to 8) (size 9 to 14) (size 15 to 20)
#    0.000    1.600    2.667    1.600    0.933    2.133 
#    9.600    0.000    0.000    0.000    0.000    0.000 
#    0.000    0.000    0.000    0.000    0.000    0.000 
#
# Total GULP energy -83834.116918 kJ/mol
# GULP energy per Si atom -5588.941128 kJ/mol
# Density = 2.111642 g / cm^3
# Si number density = 21.164596 Si / 1000 Ang^3
#
#
#
# Elastic Constant Matrix: (Units=GPa)
#
#
# Indices 1 2 3 4 5 6 
#
# 1 40.6133 15.3033 30.8705 0.0056 2.3413 0.0042
# 2 15.3033 84.1556 28.4738 0.0030 6.9122 -0.0038
# 3 30.8705 28.4738 136.5103 0.0012 10.3593 0.0067
# 4 0.0056 0.0030 0.0012 19.2810 -0.0098 -6.9374
# 5 2.3413 6.9122 10.3593 -0.0098 34.8834 -0.0021
# 6 0.0042 -0.0038 0.0067 -6.9374 -0.0021 11.2041
#
#
#
# Elastic Compliance Matrix: (Units=1/GPa)
#
#
# Indices 1 2 3 4 5 6 
#
# 1 0.030657 -0.003504 -0.006239 -0.000014 0.000489 -0.000018
# 2 -0.003504 0.013295 -0.001840 0.000001 -0.001853 0.000007
# 3 -0.006239 -0.001840 0.009270 -0.000001 -0.001969 -0.000005
# 4 -0.000014 0.000001 -0.000001 0.066731 0.000022 0.041319
# 5 0.000489 -0.001853 -0.001969 0.000022 0.029586 0.000020
# 6 -0.000018 0.000007 -0.000005 0.041319 0.000020 0.114837
#
#
# Mechanical properties :
#
#
# Convention : Reuss Voigt Hill
#
# Bulk Modulus (GPa) = 33.27235 45.61938 39.44586
# Shear Modulus (GPa) = 16.80333 25.51582 21.15957
#
# Velocity S-wave (km/s) = 2.82074 3.47593 3.16533
# Velocity P-wave (km/s) = 5.13456 6.14091 5.66014
#
# Compressibility (1/GPa) = 0.03005498
#
# Stress axis : x y z
#
# Youngs Moduli (GPa) = 32.61905 75.21794 107.87950
#
# Poissons Ratio (x) = 0.26357 0.67306
# Poissons Ratio (y) = 0.11430 0.19850
# Poissons Ratio (z) = 0.20351 0.13841
#
# Static dielectric constant tensor:
#      x y z
#    x 1.753140 0.000000 0.008180 
#    y 0.000000 1.780570 0.000010 
#    z 0.008180 0.000010 1.754200 
# 
# From -- ./inp_files/56201.got.cif
#   From: 2010.05.17/outbox.cif.g08.bks.cpg/sg5_29_cif.got.tgz:56201.got - 2010.06.03 18:56:24.
