data_PCOD9124678
_publ_section_title
;
Structure prediction by ZEFSAII (Michael W. Deem and Ramdas Pophale) SiO2 
 PCOD9124678
Probable space group: C 2
;
_chemical_formula_sum "Si O2"
_cell_formula_units_Z 28
_cell_length_a 13.867877
_cell_length_b 7.419253
_cell_length_c 20.108580
_cell_angle_alpha 90.000000
_cell_angle_beta 143.789060
_cell_angle_gamma 90.000000
_cell_volume 1222.256777
_symmetry_space_group_name_H-M "C 2"
_symmetry_group_IT_number 5
_symmetry_cell_setting 'monoclinic'
loop_
_space_group_symop_operation_xyz
x,y,z
-x,y,-z
1/2+x,1/2+y,z
1/2-x,1/2+y,-z
loop_
_atom_site_type_symbol
_atom_site_label
_atom_site_fract_x
_atom_site_fract_y
_atom_site_fract_z
Si Si1 0.556043 0.308930 0.103544
Si Si2 0.753189 0.461970 0.841409
Si Si3 0.786113 0.601534 0.009413
Si Si4 0.424816 0.639262 0.635877
Si Si5 0.577229 0.957291 0.468955
Si Si6 0.992508 0.310247 0.811866
Si Si7 0.266226 0.142363 0.249081
O O1 0.636822 0.110991 0.135825
O O2 0.393846 0.281888 0.055979
O O3 0.682656 0.446637 0.204784
O O4 0.500000 0.373234 0.000000
O O5 0.570454 0.495545 0.713156
O O6 0.783278 0.253051 0.844044
O O7 0.777026 0.506535 0.931806
O O8 0.905599 0.492451 0.123717
O O9 0.603574 0.672368 0.917621
O O10 0.256775 0.544883 0.564082
O O11 0.486457 0.761720 0.731586
O O12 0.414635 0.767217 0.565929
O O13 0.500000 0.936085 0.500000
O O14 0.454276 0.095833 0.363907
O O15 0.811545 0.276627 0.738951
#
# Coordination Sequence:
#
# PCOD9124678 Si02
#       7
#     4   4   4   4   4   4   4
#     4  10  21  37  63 100 141 181 237 284 345 435
#     4  10  22  42  68 102 142 182 232 291 351 435
#     4  10  22  40  62 103 148 184 231 288 348 439
#     4  11  25  50  70 104 144 181 247 307 356 435
#     4  12  26  50  74 103 143 188 247 313 362 425
#     4  11  23  40  67  99 147 184 232 296 354 429
#     4  12  23  41  72  99 137 190 237 296 367 419
#
# _framework density 22.908445
#
# number of rings (size 3 to 8) (size 9 to 14) (size 15 to 20)
#    0.000    1.143    4.286    1.714    2.000    1.143 
#    5.143    0.000    0.000    0.000    0.000    0.000 
#    0.000    0.000    0.000    0.000    0.000    0.000 
#
# Total GULP energy -78178.852100 kJ/mol
# GULP energy per Si atom -5584.203721 kJ/mol
# Density = 2.285630 g / cm^3
# Si number density = 22.908445 Si / 1000 Ang^3
#
#
#
# Elastic Constant Matrix: (Units=GPa)
#
#
# Indices 1 2 3 4 5 6 
#
# 1 70.2568 18.8065 32.6716 0.0000 21.5630 0.0000
# 2 18.8065 63.4627 23.9585 0.0000 -9.9248 0.0000
# 3 32.6716 23.9585 92.0861 0.0000 18.7075 0.0000
# 4 0.0000 0.0000 0.0000 41.5736 0.0000 -4.7167
# 5 21.5630 -9.9248 18.7075 0.0000 39.8930 0.0000
# 6 0.0000 0.0000 0.0000 -4.7167 0.0000 23.4587
#
#
#
# Elastic Compliance Matrix: (Units=1/GPa)
#
#
# Indices 1 2 3 4 5 6 
#
# 1 0.021177 -0.006797 -0.003400 0.000000 -0.011543 0.000000
# 2 -0.006797 0.021726 -0.005621 0.000000 0.011715 0.000000
# 3 -0.003400 -0.005621 0.014854 0.000000 -0.006526 0.000000
# 4 0.000000 0.000000 0.000000 0.024615 0.000000 0.004949
# 5 -0.011543 0.011715 -0.006526 0.000000 0.037281 0.000000
# 6 0.000000 0.000000 0.000000 0.004949 0.000000 0.043623
#
#
# Mechanical properties :
#
#
# Convention : Reuss Voigt Hill
#
# Bulk Modulus (GPa) = 38.28401 41.85319 40.06860
# Shear Modulus (GPa) = 24.55570 31.00966 27.78268
#
# Velocity S-wave (km/s) = 3.27755 3.68317 3.48626
# Velocity P-wave (km/s) = 5.57415 6.03300 5.80811
#
# Compressibility (1/GPa) = 0.02612056
#
# Stress axis : x y z
#
# Youngs Moduli (GPa) = 47.22138 46.02870 67.32247
#
# Poissons Ratio (x) = 0.31287 0.22889
# Poissons Ratio (y) = 0.32097 0.37840
# Poissons Ratio (z) = 0.16055 0.25872
#
# Static dielectric constant tensor:
#      x y z
#    x 1.923630 0.000000 0.016380 
#    y 0.000000 1.939340 0.000000 
#    z 0.016380 0.000000 1.814470 
# 
# From -- ./inp_files/65928.got.cif
#   From: 2010.05.17/outbox.cif.g08.bks.cpg/sg5_33_cif.got.tgz:65928.got - 2010.06.03 18:56:24.
