data_PCOD9124460
_publ_section_title
;
Structure prediction by ZEFSAII (Michael W. Deem and Ramdas Pophale) SiO2 
 PCOD9124460
Probable space group: C 2
;
_chemical_formula_sum "Si O2"
_cell_formula_units_Z 20
_cell_length_a 20.746165
_cell_length_b 7.008701
_cell_length_c 18.485335
_cell_angle_alpha 90.000000
_cell_angle_beta 16.034188
_cell_angle_gamma 90.000000
_cell_volume 742.409423
_symmetry_space_group_name_H-M "C 2"
_symmetry_group_IT_number 5
_symmetry_cell_setting 'monoclinic'
loop_
_space_group_symop_operation_xyz
x,y,z
-x,y,-z
1/2+x,1/2+y,z
1/2-x,1/2+y,-z
loop_
_atom_site_type_symbol
_atom_site_label
_atom_site_fract_x
_atom_site_fract_y
_atom_site_fract_z
Si Si1 0.102899 0.245130 0.246802
Si Si2 0.774031 0.603538 0.771956
Si Si3 0.121079 0.806866 0.194368
Si Si4 0.821108 0.284176 0.273417
Si Si5 0.555738 0.225764 0.856325
O O1 0.825719 0.291509 0.550822
O O2 0.105271 0.015978 0.244419
O O3 0.203651 0.305067 0.060214
O O4 0.318496 0.292023 0.069571
O O5 0.824103 0.663874 0.800377
O O6 0.784213 0.767259 0.694918
O O7 0.000000 0.484340 0.500000
O O8 0.494027 0.605775 0.082064
O O9 0.850557 0.756429 0.473046
O O10 0.930877 0.492669 0.166415
O O11 0.500000 0.259628 0.000000
#
# Coordination Sequence:
#
# PCOD9124460 Si02
#       5
#     4   4   4   4   4
#     4  11  24  35  60  84 116 150 179 234 284 333
#     4   9  15  28  52  80 109 137 183 239 273 308
#     4  10  21  35  51  86 116 147 183 223 288 338
#     4   9  16  29  55  79 108 139 187 238 270 308
#     4  11  20  36  58  85 109 144 196 239 274 319
#
# _framework density 26.939315000000001
#
# number of rings (size 3 to 8) (size 9 to 14) (size 15 to 20)
#    0.000    2.000    4.000    0.600    2.800    0.000 
#    0.000    0.000    0.000    7.200    0.000    0.000 
#    0.000    0.000    0.000    0.000    0.000    0.000 
#
# Total GULP energy -55681.260847 kJ/mol
# GULP energy per Si atom -5568.126085 kJ/mol
# Density = 2.687800 g / cm^3
# Si number density = 26.939315 Si / 1000 Ang^3
#
#
#
# Elastic Constant Matrix: (Units=GPa)
#
#
# Indices 1 2 3 4 5 6 
#
# 1 109.0314 17.5868 95.9126 -0.0044 -19.0929 0.0017
# 2 17.5868 81.1105 55.4635 -0.0066 -26.9199 0.0043
# 3 95.9126 55.4635 350.2174 -0.0092 -6.0963 0.0059
# 4 -0.0044 -0.0066 -0.0092 63.0717 0.0056 0.5361
# 5 -19.0929 -26.9199 -6.0963 0.0056 39.1810 -0.0031
# 6 0.0017 0.0043 0.0059 0.5361 -0.0031 69.2757
#
#
#
# Elastic Compliance Matrix: (Units=1/GPa)
#
#
# Indices 1 2 3 4 5 6 
#
# 1 0.013612 0.002267 -0.003955 0.000000 0.007575 0.000000
# 2 0.002267 0.018531 -0.003324 0.000000 0.013319 0.000000
# 3 -0.003955 -0.003324 0.004404 0.000000 -0.003526 0.000000
# 4 0.000000 0.000000 0.000000 0.015856 -0.000002 -0.000123
# 5 0.007575 0.013319 -0.003526 -0.000002 0.037817 0.000001
# 6 0.000000 0.000000 0.000000 -0.000123 0.000001 0.014436
#
#
# Mechanical properties :
#
#
# Convention : Reuss Voigt Hill
#
# Bulk Modulus (GPa) = 37.70333 97.58725 67.64529
# Shear Modulus (GPa) = 40.47980 59.06544 49.77262
#
# Velocity S-wave (km/s) = 3.88058 4.68753 4.30302
# Velocity P-wave (km/s) = 5.83991 8.09943 7.06064
#
# Compressibility (1/GPa) = 0.02652286
#
# Stress axis : x y z
#
# Youngs Moduli (GPa) = 73.46684 53.96460 227.09204
#
# Poissons Ratio (x) = -0.12235 0.89814
# Poissons Ratio (y) = -0.16657 0.75480
# Poissons Ratio (z) = 0.29056 0.17936
#
# Static dielectric constant tensor:
#      x y z
#    x 2.130940 0.000000 -0.143870 
#    y 0.000000 2.377860 0.000010 
#    z -0.143870 0.000010 1.935290 
# 
# From -- ./inp_files/55883.got.cif
#   From: 2010.05.17/outbox.cif.g08.bks.cpg/sg5_28_cif.got.tgz:55883.got - 2010.06.03 18:56:24.
