data_PCOD9124578
_publ_section_title
;
Structure prediction by ZEFSAII (Michael W. Deem and Ramdas Pophale) SiO2 
 PCOD9124578
Probable space group: C 2
;
_chemical_formula_sum "Si O2"
_cell_formula_units_Z 24
_cell_length_a 15.626475
_cell_length_b 11.864140
_cell_length_c 23.271325
_cell_angle_alpha 90.000000
_cell_angle_beta 163.465532
_cell_angle_gamma 90.000000
_cell_volume 1227.838470
_symmetry_space_group_name_H-M "C 2"
_symmetry_group_IT_number 5
_symmetry_cell_setting 'monoclinic'
loop_
_space_group_symop_operation_xyz
x,y,z
-x,y,-z
1/2+x,1/2+y,z
1/2-x,1/2+y,-z
loop_
_atom_site_type_symbol
_atom_site_label
_atom_site_fract_x
_atom_site_fract_y
_atom_site_fract_z
Si Si1 0.868861 0.780260 0.319681
Si Si2 0.721605 0.069882 0.591928
Si Si3 0.346345 0.749428 0.070534
Si Si4 0.780994 0.657882 0.642284
Si Si5 0.710657 0.354068 0.438805
Si Si6 0.567689 0.916735 0.300468
O O1 0.555153 0.781167 0.150215
O O2 0.023009 0.657734 0.426656
O O3 0.909608 0.818173 0.280134
O O4 0.101724 0.864964 0.501363
O O5 0.500000 0.029775 0.500000
O O6 0.985659 0.144949 0.789890
O O7 0.833123 0.965211 0.626984
O O8 0.343926 0.851550 0.114374
O O9 0.025788 0.714790 0.841006
O O10 0.500000 0.623176 0.500000
O O11 0.691627 0.750194 0.537356
O O12 0.925741 0.548853 0.705506
O O13 0.948329 0.382650 0.642760
#
# Coordination Sequence:
#
# PCOD9124578 Si02
#       6
#     4   4   4   4   4   4
#     4   8  18  37  66  85 116 159 203 244 296 359
#     4   9  17  36  61  89 122 162 194 248 303 362
#     4  10  21  39  64  88 121 163 212 239 299 371
#     4  12  25  40  62  91 126 164 202 252 310 357
#     4  10  21  36  64  88 128 151 201 251 312 347
#     4   9  21  41  65  89 119 159 204 254 303 357
#
# _framework density 19.546545999999999
#
# number of rings (size 3 to 8) (size 9 to 14) (size 15 to 20)
#    1.000    1.333    0.000    4.000    2.333    0.667 
#    0.000    0.833    0.000    0.000    0.000    0.000 
#    0.000    0.000    0.000    0.000    0.000    0.000 
#
# Total GULP energy -66880.494754 kJ/mol
# GULP energy per Si atom -5573.374563 kJ/mol
# Density = 1.950206 g / cm^3
# Si number density = 19.546546 Si / 1000 Ang^3
#
#
#
# Elastic Constant Matrix: (Units=GPa)
#
#
# Indices 1 2 3 4 5 6 
#
# 1 96.2231 53.6778 16.2717 -0.0412 -26.8520 0.0164
# 2 53.6778 119.1732 19.8326 0.0059 -26.0368 -0.0190
# 3 16.2717 19.8326 53.6278 0.1441 -10.1453 0.0248
# 4 -0.0412 0.0059 0.1441 5.6853 -0.0088 -7.4121
# 5 -26.8520 -26.0368 -10.1453 -0.0088 16.5438 -0.0408
# 6 0.0164 -0.0190 0.0248 -7.4121 -0.0408 36.7418
#
#
#
# Elastic Compliance Matrix: (Units=1/GPa)
#
#
# Indices 1 2 3 4 5 6 
#
# 1 0.019623 -0.002881 0.000315 0.000279 0.027510 0.000076
# 2 -0.002881 0.013263 -0.001094 0.000070 0.015528 0.000040
# 3 0.000315 -0.001094 0.021187 -0.000702 0.011782 -0.000144
# 4 0.000279 0.000070 -0.000702 0.238689 0.000379 0.048152
# 5 0.027510 0.015528 0.011782 0.000379 0.136760 0.000216
# 6 0.000076 0.000040 -0.000144 0.048152 0.000216 0.036931
#
#
# Mechanical properties :
#
#
# Convention : Reuss Voigt Hill
#
# Bulk Modulus (GPa) = 21.38841 49.84313 35.61577
# Shear Modulus (GPa) = 10.21748 23.74365 16.98057
#
# Velocity S-wave (km/s) = 2.28880 3.48907 2.95061
# Velocity P-wave (km/s) = 4.23685 6.46425 5.46523
#
# Compressibility (1/GPa) = 0.04675428
#
# Stress axis : x y z
#
# Youngs Moduli (GPa) = 50.95971 75.39705 47.19923
#
# Poissons Ratio (x) = 0.21720 -0.01486
# Poissons Ratio (y) = 0.14680 0.05162
# Poissons Ratio (z) = -0.01604 0.08245
#
# Static dielectric constant tensor:
#      x y z
#    x 1.695710 0.000040 -0.020770 
#    y 0.000040 1.676690 -0.000030 
#    z -0.020770 -0.000030 1.686460 
# 
# From -- ./inp_files/66108.got.cif
#   From: 2010.05.17/outbox.cif.g08.bks.cpg/sg5_34_cif.got.tgz:66108.got - 2010.06.03 18:56:24.
