data_PCOD9124971
_publ_section_title
;
Structure prediction by ZEFSAII (Michael W. Deem and Ramdas Pophale) SiO2 
 PCOD9124971
Probable space group: C 2
;
_chemical_formula_sum "Si O2"
_cell_formula_units_Z 30
_cell_length_a 8.233092
_cell_length_b 12.221814
_cell_length_c 14.125826
_cell_angle_alpha 90.000000
_cell_angle_beta 82.293467
_cell_angle_gamma 90.000000
_cell_volume 1408.549405
_symmetry_space_group_name_H-M "C 2"
_symmetry_group_IT_number 5
_symmetry_cell_setting 'monoclinic'
loop_
_space_group_symop_operation_xyz
x,y,z
-x,y,-z
1/2+x,1/2+y,z
1/2-x,1/2+y,-z
loop_
_atom_site_type_symbol
_atom_site_label
_atom_site_fract_x
_atom_site_fract_y
_atom_site_fract_z
Si Si1 0.156678 0.884350 0.446256
Si Si2 0.491755 0.581303 0.343691
Si Si3 0.563914 0.472069 0.141074
Si Si4 0.635031 0.996350 0.415618
Si Si5 0.544220 0.817199 0.688298
Si Si6 0.216656 0.272844 0.862629
Si Si7 0.000000 0.404209 0.000000
Si Si8 0.752456 0.031692 0.064858
O O1 0.277066 0.908428 0.523347
O O2 0.268460 0.826146 0.361885
O O3 0.000000 0.823085 0.500000
O O4 0.085080 0.997169 0.406173
O O5 0.547990 0.545991 0.234811
O O6 0.293163 0.565637 0.368913
O O7 0.531480 0.708881 0.353720
O O8 0.633329 0.354670 0.167652
O O9 0.383922 0.459822 0.110983
O O10 0.675158 0.529023 0.049405
O O11 0.500000 0.046567 0.500000
O O12 0.546466 0.928057 0.338341
O O13 0.573888 0.791578 0.796307
O O14 0.250810 0.148001 0.883037
O O15 0.146385 0.325066 0.963533
O O16 0.928682 0.482925 0.925361
#
# Coordination Sequence:
#
# PCOD9124971 Si02
#       8
#     4   4   4   4   4   4   2   4
#     4   9  20  40  62  85 124 158 203 252 311 367
#     4  11  21  39  65  90 123 166 201 258 307 366
#     4  10  21  39  63  89 125 162 208 250 308 365
#     4   9  22  40  60  91 123 158 206 253 305 371
#     4  11  22  37  64  91 122 159 209 253 303 376
#     4  11  22  39  63  89 125 164 202 256 305 358
#     4  10  24  38  62  86 122 162 206 254 304 360
#     4  10  22  41  60  89 122 162 204 253 300 372
#
# _framework density 21.298507000000001
#
# number of rings (size 3 to 8) (size 9 to 14) (size 15 to 20)
#    0.000    1.867    2.667    0.800    1.867    7.467 
#    0.000    6.667    0.000    0.000    0.000    0.000 
#    0.000    0.000    0.000    0.000    0.000    0.000 
#
# Total GULP energy -83538.354334 kJ/mol
# GULP energy per Si atom -5569.223622 kJ/mol
# Density = 2.125003 g / cm^3
# Si number density = 21.298507 Si / 1000 Ang^3
#
#
#
# Elastic Constant Matrix: (Units=GPa)
#
#
# Indices 1 2 3 4 5 6 
#
# 1 58.2579 24.1434 -11.4430 0.0000 7.9362 0.0000
# 2 24.1434 86.9565 9.3300 0.0000 20.0619 0.0000
# 3 -11.4430 9.3300 59.1238 0.0000 8.6035 0.0000
# 4 0.0000 0.0000 0.0000 3.4095 0.0000 7.5315
# 5 7.9362 20.0619 8.6035 0.0000 27.6273 0.0000
# 6 0.0000 0.0000 0.0000 7.5315 0.0000 26.5545
#
#
#
# Elastic Compliance Matrix: (Units=1/GPa)
#
#
# Indices 1 2 3 4 5 6 
#
# 1 0.021064 -0.005582 0.005497 0.000000 -0.003709 0.000000
# 2 -0.005582 0.015326 -0.002213 0.000000 -0.008836 0.000000
# 3 0.005497 -0.002213 0.019193 0.000000 -0.005949 0.000000
# 4 0.000000 0.000000 0.000000 0.785334 0.000000 -0.222740
# 5 -0.003709 -0.008836 -0.005949 0.000000 0.045531 0.000000
# 6 0.000000 0.000000 0.000000 -0.222740 0.000000 0.100833
#
#
# Mechanical properties :
#
#
# Convention : Reuss Voigt Hill
#
# Bulk Modulus (GPa) = 19.61332 27.59989 23.60661
# Shear Modulus (GPa) = 4.95603 23.67211 14.31407
#
# Velocity S-wave (km/s) = 1.52709 3.33745 2.59524
# Velocity P-wave (km/s) = 3.51256 5.27619 4.48198
#
# Compressibility (1/GPa) = 0.05098575
#
# Stress axis : x y z
#
# Youngs Moduli (GPa) = 47.47530 65.24821 52.10365
#
# Poissons Ratio (x) = 0.36424 -0.28643
# Poissons Ratio (y) = 0.26503 0.11531
# Poissons Ratio (z) = -0.26099 0.14440
#
# Static dielectric constant tensor:
#      x y z
#    x 1.833890 0.000000 -0.034880 
#    y 0.000000 1.788960 0.000000 
#    z -0.034880 0.000000 1.905950 
# 
# From -- ./inp_files/50300.got.cif
#   From: 2010.05.17/outbox.cif.g08.bks.cpg/sg5_26_cif.got.tgz:50300.got - 2010.06.03 18:56:24.
