data_PCOD9124484
_publ_section_title
;
Structure prediction by ZEFSAII (Michael W. Deem and Ramdas Pophale) SiO2 
 PCOD9124484
Probable space group: C 2
;
_chemical_formula_sum "Si O2"
_cell_formula_units_Z 32
_cell_length_a 12.053686
_cell_length_b 15.758430
_cell_length_c 18.759180
_cell_angle_alpha 90.000000
_cell_angle_beta 27.818558
_cell_angle_gamma 90.000000
_cell_volume 1662.874476
_symmetry_space_group_name_H-M "C 2"
_symmetry_group_IT_number 5
_symmetry_cell_setting 'monoclinic'
loop_
_space_group_symop_operation_xyz
x,y,z
-x,y,-z
1/2+x,1/2+y,z
1/2-x,1/2+y,-z
loop_
_atom_site_type_symbol
_atom_site_label
_atom_site_fract_x
_atom_site_fract_y
_atom_site_fract_z
Si Si1 0.668637 0.909310 0.658651
Si Si2 0.162471 0.673791 0.835698
Si Si3 0.482742 0.079153 0.799264
Si Si4 0.717347 0.364971 0.820558
Si Si5 0.144913 0.852324 0.310078
Si Si6 0.005963 0.019802 0.860559
Si Si7 0.732637 0.670039 0.817986
Si Si8 0.787908 0.011206 0.828382
O O1 0.448311 0.893496 0.732500
O O2 0.650927 0.865987 0.746221
O O3 0.897259 0.870949 0.490074
O O4 0.681986 0.008998 0.670323
O O5 0.252160 0.769090 0.772541
O O6 0.341368 0.597092 0.753503
O O7 0.030571 0.638940 0.840139
O O8 0.000000 0.680452 0.000000
O O9 0.428019 0.130426 0.759254
O O10 0.240880 0.027479 0.955079
O O11 0.645847 0.435029 0.802908
O O12 0.500000 0.364190 0.000000
O O13 0.175554 0.758335 0.264074
O O14 0.158826 0.924420 0.242306
O O15 0.155866 0.101831 0.801360
O O16 0.924271 0.018101 0.825352
O O17 0.500000 0.684364 0.000000
O O18 0.500000 0.010221 0.000000
#
# Coordination Sequence:
#
# PCOD9124484 Si02
#       8
#     4   4   4   4   4   4   4   4
#     4  11  23  44  63  84 132 167 215 248 314 385
#     4  10  21  35  59  97 125 155 205 258 313 369
#     4  11  19  41  64  92 127 162 207 262 313 375
#     4  11  22  37  65  94 123 167 205 263 315 371
#     4  11  25  42  61  94 125 173 208 257 314 380
#     4  11  20  38  65  97 126 158 207 266 321 363
#     4  10  23  38  65  96 125 162 213 262 314 371
#     4  11  21  39  61  92 129 160 207 263 312 371
#
# _framework density 19.243787000000001
#
# number of rings (size 3 to 8) (size 9 to 14) (size 15 to 20)
#    0.000    1.250    6.250    0.750    3.500    1.000 
#    2.250    0.625    0.000    0.000    0.000    0.000 
#    0.000    0.000    0.000    0.000    0.000    0.000 
#
# Total GULP energy -89254.217868 kJ/mol
# GULP energy per Si atom -5578.388617 kJ/mol
# Density = 1.919999 g / cm^3
# Si number density = 19.243787 Si / 1000 Ang^3
#
#
#
# Elastic Constant Matrix: (Units=GPa)
#
#
# Indices 1 2 3 4 5 6 
#
# 1 186.1926 90.2157 24.2348 0.0055 4.6280 -0.0214
# 2 90.2157 184.7120 32.7906 0.0304 15.9351 -0.0286
# 3 24.2348 32.7906 25.6025 -0.0400 3.0243 0.0586
# 4 0.0055 0.0304 -0.0400 13.0307 0.0207 1.8049
# 5 4.6280 15.9351 3.0243 0.0207 17.6289 -0.0101
# 6 -0.0214 -0.0286 0.0586 1.8049 -0.0101 38.6653
#
#
#
# Elastic Compliance Matrix: (Units=1/GPa)
#
#
# Indices 1 2 3 4 5 6 
#
# 1 0.007243 -0.003125 -0.003024 -0.000008 0.001442 0.000007
# 2 -0.003125 0.008795 -0.007618 -0.000036 -0.005822 0.000016
# 3 -0.003024 -0.007618 0.051822 0.000193 -0.001210 -0.000095
# 4 -0.000008 -0.000036 0.000193 0.077242 -0.000091 -0.003606
# 5 0.001442 -0.005822 -0.001210 -0.000091 0.061817 0.000019
# 6 0.000007 0.000016 -0.000095 -0.003606 0.000019 0.026031
#
#
# Mechanical properties :
#
#
# Convention : Reuss Voigt Hill
#
# Bulk Modulus (GPa) = 24.79848 76.77658 50.78753
# Shear Modulus (GPa) = 18.25311 30.48271 24.36791
#
# Velocity S-wave (km/s) = 3.08315 3.98430 3.56234
# Velocity P-wave (km/s) = 5.05854 7.81982 6.58553
#
# Compressibility (1/GPa) = 0.04032505
#
# Stress axis : x y z
#
# Youngs Moduli (GPa) = 138.07047 113.70250 19.29694
#
# Poissons Ratio (x) = 0.35533 0.05835
# Poissons Ratio (y) = 0.43148 0.14701
# Poissons Ratio (z) = 0.41749 0.86622
#
# Static dielectric constant tensor:
#      x y z
#    x 1.685580 0.000010 -0.001840 
#    y 0.000010 1.692350 0.000070 
#    z -0.001840 0.000070 1.656450 
# 
# From -- ./inp_files/60683.got.cif
#   From: 2010.05.17/outbox.cif.g08.bks.cpg/sg5_31_cif.got.tgz:60683.got - 2010.06.03 18:56:24.
