data_PCOD9124801
_publ_section_title
;
Structure prediction by ZEFSAII (Michael W. Deem and Ramdas Pophale) SiO2 
 PCOD9124801
Probable space group: C 2
;
_chemical_formula_sum "Si O2"
_cell_formula_units_Z 28
_cell_length_a 22.920756
_cell_length_b 9.782340
_cell_length_c 5.210806
_cell_angle_alpha 90.000000
_cell_angle_beta 69.721480
_cell_angle_gamma 90.000000
_cell_volume 1095.943589
_symmetry_space_group_name_H-M "C 2"
_symmetry_group_IT_number 5
_symmetry_cell_setting 'monoclinic'
loop_
_space_group_symop_operation_xyz
x,y,z
-x,y,-z
1/2+x,1/2+y,z
1/2-x,1/2+y,-z
loop_
_atom_site_type_symbol
_atom_site_label
_atom_site_fract_x
_atom_site_fract_y
_atom_site_fract_z
Si Si1 0.425539 0.610040 0.117717
Si Si2 0.424712 0.778527 0.625459
Si Si3 0.831334 0.910129 0.495317
Si Si4 0.959512 0.545229 0.811520
Si Si5 0.766707 0.141461 0.891983
Si Si6 0.854791 0.637670 0.286732
Si Si7 0.712022 0.930212 0.346762
O O1 0.409554 0.718492 0.368616
O O2 0.383025 0.479528 0.237443
O O3 0.500000 0.583145 0.000000
O O4 0.407937 0.672642 0.873047
O O5 0.500000 0.781966 0.500000
O O6 0.414670 0.927235 0.767257
O O7 0.855466 0.757023 0.499313
O O8 0.763722 0.887790 0.472748
O O9 0.814782 0.025042 0.725977
O O10 0.000000 0.588808 0.500000
O O11 0.914468 0.653315 0.014948
O O12 0.000000 0.495335 0.000000
O O13 0.706041 0.144411 0.800844
O O14 0.792868 0.297384 0.831808
O O15 0.741301 0.069535 0.185373
O O16 0.849196 0.487965 0.421896
#
# Coordination Sequence:
#
# PCOD9124801 Si02
#       7
#     4   4   4   4   4   4   4
#     4  10  21  38  62  95 132 177 220 277 337 405
#     4   9  19  38  61  91 133 168 221 274 327 395
#     4  10  23  41  62  96 134 178 226 288 342 416
#     4  11  24  43  69 103 141 187 231 286 349 419
#     4  10  22  41  68  96 132 178 233 289 351 411
#     4  10  24  43  64  95 139 177 230 288 346 420
#     4  10  22  42  66  96 132 179 230 290 351 412
#
# _framework density 25.548759
#
# number of rings (size 3 to 8) (size 9 to 14) (size 15 to 20)
#    0.000    2.000    0.000    3.000    6.000    2.857 
#    0.000    2.143    0.000    0.000    0.000    0.000 
#    0.000    0.000    0.000    0.000    0.000    0.000 
#
# Total GULP energy -78136.101622 kJ/mol
# GULP energy per Si atom -5581.150116 kJ/mol
# Density = 2.549061 g / cm^3
# Si number density = 25.548759 Si / 1000 Ang^3
#
#
#
# Elastic Constant Matrix: (Units=GPa)
#
#
# Indices 1 2 3 4 5 6 
#
# 1 78.8475 10.8281 21.2354 0.0000 10.8642 0.0000
# 2 10.8281 121.7920 41.8707 0.0000 -24.6240 0.0000
# 3 21.2354 41.8707 137.0804 0.0000 -17.2151 0.0000
# 4 0.0000 0.0000 0.0000 33.2580 0.0000 -0.9399
# 5 10.8642 -24.6240 -17.2151 0.0000 45.3816 0.0000
# 6 0.0000 0.0000 0.0000 -0.9399 0.0000 26.9382
#
#
#
# Elastic Compliance Matrix: (Units=1/GPa)
#
#
# Indices 1 2 3 4 5 6 
#
# 1 0.014236 -0.001476 -0.002397 0.000000 -0.005119 0.000000
# 2 -0.001476 0.010121 -0.002235 0.000000 0.004997 0.000000
# 3 -0.002397 -0.002235 0.008682 0.000000 0.002655 0.000000
# 4 0.000000 0.000000 0.000000 0.030098 0.000000 0.001050
# 5 -0.005119 0.004997 0.002655 0.000000 0.026979 0.000000
# 6 0.000000 0.000000 0.000000 0.001050 0.000000 0.037159
#
#
# Mechanical properties :
#
#
# Convention : Reuss Voigt Hill
#
# Bulk Modulus (GPa) = 48.02606 53.95425 50.99016
# Shear Modulus (GPa) = 34.14527 38.70127 36.42327
#
# Velocity S-wave (km/s) = 3.65975 3.89627 3.77986
# Velocity P-wave (km/s) = 6.05780 6.43469 6.24909
#
# Compressibility (1/GPa) = 0.02082203
#
# Stress axis : x y z
#
# Youngs Moduli (GPa) = 70.24256 98.80755 115.17510
#
# Poissons Ratio (x) = 0.14588 0.27610
# Poissons Ratio (y) = 0.10371 0.25742
# Poissons Ratio (z) = 0.16839 0.22084
#
# Static dielectric constant tensor:
#      x y z
#    x 2.135570 0.000000 -0.069520 
#    y 0.000000 2.087390 0.000000 
#    z -0.069520 0.000000 2.083540 
# 
# From -- ./inp_files/11203.got.cif
#   From: 2010.05.17/outbox.cif.g08.bks.cpg/sg5_6_cif.got.tgz:11203.got - 2010.06.03 18:56:24.
