data_PCOD9124220
_publ_section_title
;
Structure prediction by ZEFSAII (Michael W. Deem and Ramdas Pophale) SiO2 
 PCOD9124220
Probable space group: C 2
;
_chemical_formula_sum "Si O2"
_cell_formula_units_Z 18
_cell_length_a 6.496860
_cell_length_b 13.266928
_cell_length_c 9.389068
_cell_angle_alpha 90.000000
_cell_angle_beta 96.578969
_cell_angle_gamma 90.000000
_cell_volume 803.946278
_symmetry_space_group_name_H-M "C 2"
_symmetry_group_IT_number 5
_symmetry_cell_setting 'monoclinic'
loop_
_space_group_symop_operation_xyz
x,y,z
-x,y,-z
1/2+x,1/2+y,z
1/2-x,1/2+y,-z
loop_
_atom_site_type_symbol
_atom_site_label
_atom_site_fract_x
_atom_site_fract_y
_atom_site_fract_z
Si Si1 0.737177 0.068660 0.052496
Si Si2 0.885641 0.449492 0.697437
Si Si3 0.740590 0.588495 0.262280
Si Si4 0.003976 0.261179 0.838878
Si Si5 0.500000 0.491759 0.500000
O O1 0.839258 0.167001 0.133619
O O2 0.725344 0.977527 0.162038
O O3 0.500000 0.096928 0.000000
O O4 0.817746 0.043233 0.899362
O O5 0.702972 0.433578 0.571100
O O6 0.034791 0.544906 0.679923
O O7 0.031893 0.353414 0.734959
O O8 0.709526 0.706638 0.227143
O O9 0.585910 0.557929 0.375806
O O10 0.000000 0.300765 0.000000
#
# Coordination Sequence:
#
# PCOD9124220 Si02
#       5
#     4   4   4   4   2
#     4   9  19  41  71  98 125 163 215 274 321 369
#     4  11  23  44  65  97 130 169 213 266 318 380
#     4  10  22  43  68  91 129 167 213 267 315 374
#     4  10  20  42  69  98 124 162 220 269 319 375
#     4  12  24  44  62  92 140 176 206 256 322 384
#
# _framework density 22.389555999999999
#
# number of rings (size 3 to 8) (size 9 to 14) (size 15 to 20)
#    0.000    1.778    2.222    2.667    0.000    0.000 
#   20.000    0.000    0.000    0.000    0.000    0.000 
#    0.000    0.000    0.000    0.000    0.000    0.000 
#
# Total GULP energy -50135.237093 kJ/mol
# GULP energy per Si atom -5570.581899 kJ/mol
# Density = 2.233860 g / cm^3
# Si number density = 22.389556 Si / 1000 Ang^3
#
#
#
# Elastic Constant Matrix: (Units=GPa)
#
#
# Indices 1 2 3 4 5 6 
#
# 1 69.0754 21.7823 44.8093 0.0000 17.7879 0.0000
# 2 21.7823 63.1556 36.9374 0.0000 23.7951 0.0000
# 3 44.8093 36.9374 120.0920 0.0000 1.6040 0.0000
# 4 0.0000 0.0000 0.0000 21.6100 0.0000 11.4547
# 5 17.7879 23.7951 1.6040 0.0000 61.2624 0.0000
# 6 0.0000 0.0000 0.0000 11.4547 0.0000 29.5766
#
#
#
# Elastic Compliance Matrix: (Units=1/GPa)
#
#
# Indices 1 2 3 4 5 6 
#
# 1 0.021061 -0.000716 -0.007563 0.000000 -0.005639 0.000000
# 2 -0.000716 0.023319 -0.006789 0.000000 -0.008672 0.000000
# 3 -0.007563 -0.006789 0.013177 0.000000 0.004488 0.000000
# 4 0.000000 0.000000 0.000000 0.058228 0.000000 -0.022551
# 5 -0.005639 -0.008672 0.004488 0.000000 0.021211 0.000000
# 6 0.000000 0.000000 0.000000 -0.022551 0.000000 0.042544
#
#
# Mechanical properties :
#
#
# Convention : Reuss Voigt Hill
#
# Bulk Modulus (GPa) = 36.46905 51.04233 43.75569
# Shear Modulus (GPa) = 22.85012 32.40941 27.62977
#
# Velocity S-wave (km/s) = 3.19810 3.80876 3.51671
# Velocity P-wave (km/s) = 5.47366 6.49531 6.00625
#
# Compressibility (1/GPa) = 0.02742051
#
# Stress axis : x y z
#
# Youngs Moduli (GPa) = 47.48151 42.88361 75.88936
#
# Poissons Ratio (x) = 0.03071 0.57393
# Poissons Ratio (y) = 0.03400 0.51524
# Poissons Ratio (z) = 0.35909 0.29115
#
# Static dielectric constant tensor:
#      x y z
#    x 1.972330 0.000000 -0.019950 
#    y 0.000000 1.784890 0.000000 
#    z -0.019950 0.000000 1.888240 
# 
# From -- ./inp_files/14063.got.cif
#   From: 2010.05.17/outbox.cif.g08.bks.cpg/sg5_8_cif.got.tgz:14063.got - 2010.06.03 18:56:24.
