data_PCOD9124531
_publ_section_title
;
Structure prediction by ZEFSAII (Michael W. Deem and Ramdas Pophale) SiO2 
 PCOD9124531
Probable space group: C 2
;
_chemical_formula_sum "Si O2"
_cell_formula_units_Z 32
_cell_length_a 16.683295
_cell_length_b 19.623770
_cell_length_c 8.930420
_cell_angle_alpha 90.000000
_cell_angle_beta 29.095950
_cell_angle_gamma 90.000000
_cell_volume 1421.729140
_symmetry_space_group_name_H-M "C 2"
_symmetry_group_IT_number 5
_symmetry_cell_setting 'monoclinic'
loop_
_space_group_symop_operation_xyz
x,y,z
-x,y,-z
1/2+x,1/2+y,z
1/2-x,1/2+y,-z
loop_
_atom_site_type_symbol
_atom_site_label
_atom_site_fract_x
_atom_site_fract_y
_atom_site_fract_z
Si Si1 0.267541 0.133200 0.510270
Si Si2 0.507048 0.017451 0.170090
Si Si3 0.323852 0.493733 0.867765
Si Si4 0.628146 0.341604 0.148825
Si Si5 0.152165 0.782274 0.575388
Si Si6 0.889815 0.265748 0.892015
Si Si7 0.388625 0.876892 0.334347
Si Si8 0.962742 0.116941 0.828919
O O1 0.418391 0.089747 0.331123
O O2 0.326225 0.209675 0.379221
O O3 0.155182 0.102473 0.557804
O O4 0.137649 0.132476 0.856666
O O5 0.396640 0.951543 0.391336
O O6 0.500000 0.014119 0.000000
O O7 0.674874 0.007464 0.992126
O O8 0.500000 0.489173 0.500000
O O9 0.308567 0.419359 0.969887
O O10 0.359903 0.557423 0.917201
O O11 0.500000 0.342837 0.500000
O O12 0.526159 0.304948 0.186374
O O13 0.778734 0.293472 0.941882
O O14 0.270932 0.771965 0.234652
O O15 0.217833 0.846865 0.559347
O O16 0.953533 0.189787 0.762914
O O17 0.031961 0.319806 0.691526
O O18 0.500000 0.878081 0.000000
#
# Coordination Sequence:
#
# PCOD9124531 Si02
#       8
#     4   4   4   4   4   4   4   4
#     4  10  21  37  56  84 112 148 184 221 278 331
#     4  11  23  36  57  82 113 148 186 228 275 332
#     4  11  23  37  55  83 114 148 184 227 280 328
#     4   9  18  29  50  79 107 135 179 231 272 314
#     4   9  17  29  52  79 106 135 179 230 269 317
#     4   9  15  31  50  77 105 135 178 225 277 315
#     4   9  16  29  52  77 102 136 178 227 274 317
#     4  10  21  36  58  81 115 147 180 227 277 332
#
# _framework density 22.507804
#
# number of rings (size 3 to 8) (size 9 to 14) (size 15 to 20)
#    0.000    2.250    2.500    0.750    8.750    0.500 
#    0.000    0.000    0.000    3.000    0.000    0.000 
#    0.000    0.000    0.000    0.000    0.000    0.000 
#
# Total GULP energy -89177.272547 kJ/mol
# GULP energy per Si atom -5573.579534 kJ/mol
# Density = 2.245658 g / cm^3
# Si number density = 22.507804 Si / 1000 Ang^3
#
#
#
# Elastic Constant Matrix: (Units=GPa)
#
#
# Indices 1 2 3 4 5 6 
#
# 1 91.8283 33.3434 41.1564 0.0024 -49.3525 0.0033
# 2 33.3434 117.0421 11.0661 -0.0106 -31.2950 -0.0129
# 3 41.1564 11.0661 35.4244 -0.0219 -19.3003 -0.0344
# 4 0.0024 -0.0106 -0.0219 53.8435 -0.0017 33.2647
# 5 -49.3525 -31.2950 -19.3003 -0.0017 55.1965 -0.0005
# 6 0.0033 -0.0129 -0.0344 33.2647 -0.0005 59.6360
#
#
#
# Elastic Compliance Matrix: (Units=1/GPa)
#
#
# Indices 1 2 3 4 5 6 
#
# 1 0.036359 -0.001926 -0.030295 -0.000002 0.020825 -0.000018
# 2 -0.001926 0.010173 0.001561 0.000001 0.004592 0.000003
# 3 -0.030295 0.001561 0.060115 0.000005 -0.005182 0.000034
# 4 -0.000002 0.000001 0.000005 0.028338 0.000001 -0.015807
# 5 0.020825 0.004592 -0.005182 0.000001 0.037528 -0.000004
# 6 -0.000018 0.000003 0.000034 -0.015807 -0.000004 0.025585
#
#
# Mechanical properties :
#
#
# Convention : Reuss Voigt Hill
#
# Bulk Modulus (GPa) = 22.06141 46.15850 34.10995
# Shear Modulus (GPa) = 18.21329 44.31712 31.26520
#
# Velocity S-wave (km/s) = 2.84773 4.44212 3.73108
# Velocity P-wave (km/s) = 4.54265 6.84560 5.80938
#
# Compressibility (1/GPa) = 0.04532802
#
# Stress axis : x y z
#
# Youngs Moduli (GPa) = 27.50366 98.30262 16.63488
#
# Poissons Ratio (x) = 0.18930 0.50395
# Poissons Ratio (y) = 0.05296 -0.02597
# Poissons Ratio (z) = 0.83321 -0.15347
#
# Static dielectric constant tensor:
#      x y z
#    x 0.544290 0.000030 0.436550 
#    y 0.000030 1.852290 -0.000010 
#    z 0.436550 -0.000010 1.812040 
# 
# From -- ./inp_files/45083.got.cif
#   From: 2010.05.17/outbox.cif.g08.bks.cpg/sg5_23_cif.got.tgz:45083.got - 2010.06.03 18:56:24.
