data_PCOD9124850
_publ_section_title
;
Structure prediction by ZEFSAII (Michael W. Deem and Ramdas Pophale) SiO2 
 PCOD9124850
Probable space group: C 2
;
_chemical_formula_sum "Si O2"
_cell_formula_units_Z 24
_cell_length_a 12.509958
_cell_length_b 7.097894
_cell_length_c 25.453735
_cell_angle_alpha 90.000000
_cell_angle_beta 157.920293
_cell_angle_gamma 90.000000
_cell_volume 849.580779
_symmetry_space_group_name_H-M "C 2"
_symmetry_group_IT_number 5
_symmetry_cell_setting 'monoclinic'
loop_
_space_group_symop_operation_xyz
x,y,z
-x,y,-z
1/2+x,1/2+y,z
1/2-x,1/2+y,-z
loop_
_atom_site_type_symbol
_atom_site_label
_atom_site_fract_x
_atom_site_fract_y
_atom_site_fract_z
Si Si1 0.125755 0.225490 0.429611
Si Si2 0.380009 0.891482 0.675583
Si Si3 0.279649 0.680398 0.093580
Si Si4 0.256385 0.807408 0.350004
Si Si5 0.485649 0.509722 0.898889
Si Si6 0.103172 0.844273 0.723590
O O1 0.277628 0.311896 0.447548
O O2 0.877756 0.339688 0.347624
O O3 0.368125 0.213011 0.585192
O O4 0.959596 0.040327 0.333952
O O5 0.440576 0.733699 0.745994
O O6 0.269928 0.080772 0.652492
O O7 0.689235 0.926984 0.788451
O O8 0.358529 0.523087 0.086770
O O9 0.000000 0.631215 0.000000
O O10 0.198789 0.886734 0.031422
O O11 0.500000 0.881175 0.500000
O O12 0.974412 0.871896 0.250602
O O13 0.392689 0.730082 0.857466
#
# Coordination Sequence:
#
# PCOD9124850 Si02
#       6
#     4   4   4   4   4   4
#     4  11  21  39  64  95 134 164 202 258 318 385
#     4  10  22  39  61  91 125 163 208 258 316 376
#     4  10  23  42  62  89 122 164 215 264 313 364
#     4   9  19  36  57  88 126 163 201 248 309 374
#     4  10  22  42  63  87 122 164 212 261 308 365
#     4  10  21  38  65  96 127 170 209 253 318 382
#
# _framework density 28.249224000000002
#
# number of rings (size 3 to 8) (size 9 to 14) (size 15 to 20)
#    0.000    2.000    0.000    4.000    0.000    6.667 
#    0.000   18.333    0.000    0.000    0.000    0.000 
#    0.000    0.000    0.000    0.000    0.000    0.000 
#
# Total GULP energy -66964.400260 kJ/mol
# GULP energy per Si atom -5580.366688 kJ/mol
# Density = 2.818493 g / cm^3
# Si number density = 28.249224 Si / 1000 Ang^3
#
#
#
# Elastic Constant Matrix: (Units=GPa)
#
#
# Indices 1 2 3 4 5 6 
#
# 1 160.1205 12.9876 28.3769 0.0055 -6.7098 0.0022
# 2 12.9876 101.6721 39.6593 0.0053 -0.4620 0.0011
# 3 28.3769 39.6593 79.0224 0.0292 11.1322 0.0023
# 4 0.0055 0.0053 0.0292 50.3397 0.0041 -0.0287
# 5 -6.7098 -0.4620 11.1322 0.0041 37.5538 0.0030
# 6 0.0022 0.0011 0.0023 -0.0287 0.0030 68.7158
#
#
#
# Elastic Compliance Matrix: (Units=1/GPa)
#
#
# Indices 1 2 3 4 5 6 
#
# 1 0.006820 0.000258 -0.002870 0.000001 0.002073 0.000000
# 2 0.000258 0.012393 -0.006617 0.000002 0.002160 0.000000
# 3 -0.002870 -0.006617 0.017835 -0.000009 -0.005881 0.000000
# 4 0.000001 0.000002 -0.000009 0.019865 0.000001 0.000008
# 5 0.002073 0.002160 -0.005881 0.000001 0.028769 -0.000001
# 6 0.000000 0.000000 0.000000 0.000008 -0.000001 0.014553
#
#
# Mechanical properties :
#
#
# Convention : Reuss Voigt Hill
#
# Bulk Modulus (GPa) = 53.79426 55.87362 54.83394
# Shear Modulus (GPa) = 40.03530 48.64128 44.33829
#
# Velocity S-wave (km/s) = 3.76868 4.15403 3.96604
# Velocity P-wave (km/s) = 6.16614 6.54445 6.35811
#
# Compressibility (1/GPa) = 0.01858934
#
# Stress axis : x y z
#
# Youngs Moduli (GPa) = 146.62900 80.68779 56.07033
#
# Poissons Ratio (x) = -0.02081 0.16095
# Poissons Ratio (y) = -0.03782 0.37101
# Poissons Ratio (z) = 0.42089 0.53390
#
# Static dielectric constant tensor:
#      x y z
#    x 2.184060 0.000000 -0.025240 
#    y 0.000000 2.275330 0.000000 
#    z -0.025240 0.000000 2.232720 
# 
# From -- ./inp_files/38355.got.cif
#   From: 2010.05.17/outbox.cif.g08.bks.cpg/sg5_20_cif.got.tgz:38355.got - 2010.06.03 18:56:24.
