data_PCOD9124562
_publ_section_title
;
Structure prediction by ZEFSAII (Michael W. Deem and Ramdas Pophale) SiO2 
 PCOD9124562
Probable space group: C 2
;
_chemical_formula_sum "Si O2"
_cell_formula_units_Z 28
_cell_length_a 25.030425
_cell_length_b 8.565759
_cell_length_c 9.294541
_cell_angle_alpha 90.000000
_cell_angle_beta 135.883744
_cell_angle_gamma 90.000000
_cell_volume 1387.215588
_symmetry_space_group_name_H-M "C 2"
_symmetry_group_IT_number 5
_symmetry_cell_setting 'monoclinic'
loop_
_space_group_symop_operation_xyz
x,y,z
-x,y,-z
1/2+x,1/2+y,z
1/2-x,1/2+y,-z
loop_
_atom_site_type_symbol
_atom_site_label
_atom_site_fract_x
_atom_site_fract_y
_atom_site_fract_z
Si Si1 0.394443 0.243720 0.911317
Si Si2 0.842789 0.086995 0.392691
Si Si3 0.671077 0.102627 0.724243
Si Si4 0.185879 0.430844 0.187653
Si Si5 0.228296 0.383662 0.598026
Si Si6 0.180690 0.276070 0.911129
Si Si7 0.440938 0.303982 0.670918
O O1 0.316517 0.337345 0.790602
O O2 0.411852 0.252492 0.774039
O O3 0.376037 0.066893 0.920156
O O4 0.467773 0.300720 0.140905
O O5 0.825920 0.246013 0.446478
O O6 0.857853 0.142959 0.259689
O O7 0.762643 0.994054 0.256824
O O8 0.907858 0.975713 0.578563
O O9 0.595566 0.191830 0.522284
O O10 0.709841 0.038739 0.651639
O O11 0.664352 0.945486 0.807066
O O12 0.729623 0.221820 0.915303
O O13 0.211935 0.394077 0.398260
O O14 0.156944 0.292120 0.030812
#
# Coordination Sequence:
#
# PCOD9124562 Si02
#       7
#     4   4   4   4   4   4   4
#     4  10  22  36  63  94 117 158 197 260 305 358
#     4  10  21  36  61  93 118 162 205 252 300 365
#     4  11  20  37  62  90 116 164 203 255 294 367
#     4  11  19  37  61  96 120 155 208 254 293 365
#     4  10  21  36  65  93 118 150 210 257 298 350
#     4  11  21  35  63  89 124 156 215 246 303 353
#     4  11  20  39  64  87 127 154 205 248 318 364
#
# _framework density 20.184318999999999
#
# number of rings (size 3 to 8) (size 9 to 14) (size 15 to 20)
#    0.000    1.429    5.714    0.000    2.000    0.000 
#    0.000    0.714   22.000    0.000    0.000    0.000 
#    0.000    0.000    0.000    0.000    0.000    0.000 
#
# Total GULP energy -78126.515267 kJ/mol
# GULP energy per Si atom -5580.465376 kJ/mol
# Density = 2.013838 g / cm^3
# Si number density = 20.184319 Si / 1000 Ang^3
#
#
#
# Elastic Constant Matrix: (Units=GPa)
#
#
# Indices 1 2 3 4 5 6 
#
# 1 39.7508 22.1325 41.0498 0.0000 2.3415 0.0000
# 2 22.1325 76.4519 51.1295 0.0000 12.9067 0.0000
# 3 41.0498 51.1295 137.0143 0.0000 15.2607 0.0000
# 4 0.0000 0.0000 0.0000 42.3704 0.0000 -9.2136
# 5 2.3415 12.9067 15.2607 0.0000 29.5580 0.0000
# 6 0.0000 0.0000 0.0000 -9.2136 0.0000 22.4837
#
#
#
# Elastic Compliance Matrix: (Units=1/GPa)
#
#
# Indices 1 2 3 4 5 6 
#
# 1 0.038038 -0.005065 -0.009991 0.000000 0.004357 0.000000
# 2 -0.005065 0.018691 -0.004873 0.000000 -0.005244 0.000000
# 3 -0.009991 -0.004873 0.012504 0.000000 -0.003537 0.000000
# 4 0.000000 0.000000 0.000000 0.025910 0.000000 0.010618
# 5 0.004357 -0.005244 -0.003537 0.000000 0.037603 0.000000
# 6 0.000000 0.000000 0.000000 0.010618 0.000000 0.048828
#
#
# Mechanical properties :
#
#
# Convention : Reuss Voigt Hill
#
# Bulk Modulus (GPa) = 34.04411 53.53786 43.79098
# Shear Modulus (GPa) = 21.62388 28.14274 24.88331
#
# Velocity S-wave (km/s) = 3.27665 3.73807 3.51494
# Velocity P-wave (km/s) = 5.58735 6.72406 6.18189
#
# Compressibility (1/GPa) = 0.02937366
#
# Stress axis : x y z
#
# Youngs Moduli (GPa) = 26.28920 53.50176 79.97198
#
# Poissons Ratio (x) = 0.27101 0.79903
# Poissons Ratio (y) = 0.13317 0.38972
# Poissons Ratio (z) = 0.26267 0.26072
#
# Static dielectric constant tensor:
#      x y z
#    x 1.726280 0.000000 -0.047300 
#    y 0.000000 1.731790 0.000000 
#    z -0.047300 0.000000 1.730470 
# 
# From -- ./inp_files/31731.got.cif
#   From: 2010.05.17/outbox.cif.g08.bks.cpg/sg5_16_cif.got.tgz:31731.got - 2010.06.03 18:56:24.
