data_PCOD9124251
_publ_section_title
;
Structure prediction by ZEFSAII (Michael W. Deem and Ramdas Pophale) SiO2 
 PCOD9124251
Probable space group: C 2
;
_chemical_formula_sum "Si O2"
_cell_formula_units_Z 22
_cell_length_a 22.120910
_cell_length_b 7.366918
_cell_length_c 9.789455
_cell_angle_alpha 90.000000
_cell_angle_beta 145.729760
_cell_angle_gamma 90.000000
_cell_volume 898.318755
_symmetry_space_group_name_H-M "C 2"
_symmetry_group_IT_number 5
_symmetry_cell_setting 'monoclinic'
loop_
_space_group_symop_operation_xyz
x,y,z
-x,y,-z
1/2+x,1/2+y,z
1/2-x,1/2+y,-z
loop_
_atom_site_type_symbol
_atom_site_label
_atom_site_fract_x
_atom_site_fract_y
_atom_site_fract_z
Si Si1 0.500000 0.786150 0.500000
Si Si2 0.981123 0.417172 0.763396
Si Si3 0.736221 0.751471 0.024629
Si Si4 0.699331 0.185289 0.553259
Si Si5 0.142074 0.100618 0.381509
Si Si6 0.684198 0.123509 0.076026
O O1 0.475058 0.901663 0.588118
O O2 0.614991 0.693295 0.750639
O O3 0.884822 0.532282 0.644647
O O4 0.966596 0.211589 0.790329
O O5 0.086403 0.540145 0.978064
O O6 0.777265 0.663071 0.241730
O O7 0.720110 0.955361 0.048791
O O8 0.820342 0.764409 0.056151
O O9 0.806693 0.151314 0.667609
O O10 0.649210 0.384427 0.424279
O O11 0.225580 0.179877 0.649467
#
# Coordination Sequence:
#
# PCOD9124251 Si02
#       6
#     2   4   4   4   4   4
#     4  10  20  42  72  98 134 186 232 296 350 416
#     4  11  22  44  71  98 141 181 232 283 359 406
#     4  10  21  40  67 100 130 180 231 288 351 406
#     4  11  23  41  69 101 140 181 231 290 349 418
#     4  11  23  44  68  98 142 183 228 286 345 421
#     4  10  23  42  70  98 137 184 233 290 347 421
#
# _framework density 24.490196999999998
#
# number of rings (size 3 to 8) (size 9 to 14) (size 15 to 20)
#    0.000    1.455    3.636    2.182    0.000    0.727 
#    9.818    0.909   12.000    0.000    0.000    0.000 
#    0.000    0.000    0.000    0.000    0.000    0.000 
#
# Total GULP energy -61363.032944 kJ/mol
# GULP energy per Si atom -5578.457540 kJ/mol
# Density = 2.443446 g / cm^3
# Si number density = 24.490197 Si / 1000 Ang^3
#
#
#
# Elastic Constant Matrix: (Units=GPa)
#
#
# Indices 1 2 3 4 5 6 
#
# 1 118.4052 27.6032 53.2476 0.0000 2.7731 0.0000
# 2 27.6032 83.0738 30.4671 0.0000 14.2086 0.0000
# 3 53.2476 30.4671 97.5540 0.0000 -1.1483 0.0000
# 4 0.0000 0.0000 0.0000 6.7664 0.0000 13.5914
# 5 2.7731 14.2086 -1.1483 0.0000 43.4973 0.0000
# 6 0.0000 0.0000 0.0000 13.5914 0.0000 47.3941
#
#
#
# Elastic Compliance Matrix: (Units=1/GPa)
#
#
# Indices 1 2 3 4 5 6 
#
# 1 0.011407 -0.001633 -0.005720 0.000000 -0.000345 0.000000
# 2 -0.001633 0.014794 -0.003786 0.000000 -0.004829 0.000000
# 3 -0.005720 -0.003786 0.014579 0.000000 0.001986 0.000000
# 4 0.000000 0.000000 0.000000 0.348590 0.000000 -0.099967
# 5 -0.000345 -0.004829 0.001986 0.000000 0.024642 0.000000
# 6 0.000000 0.000000 0.000000 -0.099967 0.000000 0.049768
#
#
# Mechanical properties :
#
#
# Convention : Reuss Voigt Hill
#
# Bulk Modulus (GPa) = 54.04979 57.96319 56.00649
# Shear Modulus (GPa) = 10.15796 32.04589 21.10193
#
# Velocity S-wave (km/s) = 2.03882 3.62127 2.93857
# Velocity P-wave (km/s) = 5.25930 6.41904 5.86789
#
# Compressibility (1/GPa) = 0.01850146
#
# Stress axis : x y z
#
# Youngs Moduli (GPa) = 87.66714 67.59274 68.59372
#
# Poissons Ratio (x) = 0.11041 0.39236
# Poissons Ratio (y) = 0.14320 0.25968
# Poissons Ratio (z) = 0.50146 0.25589
#
# Static dielectric constant tensor:
#      x y z
#    x 2.706200 0.000000 -0.322700 
#    y 0.000000 2.126470 0.000000 
#    z -0.322700 0.000000 2.158000 
# 
# From -- ./inp_files/29064.got.cif
#   From: 2010.05.17/outbox.cif.g08.bks.cpg/sg5_15_cif.got.tgz:29064.got - 2010.06.03 18:56:24.
