data_PCOD9124151
_publ_section_title
;
Structure prediction by ZEFSAII (Michael W. Deem and Ramdas Pophale) SiO2 
 PCOD9124151
Probable space group: C 2
;
_chemical_formula_sum "Si O2"
_cell_formula_units_Z 28
_cell_length_a 11.522074
_cell_length_b 13.201971
_cell_length_c 9.069259
_cell_angle_alpha 90.000000
_cell_angle_beta 65.564761
_cell_angle_gamma 90.000000
_cell_volume 1255.993870
_symmetry_space_group_name_H-M "C 2"
_symmetry_group_IT_number 5
_symmetry_cell_setting 'monoclinic'
loop_
_space_group_symop_operation_xyz
x,y,z
-x,y,-z
1/2+x,1/2+y,z
1/2-x,1/2+y,-z
loop_
_atom_site_type_symbol
_atom_site_label
_atom_site_fract_x
_atom_site_fract_y
_atom_site_fract_z
Si Si1 0.689578 0.138950 0.101100
Si Si2 0.791997 0.433018 0.325425
Si Si3 0.896642 0.054336 0.783192
Si Si4 0.348879 0.064273 0.559463
Si Si5 0.500000 0.005264 0.000000
Si Si6 0.978916 0.833688 0.840161
Si Si7 0.500000 0.696398 0.500000
Si Si8 0.733624 0.265563 0.544161
O O1 0.707576 0.084593 0.249555
O O2 0.629444 0.251390 0.148869
O O3 0.816771 0.124284 0.937389
O O4 0.586479 0.075349 0.059324
O O5 0.692452 0.507280 0.299332
O O6 0.814133 0.466187 0.483326
O O7 0.747375 0.319904 0.378569
O O8 0.914259 0.440329 0.156610
O O9 0.996634 0.124682 0.646000
O O10 0.944438 0.951208 0.833157
O O11 0.500000 0.066924 0.500000
O O12 0.308800 0.152316 0.469732
O O13 0.112551 0.812540 0.690045
O O14 0.000000 0.815354 0.000000
O O15 0.368278 0.758675 0.559551
#
# Coordination Sequence:
#
# PCOD9124151 Si02
#       8
#     4   4   4   4   2   4   2   4
#     4  11  23  43  73 109 145 187 241 300 366 434
#     4  11  24  44  70 103 143 190 242 299 366 435
#     4  11  26  47  73 106 149 190 237 313 368 434
#     4  12  23  44  74 105 140 191 248 300 360 444
#     4  10  20  42  66 104 148 188 234 294 354 432
#     4  12  25  45  75 108 143 195 252 296 370 446
#     4  12  26  50  68 102 154 192 242 312 372 416
#     4  12  27  45  73 104 145 196 244 303 366 440
#
# _framework density 22.293102999999999
#
# number of rings (size 3 to 8) (size 9 to 14) (size 15 to 20)
#    0.000    0.571    5.000    2.571    3.000    0.000 
#   10.286    0.000    0.000    0.000    0.000    0.000 
#    0.000    0.000    0.000    0.000    0.000    0.000 
#
# Total GULP energy -78260.775402 kJ/mol
# GULP energy per Si atom -5590.055386 kJ/mol
# Density = 2.224236 g / cm^3
# Si number density = 22.293103 Si / 1000 Ang^3
#
#
#
# Elastic Constant Matrix: (Units=GPa)
#
#
# Indices 1 2 3 4 5 6 
#
# 1 74.7363 17.4548 22.4014 0.0000 2.5338 0.0000
# 2 17.4548 82.6953 26.9791 0.0000 -14.2008 0.0000
# 3 22.4014 26.9791 98.3800 0.0000 -7.2455 0.0000
# 4 0.0000 0.0000 0.0000 -15.2551 0.0000 14.0008
# 5 2.5338 -14.2008 -7.2455 0.0000 45.4990 0.0000
# 6 0.0000 0.0000 0.0000 14.0008 0.0000 13.8801
#
#
#
# Elastic Compliance Matrix: (Units=1/GPa)
#
#
# Indices 1 2 3 4 5 6 
#
# 1 0.014905 -0.002578 -0.002841 0.000000 -0.002087 0.000000
# 2 -0.002578 0.014339 -0.003041 0.000000 0.004135 0.000000
# 3 -0.002841 -0.003041 0.011725 0.000000 0.001076 0.000000
# 4 0.000000 0.000000 0.000000 -0.034040 0.000000 0.034335
# 5 -0.002087 0.004135 0.001076 0.000000 0.023557 0.000000
# 6 0.000000 0.000000 0.000000 0.034335 0.000000 0.037412
#
#
# Mechanical properties :
#
#
# Convention : Reuss Voigt Hill
#
# Bulk Modulus (GPa) = 41.58006 43.27579 42.42792
# Shear Modulus (GPa) = 53.86131 21.42322 37.64227
#
# Velocity S-wave (km/s) = 4.92067 3.10333 4.11361
# Velocity P-wave (km/s) = 7.13975 5.68289 6.45257
#
# Compressibility (1/GPa) = 0.02404999
#
# Stress axis : x y z
#
# Youngs Moduli (GPa) = 67.09346 69.74140 85.29062
#
# Poissons Ratio (x) = 0.17976 0.24228
# Poissons Ratio (y) = 0.17294 0.25934
# Poissons Ratio (z) = 0.19059 0.21206
#
# Static dielectric constant tensor:
#      x y z
#    x 1.919400 0.000000 -0.078610 
#    y 0.000000 1.788640 0.000000 
#    z -0.078610 0.000000 1.879860 
# 
# From -- ./inp_files/20588.got.cif
#   From: 2010.05.17/outbox.cif.g08.bks.cpg/sg5_11_cif.got.tgz:20588.got - 2010.06.03 18:56:24.
