data_PCOD9124959
_publ_section_title
;
Structure prediction by ZEFSAII (Michael W. Deem and Ramdas Pophale) SiO2 
 PCOD9124959
Probable space group: C 2
;
_chemical_formula_sum "Si O2"
_cell_formula_units_Z 22
_cell_length_a 9.385113
_cell_length_b 9.379637
_cell_length_c 25.367644
_cell_angle_alpha 90.000000
_cell_angle_beta 29.191224
_cell_angle_gamma 90.000000
_cell_volume 1089.134544
_symmetry_space_group_name_H-M "C 2"
_symmetry_group_IT_number 5
_symmetry_cell_setting 'monoclinic'
loop_
_space_group_symop_operation_xyz
x,y,z
-x,y,-z
1/2+x,1/2+y,z
1/2-x,1/2+y,-z
loop_
_atom_site_type_symbol
_atom_site_label
_atom_site_fract_x
_atom_site_fract_y
_atom_site_fract_z
Si Si1 0.112581 0.501380 0.817334
Si Si2 0.000000 0.902803 0.000000
Si Si3 0.639788 0.194497 0.290075
Si Si4 0.386430 0.312744 0.477571
Si Si5 0.255336 0.621449 0.880999
Si Si6 0.642140 0.617281 0.369637
O O1 0.254483 0.344974 0.767772
O O2 0.252069 0.572220 0.822821
O O3 0.182368 0.580291 0.740236
O O4 0.763392 0.491931 0.938881
O O5 0.169916 0.790376 0.907629
O O6 0.563142 0.226685 0.375585
O O7 0.365961 0.139037 0.345476
O O8 0.929156 0.098517 0.195263
O O9 0.500000 0.284126 0.500000
O O10 0.439926 0.479384 0.447549
O O11 0.058153 0.255350 0.575902
O O12 0.000000 0.556396 0.000000
#
# Coordination Sequence:
#
# PCOD9124959 Si02
#       6
#     4   2   4   4   4   4
#     4  10  21  39  62  91 126 169 208 263 312 373
#     4   8  20  36  60  88 128 160 210 258 304 368
#     4  10  22  41  59  93 128 161 214 262 311 374
#     4  11  23  41  65  93 125 171 210 264 317 377
#     4   9  20  40  60  88 128 162 206 259 306 370
#     4  11  25  41  67  95 129 169 215 262 318 381
#
# _framework density 20.199524
#
# number of rings (size 3 to 8) (size 9 to 14) (size 15 to 20)
#    0.545    1.455    0.000    2.727    2.545    5.818 
#    3.273    0.000    0.000    0.000    0.000    0.000 
#    0.000    0.000    0.000    0.000    0.000    0.000 
#
# Total GULP energy -61355.101892 kJ/mol
# GULP energy per Si atom -5577.736536 kJ/mol
# Density = 2.015355 g / cm^3
# Si number density = 20.199524 Si / 1000 Ang^3
#
#
#
# Elastic Constant Matrix: (Units=GPa)
#
#
# Indices 1 2 3 4 5 6 
#
# 1 151.5867 44.9287 54.3967 -0.0039 -5.6478 0.0017
# 2 44.9287 44.5886 37.4596 -0.0048 -11.2031 -0.0018
# 3 54.3967 37.4596 77.6012 0.0013 -26.8791 0.0129
# 4 -0.0039 -0.0048 0.0013 19.8890 0.0030 0.2993
# 5 -5.6478 -11.2031 -26.8791 0.0030 38.4068 -0.0032
# 6 0.0017 -0.0018 0.0129 0.2993 -0.0032 23.8227
#
#
#
# Elastic Compliance Matrix: (Units=1/GPa)
#
#
# Indices 1 2 3 4 5 6 
#
# 1 0.010484 -0.007096 -0.005421 0.000001 -0.004322 0.000001
# 2 -0.007096 0.042684 -0.015416 0.000010 0.000618 0.000012
# 3 -0.005421 -0.015416 0.029428 -0.000009 0.015301 -0.000015
# 4 0.000001 0.000010 -0.000009 0.050288 -0.000007 -0.000632
# 5 -0.004322 0.000618 0.015301 -0.000007 0.036290 -0.000003
# 6 0.000001 0.000012 -0.000015 -0.000632 -0.000003 0.041985
#
#
# Mechanical properties :
#
#
# Convention : Reuss Voigt Hill
#
# Bulk Modulus (GPa) = 37.41079 60.81629 49.11354
# Shear Modulus (GPa) = 18.12011 25.55647 21.83829
#
# Velocity S-wave (km/s) = 2.99834 3.56083 3.29162
# Velocity P-wave (km/s) = 5.52698 6.86142 6.23004
#
# Compressibility (1/GPa) = 0.02673026
#
# Stress axis : x y z
#
# Youngs Moduli (GPa) = 95.38034 23.42789 33.98121
#
# Poissons Ratio (x) = 0.16625 0.18421
# Poissons Ratio (y) = 0.67682 0.52386
# Poissons Ratio (z) = 0.51705 0.36117
#
# Static dielectric constant tensor:
#      x y z
#    x 1.670310 0.000000 -0.011270 
#    y 0.000000 1.735350 0.000000 
#    z -0.011270 0.000000 1.762520 
# 
# From -- ./inp_files/35488.got.cif
#   From: 2010.05.17/outbox.cif.g08.bks.cpg/sg5_18_cif.got.tgz:35488.got - 2010.06.03 18:56:24.
