data_PCOD9124256
_publ_section_title
;
Structure prediction by ZEFSAII (Michael W. Deem and Ramdas Pophale) SiO2 
 PCOD9124256
Probable space group: C 2
;
_chemical_formula_sum "Si O2"
_cell_formula_units_Z 20
_cell_length_a 20.754858
_cell_length_b 7.087854
_cell_length_c 9.384763
_cell_angle_alpha 90.000000
_cell_angle_beta 143.383638
_cell_angle_gamma 90.000000
_cell_volume 823.445529
_symmetry_space_group_name_H-M "C 2"
_symmetry_group_IT_number 5
_symmetry_cell_setting 'monoclinic'
loop_
_space_group_symop_operation_xyz
x,y,z
-x,y,-z
1/2+x,1/2+y,z
1/2-x,1/2+y,-z
loop_
_atom_site_type_symbol
_atom_site_label
_atom_site_fract_x
_atom_site_fract_y
_atom_site_fract_z
Si Si1 0.401782 0.862130 0.909344
Si Si2 0.953515 0.354844 0.571084
Si Si3 0.388588 0.469048 0.729925
Si Si4 0.213268 0.734438 0.217718
Si Si5 0.003806 0.799480 0.342045
O O1 0.312028 0.015682 0.788711
O O2 0.375832 0.682990 0.764414
O O3 0.500000 0.965349 0.000000
O O4 0.459207 0.788959 0.155708
O O5 0.831852 0.281370 0.371590
O O6 0.954015 0.583073 0.586471
O O7 0.000000 0.307940 0.500000
O O8 0.302532 0.350530 0.664919
O O9 0.415795 0.419072 0.615260
O O10 0.500000 0.404908 0.000000
O O11 0.117776 0.794652 0.938920
O O12 0.000000 0.859751 0.500000
#
# Coordination Sequence:
#
# PCOD9124256 Si02
#       5
#     4   4   4   4   4
#     4  10  21  45  68 103 149 186 248 313 358 448
#     4  10  22  44  72 109 153 195 249 315 379 446
#     4   9  19  41  69 103 145 188 247 301 359 446
#     4  10  20  42  74 103 144 200 248 298 378 437
#     4   9  19  42  76 108 155 200 242 313 374 453
#
# _framework density 24.288188000000002
#
# number of rings (size 3 to 8) (size 9 to 14) (size 15 to 20)
#    0.000    2.400    0.000    3.000    0.000    0.000 
#   32.400   13.000    0.000    2.400    0.000    0.000 
#    0.000    0.000    0.000    0.000    0.000    0.000 
#
# Total GULP energy -55931.997168 kJ/mol
# GULP energy per Si atom -5593.199717 kJ/mol
# Density = 2.423291 g / cm^3
# Si number density = 24.288188 Si / 1000 Ang^3
#
#
#
# Elastic Constant Matrix: (Units=GPa)
#
#
# Indices 1 2 3 4 5 6 
#
# 1 262.9627 95.6179 128.8548 0.0000 0.0671 0.0000
# 2 95.6179 163.8075 85.3079 0.0000 12.4854 0.0000
# 3 128.8548 85.3079 155.9371 0.0000 2.1824 0.0000
# 4 0.0000 0.0000 0.0000 20.1566 0.0000 -3.2235
# 5 0.0671 12.4854 2.1824 0.0000 63.7486 0.0000
# 6 0.0000 0.0000 0.0000 -3.2235 0.0000 34.6756
#
#
#
# Elastic Compliance Matrix: (Units=1/GPa)
#
#
# Indices 1 2 3 4 5 6 
#
# 1 0.006630 -0.001465 -0.004684 0.000000 0.000440 0.000000
# 2 -0.001465 0.009009 -0.003695 0.000000 -0.001636 0.000000
# 3 -0.004684 -0.003695 0.012300 0.000000 0.000308 0.000000
# 4 0.000000 0.000000 0.000000 0.050360 0.000000 0.004682
# 5 0.000440 -0.001636 0.000308 0.000000 0.015996 0.000000
# 6 0.000000 0.000000 0.000000 0.004682 0.000000 0.029274
#
#
# Mechanical properties :
#
#
# Convention : Reuss Voigt Hill
#
# Bulk Modulus (GPa) = 121.17844 133.58539 127.38192
# Shear Modulus (GPa) = 34.24473 41.91128 38.07800
#
# Velocity S-wave (km/s) = 3.75898 4.15852 3.96379
# Velocity P-wave (km/s) = 8.29700 8.84179 8.57372
#
# Compressibility (1/GPa) = 0.00825229
#
# Stress axis : x y z
#
# Youngs Moduli (GPa) = 150.82114 111.00259 81.29817
#
# Poissons Ratio (x) = 0.16258 0.38078
# Poissons Ratio (y) = 0.22090 0.30042
# Poissons Ratio (z) = 0.70641 0.41018
#
# Static dielectric constant tensor:
#      x y z
#    x 1.917470 0.000000 0.001720 
#    y 0.000000 1.986720 0.000000 
#    z 0.001720 0.000000 2.039950 
# 
# From -- ./inp_files/14870.got.cif
#   From: 2010.05.17/outbox.cif.g08.bks.cpg/sg5_8_cif.got.tgz:14870.got - 2010.06.03 18:56:24.
