data_PCOD9124804
_publ_section_title
;
Structure prediction by ZEFSAII (Michael W. Deem and Ramdas Pophale) SiO2 
 PCOD9124804
Probable space group: C 2
;
_chemical_formula_sum "Si O2"
_cell_formula_units_Z 24
_cell_length_a 10.363102
_cell_length_b 7.239905
_cell_length_c 17.781702
_cell_angle_alpha 90.000000
_cell_angle_beta 40.486502
_cell_angle_gamma 90.000000
_cell_volume 866.204753
_symmetry_space_group_name_H-M "C 2"
_symmetry_group_IT_number 5
_symmetry_cell_setting 'monoclinic'
loop_
_space_group_symop_operation_xyz
x,y,z
-x,y,-z
1/2+x,1/2+y,z
1/2-x,1/2+y,-z
loop_
_atom_site_type_symbol
_atom_site_label
_atom_site_fract_x
_atom_site_fract_y
_atom_site_fract_z
Si Si1 0.862454 0.463330 0.817998
Si Si2 0.101462 0.997618 0.815328
Si Si3 0.767345 0.548298 0.100617
Si Si4 0.767275 0.534984 0.589518
Si Si5 0.752322 0.599914 0.425854
Si Si6 0.227676 0.580770 0.741543
O O1 0.679656 0.572694 0.859824
O O2 0.772876 0.268309 0.883118
O O3 0.036782 0.491864 0.676373
O O4 0.996875 0.533226 0.827324
O O5 0.165254 0.107072 0.711462
O O6 0.214071 0.800445 0.761433
O O7 0.869496 0.966833 0.903875
O O8 0.693901 0.490731 0.217236
O O9 0.000000 0.513638 0.000000
O O10 0.701445 0.602498 0.536541
O O11 0.731034 0.316214 0.600118
O O12 0.000000 0.569445 0.500000
O O13 0.658324 0.534076 0.386327
#
# Coordination Sequence:
#
# PCOD9124804 Si02
#       6
#     4   4   4   4   4   4
#     4   9  20  43  60  85 126 158 199 255 304 355
#     4  10  21  38  63  86 125 161 205 253 295 364
#     4  11  24  40  64  91 119 163 210 258 310 356
#     4  11  20  37  61  88 128 167 196 242 304 362
#     4   9  21  36  61  89 120 166 197 239 301 360
#     4   8  20  41  57  85 127 153 201 256 303 353
#
# _framework density 27.707075
#
# number of rings (size 3 to 8) (size 9 to 14) (size 15 to 20)
#    1.000    1.333    1.667    0.000    2.333    4.000 
#    0.000    5.000    0.000    0.000    0.000    0.000 
#    0.000    0.000    0.000    0.000    0.000    0.000 
#
# Total GULP energy -66919.236011 kJ/mol
# GULP energy per Si atom -5576.603001 kJ/mol
# Density = 2.764401 g / cm^3
# Si number density = 27.707075 Si / 1000 Ang^3
#
#
#
# Elastic Constant Matrix: (Units=GPa)
#
#
# Indices 1 2 3 4 5 6 
#
# 1 188.5951 -9.1853 -15.0576 0.0000 19.0572 0.0000
# 2 -9.1853 56.9468 -11.5677 0.0000 9.3647 0.0000
# 3 -15.0576 -11.5677 82.0286 0.0000 17.9599 0.0000
# 4 0.0000 0.0000 0.0000 25.2848 0.0000 -7.1978
# 5 19.0572 9.3647 17.9599 0.0000 26.0915 0.0000
# 6 0.0000 0.0000 0.0000 -7.1978 0.0000 20.0058
#
#
#
# Elastic Compliance Matrix: (Units=1/GPa)
#
#
# Indices 1 2 3 4 5 6 
#
# 1 0.006571 0.003131 0.003467 0.000000 -0.008310 0.000000
# 2 0.003131 0.021930 0.006937 0.000000 -0.014933 0.000000
# 3 0.003467 0.006937 0.017550 0.000000 -0.017103 0.000000
# 4 0.000000 0.000000 0.000000 0.044062 0.000000 0.015853
# 5 -0.008310 -0.014933 -0.017103 0.000000 0.061529 0.000000
# 6 0.000000 0.000000 0.000000 0.015853 0.000000 0.055689
#
#
# Mechanical properties :
#
#
# Convention : Reuss Voigt Hill
#
# Bulk Modulus (GPa) = 13.67593 28.43880 21.05737
# Shear Modulus (GPa) = 24.43370 38.50184 31.46777
#
# Velocity S-wave (km/s) = 2.97283 3.73178 3.37372
# Velocity P-wave (km/s) = 4.09026 5.37165 4.77414
#
# Compressibility (1/GPa) = 0.07312118
#
# Stress axis : x y z
#
# Youngs Moduli (GPa) = 152.17452 45.59981 56.97949
#
# Poissons Ratio (x) = -0.14276 -0.19756
# Poissons Ratio (y) = -0.47643 -0.39525
# Poissons Ratio (z) = -0.52763 -0.31631
#
# Static dielectric constant tensor:
#      x y z
#    x 2.270330 0.000000 0.006220 
#    y 0.000000 2.153500 0.000000 
#    z 0.006220 0.000000 2.353880 
# 
# From -- ./inp_files/65034.got.cif
#   From: 2010.05.17/outbox.cif.g08.bks.cpg/sg5_33_cif.got.tgz:65034.got - 2010.06.03 18:56:24.
