data_PCOD9124443
_publ_section_title
;
Structure prediction by ZEFSAII (Michael W. Deem and Ramdas Pophale) SiO2 
 PCOD9124443
Probable space group: C 2
;
_chemical_formula_sum "Si O2"
_cell_formula_units_Z 24
_cell_length_a 26.431839
_cell_length_b 8.740962
_cell_length_c 5.042579
_cell_angle_alpha 90.000000
_cell_angle_beta 66.460330
_cell_angle_gamma 90.000000
_cell_volume 1068.086044
_symmetry_space_group_name_H-M "C 2"
_symmetry_group_IT_number 5
_symmetry_cell_setting 'monoclinic'
loop_
_space_group_symop_operation_xyz
x,y,z
-x,y,-z
1/2+x,1/2+y,z
1/2-x,1/2+y,-z
loop_
_atom_site_type_symbol
_atom_site_label
_atom_site_fract_x
_atom_site_fract_y
_atom_site_fract_z
Si Si1 0.661472 0.648610 0.939024
Si Si2 0.717561 0.163015 0.560540
Si Si3 0.440722 0.993851 0.604338
Si Si4 0.441852 0.770646 0.099189
Si Si5 0.675801 0.955894 0.240058
Si Si6 0.703577 0.370788 0.102766
O O1 0.711561 0.246944 0.852214
O O2 0.611381 0.670622 0.842927
O O3 0.662902 0.786191 0.152666
O O4 0.658624 0.491676 0.106057
O O5 0.694613 0.285412 0.394773
O O6 0.686556 0.006068 0.526913
O O7 0.781888 0.145804 0.348510
O O8 0.500000 0.082448 0.500000
O O9 0.436898 0.889934 0.349185
O O10 0.377501 0.054855 0.746275
O O11 0.446260 0.877833 0.834227
O O12 0.500000 0.684145 0.000000
O O13 0.738571 0.965749 0.996150
#
# Coordination Sequence:
#
# PCOD9124443 Si02
#       6
#     4   4   4   4   4   4
#     4   9  19  34  54  75 101 135 172 208 252 307
#     4  10  21  34  50  75 105 134 166 208 256 304
#     4   9  17  29  47  72  97 122 160 209 250 286
#     4   9  17  29  47  72  97 122 160 209 250 286
#     4   9  19  34  54  75 101 135 172 208 252 307
#     4  10  21  34  50  75 105 134 166 208 256 304
#
# _framework density 22.470099999999999
#
# number of rings (size 3 to 8) (size 9 to 14) (size 15 to 20)
#    0.000    2.667    0.000    1.000    0.000   16.000 
#    0.000    0.000    0.000    2.000    0.000    0.000 
#    0.000    0.000    0.000    0.000    0.000    0.000 
#
# Total GULP energy -66854.416145 kJ/mol
# GULP energy per Si atom -5571.201345 kJ/mol
# Density = 2.241896 g / cm^3
# Si number density = 22.470100 Si / 1000 Ang^3
#
#
#
# Elastic Constant Matrix: (Units=GPa)
#
#
# Indices 1 2 3 4 5 6 
#
# 1 178.4223 33.8685 6.8622 0.0000 17.0415 0.0000
# 2 33.8685 77.3408 29.8365 0.0000 14.3855 0.0000
# 3 6.8622 29.8365 106.2987 0.0000 14.4495 0.0000
# 4 0.0000 0.0000 0.0000 28.9055 0.0000 11.3765
# 5 17.0415 14.3855 14.4495 0.0000 33.8881 0.0000
# 6 0.0000 0.0000 0.0000 11.3765 0.0000 28.9000
#
#
#
# Elastic Compliance Matrix: (Units=1/GPa)
#
#
# Indices 1 2 3 4 5 6 
#
# 1 0.006291 -0.002562 0.000632 0.000000 -0.002345 0.000000
# 2 -0.002562 0.016282 -0.003864 0.000000 -0.003976 0.000000
# 3 0.000632 -0.003864 0.010903 0.000000 -0.003326 0.000000
# 4 0.000000 0.000000 0.000000 0.040938 0.000000 -0.016115
# 5 -0.002345 -0.003976 -0.003326 0.000000 0.033794 0.000000
# 6 0.000000 0.000000 0.000000 -0.016115 0.000000 0.040946
#
#
# Mechanical properties :
#
#
# Convention : Reuss Voigt Hill
#
# Bulk Modulus (GPa) = 45.68969 55.91069 50.80019
# Shear Modulus (GPa) = 29.75490 37.77171 33.76330
#
# Velocity S-wave (km/s) = 3.64290 4.10442 3.88053
# Velocity P-wave (km/s) = 6.17025 6.88462 6.53720
#
# Compressibility (1/GPa) = 0.02188677
#
# Stress axis : x y z
#
# Youngs Moduli (GPa) = 158.96316 61.41709 91.71372
#
# Poissons Ratio (x) = 0.15737 -0.05795
# Poissons Ratio (y) = 0.40732 0.35441
# Poissons Ratio (z) = -0.10045 0.23734
#
# Static dielectric constant tensor:
#      x y z
#    x 1.982740 0.000000 -0.062880 
#    y 0.000000 1.872350 0.000000 
#    z -0.062880 0.000000 1.895100 
# 
# From -- ./inp_files/10714.got.cif
#   From: 2010.05.17/outbox.cif.g08.bks.cpg/sg5_6_cif.got.tgz:10714.got - 2010.06.03 18:56:24.
