data_PCOD9124188
_publ_section_title
;
Structure prediction by ZEFSAII (Michael W. Deem and Ramdas Pophale) SiO2 
 PCOD9124188
Probable space group: C 2
;
_chemical_formula_sum "Si O2"
_cell_formula_units_Z 16
_cell_length_a 12.313729
_cell_length_b 7.199597
_cell_length_c 8.224984
_cell_angle_alpha 90.000000
_cell_angle_beta 80.889959
_cell_angle_gamma 90.000000
_cell_volume 719.979015
_symmetry_space_group_name_H-M "C 2"
_symmetry_group_IT_number 5
_symmetry_cell_setting 'monoclinic'
loop_
_space_group_symop_operation_xyz
x,y,z
-x,y,-z
1/2+x,1/2+y,z
1/2-x,1/2+y,-z
loop_
_atom_site_type_symbol
_atom_site_label
_atom_site_fract_x
_atom_site_fract_y
_atom_site_fract_z
Si Si1 0.210258 0.853940 0.130608
Si Si2 0.661044 0.152080 0.700572
Si Si3 0.500000 0.316196 0.000000
Si Si4 0.674999 0.926422 0.226222
Si Si5 0.000000 0.478277 0.500000
O O1 0.093878 0.921308 0.080514
O O2 0.188367 0.646823 0.199369
O O3 0.260022 0.989187 0.253067
O O4 0.295450 0.845946 0.958742
O O5 0.732985 0.338035 0.678278
O O6 0.596990 0.099006 0.554820
O O7 0.569064 0.190502 0.859545
O O8 0.558576 0.876024 0.335549
#
# Coordination Sequence:
#
# PCOD9124188 Si02
#       5
#     4   4   2   4   2
#     4  11  21  46  71  99 135 183 231 276 330 415
#     4  11  24  45  68  99 145 175 227 279 338 409
#     4  10  20  42  68 100 126 180 224 280 324 394
#     4  11  24  44  71 101 134 179 231 278 336 402
#     4  12  26  46  68 102 148 178 212 296 346 390
#
# _framework density 22.222871999999999
#
# number of rings (size 3 to 8) (size 9 to 14) (size 15 to 20)
#    0.000    1.000    7.500    0.000    3.500    0.000 
#    9.000    5.000    0.000    0.000    0.000    0.000 
#    0.000    0.000    0.000    0.000    0.000    0.000 
#
# Total GULP energy -44671.155199 kJ/mol
# GULP energy per Si atom -5583.894400 kJ/mol
# Density = 2.217229 g / cm^3
# Si number density = 22.222872 Si / 1000 Ang^3
#
#
#
# Elastic Constant Matrix: (Units=GPa)
#
#
# Indices 1 2 3 4 5 6 
#
# 1 127.9174 54.3310 54.7805 0.0000 13.1631 0.0000
# 2 54.3310 64.7929 22.2359 0.0000 4.8289 0.0000
# 3 54.7805 22.2359 98.6421 0.0000 -10.0405 0.0000
# 4 0.0000 0.0000 0.0000 17.4034 0.0000 5.1574
# 5 13.1631 4.8289 -10.0405 0.0000 66.1668 0.0000
# 6 0.0000 0.0000 0.0000 5.1574 0.0000 30.1232
#
#
#
# Elastic Compliance Matrix: (Units=1/GPa)
#
#
# Indices 1 2 3 4 5 6 
#
# 1 0.015368 -0.010403 -0.006525 0.000000 -0.003288 0.000000
# 2 -0.010403 0.023988 0.000408 0.000000 0.000381 0.000000
# 3 -0.006525 0.000408 0.014014 0.000000 0.003395 0.000000
# 4 0.000000 0.000000 0.000000 0.060531 0.000000 -0.010364
# 5 -0.003288 0.000381 0.003395 0.000000 0.016255 0.000000
# 6 0.000000 0.000000 0.000000 -0.010364 0.000000 0.034971
#
#
# Mechanical properties :
#
#
# Convention : Reuss Voigt Hill
#
# Bulk Modulus (GPa) = 49.17972 61.56081 55.37026
# Shear Modulus (GPa) = 24.39687 33.40568 28.90128
#
# Velocity S-wave (km/s) = 3.31694 3.88133 3.61018
# Velocity P-wave (km/s) = 6.07023 6.91723 6.50753
#
# Compressibility (1/GPa) = 0.02033359
#
# Stress axis : x y z
#
# Youngs Moduli (GPa) = 65.06827 41.68697 71.35473
#
# Poissons Ratio (x) = 0.43366 0.46556
# Poissons Ratio (y) = 0.67689 -0.02915
# Poissons Ratio (z) = 0.42454 -0.01703
#
# Static dielectric constant tensor:
#      x y z
#    x 1.854890 0.000000 -0.004970 
#    y 0.000000 1.810150 0.000000 
#    z -0.004970 0.000000 1.922410 
# 
# From -- ./inp_files/17807.got.cif
#   From: 2010.05.17/outbox.cif.g08.bks.cpg/sg5_9_cif.got.tgz:17807.got - 2010.06.03 18:56:24.
