data_PCOD9124706
_publ_section_title
;
Structure prediction by ZEFSAII (Michael W. Deem and Ramdas Pophale) SiO2 
 PCOD9124706
Probable space group: C 2
;
_chemical_formula_sum "Si O2"
_cell_formula_units_Z 20
_cell_length_a 22.007295
_cell_length_b 4.930280
_cell_length_c 8.788578
_cell_angle_alpha 90.000000
_cell_angle_beta 57.838629
_cell_angle_gamma 90.000000
_cell_volume 807.254779
_symmetry_space_group_name_H-M "C 2"
_symmetry_group_IT_number 5
_symmetry_cell_setting 'monoclinic'
loop_
_space_group_symop_operation_xyz
x,y,z
-x,y,-z
1/2+x,1/2+y,z
1/2-x,1/2+y,-z
loop_
_atom_site_type_symbol
_atom_site_label
_atom_site_fract_x
_atom_site_fract_y
_atom_site_fract_z
Si Si1 0.799269 0.969620 0.449913
Si Si2 0.345813 0.780654 0.895841
Si Si3 0.195850 0.777861 0.230415
Si Si4 0.501008 0.036667 0.315991
Si Si5 0.049853 0.065390 0.792537
O O1 0.741952 0.750187 0.471433
O O2 0.828221 0.859722 0.571915
O O3 0.870392 0.996322 0.254941
O O4 0.342891 0.472574 0.840671
O O5 0.320017 0.970192 0.790345
O O6 0.423300 0.896691 0.830551
O O7 0.281712 0.820820 0.101844
O O8 0.500000 0.072495 0.500000
O O9 0.485937 0.313081 0.247483
O O10 0.444145 0.815078 0.332590
O O11 0.000000 0.141097 0.000000
#
# Coordination Sequence:
#
# PCOD9124706 Si02
#       5
#     4   4   4   4   4
#     4  12  26  43  68  91 135 181 223 264 332 406
#     4  10  21  37  66  92 125 164 212 280 319 389
#     4  10  21  39  60  95 127 162 221 265 324 383
#     4  12  24  44  73  98 138 182 231 277 351 405
#     4  12  28  45  69 105 143 176 230 287 344 412
#
# _framework density 24.775324999999999
#
# number of rings (size 3 to 8) (size 9 to 14) (size 15 to 20)
#    0.000    0.800    0.000    7.200    5.600    0.000 
#    0.000    0.000    0.000    0.000    0.000    0.000 
#    0.000    0.000    0.000    0.000    0.000    0.000 
#
# Total GULP energy -56052.116693 kJ/mol
# GULP energy per Si atom -5605.211669 kJ/mol
# Density = 2.471894 g / cm^3
# Si number density = 24.775325 Si / 1000 Ang^3
#
#
#
# Elastic Constant Matrix: (Units=GPa)
#
#
# Indices 1 2 3 4 5 6 
#
# 1 85.5116 14.5888 28.9831 0.0000 -13.5336 0.0000
# 2 14.5888 90.5152 -5.0760 0.0000 19.1129 0.0000
# 3 28.9831 -5.0760 74.5569 0.0000 -13.4759 0.0000
# 4 0.0000 0.0000 0.0000 28.4123 0.0000 6.5211
# 5 -13.5336 19.1129 -13.4759 0.0000 39.9291 0.0000
# 6 0.0000 0.0000 0.0000 6.5211 0.0000 49.3939
#
#
#
# Elastic Compliance Matrix: (Units=1/GPa)
#
#
# Indices 1 2 3 4 5 6 
#
# 1 0.014881 -0.003767 -0.005116 0.000000 0.005120 0.000000
# 2 -0.003767 0.013247 0.001053 0.000000 -0.007262 0.000000
# 3 -0.005116 0.001053 0.016047 0.000000 0.003178 0.000000
# 4 0.000000 0.000000 0.000000 0.036296 0.000000 -0.004792
# 5 0.005120 -0.007262 0.003178 0.000000 0.031329 0.000000
# 6 0.000000 0.000000 0.000000 -0.004792 0.000000 0.020878
#
#
# Mechanical properties :
#
#
# Convention : Reuss Voigt Hill
#
# Bulk Modulus (GPa) = 35.06527 36.39728 35.73127
# Shear Modulus (GPa) = 31.67717 37.68626 34.68171
#
# Velocity S-wave (km/s) = 3.57960 3.90439 3.74551
# Velocity P-wave (km/s) = 5.59185 5.92017 5.75835
#
# Compressibility (1/GPa) = 0.02851825
#
# Stress axis : x y z
#
# Youngs Moduli (GPa) = 67.19872 75.48600 62.31541
#
# Poissons Ratio (x) = 0.28432 0.31880
# Poissons Ratio (y) = 0.25311 -0.06565
# Poissons Ratio (z) = 0.34378 -0.07952
#
# Static dielectric constant tensor:
#      x y z
#    x 2.012010 0.000000 -0.051410 
#    y 0.000000 1.896990 0.000000 
#    z -0.051410 0.000000 1.959880 
# 
# From -- ./inp_files/28260.got.cif
#   From: 2010.05.17/outbox.cif.g08.bks.cpg/sg5_15_cif.got.tgz:28260.got - 2010.06.03 18:56:24.
