data_PCOD9124923
_publ_section_title
;
Structure prediction by ZEFSAII (Michael W. Deem and Ramdas Pophale) SiO2 
 PCOD9124923
Probable space group: C 2
;
_chemical_formula_sum "Si O2"
_cell_formula_units_Z 32
_cell_length_a 9.393109
_cell_length_b 10.347108
_cell_length_c 13.927257
_cell_angle_alpha 90.000000
_cell_angle_beta 103.077438
_cell_angle_gamma 90.000000
_cell_volume 1318.505471
_symmetry_space_group_name_H-M "C 2"
_symmetry_group_IT_number 5
_symmetry_cell_setting 'monoclinic'
loop_
_space_group_symop_operation_xyz
x,y,z
-x,y,-z
1/2+x,1/2+y,z
1/2-x,1/2+y,-z
loop_
_atom_site_type_symbol
_atom_site_label
_atom_site_fract_x
_atom_site_fract_y
_atom_site_fract_z
Si Si1 0.356425 0.515770 0.415485
Si Si2 0.896268 0.097233 0.808378
Si Si3 0.622864 0.326248 0.119335
Si Si4 0.529093 0.271025 0.640167
Si Si5 0.213024 0.294294 0.656257
Si Si6 0.923919 0.332741 0.091688
Si Si7 0.418457 0.120243 0.158588
Si Si8 0.702687 0.050296 0.587554
O O1 0.500000 0.492917 0.500000
O O2 0.369854 0.400026 0.340823
O O3 0.359339 0.657270 0.370728
O O4 0.236632 0.522715 0.481280
O O5 0.755737 0.128460 0.854512
O O6 0.832684 0.073900 0.689452
O O7 0.009253 0.213398 0.837488
O O8 0.951929 0.962767 0.863943
O O9 0.727992 0.305106 0.227673
O O10 0.746782 0.328501 0.056850
O O11 0.504558 0.213869 0.100310
O O12 0.358451 0.306955 0.611217
O O13 0.529828 0.177469 0.732167
O O14 0.612599 0.181284 0.578229
O O15 0.123560 0.422407 0.616699
O O16 0.957349 0.471932 0.144692
O O17 0.000000 0.328453 0.000000
#
# Coordination Sequence:
#
# PCOD9124923 Si02
#       8
#     4   4   4   4   4   4   4   4
#     4  12  24  37  58  91 126 164 212 265 304 359
#     4   9  21  41  64  92 131 166 207 261 317 378
#     4   9  21  39  65  91 124 169 209 255 316 382
#     4  10  22  43  62  85 125 166 216 264 312 363
#     4  10  22  42  59  87 125 167 211 259 310 368
#     4  11  24  41  65  99 130 159 208 267 320 386
#     4   9  21  43  66  93 124 172 212 260 318 385
#     4  10  21  39  61  86 123 166 210 261 308 363
#
# _framework density 24.269902999999999
#
# number of rings (size 3 to 8) (size 9 to 14) (size 15 to 20)
#    0.000    2.000    1.250    1.500    1.750    7.000 
#    4.500    0.625    0.000    0.000    0.000    0.000 
#    0.000    0.000    0.000    0.000    0.000    0.000 
#
# Total GULP energy -89280.441627 kJ/mol
# GULP energy per Si atom -5580.027602 kJ/mol
# Density = 2.421466 g / cm^3
# Si number density = 24.269903 Si / 1000 Ang^3
#
#
#
# Elastic Constant Matrix: (Units=GPa)
#
#
# Indices 1 2 3 4 5 6 
#
# 1 66.8099 48.7131 13.1758 0.0000 -25.2892 0.0000
# 2 48.7131 190.6003 18.5976 0.0000 -7.3836 0.0000
# 3 13.1758 18.5976 90.0216 0.0000 -16.5120 0.0000
# 4 0.0000 0.0000 0.0000 -62.4755 0.0000 -79.6342
# 5 -25.2892 -7.3836 -16.5120 0.0000 31.6278 0.0000
# 6 0.0000 0.0000 0.0000 -79.6342 0.0000 -26.7064
#
#
#
# Elastic Compliance Matrix: (Units=1/GPa)
#
#
# Indices 1 2 3 4 5 6 
#
# 1 0.027215 -0.006257 0.001142 0.000000 0.020896 0.000000
# 2 -0.006257 0.006809 -0.001235 0.000000 -0.004059 0.000000
# 3 0.001142 -0.001235 0.012509 0.000000 0.007156 0.000000
# 4 0.000000 0.000000 0.000000 0.005715 0.000000 -0.017041
# 5 0.020896 -0.004059 0.007156 0.000000 0.051114 0.000000
# 6 0.000000 0.000000 0.000000 -0.017041 0.000000 0.013369
#
#
# Mechanical properties :
#
#
# Convention : Reuss Voigt Hill
#
# Bulk Modulus (GPa) = 29.55782 56.48942 43.02362
# Shear Modulus (GPa) = 35.53422 6.28552 20.90987
#
# Velocity S-wave (km/s) = 3.83054 1.61104 2.93841
# Velocity P-wave (km/s) = 5.63643 5.17558 5.41091
#
# Compressibility (1/GPa) = 0.03383200
#
# Stress axis : x y z
#
# Youngs Moduli (GPa) = 36.74477 146.86133 79.94281
#
# Poissons Ratio (x) = 0.91898 -0.09132
# Poissons Ratio (y) = 0.22993 0.09875
# Poissons Ratio (z) = -0.04197 0.18142
#
# Static dielectric constant tensor:
#      x y z
#    x 2.056450 0.000000 -0.064520 
#    y 0.000000 2.038490 0.000000 
#    z -0.064520 0.000000 2.050550 
# 
# From -- ./inp_files/52442.got.cif
#   From: 2010.05.17/outbox.cif.g08.bks.cpg/sg5_27_cif.got.tgz:52442.got - 2010.06.03 18:56:24.
