data_PCOD9124907
_publ_section_title
;
Structure prediction by ZEFSAII (Michael W. Deem and Ramdas Pophale) SiO2 
 PCOD9124907
Probable space group: C 2
;
_chemical_formula_sum "Si O2"
_cell_formula_units_Z 28
_cell_length_a 5.293569
_cell_length_b 31.330126
_cell_length_c 8.377277
_cell_angle_alpha 90.000000
_cell_angle_beta 120.377273
_cell_angle_gamma 90.000000
_cell_volume 1198.617475
_symmetry_space_group_name_H-M "C 2"
_symmetry_group_IT_number 5
_symmetry_cell_setting 'monoclinic'
loop_
_space_group_symop_operation_xyz
x,y,z
-x,y,-z
1/2+x,1/2+y,z
1/2-x,1/2+y,-z
loop_
_atom_site_type_symbol
_atom_site_label
_atom_site_fract_x
_atom_site_fract_y
_atom_site_fract_z
Si Si1 0.854719 0.713350 0.780223
Si Si2 0.416078 0.853832 0.716473
Si Si3 0.291202 0.030595 0.704448
Si Si4 0.849270 0.255748 0.776474
Si Si5 0.881235 0.982084 0.795035
Si Si6 0.404455 0.390722 0.699539
Si Si7 0.150175 0.623156 0.373519
O O1 0.515559 0.723751 0.708155
O O2 0.932018 0.666111 0.744769
O O3 0.012200 0.744773 0.705085
O O4 0.000000 0.719516 0.000000
O O5 0.397648 0.803491 0.732163
O O6 0.738401 0.871368 0.796416
O O7 0.249963 0.868446 0.501724
O O8 0.238452 0.877298 0.797560
O O9 0.405591 0.079209 0.739080
O O10 0.000000 0.029109 0.500000
O O11 0.563331 0.003283 0.722574
O O12 0.140320 0.013670 0.817805
O O13 0.000000 0.252179 0.000000
O O14 0.863552 0.941349 0.674721
O O15 0.000000 0.964674 0.000000
O O16 0.500000 0.625663 0.500000
O O17 0.000000 0.620663 0.500000
#
# Coordination Sequence:
#
# PCOD9124907 Si02
#       7
#     4   4   4   4   4   4   4
#     4  10  22  41  65  94 132 173 209 262 333 387
#     4  10  21  39  59  87 126 166 224 262 329 390
#     4  11  25  44  72  95 136 181 220 272 337 399
#     4  10  21  39  62  91 127 170 218 269 325 389
#     4  12  26  43  67 103 136 172 226 283 335 397
#     4  10  23  39  58  90 126 163 222 266 331 391
#     4  11  23  45  64 102 132 167 221 269 316 390
#
# _framework density 23.360247999999999
#
# number of rings (size 3 to 8) (size 9 to 14) (size 15 to 20)
#    0.000    1.429    0.000    5.143    6.000    2.286 
#   15.429    1.429    0.000    0.000    0.000    0.000 
#    0.000    0.000    0.000    0.000    0.000    0.000 
#
# Total GULP energy -78264.595530 kJ/mol
# GULP energy per Si atom -5590.328252 kJ/mol
# Density = 2.330708 g / cm^3
# Si number density = 23.360248 Si / 1000 Ang^3
#
#
#
# Elastic Constant Matrix: (Units=GPa)
#
#
# Indices 1 2 3 4 5 6 
#
# 1 229.1778 71.5807 24.8755 0.0000 -16.8877 0.0000
# 2 71.5807 143.5987 0.1503 0.0000 -16.9678 0.0000
# 3 24.8755 0.1503 42.8633 0.0000 -5.1122 0.0000
# 4 0.0000 0.0000 0.0000 29.3107 0.0000 -1.9856
# 5 -16.8877 -16.9678 -5.1122 0.0000 26.6205 0.0000
# 6 0.0000 0.0000 0.0000 -1.9856 0.0000 45.9745
#
#
#
# Elastic Compliance Matrix: (Units=1/GPa)
#
#
# Indices 1 2 3 4 5 6 
#
# 1 0.005621 -0.002647 -0.003100 0.000000 0.001283 0.000000
# 2 -0.002647 0.008791 0.002020 0.000000 0.004312 0.000000
# 3 -0.003100 0.002020 0.025628 0.000000 0.004242 0.000000
# 4 0.000000 0.000000 0.000000 0.034217 0.000000 0.001478
# 5 0.001283 0.004312 0.004242 0.000000 0.041942 0.000000
# 6 0.000000 0.000000 0.000000 0.001478 0.000000 0.021815
#
#
# Mechanical properties :
#
#
# Convention : Reuss Voigt Hill
#
# Bulk Modulus (GPa) = 30.68880 67.65029 49.16955
# Shear Modulus (GPa) = 31.98341 41.65004 36.81672
#
# Velocity S-wave (km/s) = 3.70420 4.22707 3.97425
# Velocity P-wave (km/s) = 5.60897 7.26957 6.49258
#
# Compressibility (1/GPa) = 0.03258518
#
# Stress axis : x y z
#
# Youngs Moduli (GPa) = 177.89525 113.75555 39.01997
#
# Poissons Ratio (x) = 0.30113 0.12096
# Poissons Ratio (y) = 0.47092 -0.07881
# Poissons Ratio (z) = 0.55146 -0.22975
#
# Static dielectric constant tensor:
#      x y z
#    x 1.897040 0.000000 0.007720 
#    y 0.000000 1.840990 0.000000 
#    z 0.007720 0.000000 1.904240 
# 
# From -- ./inp_files/13393.got.cif
#   From: 2010.05.17/outbox.cif.g08.bks.cpg/sg5_7_cif.got.tgz:13393.got - 2010.06.03 18:56:24.
