data_PCOD9124855
_publ_section_title
;
Structure prediction by ZEFSAII (Michael W. Deem and Ramdas Pophale) SiO2 
 PCOD9124855
Probable space group: C 2
;
_chemical_formula_sum "Si O2"
_cell_formula_units_Z 28
_cell_length_a 26.640897
_cell_length_b 9.158829
_cell_length_c 8.218828
_cell_angle_alpha 90.000000
_cell_angle_beta 139.522129
_cell_angle_gamma 90.000000
_cell_volume 1301.807091
_symmetry_space_group_name_H-M "C 2"
_symmetry_group_IT_number 5
_symmetry_cell_setting 'monoclinic'
loop_
_space_group_symop_operation_xyz
x,y,z
-x,y,-z
1/2+x,1/2+y,z
1/2-x,1/2+y,-z
loop_
_atom_site_type_symbol
_atom_site_label
_atom_site_fract_x
_atom_site_fract_y
_atom_site_fract_z
Si Si1 0.914977 0.176380 0.861982
Si Si2 0.673834 0.624230 0.045141
Si Si3 0.236400 0.408389 0.198350
Si Si4 0.461093 0.359724 0.059810
Si Si5 0.142343 0.688393 0.946589
Si Si6 0.726202 0.871807 0.559798
Si Si7 0.388730 0.418062 0.379045
O O1 0.886553 0.196991 0.977850
O O2 0.856844 0.290539 0.629574
O O3 0.000000 0.204665 0.000000
O O4 0.911656 0.996004 0.864425
O O5 0.714354 0.757650 0.055912
O O6 0.743768 0.530088 0.300983
O O7 0.625151 0.520413 0.809755
O O8 0.243568 0.377933 0.409126
O O9 0.317900 0.454078 0.323636
O O10 0.167251 0.521794 0.001125
O O11 0.418367 0.243371 0.067253
O O12 0.529104 0.432647 0.333783
O O13 0.500000 0.285190 0.000000
O O14 0.117644 0.756033 0.713536
O O15 0.219153 0.765497 0.203892
#
# Coordination Sequence:
#
# PCOD9124855 Si02
#       7
#     4   4   4   4   4   4   4
#     4  10  21  38  66 101 128 171 220 273 327 386
#     4  10  22  43  65 100 130 177 219 273 330 390
#     4  11  22  39  65  97 132 176 219 269 330 387
#     4  11  23  41  68  98 126 177 224 269 343 390
#     4  11  23  39  64  99 129 176 216 277 321 384
#     4  10  21  40  64  94 132 164 222 268 322 391
#     4  11  23  40  68  93 132 175 227 268 324 401
#
# _framework density 21.508565000000001
#
# number of rings (size 3 to 8) (size 9 to 14) (size 15 to 20)
#    0.000    1.429    2.857    3.857    6.000    0.000 
#    0.000    5.714   12.571    0.000    0.000    0.000 
#    0.000    0.000    0.000    0.000    0.000    0.000 
#
# Total GULP energy -77976.359751 kJ/mol
# GULP energy per Si atom -5569.739982 kJ/mol
# Density = 2.145961 g / cm^3
# Si number density = 21.508565 Si / 1000 Ang^3
#
#
#
# Elastic Constant Matrix: (Units=GPa)
#
#
# Indices 1 2 3 4 5 6 
#
# 1 111.5320 26.3790 38.2459 0.0000 27.5254 0.0000
# 2 26.3790 98.9177 35.2416 0.0000 10.0511 0.0000
# 3 38.2459 35.2416 102.4786 0.0000 10.0859 0.0000
# 4 0.0000 0.0000 0.0000 17.2215 0.0000 12.8727
# 5 27.5254 10.0511 10.0859 0.0000 34.9013 0.0000
# 6 0.0000 0.0000 0.0000 12.8727 0.0000 7.6611
#
#
#
# Elastic Compliance Matrix: (Units=1/GPa)
#
#
# Indices 1 2 3 4 5 6 
#
# 1 0.012541 -0.001263 -0.003405 0.000000 -0.008543 0.000000
# 2 -0.001263 0.011820 -0.003455 0.000000 -0.001410 0.000000
# 3 -0.003405 -0.003455 0.012202 0.000000 0.000154 0.000000
# 4 0.000000 0.000000 0.000000 -0.226866 0.000000 0.381193
# 5 -0.008543 -0.001410 0.000154 0.000000 0.035751 0.000000
# 6 0.000000 0.000000 0.000000 0.381193 0.000000 -0.509975
#
#
# Mechanical properties :
#
#
# Convention : Reuss Voigt Hill
#
# Bulk Modulus (GPa) = 49.22046 56.96236 53.09141
# Shear Modulus (GPa) = -7.79413 26.16091 9.18339
#
# Velocity S-wave (km/s) = -1.90568 3.49134 2.06855
# Velocity P-wave (km/s) = 4.25343 6.54168 5.51749
#
# Compressibility (1/GPa) = 0.02031676
#
# Stress axis : x y z
#
# Youngs Moduli (GPa) = 79.74016 84.60003 81.95474
#
# Poissons Ratio (x) = 0.10686 0.27907
# Poissons Ratio (y) = 0.10072 0.28314
# Poissons Ratio (z) = 0.27153 0.29227
#
# Static dielectric constant tensor:
#      x y z
#    x 1.861310 0.000000 0.005500 
#    y 0.000000 1.840590 0.000000 
#    z 0.005500 0.000000 1.800270 
# 
# From -- ./inp_files/31779.got.cif
#   From: 2010.05.17/outbox.cif.g08.bks.cpg/sg5_16_cif.got.tgz:31779.got - 2010.06.03 18:56:24.
