data_PCOD9124185
_publ_section_title
;
Structure prediction by ZEFSAII (Michael W. Deem and Ramdas Pophale) SiO2 
 PCOD9124185
Probable space group: C 2
;
_chemical_formula_sum "Si O2"
_cell_formula_units_Z 28
_cell_length_a 19.749316
_cell_length_b 11.184866
_cell_length_c 12.098470
_cell_angle_alpha 90.000000
_cell_angle_beta 153.775286
_cell_angle_gamma 90.000000
_cell_volume 1180.946591
_symmetry_space_group_name_H-M "C 2"
_symmetry_group_IT_number 5
_symmetry_cell_setting 'monoclinic'
loop_
_space_group_symop_operation_xyz
x,y,z
-x,y,-z
1/2+x,1/2+y,z
1/2-x,1/2+y,-z
loop_
_atom_site_type_symbol
_atom_site_label
_atom_site_fract_x
_atom_site_fract_y
_atom_site_fract_z
Si Si1 0.915805 0.135100 0.990143
Si Si2 0.184567 0.851023 0.381328
Si Si3 0.823377 0.798057 0.326602
Si Si4 0.648056 0.223332 0.879994
Si Si5 0.275713 0.602594 0.452464
Si Si6 0.181254 0.891622 0.128752
Si Si7 0.331335 0.574063 0.291981
O O1 0.835658 0.260736 0.851890
O O2 0.794775 0.033522 0.845797
O O3 0.000000 0.099333 0.000000
O O4 0.043478 0.129010 0.270254
O O5 0.205191 0.707422 0.425241
O O6 0.244450 0.864139 0.343022
O O7 0.252787 0.965455 0.548899
O O8 0.002725 0.872227 0.127525
O O9 0.802551 0.750497 0.171796
O O10 0.965436 0.741034 0.600306
O O11 0.856392 0.936733 0.361463
O O12 0.717835 0.316581 0.072740
O O13 0.713321 0.098796 0.020316
O O14 0.246852 0.619769 0.280088
O O15 0.500000 0.619950 0.500000
#
# Coordination Sequence:
#
# PCOD9124185 Si02
#       7
#     4   4   4   4   4   4   4
#     4  11  23  42  69 101 142 190 234 296 367 443
#     4  10  21  39  66 102 136 188 231 297 373 435
#     4  11  26  46  71 105 148 193 243 312 371 439
#     4  11  24  45  74 101 139 195 244 296 374 438
#     4  11  23  42  69 103 143 187 245 307 373 445
#     4  10  20  42  67  95 137 186 235 286 369 437
#     4  12  25  47  75 105 143 193 245 311 379 440
#
# _framework density 23.709793000000001
#
# number of rings (size 3 to 8) (size 9 to 14) (size 15 to 20)
#    0.000    1.143    5.714    2.571    6.000    0.000 
#    5.143    0.000    0.000    0.000    0.000    0.000 
#    0.000    0.000    0.000    0.000    0.000    0.000 
#
# Total GULP energy -78032.292012 kJ/mol
# GULP energy per Si atom -5573.735144 kJ/mol
# Density = 2.365583 g / cm^3
# Si number density = 23.709793 Si / 1000 Ang^3
#
#
#
# Elastic Constant Matrix: (Units=GPa)
#
#
# Indices 1 2 3 4 5 6 
#
# 1 96.7001 33.2810 16.6454 0.0000 -33.2360 0.0000
# 2 33.2810 103.5178 18.3281 0.0000 9.3321 0.0000
# 3 16.6454 18.3281 61.0714 0.0000 -24.7314 0.0000
# 4 0.0000 0.0000 0.0000 33.2189 0.0000 -7.9290
# 5 -33.2360 9.3321 -24.7314 0.0000 36.8227 0.0000
# 6 0.0000 0.0000 0.0000 -7.9290 0.0000 38.2500
#
#
#
# Elastic Compliance Matrix: (Units=1/GPa)
#
#
# Indices 1 2 3 4 5 6 
#
# 1 0.023253 -0.011911 0.009558 0.000000 0.030426 0.000000
# 2 -0.011911 0.017524 -0.011215 0.000000 -0.022724 0.000000
# 3 0.009558 -0.011215 0.029916 0.000000 0.031562 0.000000
# 4 0.000000 0.000000 0.000000 0.031670 0.000000 0.006565
# 5 0.030426 -0.022724 0.031562 0.000000 0.081577 0.000000
# 6 0.000000 0.000000 0.000000 0.006565 0.000000 0.027505
#
#
# Mechanical properties :
#
#
# Convention : Reuss Voigt Hill
#
# Bulk Modulus (GPa) = 22.95826 44.19982 33.57904
# Shear Modulus (GPa) = 19.75503 34.52732 27.14117
#
# Velocity S-wave (km/s) = 2.88965 3.82022 3.38705
# Velocity P-wave (km/s) = 4.56481 6.17586 5.43041
#
# Compressibility (1/GPa) = 0.04355730
#
# Stress axis : x y z
#
# Youngs Moduli (GPa) = 43.00543 57.06513 33.42658
#
# Poissons Ratio (x) = 0.67970 -0.31950
# Poissons Ratio (y) = 0.51224 0.37488
# Poissons Ratio (z) = -0.41106 0.63999
#
# Static dielectric constant tensor:
#      x y z
#    x 1.945400 0.000000 -0.045850 
#    y 0.000000 2.039560 0.000000 
#    z -0.045850 0.000000 1.920790 
# 
# From -- ./inp_files/46435.got.cif
#   From: 2010.05.17/outbox.cif.g08.bks.cpg/sg5_24_cif.got.tgz:46435.got - 2010.06.03 18:56:24.
