data_PCOD9124621
_publ_section_title
;
Structure prediction by ZEFSAII (Michael W. Deem and Ramdas Pophale) SiO2 
 PCOD9124621
Probable space group: C 2
;
_chemical_formula_sum "Si O2"
_cell_formula_units_Z 20
_cell_length_a 7.927500
_cell_length_b 24.568206
_cell_length_c 8.900734
_cell_angle_alpha 90.000000
_cell_angle_beta 144.715268
_cell_angle_gamma 90.000000
_cell_volume 1001.366064
_symmetry_space_group_name_H-M "C 2"
_symmetry_group_IT_number 5
_symmetry_cell_setting 'monoclinic'
loop_
_space_group_symop_operation_xyz
x,y,z
-x,y,-z
1/2+x,1/2+y,z
1/2-x,1/2+y,-z
loop_
_atom_site_type_symbol
_atom_site_label
_atom_site_fract_x
_atom_site_fract_y
_atom_site_fract_z
Si Si1 0.341948 0.833150 0.228785
Si Si2 0.654724 0.050139 0.272856
Si Si3 0.348151 0.927732 0.728177
Si Si4 0.842362 0.221574 0.048690
Si Si5 0.847120 0.659413 0.550797
O O1 0.500000 0.820162 0.500000
O O2 0.519806 0.882648 0.284337
O O3 0.355586 0.780306 0.132841
O O4 0.000000 0.847335 0.000000
O O5 0.599576 0.099851 0.343900
O O6 0.000000 0.049845 0.500000
O O7 0.580331 0.989247 0.274138
O O8 0.500000 0.058581 0.000000
O O9 0.000000 0.922053 0.500000
O O10 0.500000 0.921444 0.000000
O O11 0.017154 0.178459 0.279793
O O12 0.514563 0.201578 0.780377
O O13 0.000000 0.223393 0.000000
O O14 0.000000 0.661973 0.500000
#
# Coordination Sequence:
#
# PCOD9124621 Si02
#       5
#     4   4   4   4   4
#     4  12  25  39  60  92 119 148 196 253 296 331
#     4  10  21  37  60  86 113 149 193 236 285 341
#     4  10  22  42  63  84 116 161 198 231 289 361
#     4  10  22  39  58  81 116 159 193 226 287 360
#     4  10  21  37  58  85 115 151 191 234 286 343
#
# _framework density 19.972715999999998
#
# number of rings (size 3 to 8) (size 9 to 14) (size 15 to 20)
#    0.000    1.600    0.000    4.200    0.000    8.000 
#    0.000    3.000    0.000    0.000    0.000    0.000 
#    0.000    0.000    0.000    0.000    0.000    0.000 
#
# Total GULP energy -55887.157741 kJ/mol
# GULP energy per Si atom -5588.715774 kJ/mol
# Density = 1.992726 g / cm^3
# Si number density = 19.972716 Si / 1000 Ang^3
#
#
#
# Elastic Constant Matrix: (Units=GPa)
#
#
# Indices 1 2 3 4 5 6 
#
# 1 32.1016 43.3645 41.5663 0.0000 1.9671 0.0000
# 2 43.3645 148.4317 56.5909 0.0000 -21.0524 0.0000
# 3 41.5663 56.5909 165.2934 0.0000 -3.0270 0.0000
# 4 0.0000 0.0000 0.0000 167.6989 0.0000 -125.4968
# 5 1.9671 -21.0524 -3.0270 0.0000 23.1816 0.0000
# 6 0.0000 0.0000 0.0000 -125.4968 0.0000 143.3319
#
#
#
# Elastic Compliance Matrix: (Units=1/GPa)
#
#
# Indices 1 2 3 4 5 6 
#
# 1 0.080326 -0.022642 -0.012980 0.000000 -0.029074 0.000000
# 2 -0.022642 0.015332 0.000736 0.000000 0.015942 0.000000
# 3 -0.012980 0.000736 0.009116 0.000000 0.002961 0.000000
# 4 0.000000 0.000000 0.000000 0.017296 0.000000 0.015144
# 5 -0.029074 0.015942 0.002961 0.000000 0.060469 0.000000
# 6 0.000000 0.000000 0.000000 0.015144 0.000000 0.020236
#
#
# Mechanical properties :
#
#
# Convention : Reuss Voigt Hill
#
# Bulk Modulus (GPa) = 28.56922 69.87448 49.22185
# Shear Modulus (GPa) = 17.59243 80.46280 49.02761
#
# Velocity S-wave (km/s) = 2.97109 6.35404 4.95990
# Velocity P-wave (km/s) = 5.10930 9.42829 7.58280
#
# Compressibility (1/GPa) = 0.03500271
#
# Stress axis : x y z
#
# Youngs Moduli (GPa) = 12.44932 65.22199 109.69712
#
# Poissons Ratio (x) = 1.47676 1.42387
# Poissons Ratio (y) = 0.28188 -0.08079
# Poissons Ratio (z) = 0.16159 -0.04804
#
# Static dielectric constant tensor:
#      x y z
#    x 1.646480 0.000000 -0.001920 
#    y 0.000000 1.709870 0.000000 
#    z -0.001920 0.000000 1.691600 
# 
# From -- ./inp_files/2602.got.cif
#   From: 2010.05.17/outbox.cif.g08.bks.cpg/sg5_2_cif.got.tgz:2602.got - 2010.06.03 18:56:24.
