data_PCOD9124990
_publ_section_title
;
Structure prediction by ZEFSAII (Michael W. Deem and Ramdas Pophale) SiO2 
 PCOD9124990
Probable space group: C 2
;
_chemical_formula_sum "Si O2"
_cell_formula_units_Z 28
_cell_length_a 24.540384
_cell_length_b 5.192294
_cell_length_c 17.543854
_cell_angle_alpha 90.000000
_cell_angle_beta 149.512513
_cell_angle_gamma 90.000000
_cell_volume 1134.157712
_symmetry_space_group_name_H-M "C 2"
_symmetry_group_IT_number 5
_symmetry_cell_setting 'monoclinic'
loop_
_space_group_symop_operation_xyz
x,y,z
-x,y,-z
1/2+x,1/2+y,z
1/2-x,1/2+y,-z
loop_
_atom_site_type_symbol
_atom_site_label
_atom_site_fract_x
_atom_site_fract_y
_atom_site_fract_z
Si Si1 0.381666 0.585720 0.976043
Si Si2 0.913691 0.717701 0.551131
Si Si3 0.524831 0.717654 0.753113
Si Si4 0.500000 0.414982 0.500000
Si Si5 0.702043 0.944948 0.256163
Si Si6 0.500000 0.215848 0.000000
Si Si7 0.745153 0.982493 0.016074
Si Si8 0.289592 0.691321 0.222948
O O1 0.350883 0.792068 0.876905
O O2 0.442065 0.374538 0.996891
O O3 0.269115 0.456622 0.868776
O O4 0.456108 0.679172 0.134134
O O5 0.784611 0.763558 0.399514
O O6 0.958557 0.464051 0.645450
O O7 0.947025 0.738293 0.501617
O O8 0.963878 0.971569 0.648761
O O9 0.651660 0.735516 0.877154
O O10 0.411920 0.609614 0.359480
O O11 0.771632 0.152990 0.291842
O O12 0.595563 0.070000 0.161176
O O13 0.733184 0.005014 0.093231
O O14 0.675299 0.234548 0.902987
#
# Coordination Sequence:
#
# PCOD9124990 Si02
#       8
#     4   4   4   2   4   2   4   4
#     4  11  23  45  79 101 142 186 249 301 369 446
#     4  11  27  44  73 105 155 194 243 296 362 422
#     4  12  25  45  70 106 145 199 232 308 369 417
#     4  10  22  44  64 108 154 210 246 296 348 434
#     4  10  23  45  73 103 139 186 243 299 367 446
#     4  10  24  44  84 108 128 190 250 308 368 464
#     4  12  23  38  63  98 144 190 248 285 337 421
#     4  10  21  39  64 101 140 195 240 295 344 422
#
# _framework density 24.687925
#
# number of rings (size 3 to 8) (size 9 to 14) (size 15 to 20)
#    0.000    1.143    1.429    4.714    8.000    0.571 
#    2.571    0.000    6.286    0.000    0.000    0.000 
#    0.000    0.000    0.000    0.000    0.000    0.000 
#
# Total GULP energy -78101.325432 kJ/mol
# GULP energy per Si atom -5578.666102 kJ/mol
# Density = 2.463173 g / cm^3
# Si number density = 24.687925 Si / 1000 Ang^3
#
#
#
# Elastic Constant Matrix: (Units=GPa)
#
#
# Indices 1 2 3 4 5 6 
#
# 1 37.2984 23.6558 31.4751 -0.0001 9.7667 0.0000
# 2 23.6558 163.8834 39.1990 0.0010 -13.9539 0.0001
# 3 31.4751 39.1990 121.8370 0.0000 -11.5302 0.0000
# 4 -0.0001 0.0010 0.0000 50.3455 0.0000 -5.5245
# 5 9.7667 -13.9539 -11.5302 0.0000 32.9426 -0.0001
# 6 0.0000 0.0001 0.0000 -5.5245 -0.0001 32.4270
#
#
#
# Elastic Compliance Matrix: (Units=1/GPa)
#
#
# Indices 1 2 3 4 5 6 
#
# 1 0.045523 -0.005423 -0.011904 0.000000 -0.019960 0.000000
# 2 -0.005423 0.007404 -0.000550 0.000000 0.004551 0.000000
# 3 -0.011904 -0.000550 0.012175 0.000000 0.007558 0.000000
# 4 0.000000 0.000000 0.000000 0.020241 0.000000 0.003448
# 5 -0.019960 0.004551 0.007558 0.000000 0.040847 0.000000
# 6 0.000000 0.000000 0.000000 0.003448 0.000000 0.031426
#
#
# Mechanical properties :
#
#
# Convention : Reuss Voigt Hill
#
# Bulk Modulus (GPa) = 34.07598 56.85316 45.46457
# Shear Modulus (GPa) = 24.61196 38.38894 31.50045
#
# Velocity S-wave (km/s) = 3.16083 3.94759 3.57591
# Velocity P-wave (km/s) = 5.21093 6.62244 5.95863
#
# Compressibility (1/GPa) = 0.02934618
#
# Stress axis : x y z
#
# Youngs Moduli (GPa) = 21.96711 135.06471 82.13325
#
# Poissons Ratio (x) = 0.73247 0.97774
# Poissons Ratio (y) = 0.11913 0.04520
# Poissons Ratio (z) = 0.26150 0.07433
#
# Static dielectric constant tensor:
#      x y z
#    x 2.109710 0.000000 0.048170 
#    y 0.000000 2.310690 0.000000 
#    z 0.048170 0.000000 1.969150 
# 
# From -- ./inp_files/55249.got.cif
#   From: 2010.05.17/outbox.cif.g08.bks.cpg/sg5_28_cif.got.tgz:55249.got - 2010.06.03 18:56:24.
