data_PCOD9124303
_publ_section_title
;
Structure prediction by ZEFSAII (Michael W. Deem and Ramdas Pophale) SiO2 
 PCOD9124303
Probable space group: C 2
;
_chemical_formula_sum "Si O2"
_cell_formula_units_Z 16
_cell_length_a 15.254864
_cell_length_b 10.926768
_cell_length_c 10.715700
_cell_angle_alpha 90.000000
_cell_angle_beta 22.678083
_cell_angle_gamma 90.000000
_cell_volume 688.659959
_symmetry_space_group_name_H-M "C 2"
_symmetry_group_IT_number 5
_symmetry_cell_setting 'monoclinic'
loop_
_space_group_symop_operation_xyz
x,y,z
-x,y,-z
1/2+x,1/2+y,z
1/2-x,1/2+y,-z
loop_
_atom_site_type_symbol
_atom_site_label
_atom_site_fract_x
_atom_site_fract_y
_atom_site_fract_z
Si Si1 0.949914 0.189300 0.711072
Si Si2 0.467091 0.336711 0.677916
Si Si3 0.294118 0.016895 0.370261
Si Si4 0.505856 0.058763 0.353257
O O1 0.000000 0.200232 0.500000
O O2 0.168886 0.145952 0.500686
O O3 0.798198 0.306198 0.949933
O O4 0.766253 0.080817 0.972281
O O5 0.500000 0.396235 0.500000
O O6 0.609689 0.411398 0.589654
O O7 0.579550 0.200589 0.520757
O O8 0.373810 0.009319 0.407873
O O9 0.500000 0.002865 0.000000
O O10 0.500000 0.003940 0.500000
#
# Coordination Sequence:
#
# PCOD9124303 Si02
#       4
#     4   4   4   4
#     4  10  20  43  70 100 144 171 227 289 337 397
#     4   9  22  43  68 102 137 181 225 283 338 413
#     4  12  22  39  79 102 129 190 230 274 348 410
#     4   9  22  45  69 102 143 175 226 290 339 400
#
# _framework density 23.233526000000001
#
# number of rings (size 3 to 8) (size 9 to 14) (size 15 to 20)
#    1.500    0.500    2.500    0.750    0.000    3.000 
#    0.000    2.500   16.500    1.500    0.000    0.000 
#    0.000    0.000    0.000    0.000    0.000    0.000 
#
# Total GULP energy -44639.264224 kJ/mol
# GULP energy per Si atom -5579.908028 kJ/mol
# Density = 2.318064 g / cm^3
# Si number density = 23.233526 Si / 1000 Ang^3
#
#
#
# Elastic Constant Matrix: (Units=GPa)
#
#
# Indices 1 2 3 4 5 6 
#
# 1 233.6424 52.3585 65.9207 0.0023 13.5859 0.0034
# 2 52.3585 73.9390 35.7902 0.0014 -7.3774 0.0027
# 3 65.9207 35.7902 121.1903 -0.0018 15.7604 0.0035
# 4 0.0023 0.0014 -0.0018 69.0195 -0.0001 9.8591
# 5 13.5859 -7.3774 15.7604 -0.0001 44.9194 -0.0020
# 6 0.0034 0.0027 0.0035 9.8591 -0.0020 53.8152
#
#
#
# Elastic Compliance Matrix: (Units=1/GPa)
#
#
# Indices 1 2 3 4 5 6 
#
# 1 0.005631 -0.003219 -0.001909 0.000000 -0.001562 0.000000
# 2 -0.003219 0.018509 -0.004440 0.000000 0.005571 0.000000
# 3 -0.001909 -0.004440 0.011129 0.000001 -0.004056 -0.000001
# 4 0.000000 0.000000 0.000001 0.014878 0.000000 -0.002726
# 5 -0.001562 0.005571 -0.004056 0.000000 0.025073 0.000001
# 6 0.000000 0.000000 -0.000001 -0.002726 0.000001 0.019081
#
#
# Mechanical properties :
#
#
# Convention : Reuss Voigt Hill
#
# Bulk Modulus (GPa) = 61.98537 81.87892 71.93214
# Shear Modulus (GPa) = 42.08253 51.86430 46.97342
#
# Velocity S-wave (km/s) = 4.26054 4.72985 4.50132
# Velocity P-wave (km/s) = 7.13723 8.07136 7.61863
#
# Compressibility (1/GPa) = 0.01613284
#
# Stress axis : x y z
#
# Youngs Moduli (GPa) = 177.59116 54.02734 89.85897
#
# Poissons Ratio (x) = 0.17392 0.17155
# Poissons Ratio (y) = 0.57170 0.39894
# Poissons Ratio (z) = 0.33903 0.23986
#
# Static dielectric constant tensor:
#      x y z
#    x 1.643840 0.000000 -0.070840 
#    y 0.000000 2.102410 0.000000 
#    z -0.070840 0.000000 1.837750 
# 
# From -- ./inp_files/1714.got.cif
#   From: 2010.05.17/outbox.cif.g08.bks.cpg/sg5_1_cif.got.tgz:1714.got - 2010.06.03 18:56:24.
