data_PCOD9124778
_publ_section_title
;
Structure prediction by ZEFSAII (Michael W. Deem and Ramdas Pophale) SiO2 
 PCOD9124778
Probable space group: C 2
;
_chemical_formula_sum "Si O2"
_cell_formula_units_Z 30
_cell_length_a 13.502954
_cell_length_b 16.945528
_cell_length_c 6.274778
_cell_angle_alpha 90.000000
_cell_angle_beta 70.476704
_cell_angle_gamma 90.000000
_cell_volume 1353.213244
_symmetry_space_group_name_H-M "C 2"
_symmetry_group_IT_number 5
_symmetry_cell_setting 'monoclinic'
loop_
_space_group_symop_operation_xyz
x,y,z
-x,y,-z
1/2+x,1/2+y,z
1/2-x,1/2+y,-z
loop_
_atom_site_type_symbol
_atom_site_label
_atom_site_fract_x
_atom_site_fract_y
_atom_site_fract_z
Si Si1 0.727164 0.070140 0.995812
Si Si2 0.647384 0.493363 0.484416
Si Si3 0.281523 0.916414 0.768885
Si Si4 0.694293 0.779495 0.508053
Si Si5 0.599578 0.630880 0.789547
Si Si6 0.161335 0.840743 0.241202
Si Si7 0.000000 0.707878 0.500000
Si Si8 0.896626 0.695257 0.172271
O O1 0.644752 0.132518 0.966157
O O2 0.793584 0.043538 0.740273
O O3 0.803703 0.109062 0.119569
O O4 0.675802 0.990481 0.128007
O O5 0.723745 0.457525 0.610964
O O6 0.574555 0.553136 0.667285
O O7 0.609302 0.415601 0.393296
O O8 0.350874 0.847058 0.614388
O O9 0.198369 0.873179 0.986758
O O10 0.629220 0.702449 0.613091
O O11 0.733649 0.817491 0.702017
O O12 0.800442 0.749424 0.313573
O O13 0.500000 0.652653 0.000000
O O14 0.085150 0.766582 0.329573
O O15 0.061797 0.659546 0.634037
O O16 0.000000 0.736191 0.000000
#
# Coordination Sequence:
#
# PCOD9124778 Si02
#       8
#     4   4   4   4   4   4   2   4
#     4  10  22  40  64  95 130 170 222 274 330 392
#     4   9  19  38  58  90 127 170 214 271 328 385
#     4   9  19  37  65  87 125 178 212 264 334 380
#     4  10  21  38  61  94 133 167 217 273 326 394
#     4  11  24  39  63  97 132 174 226 272 336 387
#     4   9  19  34  58  89 127 175 208 262 328 400
#     4  10  22  34  56  98 138 166 214 258 338 400
#     4  11  23  37  65  99 131 167 213 270 337 395
#
# _framework density 22.169454000000002
#
# number of rings (size 3 to 8) (size 9 to 14) (size 15 to 20)
#    0.000    2.133    1.333    0.800    5.600    3.733 
#    0.000    3.333    0.000    8.800    0.000    0.000 
#    0.000    0.000    0.000    0.000    0.000    0.000 
#
# Total GULP energy -83650.790638 kJ/mol
# GULP energy per Si atom -5576.719376 kJ/mol
# Density = 2.211900 g / cm^3
# Si number density = 22.169454 Si / 1000 Ang^3
#
#
#
# Elastic Constant Matrix: (Units=GPa)
#
#
# Indices 1 2 3 4 5 6 
#
# 1 36.7824 31.1235 21.1846 0.0000 9.0821 0.0000
# 2 31.1235 98.4291 54.2793 0.0000 5.6607 0.0000
# 3 21.1846 54.2793 94.1993 0.0000 15.3337 0.0000
# 4 0.0000 0.0000 0.0000 62.2006 0.0000 12.5281
# 5 9.0821 5.6607 15.3337 0.0000 31.2984 0.0000
# 6 0.0000 0.0000 0.0000 12.5281 0.0000 8.9221
#
#
#
# Elastic Compliance Matrix: (Units=1/GPa)
#
#
# Indices 1 2 3 4 5 6 
#
# 1 0.039679 -0.011605 -0.000765 0.000000 -0.009040 0.000000
# 2 -0.011605 0.018364 -0.008671 0.000000 0.004294 0.000000
# 3 -0.000765 -0.008671 0.016835 0.000000 -0.006458 0.000000
# 4 0.000000 0.000000 0.000000 0.022417 0.000000 -0.031477
# 5 -0.009040 0.004294 -0.006458 0.000000 0.036961 0.000000
# 6 0.000000 0.000000 0.000000 -0.031477 0.000000 0.156280
#
#
# Mechanical properties :
#
#
# Convention : Reuss Voigt Hill
#
# Bulk Modulus (GPa) = 30.49053 49.17618 39.83335
# Shear Modulus (GPa) = 14.55393 28.67243 21.61318
#
# Velocity S-wave (km/s) = 2.56498 3.60019 3.12574
# Velocity P-wave (km/s) = 4.74925 6.28585 5.57079
#
# Compressibility (1/GPa) = 0.03279707
#
# Stress axis : x y z
#
# Youngs Moduli (GPa) = 25.20208 54.45553 59.39947
#
# Poissons Ratio (x) = 0.63195 0.04544
# Poissons Ratio (y) = 0.29247 0.51503
# Poissons Ratio (z) = 0.01928 0.47216
#
# Static dielectric constant tensor:
#      x y z
#    x 1.812000 0.000000 0.021490 
#    y 0.000000 1.825880 0.000000 
#    z 0.021490 0.000000 1.854610 
# 
# From -- ./inp_files/7292.got.cif
#   From: 2010.05.17/outbox.cif.g08.bks.cpg/sg5_4_cif.got.tgz:7292.got - 2010.06.03 18:56:24.
