data_PCOD9124286
_publ_section_title
;
Structure prediction by ZEFSAII (Michael W. Deem and Ramdas Pophale) SiO2 
 PCOD9124286
Probable space group: C 2
;
_chemical_formula_sum "Si O2"
_cell_formula_units_Z 22
_cell_length_a 14.492313
_cell_length_b 10.486347
_cell_length_c 14.858205
_cell_angle_alpha 90.000000
_cell_angle_beta 156.753378
_cell_angle_gamma 90.000000
_cell_volume 891.218214
_symmetry_space_group_name_H-M "C 2"
_symmetry_group_IT_number 5
_symmetry_cell_setting 'monoclinic'
loop_
_space_group_symop_operation_xyz
x,y,z
-x,y,-z
1/2+x,1/2+y,z
1/2-x,1/2+y,-z
loop_
_atom_site_type_symbol
_atom_site_label
_atom_site_fract_x
_atom_site_fract_y
_atom_site_fract_z
Si Si1 0.974439 0.442970 0.693708
Si Si2 0.000000 0.837006 0.000000
Si Si3 0.735164 0.050810 0.654470
Si Si4 0.680079 0.930796 0.079406
Si Si5 0.294955 0.662525 0.940168
Si Si6 0.635025 0.686980 0.791051
O O1 0.942893 0.299050 0.628092
O O2 0.783529 0.528255 0.470359
O O3 0.031708 0.439625 0.851158
O O4 0.194551 0.518697 0.844199
O O5 0.840737 0.923889 0.792824
O O6 0.828319 0.747822 0.901073
O O7 0.500000 0.080399 0.500000
O O8 0.933796 0.156120 0.843282
O O9 0.877377 0.041145 0.252002
O O10 0.500000 0.948014 0.000000
O O11 0.799030 0.790894 0.189098
O O12 0.265416 0.685619 0.019124
#
# Coordination Sequence:
#
# PCOD9124286 Si02
#       6
#     4   2   4   4   4   4
#     4  10  22  44  68  98 123 182 227 272 325 393
#     4  12  22  42  72  98 128 178 232 282 324 392
#     4  12  23  40  73 100 130 171 243 275 319 398
#     4  10  22  39  66  93 138 171 210 270 343 392
#     4  10  23  42  66  97 138 174 218 277 339 393
#     4  10  20  43  65  97 129 177 216 274 337 381
#
# _framework density 24.685313000000001
#
# number of rings (size 3 to 8) (size 9 to 14) (size 15 to 20)
#    0.000    1.455    4.545    0.000    3.818    0.000 
#   13.091    1.818    0.000    1.091    0.000    0.000 
#    0.000    0.000    0.000    0.000    0.000    0.000 
#
# Total GULP energy -61297.652707 kJ/mol
# GULP energy per Si atom -5572.513882 kJ/mol
# Density = 2.462913 g / cm^3
# Si number density = 24.685313 Si / 1000 Ang^3
#
#
#
# Elastic Constant Matrix: (Units=GPa)
#
#
# Indices 1 2 3 4 5 6 
#
# 1 115.6586 20.7638 15.9900 0.0107 -18.9209 0.0043
# 2 20.7638 164.7273 4.7750 0.0181 3.5723 0.0089
# 3 15.9900 4.7750 40.0308 0.0180 -17.5752 0.0110
# 4 0.0107 0.0181 0.0180 11.8900 0.0107 -8.2405
# 5 -18.9209 3.5723 -17.5752 0.0107 30.6316 0.0060
# 6 0.0043 0.0089 0.0110 -8.2405 0.0060 38.0517
#
#
#
# Elastic Compliance Matrix: (Units=1/GPa)
#
#
# Indices 1 2 3 4 5 6 
#
# 1 0.009983 -0.001337 -0.001407 -0.000012 0.005515 -0.000004
# 2 -0.001337 0.006323 -0.001212 -0.000006 -0.002259 -0.000002
# 3 -0.001407 -0.001212 0.033910 -0.000086 0.018729 -0.000031
# 4 -0.000012 -0.000006 -0.000086 0.098957 -0.000095 0.021430
# 5 0.005515 -0.002259 0.018729 -0.000095 0.047062 -0.000033
# 6 -0.000004 -0.000002 -0.000031 0.021430 -0.000033 0.030921
#
#
# Mechanical properties :
#
#
# Convention : Reuss Voigt Hill
#
# Bulk Modulus (GPa) = 23.63797 44.83047 34.23422
# Shear Modulus (GPa) = 20.06672 34.70718 27.38695
#
# Velocity S-wave (km/s) = 2.85424 3.75371 3.33444
# Velocity P-wave (km/s) = 4.52313 6.08172 5.35939
#
# Compressibility (1/GPa) = 0.04230482
#
# Stress axis : x y z
#
# Youngs Moduli (GPa) = 100.17104 158.14530 29.48992
#
# Poissons Ratio (x) = 0.21147 0.04148
# Poissons Ratio (y) = 0.13395 0.03574
# Poissons Ratio (z) = 0.14091 0.19164
#
# Static dielectric constant tensor:
#      x y z
#    x 2.012500 0.000000 0.033980 
#    y 0.000000 2.015070 -0.000010 
#    z 0.033980 -0.000010 2.125380 
# 
# From -- ./inp_files/54500.got.cif
#   From: 2010.05.17/outbox.cif.g08.bks.cpg/sg5_28_cif.got.tgz:54500.got - 2010.06.03 18:56:24.
