data_PCOD9124209
_publ_section_title
;
Structure prediction by ZEFSAII (Michael W. Deem and Ramdas Pophale) SiO2 
 PCOD9124209
Probable space group: C 2
;
_chemical_formula_sum "Si O2"
_cell_formula_units_Z 26
_cell_length_a 14.286243
_cell_length_b 7.818443
_cell_length_c 13.684647
_cell_angle_alpha 90.000000
_cell_angle_beta 39.265599
_cell_angle_gamma 90.000000
_cell_volume 967.426712
_symmetry_space_group_name_H-M "C 2"
_symmetry_group_IT_number 5
_symmetry_cell_setting 'monoclinic'
loop_
_space_group_symop_operation_xyz
x,y,z
-x,y,-z
1/2+x,1/2+y,z
1/2-x,1/2+y,-z
loop_
_atom_site_type_symbol
_atom_site_label
_atom_site_fract_x
_atom_site_fract_y
_atom_site_fract_z
Si Si1 0.463923 0.617110 0.308123
Si Si2 0.500000 0.272476 0.500000
Si Si3 0.500000 0.733086 0.500000
Si Si4 0.747644 0.922831 0.577657
Si Si5 0.188437 0.327565 0.038365
Si Si6 0.976266 0.659044 0.849115
Si Si7 0.683108 0.997065 0.257235
Si Si8 0.500000 0.436685 0.000000
O O1 0.501082 0.640994 0.393843
O O2 0.355359 0.767397 0.365036
O O3 0.359927 0.453963 0.397185
O O4 0.596355 0.649956 0.126559
O O5 0.354504 0.372963 0.581615
O O6 0.562401 0.143731 0.367697
O O7 0.640367 0.858793 0.374977
O O8 0.632200 0.078346 0.688312
O O9 0.113146 0.484663 0.041167
O O10 0.173135 0.402115 0.161421
O O11 0.352517 0.261738 0.883812
O O12 0.998639 0.801256 0.912888
O O13 0.852851 0.049117 0.130082
#
# Coordination Sequence:
#
# PCOD9124209 Si02
#       8
#     4   2   2   4   4   4   4   2
#     4  10  22  39  65  96 127 171 218 268 337 393
#     4  11  25  44  64  96 136 172 230 280 322 384
#     4   9  17  36  66  86 128 164 208 268 328 400
#     4  11  25  41  64  98 131 175 223 275 326 392
#     4   9  21  43  64  94 130 170 212 267 331 397
#     4  10  22  43  65  99 129 171 219 265 337 396
#     4   9  20  39  64  92 126 169 211 268 333 380
#     4  10  20  42  68  96 130 172 218 262 332 404
#
# _framework density 26.875420999999999
#
# number of rings (size 3 to 8) (size 9 to 14) (size 15 to 20)
#    0.000    2.154    0.000    1.385    8.615    3.692 
#   13.846    0.000    0.000    0.000    0.000    0.000 
#    0.000    0.000    0.000    0.000    0.000    0.000 
#
# Total GULP energy -72589.713875 kJ/mol
# GULP energy per Si atom -5583.824144 kJ/mol
# Density = 2.681425 g / cm^3
# Si number density = 26.875421 Si / 1000 Ang^3
#
#
#
# Elastic Constant Matrix: (Units=GPa)
#
#
# Indices 1 2 3 4 5 6 
#
# 1 86.0933 19.1421 40.0093 0.0000 -13.5040 0.0000
# 2 19.1421 87.0440 36.3938 0.0000 -6.9596 0.0000
# 3 40.0093 36.3938 163.2193 0.0000 -26.4241 0.0000
# 4 0.0000 0.0000 0.0000 109.5746 0.0000 -29.3285
# 5 -13.5040 -6.9596 -26.4241 0.0000 48.9629 0.0000
# 6 0.0000 0.0000 0.0000 -29.3285 0.0000 48.4797
#
#
#
# Elastic Compliance Matrix: (Units=1/GPa)
#
#
# Indices 1 2 3 4 5 6 
#
# 1 0.013532 -0.001724 -0.002595 0.000000 0.002087 0.000000
# 2 -0.001724 0.012893 -0.002446 0.000000 0.000037 0.000000
# 3 -0.002595 -0.002446 0.007819 0.000000 0.003157 0.000000
# 4 0.000000 0.000000 0.000000 0.010889 0.000000 0.006588
# 5 0.002087 0.000037 0.003157 0.000000 0.022708 0.000000
# 6 0.000000 0.000000 0.000000 0.006588 0.000000 0.024613
#
#
# Mechanical properties :
#
#
# Convention : Reuss Voigt Hill
#
# Bulk Modulus (GPa) = 48.27620 58.60520 53.44070
# Shear Modulus (GPa) = 44.29120 57.45755 50.87437
#
# Velocity S-wave (km/s) = 4.06398 4.62878 4.35555
# Velocity P-wave (km/s) = 6.32639 7.10078 6.72474
#
# Compressibility (1/GPa) = 0.02071414
#
# Stress axis : x y z
#
# Youngs Moduli (GPa) = 73.90014 77.55929 127.88958
#
# Poissons Ratio (x) = 0.13372 0.33184
# Poissons Ratio (y) = 0.12741 0.31286
# Poissons Ratio (z) = 0.19175 0.18973
#
# Static dielectric constant tensor:
#      x y z
#    x 1.994730 0.000000 -0.047680 
#    y 0.000000 2.251400 0.000000 
#    z -0.047680 0.000000 2.106710 
# 
# From -- ./inp_files/62238.got.cif
#   From: 2010.05.17/outbox.cif.g08.bks.cpg/sg5_32_cif.got.tgz:62238.got - 2010.06.03 18:56:24.
