data_PCOD9124421
_publ_section_title
;
Structure prediction by ZEFSAII (Michael W. Deem and Ramdas Pophale) SiO2 
 PCOD9124421
Probable space group: C 2
;
_chemical_formula_sum "Si O2"
_cell_formula_units_Z 20
_cell_length_a 13.983410
_cell_length_b 10.073328
_cell_length_c 10.347707
_cell_angle_alpha 90.000000
_cell_angle_beta 30.100123
_cell_angle_gamma 90.000000
_cell_volume 730.991006
_symmetry_space_group_name_H-M "C 2"
_symmetry_group_IT_number 5
_symmetry_cell_setting 'monoclinic'
loop_
_space_group_symop_operation_xyz
x,y,z
-x,y,-z
1/2+x,1/2+y,z
1/2-x,1/2+y,-z
loop_
_atom_site_type_symbol
_atom_site_label
_atom_site_fract_x
_atom_site_fract_y
_atom_site_fract_z
Si Si1 0.367169 0.513230 0.320916
Si Si2 0.849169 0.375897 0.062535
Si Si3 0.264763 0.086134 0.961399
Si Si4 0.606185 0.255324 0.552735
Si Si5 0.059548 0.371040 0.555661
O O1 0.578540 0.567898 0.091333
O O2 0.359892 0.405644 0.442346
O O3 0.223575 0.638253 0.488101
O O4 0.277406 0.418456 0.313260
O O5 0.747483 0.505039 0.118204
O O6 0.703140 0.270287 0.297759
O O7 0.979322 0.324873 0.788828
O O8 0.000000 0.408517 0.000000
O O9 0.385364 0.221045 0.843053
O O10 0.426079 0.000190 0.700823
O O11 0.000000 0.286569 0.500000
#
# Coordination Sequence:
#
# PCOD9124421 Si02
#       5
#     4   4   4   4   4
#     4  11  24  49  83 126 178 232 296 362 442 531
#     4  10  20  47  80 121 167 226 288 352 431 517
#     4   9  24  44  76 124 175 229 288 358 434 519
#     4  11  23  49  84 125 179 230 300 361 441 535
#     4   9  21  46  74 117 177 221 287 360 439 516
#
# _framework density 27.360119000000001
#
# number of rings (size 3 to 8) (size 9 to 14) (size 15 to 20)
#    1.200    0.800    2.000    0.000    0.000    6.400 
#   25.200    0.000   22.000    0.000    0.000    0.000 
#    0.000    0.000    0.000    0.000    0.000    0.000 
#
# Total GULP energy -55676.737295 kJ/mol
# GULP energy per Si atom -5567.673730 kJ/mol
# Density = 2.729785 g / cm^3
# Si number density = 27.360119 Si / 1000 Ang^3
#
#
#
# Elastic Constant Matrix: (Units=GPa)
#
#
# Indices 1 2 3 4 5 6 
#
# 1 188.2289 28.1461 99.2250 -0.0002 -23.1734 0.0000
# 2 28.1461 114.3081 71.5850 0.0000 8.8413 0.0000
# 3 99.2250 71.5850 158.7957 -0.0003 -49.2190 0.0002
# 4 -0.0002 0.0000 -0.0003 37.5064 0.0002 -5.8374
# 5 -23.1734 8.8413 -49.2190 0.0002 69.4916 -0.0001
# 6 0.0000 0.0000 0.0002 -5.8374 -0.0001 16.1109
#
#
#
# Elastic Compliance Matrix: (Units=1/GPa)
#
#
# Indices 1 2 3 4 5 6 
#
# 1 0.008449 0.002750 -0.007373 0.000000 -0.002754 0.000000
# 2 0.002750 0.016451 -0.012170 0.000000 -0.009796 0.000000
# 3 -0.007373 -0.012170 0.020640 0.000000 0.013708 0.000000
# 4 0.000000 0.000000 0.000000 0.028255 0.000000 0.010238
# 5 -0.002754 -0.009796 0.013708 0.000000 0.024427 0.000000
# 6 0.000000 0.000000 0.000000 0.010238 0.000000 0.065779
#
#
# Mechanical properties :
#
#
# Convention : Reuss Voigt Hill
#
# Bulk Modulus (GPa) = 83.66460 95.47168 89.56814
# Shear Modulus (GPa) = 24.80503 42.11356 33.45929
#
# Velocity S-wave (km/s) = 3.01427 3.92756 3.50082
# Velocity P-wave (km/s) = 6.53910 7.45237 7.01062
#
# Compressibility (1/GPa) = 0.01195249
#
# Stress axis : x y z
#
# Youngs Moduli (GPa) = 118.35823 60.78812 48.45051
#
# Poissons Ratio (x) = -0.16715 0.35721
# Poissons Ratio (y) = -0.32546 0.58966
# Poissons Ratio (z) = 0.87261 0.73982
#
# Static dielectric constant tensor:
#      x y z
#    x 2.437010 0.000000 0.002970 
#    y 0.000000 2.306210 0.000000 
#    z 0.002970 0.000000 2.175520 
# 
# From -- ./inp_files/42624.got.cif
#   From: 2010.05.17/outbox.cif.g08.bks.cpg/sg5_22_cif.got.tgz:42624.got - 2010.06.03 18:56:24.
