data_PCOD9124554
_publ_section_title
;
Structure prediction by ZEFSAII (Michael W. Deem and Ramdas Pophale) SiO2 
 PCOD9124554
Probable space group: C 2
;
_chemical_formula_sum "Si O2"
_cell_formula_units_Z 30
_cell_length_a 5.179041
_cell_length_b 25.424601
_cell_length_c 11.946596
_cell_angle_alpha 90.000000
_cell_angle_beta 103.256676
_cell_angle_gamma 90.000000
_cell_volume 1531.150363
_symmetry_space_group_name_H-M "C 2"
_symmetry_group_IT_number 5
_symmetry_cell_setting 'monoclinic'
loop_
_space_group_symop_operation_xyz
x,y,z
-x,y,-z
1/2+x,1/2+y,z
1/2-x,1/2+y,-z
loop_
_atom_site_type_symbol
_atom_site_label
_atom_site_fract_x
_atom_site_fract_y
_atom_site_fract_z
Si Si1 0.441167 0.628480 0.617188
Si Si2 0.636289 0.042318 0.277210
Si Si3 0.726234 0.092268 0.927703
Si Si4 0.794144 0.199553 0.808071
Si Si5 0.090733 0.882659 0.138720
Si Si6 0.338664 0.262412 0.866600
Si Si7 0.594765 0.943791 0.138783
Si Si8 0.500000 0.045620 0.500000
O O1 0.500000 0.651699 0.500000
O O2 0.686563 0.595075 0.693134
O O3 0.335379 0.671042 0.693221
O O4 0.226997 0.583712 0.569187
O O5 0.367776 0.061832 0.191562
O O6 0.606058 0.018507 0.398646
O O7 0.721161 0.996491 0.201934
O O8 0.775392 0.152091 0.895134
O O9 0.500000 0.090138 0.000000
O O10 0.000000 0.069666 0.000000
O O11 0.522916 0.231639 0.796413
O O12 0.052633 0.235608 0.852726
O O13 0.183227 0.823354 0.169570
O O14 0.330895 0.923723 0.175440
O O15 0.821375 0.899780 0.171898
O O16 0.000000 0.884068 0.000000
O O17 0.500000 0.259925 0.000000
O O18 0.500000 0.951505 0.000000
#
# Coordination Sequence:
#
# PCOD9124554 Si02
#       8
#     4   4   4   4   4   4   4   2
#     4  10  23  40  59  86 120 159 208 256 292 357
#     4  11  23  38  60  88 122 160 207 246 295 360
#     4  12  24  36  55  88 136 167 189 240 304 366
#     4  12  22  36  57  88 117 161 200 236 297 356
#     4   9  20  38  56  84 120 154 195 242 290 357
#     4  11  22  36  58  87 122 157 197 241 293 360
#     4  10  21  36  60  89 119 156 194 239 304 360
#     4  10  22  42  60  80 120 160 212 250 292 350
#
# _framework density 19.593112999999999
#
# number of rings (size 3 to 8) (size 9 to 14) (size 15 to 20)
#    0.000    1.333    1.333    5.200    3.733    3.733 
#    0.000    0.000    0.000    0.000   10.400    0.000 
#    0.000    0.000    0.000    0.000    0.000    0.000 
#
# Total GULP energy -83759.502523 kJ/mol
# GULP energy per Si atom -5583.966835 kJ/mol
# Density = 1.954852 g / cm^3
# Si number density = 19.593113 Si / 1000 Ang^3
#
#
#
# Elastic Constant Matrix: (Units=GPa)
#
#
# Indices 1 2 3 4 5 6 
#
# 1 95.5085 12.7961 26.9667 0.0000 -1.0264 0.0000
# 2 12.7961 68.7071 21.2472 0.0000 -4.3877 0.0000
# 3 26.9667 21.2472 82.9802 0.0000 -6.6490 0.0000
# 4 0.0000 0.0000 0.0000 17.3617 0.0000 -5.4355
# 5 -1.0264 -4.3877 -6.6490 0.0000 32.7222 0.0000
# 6 0.0000 0.0000 0.0000 -5.4355 0.0000 27.7284
#
#
#
# Elastic Compliance Matrix: (Units=1/GPa)
#
#
# Indices 1 2 3 4 5 6 
#
# 1 0.011609 -0.001102 -0.003531 0.000000 -0.000501 0.000000
# 2 -0.001102 0.015967 -0.003620 0.000000 0.001371 0.000000
# 3 -0.003531 -0.003620 0.014311 0.000000 0.002312 0.000000
# 4 0.000000 0.000000 0.000000 0.061364 0.000000 0.012029
# 5 -0.000501 0.001371 0.002312 0.000000 0.031198 0.000000
# 6 0.000000 0.000000 0.000000 0.012029 0.000000 0.038422
#
#
# Mechanical properties :
#
#
# Convention : Reuss Voigt Hill
#
# Bulk Modulus (GPa) = 39.40044 41.02399 40.21222
# Shear Modulus (GPa) = 25.27318 27.97484 26.62401
#
# Velocity S-wave (km/s) = 3.59542 3.78271 3.69025
# Velocity P-wave (km/s) = 6.11466 6.32945 6.22298
#
# Compressibility (1/GPa) = 0.02538043
#
# Stress axis : x y z
#
# Youngs Moduli (GPa) = 86.13658 62.62948 69.87787
#
# Poissons Ratio (x) = 0.06904 0.24672
# Poissons Ratio (y) = 0.09495 0.25298
# Poissons Ratio (z) = 0.30412 0.22674
#
# Static dielectric constant tensor:
#      x y z
#    x 1.664810 0.000000 -0.132450 
#    y 0.000000 1.696190 0.000000 
#    z -0.132450 0.000000 1.601340 
# 
# From -- ./inp_files/34262.got.cif
#   From: 2010.05.17/outbox.cif.g08.bks.cpg/sg5_18_cif.got.tgz:34262.got - 2010.06.03 18:56:24.
