data_PCOD9124872
_publ_section_title
;
Structure prediction by ZEFSAII (Michael W. Deem and Ramdas Pophale) SiO2 
 PCOD9124872
Probable space group: C 2
;
_chemical_formula_sum "Si O2"
_cell_formula_units_Z 32
_cell_length_a 17.576256
_cell_length_b 17.300973
_cell_length_c 9.109906
_cell_angle_alpha 90.000000
_cell_angle_beta 148.912662
_cell_angle_gamma 90.000000
_cell_volume 1430.375298
_symmetry_space_group_name_H-M "C 2"
_symmetry_group_IT_number 5
_symmetry_cell_setting 'monoclinic'
loop_
_space_group_symop_operation_xyz
x,y,z
-x,y,-z
1/2+x,1/2+y,z
1/2-x,1/2+y,-z
loop_
_atom_site_type_symbol
_atom_site_label
_atom_site_fract_x
_atom_site_fract_y
_atom_site_fract_z
Si Si1 0.432024 0.967220 0.721137
Si Si2 0.542693 0.120340 0.737053
Si Si3 0.332252 0.406703 0.243288
Si Si4 0.931448 0.323536 0.241542
Si Si5 0.660812 0.814728 0.195399
Si Si6 0.346867 0.554031 0.659062
Si Si7 0.646999 0.580577 0.674222
Si Si8 0.632459 0.201618 0.335389
O O1 0.476181 0.893246 0.690700
O O2 0.498736 0.042476 0.752097
O O3 0.258292 0.984129 0.457701
O O4 0.500000 0.969951 0.000000
O O5 0.500000 0.108054 0.500000
O O6 0.447647 0.190849 0.641539
O O7 0.712523 0.132423 0.058911
O O8 0.500000 0.382118 0.500000
O O9 0.257767 0.382744 0.277542
O O10 0.324188 0.497527 0.202184
O O11 0.218887 0.363728 0.951030
O O12 0.000000 0.290619 0.500000
O O13 0.882188 0.268308 0.025938
O O14 0.764974 0.775936 0.486028
O O15 0.500000 0.825407 0.000000
O O16 0.374511 0.556313 0.530388
O O17 0.244612 0.630105 0.508065
O O18 0.500000 0.557375 0.000000
O O19 0.500000 0.613454 0.500000
O O20 0.500000 0.199821 0.000000
#
# Coordination Sequence:
#
# PCOD9124872 Si02
#       8
#     4   4   4   4   4   4   4   4
#     4  11  19  36  64  92 133 172 214 261 324 402
#     4  11  21  37  62  94 125 168 215 262 332 391
#     4   9  21  39  66  93 140 168 209 273 331 394
#     4  10  21  38  67  93 129 171 213 267 333 397
#     4  10  23  44  68  91 126 179 227 275 326 388
#     4  11  23  38  63  98 135 167 216 272 332 394
#     4  11  22  37  62 100 139 166 202 268 337 401
#     4  11  23  46  69  87 124 178 228 283 325 389
#
# _framework density 22.371749000000001
#
# number of rings (size 3 to 8) (size 9 to 14) (size 15 to 20)
#    0.750    0.750    3.750    1.875    5.250    1.500 
#    2.250    0.625    0.000    0.000    0.000    0.000 
#    0.000    0.000    0.000    0.000    0.000    0.000 
#
# Total GULP energy -89096.757957 kJ/mol
# GULP energy per Si atom -5568.547372 kJ/mol
# Density = 2.232083 g / cm^3
# Si number density = 22.371749 Si / 1000 Ang^3
#
#
#
# Elastic Constant Matrix: (Units=GPa)
#
#
# Indices 1 2 3 4 5 6 
#
# 1 111.1873 7.6212 61.6160 0.0000 20.8551 0.0000
# 2 7.6212 37.3617 17.2947 0.0000 15.3596 0.0000
# 3 61.6160 17.2947 167.8864 0.0000 12.4553 0.0000
# 4 0.0000 0.0000 0.0000 25.9771 0.0000 -7.7851
# 5 20.8551 15.3596 12.4553 0.0000 50.3154 0.0000
# 6 0.0000 0.0000 0.0000 -7.7851 0.0000 -8.9279
#
#
#
# Elastic Compliance Matrix: (Units=1/GPa)
#
#
# Indices 1 2 3 4 5 6 
#
# 1 0.012071 0.001287 -0.004240 0.000000 -0.004346 0.000000
# 2 0.001287 0.031815 -0.003046 0.000000 -0.009492 0.000000
# 3 -0.004240 -0.003046 0.007770 0.000000 0.000764 0.000000
# 4 0.000000 0.000000 0.000000 0.030520 0.000000 -0.026613
# 5 -0.004346 -0.009492 0.000764 0.000000 0.024385 0.000000
# 6 0.000000 0.000000 0.000000 -0.026613 0.000000 -0.088802
#
#
# Mechanical properties :
#
#
# Convention : Reuss Voigt Hill
#
# Bulk Modulus (GPa) = 25.21560 54.38880 39.80220
# Shear Modulus (GPa) = 116.34971 28.79982 72.57477
#
# Velocity S-wave (km/s) = 7.21944 3.59183 5.70182
# Velocity P-wave (km/s) = 8.98829 6.44716 7.82161
#
# Compressibility (1/GPa) = 0.03965798
#
# Stress axis : x y z
#
# Youngs Moduli (GPa) = 82.84588 31.43208 128.70551
#
# Poissons Ratio (x) = -0.04047 0.54574
# Poissons Ratio (y) = -0.10666 0.39200
# Poissons Ratio (z) = 0.35128 0.09573
#
# Static dielectric constant tensor:
#      x y z
#    x 1.871200 0.000000 0.057740 
#    y 0.000000 1.865780 0.000000 
#    z 0.057740 0.000000 1.803310 
# 
# From -- ./inp_files/28069.got.cif
#   From: 2010.05.17/outbox.cif.g08.bks.cpg/sg5_15_cif.got.tgz:28069.got - 2010.06.03 18:56:24.
