data_PCOD9124135
_publ_section_title
;
Structure prediction by ZEFSAII (Michael W. Deem and Ramdas Pophale) SiO2 
 PCOD9124135
Probable space group: C 2
;
_chemical_formula_sum "Si O2"
_cell_formula_units_Z 24
_cell_length_a 27.442590
_cell_length_b 5.152082
_cell_length_c 14.528091
_cell_angle_alpha 90.000000
_cell_angle_beta 28.035651
_cell_angle_gamma 90.000000
_cell_volume 965.458374
_symmetry_space_group_name_H-M "C 2"
_symmetry_group_IT_number 5
_symmetry_cell_setting 'monoclinic'
loop_
_space_group_symop_operation_xyz
x,y,z
-x,y,-z
1/2+x,1/2+y,z
1/2-x,1/2+y,-z
loop_
_atom_site_type_symbol
_atom_site_label
_atom_site_fract_x
_atom_site_fract_y
_atom_site_fract_z
Si Si1 0.372372 0.779110 0.959814
Si Si2 0.208534 0.917717 0.109243
Si Si3 0.941679 0.592578 0.011411
Si Si4 0.987417 0.642046 0.619239
Si Si5 0.253984 0.705781 0.557734
Si Si6 0.943341 0.907666 0.330084
O O1 0.442140 0.526628 0.844228
O O2 0.426506 0.959192 0.792224
O O3 0.254940 0.785538 0.122973
O O4 0.386037 0.895139 0.037015
O O5 0.089027 0.868245 0.290760
O O6 0.262763 0.719469 0.945100
O O7 0.847025 0.760494 0.210508
O O8 0.000000 0.465375 0.000000
O O9 0.030044 0.732766 0.803201
O O10 0.000000 0.497121 0.500000
O O11 0.073982 0.757111 0.544711
O O12 0.230101 0.455526 0.533081
O O13 0.354868 0.614704 0.449520
#
# Coordination Sequence:
#
# PCOD9124135 Si02
#       6
#     4   4   4   4   4   4
#     4  10  23  42  68  97 140 192 239 299 373 446
#     4  10  20  42  64  93 132 178 230 283 358 426
#     4  11  24  46  72 105 145 197 237 314 376 441
#     4  10  23  42  64 100 139 185 239 311 360 441
#     4  12  28  49  76 113 151 194 254 312 374 458
#     4  11  24  46  71 106 144 195 250 302 380 450
#
# _framework density 24.858658999999999
#
# number of rings (size 3 to 8) (size 9 to 14) (size 15 to 20)
#    0.000    1.333    3.333    1.000    7.000    1.333 
#    3.000    0.000    0.000    0.000    0.000    0.000 
#    0.000    0.000    0.000    0.000    0.000    0.000 
#
# Total GULP energy -66923.634044 kJ/mol
# GULP energy per Si atom -5576.969504 kJ/mol
# Density = 2.480208 g / cm^3
# Si number density = 24.858659 Si / 1000 Ang^3
#
#
#
# Elastic Constant Matrix: (Units=GPa)
#
#
# Indices 1 2 3 4 5 6 
#
# 1 202.1000 30.8309 34.1276 0.0050 5.6628 0.0079
# 2 30.8309 81.2493 13.6276 0.0100 3.1018 0.0233
# 3 34.1276 13.6276 96.4035 0.0103 12.4913 0.0037
# 4 0.0050 0.0100 0.0103 15.2259 0.0023 -8.3158
# 5 5.6628 3.1018 12.4913 0.0023 29.7932 0.0006
# 6 0.0079 0.0233 0.0037 -8.3158 0.0006 40.5917
#
#
#
# Elastic Compliance Matrix: (Units=1/GPa)
#
#
# Indices 1 2 3 4 5 6 
#
# 1 0.005511 -0.001804 -0.001675 0.000001 -0.000157 0.000000
# 2 -0.001804 0.013207 -0.001157 -0.000012 -0.000547 -0.000010
# 3 -0.001675 -0.001157 0.011709 -0.000007 -0.004470 -0.000001
# 4 0.000001 -0.000012 -0.000007 0.073952 -0.000002 0.015150
# 5 -0.000157 -0.000547 -0.004470 -0.000002 0.035526 0.000000
# 6 0.000000 -0.000010 -0.000001 0.015150 0.000000 0.027739
#
#
# Mechanical properties :
#
#
# Convention : Reuss Voigt Hill
#
# Bulk Modulus (GPa) = 47.27440 59.65834 53.46637
# Shear Modulus (GPa) = 27.17849 37.19993 32.18921
#
# Velocity S-wave (km/s) = 3.31013 3.87260 3.60236
# Velocity P-wave (km/s) = 5.80240 6.63681 6.23358
#
# Compressibility (1/GPa) = 0.02115310
#
# Stress axis : x y z
#
# Youngs Moduli (GPa) = 181.46917 75.71528 85.40420
#
# Poissons Ratio (x) = 0.13659 0.14309
# Poissons Ratio (y) = 0.32738 0.09885
# Poissons Ratio (z) = 0.30404 0.08764
#
# Static dielectric constant tensor:
#      x y z
#    x 2.090400 0.000000 0.051670 
#    y 0.000000 1.995260 0.000000 
#    z 0.051670 0.000000 2.170090 
# 
# From -- ./inp_files/53754.got.cif
#   From: 2010.05.17/outbox.cif.g08.bks.cpg/sg5_27_cif.got.tgz:53754.got - 2010.06.03 18:56:24.
