data_PCOD9124726
_publ_section_title
;
Structure prediction by ZEFSAII (Michael W. Deem and Ramdas Pophale) SiO2 
 PCOD9124726
Probable space group: C 2
;
_chemical_formula_sum "Si O2"
_cell_formula_units_Z 30
_cell_length_a 11.911712
_cell_length_b 7.758656
_cell_length_c 15.022091
_cell_angle_alpha 90.000000
_cell_angle_beta 112.477189
_cell_angle_gamma 90.000000
_cell_volume 1282.856251
_symmetry_space_group_name_H-M "C 2"
_symmetry_group_IT_number 5
_symmetry_cell_setting 'monoclinic'
loop_
_space_group_symop_operation_xyz
x,y,z
-x,y,-z
1/2+x,1/2+y,z
1/2-x,1/2+y,-z
loop_
_atom_site_type_symbol
_atom_site_label
_atom_site_fract_x
_atom_site_fract_y
_atom_site_fract_z
Si Si1 0.283465 0.328450 0.595541
Si Si2 0.217146 0.369550 0.982500
Si Si3 0.500000 0.082635 0.000000
Si Si4 0.013348 0.588747 0.365960
Si Si5 0.396137 0.533266 0.147850
Si Si6 0.865792 0.885468 0.861241
Si Si7 0.687648 0.166510 0.572031
Si Si8 0.626297 0.754286 0.695216
O O1 0.400286 0.216729 0.662256
O O2 0.281668 0.317340 0.486387
O O3 0.106668 0.689270 0.634853
O O4 0.162617 0.241865 0.602202
O O5 0.169609 0.195584 0.921290
O O6 0.301290 0.455763 0.931089
O O7 0.098421 0.470796 0.977544
O O8 0.309657 0.372036 0.094692
O O9 0.569465 0.209035 0.088369
O O10 0.098037 0.561148 0.478027
O O11 0.207295 0.030130 0.379092
O O12 0.972770 0.403970 0.318168
O O13 0.529433 0.502616 0.148394
O O14 0.397561 0.588590 0.251728
O O15 0.753186 0.837934 0.765929
#
# Coordination Sequence:
#
# PCOD9124726 Si02
#       8
#     4   4   2   4   4   4   4   4
#     4   9  17  36  64  86 115 159 191 245 293 355
#     4  11  22  39  64  87 115 155 208 258 303 355
#     4  12  22  38  66  88 114 156 208 260 300 364
#     4   8  17  36  58  86 119 153 191 244 292 351
#     4  11  22  42  61  89 119 161 208 255 308 366
#     4  11  23  42  60  86 123 160 204 255 307 368
#     4   8  16  34  63  81 114 155 200 230 290 349
#     4  10  21  38  57  90 126 153 192 252 317 349
#
# _framework density 23.385318000000002
#
# number of rings (size 3 to 8) (size 9 to 14) (size 15 to 20)
#    0.800    1.333    4.000    0.000    1.867    2.133 
#    4.800    2.667    5.867    0.000    0.000    0.000 
#    0.000    0.000    0.000    0.000    0.000    0.000 
#
# Total GULP energy -83523.440097 kJ/mol
# GULP energy per Si atom -5568.229340 kJ/mol
# Density = 2.333209 g / cm^3
# Si number density = 23.385318 Si / 1000 Ang^3
#
#
#
# Elastic Constant Matrix: (Units=GPa)
#
#
# Indices 1 2 3 4 5 6 
#
# 1 136.3471 37.1166 0.1482 0.0000 -18.0231 0.0000
# 2 37.1166 42.0986 -1.6930 0.0000 -6.1336 0.0000
# 3 0.1482 -1.6930 22.7591 0.0000 -2.3010 0.0000
# 4 0.0000 0.0000 0.0000 29.1689 0.0000 -0.9762
# 5 -18.0231 -6.1336 -2.3010 0.0000 43.2777 0.0000
# 6 0.0000 0.0000 0.0000 -0.9762 0.0000 49.0536
#
#
#
# Elastic Compliance Matrix: (Units=1/GPa)
#
#
# Indices 1 2 3 4 5 6 
#
# 1 0.010017 -0.008416 -0.000392 0.000000 0.002958 0.000000
# 2 -0.008416 0.031432 0.002503 0.000000 0.001083 0.000000
# 3 -0.000392 0.002503 0.044385 0.000000 0.002551 0.000000
# 4 0.000000 0.000000 0.000000 0.034306 0.000000 0.000683
# 5 0.002958 0.001083 0.002551 0.000000 0.024628 0.000000
# 6 0.000000 0.000000 0.000000 0.000683 0.000000 0.020399
#
#
# Mechanical properties :
#
#
# Convention : Reuss Voigt Hill
#
# Bulk Modulus (GPa) = 13.65701 30.26094 21.95897
# Shear Modulus (GPa) = 24.72967 35.34223 30.03595
#
# Velocity S-wave (km/s) = 3.25543 3.89176 3.58773
# Velocity P-wave (km/s) = 4.47025 5.75870 5.15489
#
# Compressibility (1/GPa) = 0.07322247
#
# Stress axis : x y z
#
# Youngs Moduli (GPa) = 99.83350 31.81440 22.53005
#
# Poissons Ratio (x) = 0.26775 0.00884
# Poissons Ratio (y) = 0.84021 -0.05638
# Poissons Ratio (z) = 0.03916 -0.07962
#
# Static dielectric constant tensor:
#      x y z
#    x 1.964450 0.000000 -0.059590 
#    y 0.000000 1.917350 0.000000 
#    z -0.059590 0.000000 2.053910 
# 
# From -- ./inp_files/60215.got.cif
#   From: 2010.05.17/outbox.cif.g08.bks.cpg/sg5_31_cif.got.tgz:60215.got - 2010.06.03 18:56:24.
