data_PCOD9124391
_publ_section_title
;
Structure prediction by ZEFSAII (Michael W. Deem and Ramdas Pophale) SiO2 
 PCOD9124391
Probable space group: C 2
;
_chemical_formula_sum "Si O2"
_cell_formula_units_Z 14
_cell_length_a 7.667501
_cell_length_b 11.997808
_cell_length_c 7.764340
_cell_angle_alpha 90.000000
_cell_angle_beta 125.172433
_cell_angle_gamma 90.000000
_cell_volume 583.857271
_symmetry_space_group_name_H-M "C 2"
_symmetry_group_IT_number 5
_symmetry_cell_setting 'monoclinic'
loop_
_space_group_symop_operation_xyz
x,y,z
-x,y,-z
1/2+x,1/2+y,z
1/2-x,1/2+y,-z
loop_
_atom_site_type_symbol
_atom_site_label
_atom_site_fract_x
_atom_site_fract_y
_atom_site_fract_z
Si Si1 0.000000 0.651500 0.000000
Si Si2 0.277528 0.497748 0.771117
Si Si3 0.670260 0.958179 0.328216
Si Si4 0.248743 0.745318 0.832532
O O1 0.875340 0.729508 0.060708
O O2 0.154610 0.568511 0.198299
O O3 0.285231 0.463145 0.577530
O O4 0.206688 0.627467 0.717278
O O5 0.081272 0.440017 0.762433
O O6 0.500000 0.489051 0.000000
O O7 0.776842 0.858319 0.285008
O O8 0.500000 0.742687 0.000000
#
# Coordination Sequence:
#
# PCOD9124391 Si02
#       4
#     2   4   4   4
#     4  10  22  44  74 106 144 186 236 302 354 424
#     4   9  21  44  75 105 144 187 240 296 359 425
#     4  10  20  45  73 105 150 182 237 306 349 427
#     4  10  21  45  73 102 143 190 238 291 359 427
#
# _framework density 23.978463999999999
#
# number of rings (size 3 to 8) (size 9 to 14) (size 15 to 20)
#    0.000    2.286    1.429    0.000    0.000    0.000 
#   15.429   28.571    0.000    0.000    0.000    0.000 
#    0.000    0.000    0.000    0.000    0.000    0.000 
#
# Total GULP energy -39138.872543 kJ/mol
# GULP energy per Si atom -5591.267506 kJ/mol
# Density = 2.392389 g / cm^3
# Si number density = 23.978464 Si / 1000 Ang^3
#
#
#
# Elastic Constant Matrix: (Units=GPa)
#
#
# Indices 1 2 3 4 5 6 
#
# 1 195.4056 123.8656 103.1675 0.0000 -34.8096 0.0000
# 2 123.8656 152.4073 61.8268 0.0000 -28.7659 0.0000
# 3 103.1675 61.8268 194.4810 0.0000 -4.4752 0.0000
# 4 0.0000 0.0000 0.0000 -8.0970 0.0000 -29.2625
# 5 -34.8096 -28.7659 -4.4752 0.0000 54.0236 0.0000
# 6 0.0000 0.0000 0.0000 -29.2625 0.0000 63.7732
#
#
#
# Elastic Compliance Matrix: (Units=1/GPa)
#
#
# Indices 1 2 3 4 5 6 
#
# 1 0.013453 -0.008444 -0.004365 0.000000 0.003811 0.000000
# 2 -0.008444 0.013711 0.000164 0.000000 0.001874 0.000000
# 3 -0.004365 0.000164 0.007357 0.000000 -0.002116 0.000000
# 4 0.000000 0.000000 0.000000 -0.046460 0.000000 -0.021318
# 5 0.003811 0.001874 -0.002116 0.000000 0.021788 0.000000
# 6 0.000000 0.000000 0.000000 -0.021318 0.000000 0.005899
#
#
# Mechanical properties :
#
#
# Convention : Reuss Voigt Hill
#
# Bulk Modulus (GPa) = 108.32992 124.44597 116.38795
# Shear Modulus (GPa) = 113.33742 38.83556 76.08649
#
# Velocity S-wave (km/s) = 6.88251 4.02879 5.63915
# Velocity P-wave (km/s) = 10.41320 8.58215 9.54170
#
# Compressibility (1/GPa) = 0.00923106
#
# Stress axis : x y z
#
# Youngs Moduli (GPa) = 74.33065 72.93200 135.93403
#
# Poissons Ratio (x) = 0.61585 0.59329
# Poissons Ratio (y) = 0.62766 -0.02223
# Poissons Ratio (z) = 0.32442 -0.01193
#
# Static dielectric constant tensor:
#      x y z
#    x 1.902520 0.000000 0.003360 
#    y 0.000000 1.971860 0.000000 
#    z 0.003360 0.000000 1.938780 
# 
# From -- ./inp_files/14393.got.cif
#   From: 2010.05.17/outbox.cif.g08.bks.cpg/sg5_8_cif.got.tgz:14393.got - 2010.06.03 18:56:24.
