data_PCOD9124625
_publ_section_title
;
Structure prediction by ZEFSAII (Michael W. Deem and Ramdas Pophale) SiO2 
 PCOD9124625
Probable space group: C 2
;
_chemical_formula_sum "Si O2"
_cell_formula_units_Z 32
_cell_length_a 14.690599
_cell_length_b 18.236864
_cell_length_c 17.594491
_cell_angle_alpha 90.000000
_cell_angle_beta 162.054815
_cell_angle_gamma 90.000000
_cell_volume 1452.338671
_symmetry_space_group_name_H-M "C 2"
_symmetry_group_IT_number 5
_symmetry_cell_setting 'monoclinic'
loop_
_space_group_symop_operation_xyz
x,y,z
-x,y,-z
1/2+x,1/2+y,z
1/2-x,1/2+y,-z
loop_
_atom_site_type_symbol
_atom_site_label
_atom_site_fract_x
_atom_site_fract_y
_atom_site_fract_z
Si Si1 0.336927 0.056200 0.609689
Si Si2 0.899049 0.302537 0.498171
Si Si3 0.680542 0.945408 0.782428
Si Si4 0.337350 0.516154 0.109964
Si Si5 0.101801 0.270022 0.002584
Si Si6 0.319973 0.627213 0.718053
Si Si7 0.725717 0.360875 0.986740
Si Si8 0.273535 0.211590 0.512646
O O1 0.993143 0.046052 0.310635
O O2 0.388741 0.142936 0.653532
O O3 0.500867 0.017123 0.667109
O O4 0.493486 0.026308 0.810861
O O5 0.547089 0.308358 0.213388
O O6 0.961874 0.255434 0.623799
O O7 0.000000 0.267670 0.500000
O O8 0.028290 0.384983 0.607280
O O9 0.692084 0.899590 0.869952
O O10 0.000000 0.963215 0.000000
O O11 0.501274 0.555341 0.167405
O O12 0.389550 0.429473 0.154244
O O13 0.038901 0.317085 0.876867
O O14 0.453709 0.264130 0.287364
O O15 0.000000 0.304942 0.000000
O O16 0.972907 0.187543 0.893746
O O17 0.309264 0.673018 0.631168
O O18 0.000000 0.609682 0.500000
#
# Coordination Sequence:
#
# PCOD9124625 Si02
#       8
#     4   4   4   4   4   4   4   4
#     4  10  21  37  58  89 122 159 198 247 308 366
#     4  11  21  38  58  86 119 156 209 241 306 361
#     4  11  21  35  59  89 123 154 198 254 312 362
#     4  10  21  37  58  89 122 159 198 247 308 366
#     4  11  21  38  58  86 119 156 209 241 306 361
#     4  11  21  35  59  89 123 154 198 254 312 362
#     4  10  22  37  57  84 122 162 192 253 302 363
#     4  10  22  37  57  84 122 162 192 253 302 363
#
# _framework density 22.033427
#
# number of rings (size 3 to 8) (size 9 to 14) (size 15 to 20)
#    0.000    1.500    5.000    0.750    0.000    5.000 
#    0.000    0.000    0.000    6.000    0.000    0.000 
#    0.000    0.000    0.000    0.000    0.000    0.000 
#
# Total GULP energy -89110.752336 kJ/mol
# GULP energy per Si atom -5569.422021 kJ/mol
# Density = 2.198328 g / cm^3
# Si number density = 22.033427 Si / 1000 Ang^3
#
#
#
# Elastic Constant Matrix: (Units=GPa)
#
#
# Indices 1 2 3 4 5 6 
#
# 1 48.6305 13.3444 10.6964 -0.0522 0.5397 -0.0012
# 2 13.3444 83.2961 -2.1815 0.1307 12.6012 -0.0060
# 3 10.6964 -2.1815 59.5552 0.3399 -18.7740 0.0380
# 4 -0.0522 0.1307 0.3399 30.9153 0.0854 -1.5737
# 5 0.5397 12.6012 -18.7740 0.0854 23.1798 -0.0095
# 6 -0.0012 -0.0060 0.0380 -1.5737 -0.0095 22.4488
#
#
#
# Elastic Compliance Matrix: (Units=1/GPa)
#
#
# Indices 1 2 3 4 5 6 
#
# 1 0.022625 -0.003330 -0.005079 0.000117 -0.002830 0.000016
# 2 -0.003330 0.013824 -0.001665 -0.000021 -0.008787 0.000001
# 3 -0.005079 -0.001665 0.024127 -0.000326 0.020566 -0.000056
# 4 0.000117 -0.000021 -0.000326 0.032467 -0.000374 0.002276
# 5 -0.002830 -0.008787 0.020566 -0.000374 0.064642 -0.000036
# 6 0.000016 0.000001 -0.000056 0.002276 -0.000036 0.044705
#
#
# Mechanical properties :
#
#
# Convention : Reuss Voigt Hill
#
# Bulk Modulus (GPa) = 24.73394 26.13338 25.43366
# Shear Modulus (GPa) = 21.18501 26.61694 23.90098
#
# Velocity S-wave (km/s) = 3.10416 3.47944 3.29714
# Velocity P-wave (km/s) = 4.90895 5.29420 5.10521
#
# Compressibility (1/GPa) = 0.04043027
#
# Stress axis : x y z
#
# Youngs Moduli (GPa) = 44.19798 72.33556 41.44669
#
# Poissons Ratio (x) = 0.24086 0.21049
# Poissons Ratio (y) = 0.14717 0.06902
# Poissons Ratio (z) = 0.22446 0.12046
#
# Static dielectric constant tensor:
#      x y z
#    x 1.844840 -0.000070 -0.054520 
#    y -0.000070 1.859410 -0.000180 
#    z -0.054520 -0.000180 1.908660 
# 
# From -- ./inp_files/61906.got.cif
#   From: 2010.05.17/outbox.cif.g08.bks.cpg/sg5_31_cif.got.tgz:61906.got - 2010.06.03 18:56:24.
