data_PCOD9124982
_publ_section_title
;
Structure prediction by ZEFSAII (Michael W. Deem and Ramdas Pophale) SiO2 
 PCOD9124982
Probable space group: C 2
;
_chemical_formula_sum "Si O2"
_cell_formula_units_Z 26
_cell_length_a 20.333446
_cell_length_b 7.971850
_cell_length_c 8.523420
_cell_angle_alpha 90.000000
_cell_angle_beta 53.660761
_cell_angle_gamma 90.000000
_cell_volume 1112.914376
_symmetry_space_group_name_H-M "C 2"
_symmetry_group_IT_number 5
_symmetry_cell_setting 'monoclinic'
loop_
_space_group_symop_operation_xyz
x,y,z
-x,y,-z
1/2+x,1/2+y,z
1/2-x,1/2+y,-z
loop_
_atom_site_type_symbol
_atom_site_label
_atom_site_fract_x
_atom_site_fract_y
_atom_site_fract_z
Si Si1 0.694558 0.597800 0.577266
Si Si2 0.797487 0.439276 0.009008
Si Si3 0.234506 0.797115 0.804640
Si Si4 0.672259 0.251051 0.414160
Si Si5 0.500000 0.258487 0.500000
Si Si6 0.930486 0.270307 0.006427
Si Si7 0.049631 0.904135 0.086628
O O1 0.714850 0.726930 0.410508
O O2 0.667120 0.419359 0.538074
O O3 0.780164 0.606605 0.554788
O O4 0.631366 0.693188 0.778611
O O5 0.782725 0.627278 0.076626
O O6 0.732006 0.325538 0.195909
O O7 0.884608 0.380869 0.946596
O O8 0.785706 0.414873 0.843969
O O9 0.145001 0.875929 0.909548
O O10 0.586777 0.196387 0.455357
O O11 0.533127 0.338622 0.286661
O O12 0.000000 0.368719 0.000000
O O13 0.967376 0.103209 0.877499
O O14 0.000000 0.843646 0.000000
#
# Coordination Sequence:
#
# PCOD9124982 Si02
#       7
#     4   4   4   4   2   4   4
#     4  10  21  39  64  92 121 172 210 265 328 390
#     4  10  22  37  61  85 125 164 209 263 316 384
#     4  11  21  39  60  90 121 170 212 263 318 382
#     4  10  21  39  63  92 125 163 217 263 323 386
#     4  12  22  40  68 100 128 174 218 270 318 394
#     4  10  21  40  60  92 125 161 208 269 322 388
#     4  11  23  40  67  96 132 168 214 269 327 385
#
# _framework density 23.362083999999999
#
# number of rings (size 3 to 8) (size 9 to 14) (size 15 to 20)
#    0.000    1.538    1.538    4.615    2.154    1.846 
#    0.000    1.538    0.000    0.923    0.000    0.000 
#    0.000    0.000    0.000    0.000    0.000    0.000 
#
# Total GULP energy -72509.282231 kJ/mol
# GULP energy per Si atom -5577.637095 kJ/mol
# Density = 2.330891 g / cm^3
# Si number density = 23.362084 Si / 1000 Ang^3
#
#
#
# Elastic Constant Matrix: (Units=GPa)
#
#
# Indices 1 2 3 4 5 6 
#
# 1 193.4487 27.6030 35.7709 0.0000 3.1424 0.0000
# 2 27.6030 58.2731 -2.9283 0.0000 10.1031 0.0000
# 3 35.7709 -2.9283 71.9503 0.0000 30.0528 0.0000
# 4 0.0000 0.0000 0.0000 7.7004 0.0000 11.0649
# 5 3.1424 10.1031 30.0528 0.0000 44.9151 0.0000
# 6 0.0000 0.0000 0.0000 11.0649 0.0000 33.5856
#
#
#
# Elastic Compliance Matrix: (Units=1/GPa)
#
#
# Indices 1 2 3 4 5 6 
#
# 1 0.006621 -0.004055 -0.005058 0.000000 0.003833 0.000000
# 2 -0.004055 0.020937 0.006546 0.000000 -0.008806 0.000000
# 3 -0.005058 0.006546 0.023797 0.000000 -0.017042 0.000000
# 4 0.000000 0.000000 0.000000 0.246607 0.000000 -0.081245
# 5 0.003833 -0.008806 -0.017042 0.000000 0.035379 0.000000
# 6 0.000000 0.000000 0.000000 -0.081245 0.000000 0.056541
#
#
# Mechanical properties :
#
#
# Convention : Reuss Voigt Hill
#
# Bulk Modulus (GPa) = 21.63443 49.39591 35.51517
# Shear Modulus (GPa) = 12.18256 34.78865 23.48561
#
# Velocity S-wave (km/s) = 2.28604 3.86308 3.17407
# Velocity P-wave (km/s) = 4.03095 6.40994 5.35425
#
# Compressibility (1/GPa) = 0.04622261
#
# Stress axis : x y z
#
# Youngs Moduli (GPa) = 151.03746 47.76228 42.02130
#
# Poissons Ratio (x) = 0.19367 0.21253
# Poissons Ratio (y) = 0.61244 -0.27508
# Poissons Ratio (z) = 0.76390 -0.31266
#
# Static dielectric constant tensor:
#      x y z
#    x 2.336840 0.000000 0.022170 
#    y 0.000000 1.889870 0.000000 
#    z 0.022170 0.000000 1.916830 
# 
# From -- ./inp_files/29116.got.cif
#   From: 2010.05.17/outbox.cif.g08.bks.cpg/sg5_15_cif.got.tgz:29116.got - 2010.06.03 18:56:24.
