data_PCOD9124772
_publ_section_title
;
Structure prediction by ZEFSAII (Michael W. Deem and Ramdas Pophale) SiO2 
 PCOD9124772
Probable space group: C 2
;
_chemical_formula_sum "Si O2"
_cell_formula_units_Z 32
_cell_length_a 15.487052
_cell_length_b 8.269276
_cell_length_c 26.035473
_cell_angle_alpha 90.000000
_cell_angle_beta 28.405647
_cell_angle_gamma 90.000000
_cell_volume 1586.152069
_symmetry_space_group_name_H-M "C 2"
_symmetry_group_IT_number 5
_symmetry_cell_setting 'monoclinic'
loop_
_space_group_symop_operation_xyz
x,y,z
-x,y,-z
1/2+x,1/2+y,z
1/2-x,1/2+y,-z
loop_
_atom_site_type_symbol
_atom_site_label
_atom_site_fract_x
_atom_site_fract_y
_atom_site_fract_z
Si Si1 0.629965 0.995780 0.325473
Si Si2 0.681351 0.826690 0.752924
Si Si3 0.273009 0.740003 0.802758
Si Si4 0.542217 0.114648 0.099658
Si Si5 0.505661 0.511801 0.611467
Si Si6 0.087145 0.828779 0.744386
Si Si7 0.376584 0.650623 0.857522
Si Si8 0.276724 0.824525 0.536105
O O1 0.640773 0.902988 0.265553
O O2 0.759933 0.898783 0.296930
O O3 0.428390 0.967908 0.453622
O O4 0.717878 0.172331 0.274906
O O5 0.559027 0.753515 0.771829
O O6 0.537312 0.932675 0.860859
O O7 0.850235 0.946621 0.654486
O O8 0.396954 0.594337 0.715540
O O9 0.273552 0.725562 0.863120
O O10 0.079654 0.715857 0.876799
O O11 0.500457 0.179929 0.178688
O O12 0.747539 0.139711 0.974724
O O13 0.621772 0.657201 0.527939
O O14 0.632328 0.372156 0.567900
O O15 0.179930 0.804428 0.641211
O O16 0.938204 0.968012 0.815030
#
# Coordination Sequence:
#
# PCOD9124772 Si02
#       8
#     4   4   4   4   4   4   4   4
#     4   9  20  37  62  87 128 160 204 259 311 374
#     4  10  22  40  58  93 130 159 207 265 313 369
#     4   9  19  38  62  91 119 164 208 257 318 377
#     4  10  21  39  62  90 127 166 208 261 315 373
#     4  10  21  38  61  89 126 164 204 267 312 380
#     4  10  21  38  62  89 123 168 208 258 310 383
#     4  11  20  39  66  90 123 166 214 259 321 371
#     4  11  20  39  65  89 124 170 216 246 331 374
#
# _framework density 20.174610000000001
#
# number of rings (size 3 to 8) (size 9 to 14) (size 15 to 20)
#    0.000    2.000    1.250    3.000    0.000    0.000 
#    6.750    3.750    0.000    6.000    0.000    0.000 
#    0.000    0.000    0.000    0.000    0.000    0.000 
#
# Total GULP energy -89209.571135 kJ/mol
# GULP energy per Si atom -5575.598196 kJ/mol
# Density = 2.012869 g / cm^3
# Si number density = 20.174610 Si / 1000 Ang^3
#
#
#
# Elastic Constant Matrix: (Units=GPa)
#
#
# Indices 1 2 3 4 5 6 
#
# 1 53.9556 31.4950 26.8333 0.0000 0.9963 0.0000
# 2 31.4950 86.8213 43.5120 -0.0001 2.4546 0.0001
# 3 26.8333 43.5120 107.6616 -0.0005 11.0895 0.0000
# 4 0.0000 -0.0001 -0.0005 26.0326 0.0001 -8.2247
# 5 0.9963 2.4546 11.0895 0.0001 24.7212 0.0000
# 6 0.0000 0.0001 0.0000 -8.2247 0.0000 17.7961
#
#
#
# Elastic Compliance Matrix: (Units=1/GPa)
#
#
# Indices 1 2 3 4 5 6 
#
# 1 0.024360 -0.007230 -0.003273 0.000000 0.001204 0.000000
# 2 -0.007230 0.016626 -0.005009 0.000000 0.000887 0.000000
# 3 -0.003273 -0.005009 0.012648 0.000000 -0.005044 0.000000
# 4 0.000000 0.000000 0.000000 0.044981 0.000000 0.020789
# 5 0.001204 0.000887 -0.005044 0.000000 0.042577 0.000000
# 6 0.000000 0.000000 0.000000 0.020789 0.000000 0.065800
#
#
# Mechanical properties :
#
#
# Convention : Reuss Voigt Hill
#
# Bulk Modulus (GPa) = 44.22991 50.23544 47.23267
# Shear Modulus (GPa) = 20.36214 23.48318 21.92266
#
# Velocity S-wave (km/s) = 3.18039 3.41544 3.30001
# Velocity P-wave (km/s) = 5.95463 6.36459 6.16302
#
# Compressibility (1/GPa) = 0.02260914
#
# Stress axis : x y z
#
# Youngs Moduli (GPa) = 41.05110 60.14709 79.06310
#
# Poissons Ratio (x) = 0.43488 0.25880
# Poissons Ratio (y) = 0.29681 0.39601
# Poissons Ratio (z) = 0.13437 0.30127
#
# Static dielectric constant tensor:
#      x y z
#    x 1.707610 0.000000 -0.021300 
#    y 0.000000 1.753670 0.000000 
#    z -0.021300 0.000000 1.719320 
# 
# From -- ./inp_files/57703.got.cif
#   From: 2010.05.17/outbox.cif.g08.bks.cpg/sg5_29_cif.got.tgz:57703.got - 2010.06.03 18:56:24.
