data_PCOD9124424
_publ_section_title
;
Structure prediction by ZEFSAII (Michael W. Deem and Ramdas Pophale) SiO2 
 PCOD9124424
Probable space group: C 2
;
_chemical_formula_sum "Si O2"
_cell_formula_units_Z 30
_cell_length_a 24.330456
_cell_length_b 4.855440
_cell_length_c 20.476192
_cell_angle_alpha 90.000000
_cell_angle_beta 30.278941
_cell_angle_gamma 90.000000
_cell_volume 1219.662590
_symmetry_space_group_name_H-M "C 2"
_symmetry_group_IT_number 5
_symmetry_cell_setting 'monoclinic'
loop_
_space_group_symop_operation_xyz
x,y,z
-x,y,-z
1/2+x,1/2+y,z
1/2-x,1/2+y,-z
loop_
_atom_site_type_symbol
_atom_site_label
_atom_site_fract_x
_atom_site_fract_y
_atom_site_fract_z
Si Si1 0.317126 0.197370 0.235534
Si Si2 0.701642 0.962563 0.890537
Si Si3 0.179954 0.703070 0.406008
Si Si4 0.329550 0.583126 0.410345
Si Si5 0.347575 0.948035 0.767267
Si Si6 0.469348 0.942503 0.182729
Si Si7 0.974058 0.698501 0.321380
Si Si8 0.000000 0.485980 0.500000
O O1 0.324637 0.095643 0.153199
O O2 0.276626 0.508037 0.281790
O O3 0.420026 0.124900 0.174782
O O4 0.220827 0.013194 0.365634
O O5 0.764429 0.200117 0.867532
O O6 0.779444 0.699630 0.806811
O O7 0.589711 0.861541 0.037727
O O8 0.125357 0.608776 0.529482
O O9 0.081813 0.673198 0.456486
O O10 0.239830 0.803508 0.525582
O O11 0.433853 0.515817 0.350249
O O12 0.384369 0.701188 0.288523
O O13 0.418901 0.091206 0.751124
O O14 0.428927 0.830465 0.627534
O O15 0.478526 0.094698 0.242787
#
# Coordination Sequence:
#
# PCOD9124424 Si02
#       8
#     4   4   4   4   4   4   4   2
#     4  12  26  47  74 111 148 205 247 319 378 469
#     4  12  27  53  74 112 154 208 259 313 391 467
#     4  11  26  41  77 108 151 189 252 320 394 443
#     4  12  27  48  76 113 161 203 264 322 397 468
#     4  11  27  48  81 107 153 200 262 323 386 464
#     4  12  31  46  79 110 164 203 258 313 394 486
#     4  11  29  47  74 119 149 202 252 334 390 462
#     4  10  20  48  70 112 140 190 254 318 376 450
#
# _framework density 24.596965999999998
#
# number of rings (size 3 to 8) (size 9 to 14) (size 15 to 20)
#    0.000    0.533    4.000    1.200   11.200    5.333 
#    0.000    2.667    0.000    0.000    0.000    0.000 
#    0.000    0.000    0.000    0.000    0.000    0.000 
#
# Total GULP energy -83891.724491 kJ/mol
# GULP energy per Si atom -5592.781633 kJ/mol
# Density = 2.454098 g / cm^3
# Si number density = 24.596966 Si / 1000 Ang^3
#
#
#
# Elastic Constant Matrix: (Units=GPa)
#
#
# Indices 1 2 3 4 5 6 
#
# 1 137.4344 16.5685 39.3326 0.0270 -9.0241 -0.0413
# 2 16.5685 89.8875 17.1561 -0.0113 -1.9702 -0.0554
# 3 39.3326 17.1561 121.7677 0.0424 -0.2659 -0.0243
# 4 0.0270 -0.0113 0.0424 15.6555 0.0081 0.3064
# 5 -9.0241 -1.9702 -0.2659 0.0081 28.9182 -0.0043
# 6 -0.0413 -0.0554 -0.0243 0.3064 -0.0043 32.5095
#
#
#
# Elastic Compliance Matrix: (Units=1/GPa)
#
#
# Indices 1 2 3 4 5 6 
#
# 1 0.008284 -0.000989 -0.002531 -0.000010 0.002494 0.000007
# 2 -0.000989 0.011567 -0.001309 0.000013 0.000467 0.000017
# 3 -0.002531 -0.001309 0.009213 -0.000021 -0.000794 0.000002
# 4 -0.000010 0.000013 -0.000021 0.063887 -0.000020 -0.000602
# 5 0.002494 0.000467 -0.000794 -0.000020 0.035383 0.000008
# 6 0.000007 0.000017 0.000002 -0.000602 0.000008 0.030766
#
#
# Mechanical properties :
#
#
# Convention : Reuss Voigt Hill
#
# Bulk Modulus (GPa) = 51.53282 55.02266 53.27774
# Shear Modulus (GPa) = 28.53442 33.81880 31.17661
#
# Velocity S-wave (km/s) = 3.40969 3.71201 3.56406
# Velocity P-wave (km/s) = 6.04133 6.38673 6.21643
#
# Compressibility (1/GPa) = 0.01940511
#
# Stress axis : x y z
#
# Youngs Moduli (GPa) = 120.72127 86.44923 108.54691
#
# Poissons Ratio (x) = 0.08551 0.27472
# Poissons Ratio (y) = 0.11941 0.14211
# Poissons Ratio (z) = 0.30553 0.11318
#
# Static dielectric constant tensor:
#      x y z
#    x 2.019730 -0.000020 -0.006200 
#    y -0.000020 1.980820 0.000040 
#    z -0.006200 0.000040 1.907930 
# 
# From -- ./inp_files/67270.got.cif
#   From: 2010.05.17/outbox.cif.g08.bks.cpg/sg5_34_cif.got.tgz:67270.got - 2010.06.03 18:56:24.
