data_PCOD9124837
_publ_section_title
;
Structure prediction by ZEFSAII (Michael W. Deem and Ramdas Pophale) SiO2 
 PCOD9124837
Probable space group: C 2
;
_chemical_formula_sum "Si O2"
_cell_formula_units_Z 20
_cell_length_a 24.198644
_cell_length_b 5.238133
_cell_length_c 8.887440
_cell_angle_alpha 90.000000
_cell_angle_beta 132.997578
_cell_angle_gamma 90.000000
_cell_volume 823.927154
_symmetry_space_group_name_H-M "C 2"
_symmetry_group_IT_number 5
_symmetry_cell_setting 'monoclinic'
loop_
_space_group_symop_operation_xyz
x,y,z
-x,y,-z
1/2+x,1/2+y,z
1/2-x,1/2+y,-z
loop_
_atom_site_type_symbol
_atom_site_label
_atom_site_fract_x
_atom_site_fract_y
_atom_site_fract_z
Si Si1 0.547603 0.582580 0.739780
Si Si2 0.277852 0.734464 0.982155
Si Si3 0.956702 0.561014 0.076473
Si Si4 0.189912 0.852589 0.524961
Si Si5 0.659496 0.857908 0.360683
O O1 0.500000 0.535376 0.500000
O O2 0.550407 0.324309 0.845604
O O3 0.514322 0.827775 0.767063
O O4 0.634021 0.664033 0.862991
O O5 0.238187 0.866723 0.764299
O O6 0.236538 0.460648 0.925172
O O7 0.878830 0.441668 0.865032
O O8 0.000000 0.602322 0.000000
O O9 0.250321 0.828407 0.499976
O O10 0.145371 0.589649 0.445964
O O11 0.136994 0.087352 0.385975
#
# Coordination Sequence:
#
# PCOD9124837 Si02
#       5
#     4   4   4   4   4
#     4  12  28  51  75 106 155 203 245 304 375 446
#     4  12  26  44  73 106 146 196 246 300 364 450
#     4  12  26  47  77 106 145 195 252 305 364 446
#     4  10  21  38  65 100 133 175 224 291 362 418
#     4  10  21  38  68  98 132 175 224 294 363 416
#
# _framework density 24.273990000000001
#
# number of rings (size 3 to 8) (size 9 to 14) (size 15 to 20)
#    0.000    0.800    2.000    4.800    5.600    4.800 
#    0.000    0.000    0.000    0.000    0.000    0.000 
#    0.000    0.000    0.000    0.000    0.000    0.000 
#
# Total GULP energy -55859.824197 kJ/mol
# GULP energy per Si atom -5585.982420 kJ/mol
# Density = 2.421874 g / cm^3
# Si number density = 24.273990 Si / 1000 Ang^3
#
#
#
# Elastic Constant Matrix: (Units=GPa)
#
#
# Indices 1 2 3 4 5 6 
#
# 1 100.7360 60.9796 35.5397 0.0000 9.5161 0.0000
# 2 60.9796 190.1106 48.0301 0.0000 -14.7899 0.0000
# 3 35.5397 48.0301 134.9471 0.0000 -20.5370 0.0000
# 4 0.0000 0.0000 0.0000 51.5932 0.0000 -14.2954
# 5 9.5161 -14.7899 -20.5370 0.0000 17.4455 0.0000
# 6 0.0000 0.0000 0.0000 -14.2954 0.0000 40.3651
#
#
#
# Elastic Compliance Matrix: (Units=1/GPa)
#
#
# Indices 1 2 3 4 5 6 
#
# 1 0.017485 -0.005803 -0.005774 0.000000 -0.021254 0.000000
# 2 -0.005803 0.007839 0.000282 0.000000 0.010143 0.000000
# 3 -0.005774 0.000282 0.011386 0.000000 0.016792 0.000000
# 4 0.000000 0.000000 0.000000 0.021491 0.000000 0.007611
# 5 -0.021254 0.010143 0.016792 0.000000 0.097282 0.000000
# 6 0.000000 0.000000 0.000000 0.007611 0.000000 0.027469
#
#
# Mechanical properties :
#
#
# Convention : Reuss Voigt Hill
#
# Bulk Modulus (GPa) = 70.82288 79.43249 75.12769
# Shear Modulus (GPa) = 23.78118 40.63038 32.20578
#
# Velocity S-wave (km/s) = 3.13341 4.09568 3.64642
# Velocity P-wave (km/s) = 6.50621 7.42701 6.98181
#
# Compressibility (1/GPa) = 0.01411973
#
# Stress axis : x y z
#
# Youngs Moduli (GPa) = 57.19312 127.56062 87.82571
#
# Poissons Ratio (x) = 0.74025 0.50710
# Poissons Ratio (y) = 0.33190 -0.02475
# Poissons Ratio (z) = 0.33023 -0.03594
#
# Static dielectric constant tensor:
#      x y z
#    x 2.005270 0.000000 0.022470 
#    y 0.000000 2.009990 0.000000 
#    z 0.022470 0.000000 1.976560 
# 
# From -- ./inp_files/30358.got.cif
#   From: 2010.05.17/outbox.cif.g08.bks.cpg/sg5_16_cif.got.tgz:30358.got - 2010.06.03 18:56:24.
