data_PCOD9124865
_publ_section_title
;
Structure prediction by ZEFSAII (Michael W. Deem and Ramdas Pophale) SiO2 
 PCOD9124865
Probable space group: C 2
;
_chemical_formula_sum "Si O2"
_cell_formula_units_Z 30
_cell_length_a 14.886823
_cell_length_b 17.427862
_cell_length_c 10.743594
_cell_angle_alpha 90.000000
_cell_angle_beta 30.580829
_cell_angle_gamma 90.000000
_cell_volume 1418.087528
_symmetry_space_group_name_H-M "C 2"
_symmetry_group_IT_number 5
_symmetry_cell_setting 'monoclinic'
loop_
_space_group_symop_operation_xyz
x,y,z
-x,y,-z
1/2+x,1/2+y,z
1/2-x,1/2+y,-z
loop_
_atom_site_type_symbol
_atom_site_label
_atom_site_fract_x
_atom_site_fract_y
_atom_site_fract_z
Si Si1 0.500000 0.373091 0.500000
Si Si2 0.909607 0.748543 0.426726
Si Si3 0.785752 0.490546 0.103084
Si Si4 0.180169 0.244183 0.327338
Si Si5 0.795542 0.492500 0.388874
Si Si6 0.761175 0.647717 0.984201
Si Si7 0.400290 0.363093 0.226387
Si Si8 0.617689 0.651202 0.649659
O O1 0.383507 0.313121 0.561235
O O2 0.637122 0.425267 0.257840
O O3 0.980571 0.800403 0.225926
O O4 0.726788 0.709577 0.605091
O O5 0.054487 0.682900 0.285592
O O6 0.762044 0.502789 0.280626
O O7 0.755713 0.561987 0.047029
O O8 0.995847 0.477638 0.840498
O O9 0.236339 0.198624 0.138181
O O10 0.292978 0.307710 0.261458
O O11 0.150515 0.180146 0.468923
O O12 0.000000 0.283692 0.500000
O O13 0.701040 0.420582 0.563616
O O14 0.713227 0.569205 0.547349
O O15 0.594937 0.653473 0.088739
O O16 0.500000 0.410865 0.000000
#
# Coordination Sequence:
#
# PCOD9124865 Si02
#       8
#     2   4   4   4   4   4   4   4
#     4  12  26  46  68 102 154 182 234 292 374 426
#     4  11  24  43  68 101 138 181 224 297 350 424
#     4  11  23  39  70 102 137 185 236 293 351 420
#     4   9  19  33  60  94 121 157 219 282 332 399
#     4  11  22  40  65 102 141 180 236 299 352 414
#     4  11  20  39  71 100 125 176 241 289 340 409
#     4  11  22  40  64  96 141 179 224 288 364 410
#     4  10  21  38  66  99 129 170 232 287 348 405
#
# _framework density 21.155252999999998
#
# number of rings (size 3 to 8) (size 9 to 14) (size 15 to 20)
#    0.000    1.333    5.333    0.800    0.933    3.200 
#    0.000    1.333    1.467    0.000    0.000    0.000 
#    0.000    0.000    0.000    0.000    0.000    0.000 
#
# Total GULP energy -83523.350873 kJ/mol
# GULP energy per Si atom -5568.223392 kJ/mol
# Density = 2.110710 g / cm^3
# Si number density = 21.155253 Si / 1000 Ang^3
#
#
#
# Elastic Constant Matrix: (Units=GPa)
#
#
# Indices 1 2 3 4 5 6 
#
# 1 48.7403 41.5068 33.9092 0.0003 -19.9587 -0.0009
# 2 41.5068 122.3373 47.2897 -0.0008 -13.8143 0.0010
# 3 33.9092 47.2897 65.7864 -0.0028 -21.2016 0.0034
# 4 0.0003 -0.0008 -0.0028 20.7461 0.0019 4.6672
# 5 -19.9587 -13.8143 -21.2016 0.0019 27.5425 -0.0004
# 6 -0.0009 0.0010 0.0034 4.6672 -0.0004 25.3947
#
#
#
# Elastic Compliance Matrix: (Units=1/GPa)
#
#
# Indices 1 2 3 4 5 6 
#
# 1 0.042101 -0.008470 -0.009508 -0.000005 0.018941 0.000004
# 2 -0.008470 0.013036 -0.006485 0.000000 -0.004591 0.000000
# 3 -0.009508 -0.006485 0.028586 0.000004 0.011863 -0.000004
# 4 -0.000005 0.000000 0.000004 0.050281 -0.000004 -0.009241
# 5 0.018941 -0.004591 0.011863 -0.000004 0.056862 0.000001
# 6 0.000004 0.000000 -0.000004 -0.009241 0.000001 0.041077
#
#
# Mechanical properties :
#
#
# Convention : Reuss Voigt Hill
#
# Bulk Modulus (GPa) = 28.73723 53.58619 41.16171
# Shear Modulus (GPa) = 17.09601 22.34721 19.72161
#
# Velocity S-wave (km/s) = 2.84583 3.25367 3.05656
# Velocity P-wave (km/s) = 4.94083 6.28491 5.65296
#
# Compressibility (1/GPa) = 0.03479807
#
# Stress axis : x y z
#
# Youngs Moduli (GPa) = 23.75261 76.71047 34.98240
#
# Poissons Ratio (x) = 0.64973 0.33260
# Poissons Ratio (y) = 0.20118 0.22685
# Poissons Ratio (z) = 0.22583 0.49744
#
# Static dielectric constant tensor:
#      x y z
#    x 1.789720 0.000000 0.003030 
#    y 0.000000 1.758240 0.000000 
#    z 0.003030 0.000000 1.848800 
# 
# From -- ./inp_files/43294.got.cif
#   From: 2010.05.17/outbox.cif.g08.bks.cpg/sg5_22_cif.got.tgz:43294.got - 2010.06.03 18:56:24.
