data_PCOD9124725
_publ_section_title
;
Structure prediction by ZEFSAII (Michael W. Deem and Ramdas Pophale) SiO2 
 PCOD9124725
Probable space group: C 2
;
_chemical_formula_sum "Si O2"
_cell_formula_units_Z 26
_cell_length_a 23.902531
_cell_length_b 8.572326
_cell_length_c 5.540285
_cell_angle_alpha 90.000000
_cell_angle_beta 75.591826
_cell_angle_gamma 90.000000
_cell_volume 1099.501121
_symmetry_space_group_name_H-M "C 2"
_symmetry_group_IT_number 5
_symmetry_cell_setting 'monoclinic'
loop_
_space_group_symop_operation_xyz
x,y,z
-x,y,-z
1/2+x,1/2+y,z
1/2-x,1/2+y,-z
loop_
_atom_site_type_symbol
_atom_site_label
_atom_site_fract_x
_atom_site_fract_y
_atom_site_fract_z
Si Si1 0.219316 0.456680 0.985207
Si Si2 0.128949 0.672578 0.812168
Si Si3 0.583968 0.439199 0.171589
Si Si4 0.533824 0.963311 0.721802
Si Si5 0.807358 0.127096 0.150164
Si Si6 0.667376 0.451700 0.467609
Si Si7 0.000000 0.161008 0.000000
O O1 0.170611 0.566604 0.928089
O O2 0.195494 0.283204 0.999565
O O3 0.277040 0.440679 0.760919
O O4 0.246457 0.535879 0.192094
O O5 0.092524 0.563104 0.669346
O O6 0.168855 0.800818 0.638820
O O7 0.087146 0.773836 0.033488
O O8 0.602866 0.430538 0.428280
O O9 0.531722 0.547035 0.151625
O O10 0.639733 0.531230 0.014465
O O11 0.500000 0.974386 0.500000
O O12 0.500000 0.022280 0.000000
O O13 0.539231 0.780939 0.798654
O O14 0.824250 0.118516 0.411456
#
# Coordination Sequence:
#
# PCOD9124725 Si02
#       7
#     4   4   4   4   4   4   2
#     4  11  21  39  62  90 134 169 225 280 343 417
#     4  11  24  40  67  97 133 181 226 286 345 414
#     4  10  23  41  62  94 129 173 223 286 336 414
#     4  10  26  48  71 104 139 184 233 288 351 407
#     4  10  21  38  57  89 127 168 218 273 344 405
#     4  10  22  38  61  95 127 174 223 277 349 410
#     4  10  24  42  68  94 132 176 230 288 346 404
#
# _framework density 23.647088
#
# number of rings (size 3 to 8) (size 9 to 14) (size 15 to 20)
#    0.462    1.231    0.000    4.615    3.231    4.923 
#    0.000    0.000    0.000    0.000    0.000    0.000 
#    0.000    0.000    0.000    0.000    0.000    0.000 
#
# Total GULP energy -72440.092911 kJ/mol
# GULP energy per Si atom -5572.314839 kJ/mol
# Density = 2.359327 g / cm^3
# Si number density = 23.647088 Si / 1000 Ang^3
#
#
#
# Elastic Constant Matrix: (Units=GPa)
#
#
# Indices 1 2 3 4 5 6 
#
# 1 75.7643 57.0033 12.8889 0.0000 27.6061 0.0000
# 2 57.0033 132.2705 21.1049 0.0000 27.1065 0.0000
# 3 12.8889 21.1049 55.8864 0.0000 24.3854 0.0000
# 4 0.0000 0.0000 0.0000 15.6500 0.0000 10.5337
# 5 27.6061 27.1065 24.3854 0.0000 39.6741 0.0000
# 6 0.0000 0.0000 0.0000 10.5337 0.0000 48.3378
#
#
#
# Elastic Compliance Matrix: (Units=1/GPa)
#
#
# Indices 1 2 3 4 5 6 
#
# 1 0.023253 -0.007921 0.003180 0.000000 -0.012723 0.000000
# 2 -0.007921 0.011527 -0.002043 0.000000 -0.001108 0.000000
# 3 0.003180 -0.002043 0.024990 0.000000 -0.016177 0.000000
# 4 0.000000 0.000000 0.000000 0.074881 0.000000 -0.016318
# 5 -0.012723 -0.001108 -0.016177 0.000000 0.044759 0.000000
# 6 0.000000 0.000000 0.000000 -0.016318 0.000000 0.024244
#
#
# Mechanical properties :
#
#
# Convention : Reuss Voigt Hill
#
# Bulk Modulus (GPa) = 21.64377 49.54615 35.59496
# Shear Modulus (GPa) = 21.49398 32.26064 26.87731
#
# Velocity S-wave (km/s) = 3.01815 3.69759 3.37501
# Velocity P-wave (km/s) = 4.61718 6.26317 5.50208
#
# Compressibility (1/GPa) = 0.04620268
#
# Stress axis : x y z
#
# Youngs Moduli (GPa) = 43.00429 86.75189 40.01573
#
# Poissons Ratio (x) = 0.68720 -0.12725
# Poissons Ratio (y) = 0.34066 0.08174
# Poissons Ratio (z) = -0.13675 0.17720
#
# Static dielectric constant tensor:
#      x y z
#    x 1.944050 0.000000 0.139440 
#    y 0.000000 1.922700 0.000000 
#    z 0.139440 0.000000 2.331920 
# 
# From -- ./inp_files/10791.got.cif
#   From: 2010.05.17/outbox.cif.g08.bks.cpg/sg5_6_cif.got.tgz:10791.got - 2010.06.03 18:56:24.
