data_PCOD9124867
_publ_section_title
;
Structure prediction by ZEFSAII (Michael W. Deem and Ramdas Pophale) SiO2 
 PCOD9124867
Probable space group: C 2
;
_chemical_formula_sum "Si O2"
_cell_formula_units_Z 22
_cell_length_a 19.264106
_cell_length_b 5.077047
_cell_length_c 9.402754
_cell_angle_alpha 90.000000
_cell_angle_beta 121.088765
_cell_angle_gamma 90.000000
_cell_volume 787.545632
_symmetry_space_group_name_H-M "C 2"
_symmetry_group_IT_number 5
_symmetry_cell_setting 'monoclinic'
loop_
_space_group_symop_operation_xyz
x,y,z
-x,y,-z
1/2+x,1/2+y,z
1/2-x,1/2+y,-z
loop_
_atom_site_type_symbol
_atom_site_label
_atom_site_fract_x
_atom_site_fract_y
_atom_site_fract_z
Si Si1 0.561793 0.940050 0.287214
Si Si2 0.106176 0.914354 0.197645
Si Si3 0.223336 0.571915 0.623759
Si Si4 0.500000 0.660405 0.500000
Si Si5 0.653274 0.697868 0.800296
Si Si6 0.186206 0.491235 0.088475
O O1 0.569766 0.706865 0.179881
O O2 0.519041 0.836512 0.382959
O O3 0.539898 0.221410 0.198083
O O4 0.650334 0.022480 0.439515
O O5 0.138342 0.745956 0.095766
O O6 0.195675 0.952836 0.362605
O O7 0.185334 0.411404 0.719107
O O8 0.265740 0.830764 0.737534
O O9 0.583773 0.530164 0.642924
O O10 0.735203 0.548473 0.923730
O O11 0.627961 0.823309 0.924465
#
# Coordination Sequence:
#
# PCOD9124867 Si02
#       6
#     4   4   4   2   4   4
#     4  11  24  42  65 100 139 187 237 296 359 438
#     4  11  23  40  68 100 139 184 243 298 355 420
#     4  10  21  38  67 105 137 181 234 303 353 408
#     4  10  26  48  68 100 150 192 234 298 376 434
#     4  10  22  42  70 108 145 186 241 294 359 436
#     4  11  21  41  75 107 143 188 246 304 355 421
#
# _framework density 27.934887
#
# number of rings (size 3 to 8) (size 9 to 14) (size 15 to 20)
#    0.000    1.455    3.636    1.091    7.636    0.727 
#    3.273    0.909    4.000    0.000    0.000    0.000 
#    0.000    0.000    0.000    0.000    0.000    0.000 
#
# Total GULP energy -61280.010078 kJ/mol
# GULP energy per Si atom -5570.910007 kJ/mol
# Density = 2.787131 g / cm^3
# Si number density = 27.934887 Si / 1000 Ang^3
#
#
#
# Elastic Constant Matrix: (Units=GPa)
#
#
# Indices 1 2 3 4 5 6 
#
# 1 82.2166 12.8850 26.2250 0.0000 0.4375 0.0000
# 2 12.8850 139.6905 36.6838 0.0000 -7.5855 0.0000
# 3 26.2250 36.6838 145.7910 0.0000 27.8747 0.0000
# 4 0.0000 0.0000 0.0000 21.4579 0.0000 -14.4299
# 5 0.4375 -7.5855 27.8747 0.0000 56.9116 0.0000
# 6 0.0000 0.0000 0.0000 -14.4299 0.0000 23.1716
#
#
#
# Elastic Compliance Matrix: (Units=1/GPa)
#
#
# Indices 1 2 3 4 5 6 
#
# 1 0.013005 -0.000514 -0.002403 0.000000 0.001008 0.000000
# 2 -0.000514 0.007936 -0.002325 0.000000 0.002201 0.000000
# 3 -0.002403 -0.002325 0.008752 0.000000 -0.004578 0.000000
# 4 0.000000 0.000000 0.000000 0.080181 0.000000 0.049932
# 5 0.001008 0.002201 -0.004578 0.000000 0.020099 0.000000
# 6 0.000000 0.000000 0.000000 0.049932 0.000000 0.074251
#
#
# Mechanical properties :
#
#
# Convention : Reuss Voigt Hill
#
# Bulk Modulus (GPa) = 52.05931 57.69841 54.87886
# Shear Modulus (GPa) = 22.61314 39.76852 31.19083
#
# Velocity S-wave (km/s) = 2.84825 3.77718 3.34511
# Velocity P-wave (km/s) = 5.43075 6.30255 5.88283
#
# Compressibility (1/GPa) = 0.01920886
#
# Stress axis : x y z
#
# Youngs Moduli (GPa) = 76.89604 126.00501 114.26348
#
# Poissons Ratio (x) = 0.06474 0.27455
# Poissons Ratio (y) = 0.03951 0.26569
# Poissons Ratio (z) = 0.18477 0.29299
#
# Static dielectric constant tensor:
#      x y z
#    x 2.244390 0.000000 -0.039050 
#    y 0.000000 2.435510 0.000000 
#    z -0.039050 0.000000 2.183500 
# 
# From -- ./inp_files/28402.got.cif
#   From: 2010.05.17/outbox.cif.g08.bks.cpg/sg5_15_cif.got.tgz:28402.got - 2010.06.03 18:56:24.
