data_PCOD9124078
_publ_section_title
;
Structure prediction by ZEFSAII (Michael W. Deem and Ramdas Pophale) SiO2 
 PCOD9124078
Probable space group: C 2
;
_chemical_formula_sum "Si O2"
_cell_formula_units_Z 32
_cell_length_a 24.215021
_cell_length_b 14.883034
_cell_length_c 9.023460
_cell_angle_alpha 90.000000
_cell_angle_beta 26.923478
_cell_angle_gamma 90.000000
_cell_volume 1472.502149
_symmetry_space_group_name_H-M "C 2"
_symmetry_group_IT_number 5
_symmetry_cell_setting 'monoclinic'
loop_
_space_group_symop_operation_xyz
x,y,z
-x,y,-z
1/2+x,1/2+y,z
1/2-x,1/2+y,-z
loop_
_atom_site_type_symbol
_atom_site_label
_atom_site_fract_x
_atom_site_fract_y
_atom_site_fract_z
Si Si1 0.050657 0.606940 0.212456
Si Si2 0.267771 0.371645 0.234016
Si Si3 0.569330 0.717069 0.689232
Si Si4 0.183743 0.845090 0.226778
Si Si5 0.039906 0.772589 0.072916
Si Si6 0.713153 0.540783 0.234033
Si Si7 0.706002 0.066341 0.299624
Si Si8 0.111004 0.223438 0.130746
O O1 0.108819 0.689512 0.984210
O O2 0.000000 0.628812 0.500000
O O3 0.937801 0.580027 0.379134
O O4 0.159706 0.538270 0.980417
O O5 0.160375 0.299092 0.504186
O O6 0.226683 0.474435 0.336409
O O7 0.320369 0.355067 0.940764
O O8 0.370551 0.354777 0.110717
O O9 0.636895 0.628441 0.463037
O O10 0.465231 0.754296 0.827941
O O11 0.500000 0.686127 0.000000
O O12 0.079358 0.781367 0.539227
O O13 0.159099 0.940978 0.363569
O O14 0.312799 0.800532 0.965684
O O15 0.000000 0.761436 0.000000
O O16 0.746994 0.554873 0.981262
O O17 0.789374 0.148704 0.155103
O O18 0.000000 0.187315 0.500000
#
# Coordination Sequence:
#
# PCOD9124078 Si02
#       8
#     4   4   4   4   4   4   4   4
#     4  10  20  41  71  96 127 169 225 281 337 398
#     4  11  24  45  69  98 130 181 229 279 338 403
#     4  12  27  44  66  98 144 185 218 277 349 411
#     4  11  24  42  71  98 132 176 229 285 332 400
#     4  12  26  42  65  96 135 177 224 276 342 405
#     4  10  22  41  68 100 129 171 224 279 338 397
#     4  10  22  40  70 101 127 169 228 284 327 393
#     4  12  23  41  68 100 136 177 232 278 333 403
#
# _framework density 21.731715999999999
#
# number of rings (size 3 to 8) (size 9 to 14) (size 15 to 20)
#    0.000    1.000    5.000    1.125    5.250    1.000 
#    0.000    0.625    0.000    0.000    0.000    0.000 
#    0.000    0.000    0.000    0.000    0.000    0.000 
#
# Total GULP energy -89328.484204 kJ/mol
# GULP energy per Si atom -5583.030263 kJ/mol
# Density = 2.168225 g / cm^3
# Si number density = 21.731716 Si / 1000 Ang^3
#
#
#
# Elastic Constant Matrix: (Units=GPa)
#
#
# Indices 1 2 3 4 5 6 
#
# 1 80.0659 -0.3714 2.6001 0.0000 -20.3402 0.0000
# 2 -0.3714 73.4510 -3.4583 0.0000 -0.8100 0.0000
# 3 2.6001 -3.4583 16.5578 0.0000 -8.8574 0.0000
# 4 0.0000 0.0000 0.0000 6.2455 0.0000 -11.7846
# 5 -20.3402 -0.8100 -8.8574 0.0000 23.6753 0.0000
# 6 0.0000 0.0000 0.0000 -11.7846 0.0000 30.6582
#
#
#
# Elastic Compliance Matrix: (Units=1/GPa)
#
#
# Indices 1 2 3 4 5 6 
#
# 1 0.016499 0.000568 0.006402 0.000000 0.016589 0.000000
# 2 0.000568 0.013840 0.004145 0.000000 0.002512 0.000000
# 3 0.006402 0.004145 0.079104 0.000000 0.035237 0.000000
# 4 0.000000 0.000000 0.000000 0.582852 0.000000 0.224040
# 5 0.016589 0.002512 0.035237 0.000000 0.069759 0.000000
# 6 0.000000 0.000000 0.000000 0.224040 0.000000 0.118735
#
#
# Mechanical properties :
#
#
# Convention : Reuss Voigt Hill
#
# Bulk Modulus (GPa) = 7.59452 18.62394 13.10923
# Shear Modulus (GPa) = 5.54047 23.53609 14.53828
#
# Velocity S-wave (km/s) = 1.59844 3.29451 2.58929
# Velocity P-wave (km/s) = 2.62849 4.80211 3.87100
#
# Compressibility (1/GPa) = 0.13167384
#
# Stress axis : x y z
#
# Youngs Moduli (GPa) = 60.61043 72.25288 12.64154
#
# Poissons Ratio (x) = -0.04102 -0.08093
# Poissons Ratio (y) = -0.03441 -0.05241
# Poissons Ratio (z) = -0.38803 -0.29952
#
# Static dielectric constant tensor:
#      x y z
#    x 1.801650 0.000000 0.001480 
#    y 0.000000 1.804210 0.000000 
#    z 0.001480 0.000000 1.796930 
# 
# From -- ./inp_files/31071.got.cif
#   From: 2010.05.17/outbox.cif.g08.bks.cpg/sg5_16_cif.got.tgz:31071.got - 2010.06.03 18:56:24.
