data_PCOD9124153
_publ_section_title
;
Structure prediction by ZEFSAII (Michael W. Deem and Ramdas Pophale) SiO2 
 PCOD9124153
Probable space group: C 2
;
_chemical_formula_sum "Si O2"
_cell_formula_units_Z 22
_cell_length_a 23.632651
_cell_length_b 5.127968
_cell_length_c 11.560986
_cell_angle_alpha 90.000000
_cell_angle_beta 144.778145
_cell_angle_gamma 90.000000
_cell_volume 808.045254
_symmetry_space_group_name_H-M "C 2"
_symmetry_group_IT_number 5
_symmetry_cell_setting 'monoclinic'
loop_
_space_group_symop_operation_xyz
x,y,z
-x,y,-z
1/2+x,1/2+y,z
1/2-x,1/2+y,-z
loop_
_atom_site_type_symbol
_atom_site_label
_atom_site_fract_x
_atom_site_fract_y
_atom_site_fract_z
Si Si1 0.331893 0.669610 0.304327
Si Si2 0.500000 0.774497 0.000000
Si Si3 0.460536 0.427346 0.707485
Si Si4 0.774416 0.605474 0.466743
Si Si5 0.344412 0.485683 0.076658
Si Si6 0.153717 0.382068 0.097644
O O1 0.421742 0.629677 0.542870
O O2 0.355690 0.492001 0.232886
O O3 0.245834 0.561996 0.241317
O O4 0.268786 0.906507 0.141001
O O5 0.530787 0.587895 0.158212
O O6 0.573713 0.965426 0.055635
O O7 0.380406 0.198549 0.595631
O O8 0.566771 0.328312 0.838188
O O9 0.763752 0.330996 0.510528
O O10 0.696637 0.622037 0.233216
O O11 0.367083 0.772471 0.063294
#
# Coordination Sequence:
#
# PCOD9124153 Si02
#       6
#     4   2   4   4   4   4
#     4  11  23  44  70  97 141 194 239 315 368 451
#     4  10  20  42  66 106 136 178 244 300 380 456
#     4  10  24  42  72 105 144 185 248 316 369 466
#     4  11  24  43  69 105 148 192 242 304 384 458
#     4  11  23  45  69 102 141 190 255 303 382 445
#     4  10  23  38  68  98 139 181 236 298 370 445
#
# _framework density 27.226196999999999
#
# number of rings (size 3 to 8) (size 9 to 14) (size 15 to 20)
#    0.000    1.455    3.636    0.545    5.091    1.455 
#    0.000    0.909    0.000    0.000    0.000    0.000 
#    0.000    0.000    0.000    0.000    0.000    0.000 
#
# Total GULP energy -61434.631708 kJ/mol
# GULP energy per Si atom -5584.966519 kJ/mol
# Density = 2.716423 g / cm^3
# Si number density = 27.226197 Si / 1000 Ang^3
#
#
#
# Elastic Constant Matrix: (Units=GPa)
#
#
# Indices 1 2 3 4 5 6 
#
# 1 198.6381 35.5146 38.1527 0.0000 -4.0423 0.0000
# 2 35.5146 80.5826 14.4616 0.0002 -8.5329 0.0000
# 3 38.1527 14.4616 128.5038 0.0000 -18.9446 0.0000
# 4 0.0000 0.0002 0.0000 27.6141 0.0000 0.6537
# 5 -4.0423 -8.5329 -18.9446 0.0000 69.2321 0.0000
# 6 0.0000 0.0000 0.0000 0.6537 0.0000 41.6067
#
#
#
# Elastic Compliance Matrix: (Units=1/GPa)
#
#
# Indices 1 2 3 4 5 6 
#
# 1 0.005724 -0.002292 -0.001494 0.000000 -0.000357 0.000000
# 2 -0.002292 0.013683 -0.000657 0.000000 0.001373 0.000000
# 3 -0.001494 -0.000657 0.008622 0.000000 0.002191 0.000000
# 4 0.000000 0.000000 0.000000 0.036227 0.000000 -0.000569
# 5 -0.000357 0.001373 0.002191 0.000000 0.015192 0.000000
# 6 0.000000 0.000000 0.000000 -0.000569 0.000000 0.024044
#
#
# Mechanical properties :
#
#
# Convention : Reuss Voigt Hill
#
# Bulk Modulus (GPa) = 52.23885 64.88693 58.56289
# Shear Modulus (GPa) = 42.10189 48.99695 45.54942
#
# Velocity S-wave (km/s) = 3.93666 4.24680 4.09467
# Velocity P-wave (km/s) = 6.31599 6.92325 6.62658
#
# Compressibility (1/GPa) = 0.01914284
#
# Stress axis : x y z
#
# Youngs Moduli (GPa) = 174.70829 73.08247 115.97658
#
# Poissons Ratio (x) = 0.16753 0.17328
# Poissons Ratio (y) = 0.40049 0.07618
# Poissons Ratio (z) = 0.26103 0.04801
#
# Static dielectric constant tensor:
#      x y z
#    x 2.127980 0.000000 0.055910 
#    y 0.000000 2.241860 0.000000 
#    z 0.055910 0.000000 2.371780 
# 
# From -- ./inp_files/41095.got.cif
#   From: 2010.05.17/outbox.cif.g08.bks.cpg/sg5_21_cif.got.tgz:41095.got - 2010.06.03 18:56:24.
