data_PCOD9124045
_publ_section_title
;
Structure prediction by ZEFSAII (Michael W. Deem and Ramdas Pophale) SiO2 
 PCOD9124045
Probable space group: C 2
;
_chemical_formula_sum "Si O2"
_cell_formula_units_Z 22
_cell_length_a 14.381313
_cell_length_b 11.212478
_cell_length_c 10.993966
_cell_angle_alpha 90.000000
_cell_angle_beta 28.599831
_cell_angle_gamma 90.000000
_cell_volume 848.610152
_symmetry_space_group_name_H-M "C 2"
_symmetry_group_IT_number 5
_symmetry_cell_setting 'monoclinic'
loop_
_space_group_symop_operation_xyz
x,y,z
-x,y,-z
1/2+x,1/2+y,z
1/2-x,1/2+y,-z
loop_
_atom_site_type_symbol
_atom_site_label
_atom_site_fract_x
_atom_site_fract_y
_atom_site_fract_z
Si Si1 0.800328 0.780980 0.481709
Si Si2 0.500000 0.513155 0.000000
Si Si3 0.597723 0.107339 0.006871
Si Si4 0.890951 0.923109 0.753521
Si Si5 0.777037 0.685738 0.773286
Si Si6 0.670285 0.821482 0.391377
O O1 0.734830 0.745489 0.690416
O O2 0.631184 0.792798 0.576935
O O3 0.940292 0.896426 0.343025
O O4 0.935193 0.676234 0.270567
O O5 0.395982 0.592784 0.015798
O O6 0.325084 0.425458 0.230108
O O7 0.731093 0.209417 0.791035
O O8 0.724876 0.022313 0.946801
O O9 0.500000 0.044390 0.000000
O O10 0.795705 0.792280 0.847077
O O11 0.000000 0.948647 0.500000
O O12 0.000000 0.638394 0.500000
O O13 0.500000 0.859687 0.500000
#
# Coordination Sequence:
#
# PCOD9124045 Si02
#       6
#     4   2   4   4   4   4
#     4   9  20  44  62  98 127 168 222 262 321 392
#     4  12  22  44  64  90 134 176 208 278 322 384
#     4  10  20  41  67  97 133 169 218 265 326 386
#     4   9  20  41  68  92 131 169 212 269 325 387
#     4   9  22  43  64  96 132 163 217 270 327 384
#     4  11  23  44  66  93 133 175 218 269 322 384
#
# _framework density 25.924742999999999
#
# number of rings (size 3 to 8) (size 9 to 14) (size 15 to 20)
#    0.000    2.545    2.727    1.091    1.273    2.909 
#   26.182    0.000    0.000    0.000    0.000    0.000 
#    0.000    0.000    0.000    0.000    0.000    0.000 
#
# Total GULP energy -61475.004371 kJ/mol
# GULP energy per Si atom -5588.636761 kJ/mol
# Density = 2.586574 g / cm^3
# Si number density = 25.924743 Si / 1000 Ang^3
#
#
#
# Elastic Constant Matrix: (Units=GPa)
#
#
# Indices 1 2 3 4 5 6 
#
# 1 212.8779 28.6302 33.9147 -0.0003 -21.9836 0.0002
# 2 28.6302 84.1312 22.2906 -0.0005 -20.7144 0.0003
# 3 33.9147 22.2906 68.3124 -0.0005 -31.6467 0.0005
# 4 -0.0003 -0.0005 -0.0005 36.5863 0.0003 -2.8643
# 5 -21.9836 -20.7144 -31.6467 0.0003 35.1349 -0.0003
# 6 0.0002 0.0003 0.0005 -2.8643 -0.0003 18.7099
#
#
#
# Elastic Compliance Matrix: (Units=1/GPa)
#
#
# Indices 1 2 3 4 5 6 
#
# 1 0.005229 -0.001051 -0.001758 0.000000 0.001069 0.000000
# 2 -0.001051 0.014180 -0.000922 0.000000 0.006873 0.000000
# 3 -0.001758 -0.000922 0.025828 0.000000 0.021621 0.000000
# 4 0.000000 0.000000 0.000000 0.027664 0.000000 0.004235
# 5 0.001069 0.006873 0.021621 0.000000 0.052657 0.000000
# 6 0.000000 0.000000 0.000000 0.004235 0.000000 0.054096
#
#
# Mechanical properties :
#
#
# Convention : Reuss Voigt Hill
#
# Bulk Modulus (GPa) = 26.47098 59.44359 42.95729
# Shear Modulus (GPa) = 25.03659 36.78527 30.91093
#
# Velocity S-wave (km/s) = 3.11101 3.77095 3.45676
# Velocity P-wave (km/s) = 4.81013 6.47604 5.70423
#
# Compressibility (1/GPa) = 0.03777721
#
# Stress axis : x y z
#
# Youngs Moduli (GPa) = 191.22987 70.52164 38.71716
#
# Poissons Ratio (x) = 0.07409 0.06807
# Poissons Ratio (y) = 0.20089 0.03568
# Poissons Ratio (z) = 0.33621 0.06499
#
# Static dielectric constant tensor:
#      x y z
#    x 2.059580 0.000000 -0.013240 
#    y 0.000000 2.120240 0.000000 
#    z -0.013240 0.000000 2.060480 
# 
# From -- ./inp_files/42644.got.cif
#   From: 2010.05.17/outbox.cif.g08.bks.cpg/sg5_22_cif.got.tgz:42644.got - 2010.06.03 18:56:24.
