data_PCOD9124098
_publ_section_title
;
Structure prediction by ZEFSAII (Michael W. Deem and Ramdas Pophale) SiO2 
 PCOD9124098
Probable space group: C 2
;
_chemical_formula_sum "Si O2"
_cell_formula_units_Z 20
_cell_length_a 12.665095
_cell_length_b 8.653089
_cell_length_c 7.421024
_cell_angle_alpha 90.000000
_cell_angle_beta 104.293346
_cell_angle_gamma 90.000000
_cell_volume 788.110546
_symmetry_space_group_name_H-M "C 2"
_symmetry_group_IT_number 5
_symmetry_cell_setting 'monoclinic'
loop_
_space_group_symop_operation_xyz
x,y,z
-x,y,-z
1/2+x,1/2+y,z
1/2-x,1/2+y,-z
loop_
_atom_site_type_symbol
_atom_site_label
_atom_site_fract_x
_atom_site_fract_y
_atom_site_fract_z
Si Si1 0.117689 0.836140 0.348589
Si Si2 0.176167 0.150084 0.541564
Si Si3 0.597018 0.819420 0.160975
Si Si4 0.781432 0.365842 0.123902
Si Si5 0.528936 0.082823 0.714820
O O1 0.197257 0.694025 0.440742
O O2 0.165957 0.883534 0.173263
O O3 0.998859 0.763591 0.284916
O O4 0.143253 0.974225 0.496249
O O5 0.113758 0.237157 0.356113
O O6 0.161244 0.230453 0.729637
O O7 0.553443 0.989986 0.190515
O O8 0.500000 0.747779 0.000000
O O9 0.702414 0.828130 0.077633
O O10 0.852600 0.519655 0.186804
O O11 0.500000 0.034857 0.500000
#
# Coordination Sequence:
#
# PCOD9124098 Si02
#       5
#     4   4   4   4   4
#     4  10  22  40  70  97 134 186 223 283 354 403
#     4  10  20  42  61  95 137 173 227 278 341 408
#     4  10  21  38  67  91 137 184 218 287 347 394
#     4   9  22  39  67  94 137 176 222 289 334 404
#     4  11  19  41  67  96 131 177 229 273 345 407
#
# _framework density 25.377148999999999
#
# number of rings (size 3 to 8) (size 9 to 14) (size 15 to 20)
#    1.200    0.800    2.000    2.400    0.000    1.600 
#    7.200    5.000    0.000    0.000    0.000    0.000 
#    0.000    0.000    0.000    0.000    0.000    0.000 
#
# Total GULP energy -55853.664152 kJ/mol
# GULP energy per Si atom -5585.366415 kJ/mol
# Density = 2.531939 g / cm^3
# Si number density = 25.377149 Si / 1000 Ang^3
#
#
#
# Elastic Constant Matrix: (Units=GPa)
#
#
# Indices 1 2 3 4 5 6 
#
# 1 44.7140 50.4534 11.9047 0.0000 -10.3783 0.0000
# 2 50.4534 125.3932 21.6076 0.0000 -10.7325 0.0000
# 3 11.9047 21.6076 109.4412 0.0000 -30.0239 0.0000
# 4 0.0000 0.0000 0.0000 2.6171 0.0000 -4.8748
# 5 -10.3783 -10.7325 -30.0239 0.0000 38.3304 0.0000
# 6 0.0000 0.0000 0.0000 -4.8748 0.0000 46.8571
#
#
#
# Elastic Compliance Matrix: (Units=1/GPa)
#
#
# Indices 1 2 3 4 5 6 
#
# 1 0.042716 -0.016669 0.000684 0.000000 0.007434 0.000000
# 2 -0.016669 0.014813 -0.001543 0.000000 -0.001575 0.000000
# 3 0.000684 -0.001543 0.011845 0.000000 0.009031 0.000000
# 4 0.000000 0.000000 0.000000 0.473941 0.000000 0.049307
# 5 0.007434 -0.001575 0.009031 0.000000 0.034735 0.000000
# 6 0.000000 0.000000 0.000000 0.049307 0.000000 0.026471
#
#
# Mechanical properties :
#
#
# Convention : Reuss Voigt Hill
#
# Bulk Modulus (GPa) = 29.13920 49.71996 39.42958
# Shear Modulus (GPa) = 7.68028 30.59978 19.14003
#
# Velocity S-wave (km/s) = 1.74156 3.47623 2.74929
# Velocity P-wave (km/s) = 3.94353 5.97890 5.06451
#
# Compressibility (1/GPa) = 0.03431803
#
# Stress axis : x y z
#
# Youngs Moduli (GPa) = 23.41026 67.50811 84.42166
#
# Poissons Ratio (x) = 1.12529 -0.05775
# Poissons Ratio (y) = 0.39022 0.13029
# Poissons Ratio (z) = -0.01601 0.10419
#
# Static dielectric constant tensor:
#      x y z
#    x 2.093570 0.000000 0.008320 
#    y 0.000000 2.049260 0.000000 
#    z 0.008320 0.000000 2.011430 
# 
# From -- ./inp_files/22539.got.cif
#   From: 2010.05.17/outbox.cif.g08.bks.cpg/sg5_12_cif.got.tgz:22539.got - 2010.06.03 18:56:24.
