data_PCOD9124430
_publ_section_title
;
Structure prediction by ZEFSAII (Michael W. Deem and Ramdas Pophale) SiO2 
 PCOD9124430
Probable space group: C 2
;
_chemical_formula_sum "Si O2"
_cell_formula_units_Z 28
_cell_length_a 21.537900
_cell_length_b 10.659982
_cell_length_c 5.255609
_cell_angle_alpha 90.000000
_cell_angle_beta 90.262868
_cell_angle_gamma 90.000000
_cell_volume 1206.641629
_symmetry_space_group_name_H-M "C 2"
_symmetry_group_IT_number 5
_symmetry_cell_setting 'monoclinic'
loop_
_space_group_symop_operation_xyz
x,y,z
-x,y,-z
1/2+x,1/2+y,z
1/2-x,1/2+y,-z
loop_
_atom_site_type_symbol
_atom_site_label
_atom_site_fract_x
_atom_site_fract_y
_atom_site_fract_z
Si Si1 0.788577 0.169980 0.106573
Si Si2 0.337027 0.217462 0.154458
Si Si3 0.250882 0.854712 0.481779
Si Si4 0.037893 0.106150 0.242337
Si Si5 0.376982 0.991690 0.473416
Si Si6 0.394639 0.851565 0.960267
Si Si7 0.854895 0.943382 0.886218
O O1 0.718703 0.146705 0.999568
O O2 0.825943 0.285000 0.967654
O O3 0.833568 0.052216 0.081639
O O4 0.780573 0.222867 0.389461
O O5 0.296375 0.319780 0.302375
O O6 0.373258 0.128039 0.347082
O O7 0.378785 0.308605 0.984413
O O8 0.305593 0.951420 0.516547
O O9 0.207975 0.907498 0.258172
O O10 0.062622 0.239489 0.139040
O O11 0.000000 0.120919 0.500000
O O12 0.095372 0.013083 0.287474
O O13 0.000000 0.052840 0.000000
O O14 0.403474 0.962223 0.752943
O O15 0.403796 0.902275 0.247673
#
# Coordination Sequence:
#
# PCOD9124430 Si02
#       7
#     4   4   4   4   4   4   4
#     4   9  19  34  52  86 130 174 206 253 306 381
#     4  11  22  32  56  90 135 179 208 245 319 403
#     4  10  21  31  55  88 132 176 212 245 308 394
#     4  11  25  47  75  97 118 164 227 293 341 369
#     4  11  22  37  60  93 136 174 206 248 316 403
#     4  10  22  41  62  93 123 160 215 274 319 373
#     4  10  23  38  58  91 136 169 218 272 319 386
#
# _framework density 23.204903000000002
#
# number of rings (size 3 to 8) (size 9 to 14) (size 15 to 20)
#    0.000    1.714    2.857    0.857    8.000    0.000 
#    0.000    0.000    0.000    3.429    0.000    0.000 
#    0.000    0.000    0.000    0.000    0.000    0.000 
#
# Total GULP energy -78149.572481 kJ/mol
# GULP energy per Si atom -5582.112320 kJ/mol
# Density = 2.315209 g / cm^3
# Si number density = 23.204903 Si / 1000 Ang^3
#
#
#
# Elastic Constant Matrix: (Units=GPa)
#
#
# Indices 1 2 3 4 5 6 
#
# 1 39.5086 14.9473 11.3063 0.0000 -23.4134 0.0000
# 2 14.9473 76.0585 13.1203 0.0000 -19.6549 0.0000
# 3 11.3063 13.1203 85.8736 0.0000 -19.6881 0.0000
# 4 0.0000 0.0000 0.0000 28.7280 0.0000 3.0007
# 5 -23.4134 -19.6549 -19.6881 0.0000 29.9513 0.0000
# 6 0.0000 0.0000 0.0000 3.0007 0.0000 6.3977
#
#
#
# Elastic Compliance Matrix: (Units=1/GPa)
#
#
# Indices 1 2 3 4 5 6 
#
# 1 0.047677 0.000306 0.002669 0.000000 0.039225 0.000000
# 2 0.000306 0.015835 -0.000026 0.000000 0.010613 0.000000
# 3 0.002669 -0.000026 0.013861 0.000000 0.011180 0.000000
# 4 0.000000 0.000000 0.000000 0.036602 0.000000 -0.017168
# 5 0.039225 0.010613 0.011180 0.000000 0.078364 0.000000
# 6 0.000000 0.000000 0.000000 -0.017168 0.000000 0.164359
#
#
# Mechanical properties :
#
#
# Convention : Reuss Voigt Hill
#
# Bulk Modulus (GPa) = 12.00905 31.13204 21.57054
# Shear Modulus (GPa) = 13.20805 23.81986 18.51396
#
# Velocity S-wave (km/s) = 2.38836 3.20738 2.82768
# Velocity P-wave (km/s) = 3.57661 5.21169 4.46955
#
# Compressibility (1/GPa) = 0.08327055
#
# Stress axis : x y z
#
# Youngs Moduli (GPa) = 20.97466 63.15203 72.14516
#
# Poissons Ratio (x) = -0.01935 -0.19256
# Poissons Ratio (y) = -0.00643 0.00190
# Poissons Ratio (z) = -0.05598 0.00166
#
# Static dielectric constant tensor:
#      x y z
#    x 1.892680 0.000000 -0.004990 
#    y 0.000000 1.913400 0.000000 
#    z -0.004990 0.000000 1.974980 
# 
# From -- ./inp_files/9453.got.cif
#   From: 2010.05.17/outbox.cif.g08.bks.cpg/sg5_5_cif.got.tgz:9453.got - 2010.06.03 18:56:24.
