data_PCOD9124363
_publ_section_title
;
Structure prediction by ZEFSAII (Michael W. Deem and Ramdas Pophale) SiO2 
 PCOD9124363
Probable space group: C 2
;
_chemical_formula_sum "Si O2"
_cell_formula_units_Z 26
_cell_length_a 17.569431
_cell_length_b 11.752458
_cell_length_c 7.025206
_cell_angle_alpha 90.000000
_cell_angle_beta 123.200080
_cell_angle_gamma 90.000000
_cell_volume 1213.803041
_symmetry_space_group_name_H-M "C 2"
_symmetry_group_IT_number 5
_symmetry_cell_setting 'monoclinic'
loop_
_space_group_symop_operation_xyz
x,y,z
-x,y,-z
1/2+x,1/2+y,z
1/2-x,1/2+y,-z
loop_
_atom_site_type_symbol
_atom_site_label
_atom_site_fract_x
_atom_site_fract_y
_atom_site_fract_z
Si Si1 0.893107 0.452100 0.893917
Si Si2 0.864529 0.656699 0.578084
Si Si3 0.337276 0.475840 0.886065
Si Si4 0.896823 0.206978 0.789623
Si Si5 0.000000 0.808153 0.000000
Si Si6 0.275432 0.770343 0.339266
Si Si7 0.295205 0.099394 0.066796
O O1 0.862290 0.536557 0.684025
O O2 0.860918 0.321195 0.847416
O O3 0.861664 0.516399 0.040665
O O4 0.000000 0.444827 0.000000
O O5 0.783245 0.727664 0.561234
O O6 0.844705 0.639761 0.328339
O O7 0.953424 0.726700 0.776034
O O8 0.355190 0.583585 0.776099
O O9 0.249575 0.400539 0.716183
O O10 0.301082 0.534917 0.028089
O O11 0.422920 0.390433 0.987042
O O12 0.877151 0.238976 0.542045
O O13 0.000000 0.195061 0.000000
O O14 0.233671 0.705318 0.102928
#
# Coordination Sequence:
#
# PCOD9124363 Si02
#       7
#     4   4   4   4   2   4   4
#     4  10  23  43  68 101 137 181 233 294 352 411
#     4  10  20  44  72 101 138 180 232 292 352 414
#     4  11  23  44  70 104 138 185 236 289 353 423
#     4  11  23  45  73  94 141 188 224 293 364 412
#     4  10  22  44  74 104 148 182 234 300 356 410
#     4  10  24  43  67 101 139 183 235 288 355 420
#     4  11  24  42  75 102 134 188 243 283 352 433
#
# _framework density 21.420280000000002
#
# number of rings (size 3 to 8) (size 9 to 14) (size 15 to 20)
#    0.000    1.538    3.077    0.923    4.308    0.615 
#    2.769    2.308    0.000    0.000    0.000    0.000 
#    0.000    0.000    0.000    0.000    0.000    0.000 
#
# Total GULP energy -72437.328042 kJ/mol
# GULP energy per Si atom -5572.102157 kJ/mol
# Density = 2.137153 g / cm^3
# Si number density = 21.420280 Si / 1000 Ang^3
#
#
#
# Elastic Constant Matrix: (Units=GPa)
#
#
# Indices 1 2 3 4 5 6 
#
# 1 65.6130 25.9180 40.6908 0.0000 -1.3992 0.0000
# 2 25.9180 154.5297 60.5828 0.0000 -4.6890 0.0000
# 3 40.6908 60.5828 155.0440 0.0000 -5.4537 0.0000
# 4 0.0000 0.0000 0.0000 67.2453 0.0000 -42.6157
# 5 -1.3992 -4.6890 -5.4537 0.0000 26.3997 0.0000
# 6 0.0000 0.0000 0.0000 -42.6157 0.0000 83.1696
#
#
#
# Elastic Compliance Matrix: (Units=1/GPa)
#
#
# Indices 1 2 3 4 5 6 
#
# 1 0.018462 -0.001417 -0.004297 0.000000 -0.000161 0.000000
# 2 -0.001417 0.007765 -0.002636 0.000000 0.000760 0.000000
# 3 -0.004297 -0.002636 0.008646 0.000000 0.001090 0.000000
# 4 0.000000 0.000000 0.000000 0.022022 0.000000 0.011284
# 5 -0.000161 0.000760 0.001090 0.000000 0.038231 0.000000
# 6 0.000000 0.000000 0.000000 0.011284 0.000000 0.017805
#
#
# Mechanical properties :
#
#
# Convention : Reuss Voigt Hill
#
# Bulk Modulus (GPa) = 55.02458 69.95223 62.48840
# Shear Modulus (GPa) = 36.84899 51.89592 44.37246
#
# Velocity S-wave (km/s) = 4.15213 4.92748 4.55633
# Velocity P-wave (km/s) = 6.98074 8.06854 7.54427
#
# Compressibility (1/GPa) = 0.01817370
#
# Stress axis : x y z
#
# Youngs Moduli (GPa) = 54.16486 128.77934 115.66197
#
# Poissons Ratio (x) = 0.18243 0.49705
# Poissons Ratio (y) = 0.07673 0.30485
# Poissons Ratio (z) = 0.23277 0.33943
#
# Static dielectric constant tensor:
#      x y z
#    x 1.566770 0.000000 0.192620 
#    y 0.000000 1.810770 0.000000 
#    z 0.192620 0.000000 1.805210 
# 
# From -- ./inp_files/9625.got.cif
#   From: 2010.05.17/outbox.cif.g08.bks.cpg/sg5_5_cif.got.tgz:9625.got - 2010.06.03 18:56:24.
