data_PCOD9124492
_publ_section_title
;
Structure prediction by ZEFSAII (Michael W. Deem and Ramdas Pophale) SiO2 
 PCOD9124492
Probable space group: C 2
;
_chemical_formula_sum "Si O2"
_cell_formula_units_Z 30
_cell_length_a 17.792852
_cell_length_b 7.890042
_cell_length_c 12.368331
_cell_angle_alpha 90.000000
_cell_angle_beta 58.127864
_cell_angle_gamma 90.000000
_cell_volume 1474.553656
_symmetry_space_group_name_H-M "C 2"
_symmetry_group_IT_number 5
_symmetry_cell_setting 'monoclinic'
loop_
_space_group_symop_operation_xyz
x,y,z
-x,y,-z
1/2+x,1/2+y,z
1/2-x,1/2+y,-z
loop_
_atom_site_type_symbol
_atom_site_label
_atom_site_fract_x
_atom_site_fract_y
_atom_site_fract_z
Si Si1 0.211677 0.392170 0.613578
Si Si2 0.913502 0.217292 0.114260
Si Si3 0.576299 0.332871 0.860260
Si Si4 0.119058 0.682147 0.594511
Si Si5 0.000000 0.832161 0.500000
Si Si6 0.752790 0.725901 0.899765
Si Si7 0.261644 0.847658 0.847796
Si Si8 0.831157 0.031670 0.698733
O O1 0.146244 0.299987 0.747343
O O2 0.149751 0.488114 0.576520
O O3 0.289252 0.279397 0.504051
O O4 0.267815 0.526713 0.642029
O O5 0.848301 0.200745 0.061336
O O6 0.942578 0.034060 0.138094
O O7 0.000000 0.307590 0.000000
O O8 0.583107 0.241150 0.739444
O O9 0.672551 0.330834 0.844060
O O10 0.500000 0.266707 0.000000
O O11 0.047633 0.723688 0.557095
O O12 0.074499 0.954853 0.397118
O O13 0.792575 0.542603 0.836647
O O14 0.788912 0.889922 0.810048
O O15 0.761114 0.770254 0.018086
O O16 0.332117 0.719147 0.744478
#
# Coordination Sequence:
#
# PCOD9124492 Si02
#       8
#     4   4   4   4   2   4   4   4
#     4  10  21  40  66  87 123 176 216 260 322 401
#     4   9  20  39  60  95 127 163 210 273 322 380
#     4  10  22  37  65  95 124 161 216 269 325 386
#     4  11  22  42  67  92 127 171 220 265 326 395
#     4  10  26  42  66  92 134 168 210 286 326 370
#     4  10  21  35  64  93 132 165 211 266 321 396
#     4  11  20  38  63  94 124 174 212 257 332 391
#     4  10  21  43  61  92 128 171 214 260 327 385
#
# _framework density 20.345137999999999
#
# number of rings (size 3 to 8) (size 9 to 14) (size 15 to 20)
#    0.000    1.867    2.667    0.800    1.867    2.667 
#    2.400    0.667    0.000    0.000    0.000    0.000 
#    0.000    0.000    0.000    0.000    0.000    0.000 
#
# Total GULP energy -83669.906878 kJ/mol
# GULP energy per Si atom -5577.993792 kJ/mol
# Density = 2.029883 g / cm^3
# Si number density = 20.345138 Si / 1000 Ang^3
#
#
#
# Elastic Constant Matrix: (Units=GPa)
#
#
# Indices 1 2 3 4 5 6 
#
# 1 82.1651 24.7478 41.2031 0.0000 5.9615 0.0000
# 2 24.7478 58.0951 3.2518 0.0000 9.8279 0.0000
# 3 41.2031 3.2518 88.7180 0.0000 -2.0667 0.0000
# 4 0.0000 0.0000 0.0000 -9.8777 0.0000 0.4815
# 5 5.9615 9.8279 -2.0667 0.0000 32.6271 0.0000
# 6 0.0000 0.0000 0.0000 0.4815 0.0000 27.2464
#
#
#
# Elastic Compliance Matrix: (Units=1/GPa)
#
#
# Indices 1 2 3 4 5 6 
#
# 1 0.018715 -0.007196 -0.008470 0.000000 -0.001789 0.000000
# 2 -0.007196 0.020960 0.002461 0.000000 -0.004843 0.000000
# 3 -0.008470 0.002461 0.015156 0.000000 0.001766 0.000000
# 4 0.000000 0.000000 0.000000 -0.101151 0.000000 0.001788
# 5 -0.001789 -0.004843 0.001766 0.000000 0.032547 0.000000
# 6 0.000000 0.000000 0.000000 0.001788 0.000000 0.036670
#
#
# Mechanical properties :
#
#
# Convention : Reuss Voigt Hill
#
# Bulk Modulus (GPa) = 35.18404 40.82042 38.00223
# Shear Modulus (GPa) = 85.06223 20.65085 52.85654
#
# Velocity S-wave (km/s) = 6.47305 3.18940 5.10258
# Velocity P-wave (km/s) = 8.55560 5.80264 7.30989
#
# Compressibility (1/GPa) = 0.02842198
#
# Stress axis : x y z
#
# Youngs Moduli (GPa) = 53.43317 47.71001 65.97967
#
# Poissons Ratio (x) = 0.34331 0.55883
# Poissons Ratio (y) = 0.38449 -0.16236
# Poissons Ratio (z) = 0.45256 -0.11741
#
# Static dielectric constant tensor:
#      x y z
#    x 1.707950 0.000000 0.045460 
#    y 0.000000 1.757560 0.000000 
#    z 0.045460 0.000000 1.684130 
# 
# From -- ./inp_files/44313.got.cif
#   From: 2010.05.17/outbox.cif.g08.bks.cpg/sg5_23_cif.got.tgz:44313.got - 2010.06.03 18:56:24.
