data_PCOD9124509
_publ_section_title
;
Structure prediction by ZEFSAII (Michael W. Deem and Ramdas Pophale) SiO2 
 PCOD9124509
Probable space group: C 2
;
_chemical_formula_sum "Si O2"
_cell_formula_units_Z 20
_cell_length_a 11.485899
_cell_length_b 8.987114
_cell_length_c 21.875975
_cell_angle_alpha 90.000000
_cell_angle_beta 154.645874
_cell_angle_gamma 90.000000
_cell_volume 966.966059
_symmetry_space_group_name_H-M "C 2"
_symmetry_group_IT_number 5
_symmetry_cell_setting 'monoclinic'
loop_
_space_group_symop_operation_xyz
x,y,z
-x,y,-z
1/2+x,1/2+y,z
1/2-x,1/2+y,-z
loop_
_atom_site_type_symbol
_atom_site_label
_atom_site_fract_x
_atom_site_fract_y
_atom_site_fract_z
Si Si1 0.979559 0.866620 0.564504
Si Si2 0.994054 0.222751 0.169813
Si Si3 0.068762 0.412379 0.738621
Si Si4 0.250727 0.657197 0.340212
Si Si5 0.432177 0.394051 0.109195
O O1 0.180526 0.743036 0.686277
O O2 0.000000 0.851561 0.500000
O O3 0.656773 0.865954 0.419905
O O4 0.115597 0.028678 0.639951
O O5 0.933702 0.295004 0.207084
O O6 0.836532 0.317954 0.044387
O O7 0.893873 0.054625 0.120631
O O8 0.363534 0.422789 0.850271
O O9 0.955650 0.564625 0.714427
O O10 0.500000 0.714113 0.500000
O O11 0.087992 0.781488 0.227613
#
# Coordination Sequence:
#
# PCOD9124509 Si02
#       5
#     4   4   4   4   4
#     4   7  15  35  56  77 111 140 171 228 272 312
#     4  10  21  36  55  85 115 141 185 230 268 328
#     4   9  20  40  60  79 111 148 180 225 279 326
#     4   8  18  37  57  84 114 138 183 235 268 324
#     4  12  22  36  60  81 110 153 182 222 282 322
#
# _framework density 20.683250000000001
#
# number of rings (size 3 to 8) (size 9 to 14) (size 15 to 20)
#    0.000    3.600    0.000    3.000    0.000    5.600 
#    0.000    8.000    0.000    0.000    0.000    0.000 
#    0.000    0.000    0.000    0.000    0.000    0.000 
#
# Total GULP energy -55758.659774 kJ/mol
# GULP energy per Si atom -5575.865977 kJ/mol
# Density = 2.063617 g / cm^3
# Si number density = 20.683250 Si / 1000 Ang^3
#
#
#
# Elastic Constant Matrix: (Units=GPa)
#
#
# Indices 1 2 3 4 5 6 
#
# 1 36.9993 11.4818 4.8822 0.0021 -2.6682 0.0005
# 2 11.4818 113.6137 65.9623 0.0023 -25.7857 0.0008
# 3 4.8822 65.9623 106.3430 0.0124 -17.4636 0.0019
# 4 0.0021 0.0023 0.0124 37.3808 0.0018 -17.1682
# 5 -2.6682 -25.7857 -17.4636 0.0018 17.3447 -0.0002
# 6 0.0005 0.0008 0.0019 -17.1682 -0.0002 11.4207
#
#
#
# Elastic Compliance Matrix: (Units=1/GPa)
#
#
# Indices 1 2 3 4 5 6 
#
# 1 0.027940 -0.003185 0.000744 -0.000007 0.000313 -0.000011
# 2 -0.003185 0.017829 -0.007956 0.000004 0.018006 0.000006
# 3 0.000744 -0.007956 0.014833 -0.000018 0.003222 -0.000029
# 4 -0.000007 0.000004 -0.000018 0.086410 -0.000021 0.129896
# 5 0.000313 0.018006 0.003222 -0.000021 0.087715 -0.000032
# 6 -0.000011 0.000006 -0.000029 0.129896 -0.000032 0.282827
#
#
# Mechanical properties :
#
#
# Convention : Reuss Voigt Hill
#
# Bulk Modulus (GPa) = 25.11956 46.84540 35.98248
# Shear Modulus (GPa) = 9.06426 24.87122 16.96774
#
# Velocity S-wave (km/s) = 2.09569 3.47144 2.86730
# Velocity P-wave (km/s) = 4.24584 6.22624 5.32884
#
# Compressibility (1/GPa) = 0.03980961
#
# Stress axis : x y z
#
# Youngs Moduli (GPa) = 35.79072 56.08752 67.41547
#
# Poissons Ratio (x) = 0.17861 -0.05015
# Poissons Ratio (y) = 0.11398 0.53636
# Poissons Ratio (z) = -0.02663 0.44623
#
# Static dielectric constant tensor:
#      x y z
#    x 1.771780 0.000000 0.028040 
#    y 0.000000 1.741280 0.000000 
#    z 0.028040 0.000000 1.790810 
# 
# From -- ./inp_files/41607.got.cif
#   From: 2010.05.17/outbox.cif.g08.bks.cpg/sg5_21_cif.got.tgz:41607.got - 2010.06.03 18:56:24.
