data_PCOD9124458
_publ_section_title
;
Structure prediction by ZEFSAII (Michael W. Deem and Ramdas Pophale) SiO2 
 PCOD9124458
Probable space group: C 2
;
_chemical_formula_sum "Si O2"
_cell_formula_units_Z 24
_cell_length_a 18.286330
_cell_length_b 7.305173
_cell_length_c 25.786141
_cell_angle_alpha 90.000000
_cell_angle_beta 16.677545
_cell_angle_gamma 90.000000
_cell_volume 988.559426
_symmetry_space_group_name_H-M "C 2"
_symmetry_group_IT_number 5
_symmetry_cell_setting 'monoclinic'
loop_
_space_group_symop_operation_xyz
x,y,z
-x,y,-z
1/2+x,1/2+y,z
1/2-x,1/2+y,-z
loop_
_atom_site_type_symbol
_atom_site_label
_atom_site_fract_x
_atom_site_fract_y
_atom_site_fract_z
Si Si1 0.254644 0.376570 0.257899
Si Si2 0.168035 0.791775 0.680832
Si Si3 0.745289 0.636004 0.163608
Si Si4 0.614446 0.455051 0.521833
Si Si5 0.758487 0.261092 0.292580
Si Si6 0.004642 0.178791 0.227509
O O1 0.370625 0.281373 0.231002
O O2 0.273346 0.289834 0.188696
O O3 0.330156 0.589588 0.208490
O O4 0.953258 0.362140 0.475128
O O5 0.185371 0.597920 0.639679
O O6 0.996044 0.959692 0.778774
O O7 0.493638 0.524052 0.350536
O O8 0.720669 0.715979 0.122931
O O9 0.000000 0.518744 0.000000
O O10 0.358692 0.430905 0.659753
O O11 0.755416 0.262241 0.425730
O O12 0.500000 0.208616 0.500000
O O13 0.974067 0.268158 0.190939
#
# Coordination Sequence:
#
# PCOD9124458 Si02
#       6
#     4   4   4   4   4   4
#     4   9  16  34  60  79 123 150 191 239 307 332
#     4   9  17  34  60  96 108 147 200 262 280 337
#     4  11  26  40  55  88 136 162 185 245 313 358
#     4  10  21  34  68  88 119 149 209 245 300 343
#     4   9  16  34  60  92 113 141 202 261 285 335
#     4  10  21  37  61  91 119 148 210 247 290 351
#
# _framework density 24.277752
#
# number of rings (size 3 to 8) (size 9 to 14) (size 15 to 20)
#    0.000    2.333    5.000    0.000   18.667    0.000 
#    0.000    4.167    0.000    0.000    0.000    0.000 
#    0.000    0.000    0.000    0.000    0.000    0.000 
#
# Total GULP energy -66826.359961 kJ/mol
# GULP energy per Si atom -5568.863330 kJ/mol
# Density = 2.422249 g / cm^3
# Si number density = 24.277752 Si / 1000 Ang^3
#
#
#
# Elastic Constant Matrix: (Units=GPa)
#
#
# Indices 1 2 3 4 5 6 
#
# 1 135.7579 25.1787 39.3031 -0.0072 -12.2406 -0.0087
# 2 25.1787 79.4477 6.2193 0.0409 9.8901 0.0680
# 3 39.3031 6.2193 40.0776 -0.0145 9.0195 0.0606
# 4 -0.0072 0.0409 -0.0145 -0.1631 0.0460 2.4788
# 5 -12.2406 9.8901 9.0195 0.0460 37.1016 0.0835
# 6 -0.0087 0.0680 0.0606 2.4788 0.0835 32.7692
#
#
#
# Elastic Compliance Matrix: (Units=1/GPa)
#
#
# Indices 1 2 3 4 5 6 
#
# 1 0.013006 -0.004116 -0.014099 0.001104 0.008815 -0.000068
# 2 -0.004116 0.014387 0.003145 0.000698 -0.005958 -0.000074
# 3 -0.014099 0.003145 0.041811 -0.003466 -0.015651 0.000215
# 4 0.001104 0.000698 -0.003466 -2.851519 0.004067 0.215699
# 5 0.008815 -0.005958 -0.015651 0.004067 0.035250 -0.000354
# 6 -0.000068 -0.000074 0.000215 0.215699 -0.000354 0.014201
#
#
# Mechanical properties :
#
#
# Convention : Reuss Voigt Hill
#
# Bulk Modulus (GPa) = 25.59939 44.07615 34.83777
# Shear Modulus (GPa) = -1.85894 26.24702 12.19404
#
# Velocity S-wave (km/s) = -0.87599 3.29160 2.24357
# Velocity P-wave (km/s) = 3.08936 5.71319 4.59264
#
# Compressibility (1/GPa) = 0.03906343
#
# Stress axis : x y z
#
# Youngs Moduli (GPa) = 76.88694 69.50934 23.91724
#
# Poissons Ratio (x) = 0.28610 0.33721
# Poissons Ratio (y) = 0.31647 -0.07522
# Poissons Ratio (z) = 1.08405 -0.21862
#
# Static dielectric constant tensor:
#      x y z
#    x 1.976120 0.000020 -0.033970 
#    y 0.000020 2.005050 0.000160 
#    z -0.033970 0.000160 1.969280 
# 
# From -- ./inp_files/70848.got.cif
#   From: 2010.05.17/outbox.cif.g08.bks.cpg/sg5_36_cif.got.tgz:70848.got - 2010.06.03 18:56:24.
