data_PCOD9124158
_publ_section_title
;
Structure prediction by ZEFSAII (Michael W. Deem and Ramdas Pophale) SiO2 
 PCOD9124158
Probable space group: C 2
;
_chemical_formula_sum "Si O2"
_cell_formula_units_Z 26
_cell_length_a 6.588010
_cell_length_b 17.651571
_cell_length_c 14.350620
_cell_angle_alpha 90.000000
_cell_angle_beta 123.928085
_cell_angle_gamma 90.000000
_cell_volume 1384.680809
_symmetry_space_group_name_H-M "C 2"
_symmetry_group_IT_number 5
_symmetry_cell_setting 'monoclinic'
loop_
_space_group_symop_operation_xyz
x,y,z
-x,y,-z
1/2+x,1/2+y,z
1/2-x,1/2+y,-z
loop_
_atom_site_type_symbol
_atom_site_label
_atom_site_fract_x
_atom_site_fract_y
_atom_site_fract_z
Si Si1 0.500000 0.591020 0.000000
Si Si2 0.959967 0.540941 0.858080
Si Si3 0.013943 0.448422 0.694375
Si Si4 0.000000 0.967474 0.500000
Si Si5 0.500000 0.917555 0.000000
Si Si6 0.729214 0.827622 0.889745
Si Si7 0.253197 0.555833 0.606289
Si Si8 0.918659 0.159215 0.179459
O O1 0.498014 0.638437 0.904125
O O2 0.252726 0.542945 0.944345
O O3 0.846560 0.476781 0.896691
O O4 0.838226 0.618713 0.858705
O O5 0.935539 0.515184 0.746092
O O6 0.175153 0.388186 0.793445
O O7 0.171180 0.487260 0.653613
O O8 0.747192 0.421114 0.589683
O O9 0.089756 0.020250 0.437355
O O10 0.606886 0.864188 0.949083
O O11 0.615877 0.748671 0.827079
O O12 0.000000 0.814475 0.000000
O O13 0.395708 0.618890 0.701681
O O14 0.000000 0.587119 0.500000
#
# Coordination Sequence:
#
# PCOD9124158 Si02
#       8
#     2   4   4   2   2   4   4   4
#     4  12  21  34  62  95 126 158 204 260 303 382
#     4  11  21  34  63  90 117 165 209 252 304 372
#     4  10  22  38  64  88 119 164 203 266 307 365
#     4  10  20  42  66  92 116 154 232 262 300 362
#     4  10  23  38  56  89 124 170 206 242 305 386
#     4  11  26  40  57  94 138 164 200 257 326 379
#     4  10  22  40  69  93 115 161 221 268 302 367
#     4  12  23  41  62  94 129 168 207 260 321 374
#
# _framework density 18.776890999999999
#
# number of rings (size 3 to 8) (size 9 to 14) (size 15 to 20)
#    0.000    1.231    4.615    1.385    6.462    0.000 
#    1.385    0.000    5.077    0.000    0.000    0.000 
#    0.000    0.000    0.000    0.000    0.000    0.000 
#
# Total GULP energy -72427.613923 kJ/mol
# GULP energy per Si atom -5571.354917 kJ/mol
# Density = 1.873415 g / cm^3
# Si number density = 18.776891 Si / 1000 Ang^3
#
#
#
# Elastic Constant Matrix: (Units=GPa)
#
#
# Indices 1 2 3 4 5 6 
#
# 1 96.1993 41.4752 53.4766 0.0000 -12.7980 0.0000
# 2 41.4752 93.3453 34.6728 0.0000 -5.5672 0.0000
# 3 53.4766 34.6728 119.2089 0.0000 5.3098 0.0000
# 4 0.0000 0.0000 0.0000 37.4486 0.0000 -13.4640
# 5 -12.7980 -5.5672 5.3098 0.0000 49.8944 0.0000
# 6 0.0000 0.0000 0.0000 -13.4640 0.0000 30.5969
#
#
#
# Elastic Compliance Matrix: (Units=1/GPa)
#
#
# Indices 1 2 3 4 5 6 
#
# 1 0.016471 -0.004756 -0.006199 0.000000 0.004354 0.000000
# 2 -0.004756 0.013533 -0.001824 0.000000 0.000484 0.000000
# 3 -0.006199 -0.001824 0.011836 0.000000 -0.003053 0.000000
# 4 0.000000 0.000000 0.000000 0.031722 0.000000 0.013959
# 5 0.004354 0.000484 -0.003053 0.000000 0.021538 0.000000
# 6 0.000000 0.000000 0.000000 0.013959 0.000000 0.038826
#
#
# Mechanical properties :
#
#
# Convention : Reuss Voigt Hill
#
# Bulk Modulus (GPa) = 61.42225 63.11141 62.26683
# Shear Modulus (GPa) = 30.31930 35.52992 32.92461
#
# Velocity S-wave (km/s) = 4.02271 4.35468 4.19198
# Velocity P-wave (km/s) = 7.37285 7.67909 7.52753
#
# Compressibility (1/GPa) = 0.01628075
#
# Stress axis : x y z
#
# Youngs Moduli (GPa) = 60.71262 73.89607 84.48635
#
# Poissons Ratio (x) = 0.35145 0.52377
# Poissons Ratio (y) = 0.28875 0.15411
# Poissons Ratio (z) = 0.37639 0.13479
#
# Static dielectric constant tensor:
#      x y z
#    x 1.680430 0.000000 0.034370 
#    y 0.000000 1.623640 0.000000 
#    z 0.034370 0.000000 1.714240 
# 
# From -- ./inp_files/49269.got.cif
#   From: 2010.05.17/outbox.cif.g08.bks.cpg/sg5_25_cif.got.tgz:49269.got - 2010.06.03 18:56:24.
