data_PCOD9124357
_publ_section_title
;
Structure prediction by ZEFSAII (Michael W. Deem and Ramdas Pophale) SiO2 
 PCOD9124357
Probable space group: C 2
;
_chemical_formula_sum "Si O2"
_cell_formula_units_Z 30
_cell_length_a 9.658384
_cell_length_b 14.840787
_cell_length_c 12.210630
_cell_angle_alpha 90.000000
_cell_angle_beta 64.741418
_cell_angle_gamma 90.000000
_cell_volume 1582.908532
_symmetry_space_group_name_H-M "C 2"
_symmetry_group_IT_number 5
_symmetry_cell_setting 'monoclinic'
loop_
_space_group_symop_operation_xyz
x,y,z
-x,y,-z
1/2+x,1/2+y,z
1/2-x,1/2+y,-z
loop_
_atom_site_type_symbol
_atom_site_label
_atom_site_fract_x
_atom_site_fract_y
_atom_site_fract_z
Si Si1 0.529641 0.938110 0.117502
Si Si2 0.634008 0.099285 0.715793
Si Si3 0.640068 0.535445 0.523257
Si Si4 0.573858 0.744003 0.854877
Si Si5 0.000000 0.859791 0.500000
Si Si6 0.925046 0.085114 0.781053
Si Si7 0.626750 0.416919 0.049262
Si Si8 0.415287 0.262590 0.753378
O O1 0.431453 0.848996 0.176708
O O2 0.480590 0.020055 0.209806
O O3 0.500000 0.962921 0.000000
O O4 0.706522 0.910690 0.061328
O O5 0.706044 0.080196 0.571410
O O6 0.776963 0.092520 0.752273
O O7 0.545219 0.193126 0.747089
O O8 0.500000 0.578522 0.500000
O O9 0.633824 0.430752 0.488865
O O10 0.574029 0.546505 0.666364
O O11 0.474121 0.681226 0.810891
O O12 0.750127 0.714706 0.799968
O O13 0.500000 0.740047 0.000000
O O14 0.956518 0.803346 0.620941
O O15 0.886857 0.014632 0.889426
O O16 0.606307 0.342568 0.151202
O O17 0.500000 0.405308 0.000000
#
# Coordination Sequence:
#
# PCOD9124357 Si02
#       8
#     4   4   4   4   2   4   4   4
#     4  11  22  43  64  87 133 175 215 257 329 395
#     4  11  24  40  65  98 125 168 223 264 321 387
#     4   8  18  40  66  84 119 166 214 251 317 378
#     4  11  24  40  63  94 132 169 214 263 331 384
#     4  10  20  44  70  86 128 176 220 260 322 394
#     4  11  22  42  66  92 129 171 213 268 326 385
#     4  12  25  42  66  97 130 171 219 266 323 389
#     4  12  25  41  66 101 128 171 218 271 323 386
#
# _framework density 18.952452999999998
#
# number of rings (size 3 to 8) (size 9 to 14) (size 15 to 20)
#    0.400    0.800    5.333    1.200    7.467    0.533 
#    0.000    0.000    0.000    0.000    0.000    0.000 
#    0.000    0.000    0.000    0.000    0.000    0.000 
#
# Total GULP energy -83693.639365 kJ/mol
# GULP energy per Si atom -5579.575958 kJ/mol
# Density = 1.890932 g / cm^3
# Si number density = 18.952453 Si / 1000 Ang^3
#
#
#
# Elastic Constant Matrix: (Units=GPa)
#
#
# Indices 1 2 3 4 5 6 
#
# 1 90.0086 19.0206 38.7671 0.0000 -11.7229 0.0000
# 2 19.0206 83.8192 35.0867 0.0000 -5.7497 0.0000
# 3 38.7671 35.0867 67.7438 0.0000 -9.7221 0.0000
# 4 0.0000 0.0000 0.0000 8.3033 0.0000 -3.1185
# 5 -11.7229 -5.7497 -9.7221 0.0000 25.4554 0.0000
# 6 0.0000 0.0000 0.0000 -3.1185 0.0000 26.4972
#
#
#
# Elastic Compliance Matrix: (Units=1/GPa)
#
#
# Indices 1 2 3 4 5 6 
#
# 1 0.015100 0.000286 -0.008233 0.000000 0.003874 0.000000
# 2 0.000286 0.015243 -0.007983 0.000000 0.000526 0.000000
# 3 -0.008233 -0.007983 0.024127 0.000000 0.003620 0.000000
# 4 0.000000 0.000000 0.000000 0.126003 0.000000 0.014829
# 5 0.003874 0.000526 0.003620 0.000000 0.042570 0.000000
# 6 0.000000 0.000000 0.000000 0.014829 0.000000 0.039485
#
#
# Mechanical properties :
#
#
# Convention : Reuss Voigt Hill
#
# Bulk Modulus (GPa) = 44.22904 47.48002 45.85453
# Shear Modulus (GPa) = 16.56028 21.96432 19.26230
#
# Velocity S-wave (km/s) = 2.95918 3.40798 3.19148
# Velocity P-wave (km/s) = 5.92142 6.37121 6.15043
#
# Compressibility (1/GPa) = 0.02260958
#
# Stress axis : x y z
#
# Youngs Moduli (GPa) = 66.22352 65.60218 41.44689
#
# Poissons Ratio (x) = -0.01873 0.34124
# Poissons Ratio (y) = -0.01891 0.33087
# Poissons Ratio (z) = 0.54524 0.52370
#
# Static dielectric constant tensor:
#      x y z
#    x 1.673010 0.000000 -0.011450 
#    y 0.000000 1.648040 0.000000 
#    z -0.011450 0.000000 1.669050 
# 
# From -- ./inp_files/36363.got.cif
#   From: 2010.05.17/outbox.cif.g08.bks.cpg/sg5_19_cif.got.tgz:36363.got - 2010.06.03 18:56:24.
