data_PCOD9124019
_publ_section_title
;
Structure prediction by ZEFSAII (Michael W. Deem and Ramdas Pophale) SiO2 
 PCOD9124019
Probable space group: C 2
;
_chemical_formula_sum "Si O2"
_cell_formula_units_Z 28
_cell_length_a 12.183313
_cell_length_b 7.327238
_cell_length_c 15.128702
_cell_angle_alpha 90.000000
_cell_angle_beta 117.922284
_cell_angle_gamma 90.000000
_cell_volume 1193.314729
_symmetry_space_group_name_H-M "C 2"
_symmetry_group_IT_number 5
_symmetry_cell_setting 'monoclinic'
loop_
_space_group_symop_operation_xyz
x,y,z
-x,y,-z
1/2+x,1/2+y,z
1/2-x,1/2+y,-z
loop_
_atom_site_type_symbol
_atom_site_label
_atom_site_fract_x
_atom_site_fract_y
_atom_site_fract_z
Si Si1 0.807457 0.794760 0.642840
Si Si2 0.075609 0.171060 0.254381
Si Si3 0.999628 0.814725 0.404952
Si Si4 0.099776 0.216122 0.957517
Si Si5 0.581093 0.722539 0.450150
Si Si6 0.633550 0.115550 0.013538
Si Si7 0.754464 0.483465 0.759568
O O1 0.714493 0.797504 0.525026
O O2 0.758593 0.660000 0.698369
O O3 0.930405 0.709622 0.645577
O O4 0.840980 0.992566 0.694491
O O5 0.038103 0.253975 0.334823
O O6 0.150741 0.325080 0.232102
O O7 0.959757 0.119618 0.150087
O O8 0.875564 0.888298 0.313146
O O9 0.000000 0.719052 0.500000
O O10 0.076814 0.001539 0.454719
O O11 0.252081 0.190902 0.006591
O O12 0.087163 0.434271 0.946931
O O13 0.000000 0.165835 0.000000
O O14 0.500000 0.792718 0.500000
O O15 0.705830 0.051175 0.129066
O O16 0.500000 0.205229 0.000000
#
# Coordination Sequence:
#
# PCOD9124019 Si02
#       7
#     4   4   4   4   4   4   4
#     4  11  24  41  70 105 138 203 241 287 389 433
#     4  11  25  46  71 106 149 193 254 309 365 457
#     4  10  20  41  66  98 149 191 237 309 355 437
#     4  11  25  52  73 108 154 190 254 322 374 457
#     4  10  20  41  66 101 148 186 238 302 361 437
#     4  11  25  47  77 107 145 196 249 316 389 434
#     4  12  23  48  72 101 152 189 245 320 364 440
#
# _framework density 23.464053
#
# number of rings (size 3 to 8) (size 9 to 14) (size 15 to 20)
#    0.000    1.143    5.714    2.571    2.000    4.000 
#    2.571    0.000    0.000    0.000    0.000    0.000 
#    0.000    0.000    0.000    0.000    0.000    0.000 
#
# Total GULP energy -77978.176808 kJ/mol
# GULP energy per Si atom -5569.869772 kJ/mol
# Density = 2.341065 g / cm^3
# Si number density = 23.464053 Si / 1000 Ang^3
#
#
#
# Elastic Constant Matrix: (Units=GPa)
#
#
# Indices 1 2 3 4 5 6 
#
# 1 172.0483 20.5912 32.8673 0.0000 16.0373 0.0000
# 2 20.5912 36.5956 -2.1579 0.0000 -0.7156 0.0000
# 3 32.8673 -2.1579 91.1090 0.0000 16.8060 0.0000
# 4 0.0000 0.0000 0.0000 28.1450 0.0000 -12.1715
# 5 16.0373 -0.7156 16.8060 0.0000 30.3820 0.0000
# 6 0.0000 0.0000 0.0000 -12.1715 0.0000 69.6780
#
#
#
# Elastic Compliance Matrix: (Units=1/GPa)
#
#
# Indices 1 2 3 4 5 6 
#
# 1 0.006949 -0.004086 -0.002126 0.000000 -0.002588 0.000000
# 2 -0.004086 0.029769 0.001840 0.000000 0.001840 0.000000
# 3 -0.002126 0.001840 0.012886 0.000000 -0.005963 0.000000
# 4 0.000000 0.000000 0.000000 0.038434 0.000000 0.006714
# 5 -0.002588 0.001840 -0.005963 0.000000 0.037622 0.000000
# 6 0.000000 0.000000 0.000000 0.006714 0.000000 0.015524
#
#
# Mechanical properties :
#
#
# Convention : Reuss Voigt Hill
#
# Bulk Modulus (GPa) = 24.47415 44.70600 34.59008
# Shear Modulus (GPa) = 30.57192 42.20449 36.38820
#
# Velocity S-wave (km/s) = 3.61352 4.24569 3.94230
# Velocity P-wave (km/s) = 5.27856 6.56726 5.95786
#
# Compressibility (1/GPa) = 0.04085943
#
# Stress axis : x y z
#
# Youngs Moduli (GPa) = 143.91112 33.59181 77.60197
#
# Poissons Ratio (x) = 0.13725 0.16499
# Poissons Ratio (y) = 0.58800 -0.14275
# Poissons Ratio (z) = 0.30597 -0.06179
#
# Static dielectric constant tensor:
#      x y z
#    x 2.144140 0.000000 0.078670 
#    y 0.000000 1.868920 0.000000 
#    z 0.078670 0.000000 2.072180 
# 
# From -- ./inp_files/52242.got.cif
#   From: 2010.05.17/outbox.cif.g08.bks.cpg/sg5_27_cif.got.tgz:52242.got - 2010.06.03 18:56:24.
