data_PCOD9124347
_publ_section_title
;
Structure prediction by ZEFSAII (Michael W. Deem and Ramdas Pophale) SiO2 
 PCOD9124347
Probable space group: C 2
;
_chemical_formula_sum "Si O2"
_cell_formula_units_Z 32
_cell_length_a 23.605762
_cell_length_b 8.974749
_cell_length_c 15.241418
_cell_angle_alpha 90.000000
_cell_angle_beta 29.550786
_cell_angle_gamma 90.000000
_cell_volume 1592.517558
_symmetry_space_group_name_H-M "C 2"
_symmetry_group_IT_number 5
_symmetry_cell_setting 'monoclinic'
loop_
_space_group_symop_operation_xyz
x,y,z
-x,y,-z
1/2+x,1/2+y,z
1/2-x,1/2+y,-z
loop_
_atom_site_type_symbol
_atom_site_label
_atom_site_fract_x
_atom_site_fract_y
_atom_site_fract_z
Si Si1 0.591244 0.704810 0.954349
Si Si2 0.618176 0.903615 0.084737
Si Si3 0.296598 0.389362 0.599874
Si Si4 0.372110 0.490521 0.675530
Si Si5 0.479080 0.211175 0.244286
Si Si6 0.875430 0.633449 0.203175
Si Si7 0.112504 0.333887 0.298437
Si Si8 0.835284 0.876235 0.104848
O O1 0.709985 0.774375 0.761234
O O2 0.608725 0.528861 0.939313
O O3 0.500000 0.733678 0.000000
O O4 0.571001 0.783294 0.076667
O O5 0.614118 0.867652 0.193195
O O6 0.537397 0.050185 0.181988
O O7 0.754637 0.925525 0.877027
O O8 0.344010 0.497752 0.610860
O O9 0.397707 0.292579 0.422759
O O10 0.214471 0.501535 0.656978
O O11 0.500000 0.416275 0.500000
O O12 0.383611 0.654562 0.699314
O O13 0.404489 0.207919 0.255873
O O14 0.586886 0.313373 0.077916
O O15 0.835565 0.753514 0.183165
O O16 0.000000 0.575726 0.000000
O O17 0.214505 0.398405 0.220519
O O18 0.000000 0.387994 0.500000
#
# Coordination Sequence:
#
# PCOD9124347 Si02
#       8
#     4   4   4   4   4   4   4   4
#     4  11  24  44  68 101 136 177 222 278 343 403
#     4  11  25  45  70  98 138 179 222 287 336 405
#     4  11  23  42  66  98 132 173 224 280 333 412
#     4  10  22  43  67  96 126 175 226 272 334 407
#     4  11  24  41  67 100 133 175 223 279 342 401
#     4  10  20  44  69  91 137 180 217 280 341 406
#     4  11  25  44  68  94 134 178 225 276 339 397
#     4  11  23  43  67  97 136 179 224 274 340 400
#
# _framework density 20.093969000000001
#
# number of rings (size 3 to 8) (size 9 to 14) (size 15 to 20)
#    0.000    1.250    2.500    4.500    5.250    3.000 
#    4.500    0.000    0.000    0.000    0.000    0.000 
#    0.000    0.000    0.000    0.000    0.000    0.000 
#
# Total GULP energy -89169.022210 kJ/mol
# GULP energy per Si atom -5573.063888 kJ/mol
# Density = 2.004823 g / cm^3
# Si number density = 20.093969 Si / 1000 Ang^3
#
#
#
# Elastic Constant Matrix: (Units=GPa)
#
#
# Indices 1 2 3 4 5 6 
#
# 1 126.9616 29.8268 66.1685 0.0000 -0.6307 0.0000
# 2 29.8268 94.6738 39.9267 0.0001 -0.5472 0.0000
# 3 66.1685 39.9267 108.1026 0.0001 7.9396 0.0000
# 4 0.0000 0.0001 0.0001 14.4132 0.0000 -9.2755
# 5 -0.6307 -0.5472 7.9396 0.0000 26.5589 0.0000
# 6 0.0000 0.0000 0.0000 -9.2755 0.0000 32.6325
#
#
#
# Elastic Compliance Matrix: (Units=1/GPa)
#
#
# Indices 1 2 3 4 5 6 
#
# 1 0.011761 -0.000689 -0.007120 0.000000 0.002394 0.000000
# 2 -0.000689 0.012625 -0.004355 0.000000 0.001546 0.000000
# 3 -0.007120 -0.004355 0.015578 0.000000 -0.004916 0.000000
# 4 0.000000 0.000000 0.000000 0.084913 0.000000 0.024136
# 5 0.002394 0.001546 -0.004916 0.000000 0.039210 0.000000
# 6 0.000000 0.000000 0.000000 0.024136 0.000000 0.037505
#
#
# Mechanical properties :
#
#
# Convention : Reuss Voigt Hill
#
# Bulk Modulus (GPa) = 63.95262 66.84245 65.39754
# Shear Modulus (GPa) = 21.63261 27.64198 24.63729
#
# Velocity S-wave (km/s) = 3.28468 3.71298 3.50538
# Velocity P-wave (km/s) = 6.80304 7.19158 7.00000
#
# Compressibility (1/GPa) = 0.01563658
#
# Stress axis : x y z
#
# Youngs Moduli (GPa) = 85.02762 79.20736 64.19237
#
# Poissons Ratio (x) = 0.05454 0.45706
# Poissons Ratio (y) = 0.05855 0.27956
# Poissons Ratio (z) = 0.60541 0.34495
#
# Static dielectric constant tensor:
#      x y z
#    x 1.712410 0.000000 0.009640 
#    y 0.000000 1.712510 0.000000 
#    z 0.009640 0.000000 1.673380 
# 
# From -- ./inp_files/57669.got.cif
#   From: 2010.05.17/outbox.cif.g08.bks.cpg/sg5_29_cif.got.tgz:57669.got - 2010.06.03 18:56:24.
