data_PCOD9124115
_publ_section_title
;
Structure prediction by ZEFSAII (Michael W. Deem and Ramdas Pophale) SiO2 
 PCOD9124115
Probable space group: C 2
;
_chemical_formula_sum "Si O2"
_cell_formula_units_Z 24
_cell_length_a 7.961670
_cell_length_b 12.591108
_cell_length_c 14.354292
_cell_angle_alpha 90.000000
_cell_angle_beta 43.753660
_cell_angle_gamma 90.000000
_cell_volume 995.128720
_symmetry_space_group_name_H-M "C 2"
_symmetry_group_IT_number 5
_symmetry_cell_setting 'monoclinic'
loop_
_space_group_symop_operation_xyz
x,y,z
-x,y,-z
1/2+x,1/2+y,z
1/2-x,1/2+y,-z
loop_
_atom_site_type_symbol
_atom_site_label
_atom_site_fract_x
_atom_site_fract_y
_atom_site_fract_z
Si Si1 0.884454 0.348290 0.847249
Si Si2 0.107837 0.419494 0.578124
Si Si3 0.124433 0.014986 0.077821
Si Si4 0.000000 0.681790 0.000000
Si Si5 0.000000 0.617572 0.500000
Si Si6 0.596107 0.349920 0.696226
Si Si7 0.256499 0.692095 0.222998
O O1 0.278953 0.430924 0.033271
O O2 0.064441 0.406664 0.704055
O O3 0.041075 0.283119 0.859042
O O4 0.699810 0.261662 0.875501
O O5 0.113357 0.537957 0.532300
O O6 0.340645 0.365466 0.438482
O O7 0.859730 0.365167 0.637577
O O8 0.059412 0.945510 0.196123
O O9 0.332987 0.102251 0.008264
O O10 0.881978 0.080847 0.148823
O O11 0.185398 0.681228 0.361389
O O12 0.459992 0.237322 0.753231
#
# Coordination Sequence:
#
# PCOD9124115 Si02
#       7
#     4   4   4   2   2   4   4
#     4  11  24  43  66  98 136 177 219 280 336 391
#     4  10  21  43  67  91 146 169 212 296 328 378
#     4  11  22  45  66 101 140 172 225 280 325 404
#     4  10  24  40  66  96 142 176 218 274 340 390
#     4  10  20  42  64 100 124 180 218 274 330 394
#     4  10  21  42  71  94 131 179 218 276 334 393
#     4  11  22  41  74  95 130 181 231 261 343 402
#
# _framework density 24.117483
#
# number of rings (size 3 to 8) (size 9 to 14) (size 15 to 20)
#    0.000    1.667    3.333    3.000    0.000    0.000 
#   12.000    0.000    0.000    0.000    0.000    0.000 
#    0.000    0.000    0.000    0.000    0.000    0.000 
#
# Total GULP energy -67008.423490 kJ/mol
# GULP energy per Si atom -5584.035291 kJ/mol
# Density = 2.406259 g / cm^3
# Si number density = 24.117483 Si / 1000 Ang^3
#
#
#
# Elastic Constant Matrix: (Units=GPa)
#
#
# Indices 1 2 3 4 5 6 
#
# 1 40.2800 37.6628 33.6992 -0.0012 -5.6505 0.0007
# 2 37.6628 140.8369 67.9980 -0.0017 0.2996 0.0012
# 3 33.6992 67.9980 124.3905 -0.0033 18.1746 0.0016
# 4 -0.0012 -0.0017 -0.0033 46.1674 0.0014 -9.5933
# 5 -5.6505 0.2996 18.1746 0.0014 26.8149 -0.0006
# 6 0.0007 0.0012 0.0016 -9.5933 -0.0006 18.9556
#
#
#
# Elastic Compliance Matrix: (Units=1/GPa)
#
#
# Indices 1 2 3 4 5 6 
#
# 1 0.041218 -0.006204 -0.010050 0.000000 0.015567 0.000000
# 2 -0.006204 0.010951 -0.004547 0.000000 0.001653 0.000000
# 3 -0.010050 -0.004547 0.015039 0.000001 -0.012260 -0.000001
# 4 0.000000 0.000000 0.000001 0.024206 -0.000002 0.012250
# 5 0.015567 0.001653 -0.012260 -0.000002 0.048864 0.000001
# 6 0.000000 0.000000 -0.000001 0.012250 0.000001 0.058955
#
#
# Mechanical properties :
#
#
# Convention : Reuss Voigt Hill
#
# Bulk Modulus (GPa) = 39.05167 64.91415 51.98291
# Shear Modulus (GPa) = 20.05044 29.46406 24.75725
#
# Velocity S-wave (km/s) = 2.88647 3.49906 3.20742
# Velocity P-wave (km/s) = 5.22842 6.58018 5.94286
#
# Compressibility (1/GPa) = 0.02560710
#
# Stress axis : x y z
#
# Youngs Moduli (GPa) = 24.26099 91.31245 66.49372
#
# Poissons Ratio (x) = 0.56646 0.66826
# Poissons Ratio (y) = 0.15050 0.30237
# Poissons Ratio (z) = 0.24382 0.41523
#
# Static dielectric constant tensor:
#      x y z
#    x 2.027940 0.000000 0.018050 
#    y 0.000000 1.917480 0.000000 
#    z 0.018050 0.000000 1.976520 
# 
# From -- ./inp_files/64455.got.cif
#   From: 2010.05.17/outbox.cif.g08.bks.cpg/sg5_33_cif.got.tgz:64455.got - 2010.06.03 18:56:24.
