data_PCOD9124620
_publ_section_title
;
Structure prediction by ZEFSAII (Michael W. Deem and Ramdas Pophale) SiO2 
 PCOD9124620
Probable space group: C 2
;
_chemical_formula_sum "Si O2"
_cell_formula_units_Z 28
_cell_length_a 5.175759
_cell_length_b 27.220586
_cell_length_c 9.803911
_cell_angle_alpha 90.000000
_cell_angle_beta 112.645568
_cell_angle_gamma 90.000000
_cell_volume 1274.757399
_symmetry_space_group_name_H-M "C 2"
_symmetry_group_IT_number 5
_symmetry_cell_setting 'monoclinic'
loop_
_space_group_symop_operation_xyz
x,y,z
-x,y,-z
1/2+x,1/2+y,z
1/2-x,1/2+y,-z
loop_
_atom_site_type_symbol
_atom_site_label
_atom_site_fract_x
_atom_site_fract_y
_atom_site_fract_z
Si Si1 0.822211 0.780770 0.101802
Si Si2 0.639087 0.197627 0.668101
Si Si3 0.778803 0.117684 0.036123
Si Si4 0.859770 0.133158 0.335167
Si Si5 0.861574 0.435795 0.321876
Si Si6 0.264782 0.890516 0.830034
Si Si7 0.810594 0.512286 0.091248
O O1 0.883565 0.739656 0.225826
O O2 0.846186 0.835434 0.168935
O O3 0.500000 0.774765 0.000000
O O4 0.000000 0.777086 0.000000
O O5 0.500000 0.215454 0.500000
O O6 0.442878 0.152855 0.681526
O O7 0.943432 0.177220 0.684001
O O8 0.857306 0.098838 0.201845
O O9 0.500000 0.147830 0.000000
O O10 0.000000 0.148796 0.000000
O O11 0.715890 0.071402 0.925886
O O12 0.000000 0.112787 0.500000
O O13 0.527818 0.421801 0.245552
O O14 0.902905 0.487921 0.250272
O O15 0.000000 0.437070 0.500000
O O16 0.046260 0.398855 0.266017
O O17 0.500000 0.898592 0.000000
O O18 0.500000 0.493083 0.000000
O O19 0.000000 0.499721 0.000000
#
# Coordination Sequence:
#
# PCOD9124620 Si02
#       7
#     4   4   4   4   4   4   4
#     4  11  23  39  60  90 121 157 205 252 295 352
#     4  10  22  38  58  85 122 160 194 244 306 354
#     4  10  21  37  58  85 113 149 197 245 300 358
#     4  10  21  38  58  84 117 157 201 245 295 356
#     4  12  24  39  63  94 123 160 209 258 306 368
#     4  11  23  42  64  88 125 167 206 253 309 365
#     4  10  21  39  60  84 116 154 196 245 307 367
#
# _framework density 21.964963999999998
#
# number of rings (size 3 to 8) (size 9 to 14) (size 15 to 20)
#    0.000    1.429    0.000    6.429    0.000    4.571 
#    0.000    7.143    0.000    0.000    0.000    0.000 
#    0.000    0.000    0.000    0.000    0.000    0.000 
#
# Total GULP energy -78066.656439 kJ/mol
# GULP energy per Si atom -5576.189746 kJ/mol
# Density = 2.191497 g / cm^3
# Si number density = 21.964964 Si / 1000 Ang^3
#
#
#
# Elastic Constant Matrix: (Units=GPa)
#
#
# Indices 1 2 3 4 5 6 
#
# 1 185.8753 6.6705 58.5892 0.0000 -10.8563 0.0000
# 2 6.6705 67.7105 43.3237 0.0000 -1.3601 0.0000
# 3 58.5892 43.3237 182.5732 0.0000 -24.5388 0.0000
# 4 0.0000 0.0000 0.0000 -58.4092 0.0000 109.7880
# 5 -10.8563 -1.3601 -24.5388 0.0000 36.5586 0.0000
# 6 0.0000 0.0000 0.0000 109.7880 0.0000 -142.4207
#
#
#
# Elastic Compliance Matrix: (Units=1/GPa)
#
#
# Indices 1 2 3 4 5 6 
#
# 1 0.006025 0.000724 -0.002046 0.000000 0.000443 0.000000
# 2 0.000724 0.017683 -0.004739 0.000000 -0.002308 0.000000
# 3 -0.002046 -0.004739 0.007862 0.000000 0.004493 0.000000
# 4 0.000000 0.000000 0.000000 0.038134 0.000000 0.029397
# 5 0.000443 -0.002308 0.004493 0.000000 0.030415 0.000000
# 6 0.000000 0.000000 0.000000 0.029397 0.000000 0.015639
#
#
# Mechanical properties :
#
#
# Convention : Reuss Voigt Hill
#
# Bulk Modulus (GPa) = 51.41489 72.59177 62.00333
# Shear Modulus (GPa) = 37.21293 -11.01589 13.09852
#
# Velocity S-wave (km/s) = 4.12052 -2.24190 2.44465
# Velocity P-wave (km/s) = 6.78946 5.13996 6.02146
#
# Compressibility (1/GPa) = 0.01944962
#
# Stress axis : x y z
#
# Youngs Moduli (GPa) = 165.98485 56.55134 127.19172
#
# Poissons Ratio (x) = -0.04096 0.26020
# Poissons Ratio (y) = -0.12022 0.60272
# Poissons Ratio (z) = 0.33956 0.26798
#
# Static dielectric constant tensor:
#      x y z
#    x 2.246480 0.000000 0.121530 
#    y 0.000000 1.837510 0.000000 
#    z 0.121530 0.000000 1.866660 
# 
# From -- ./inp_files/13285.got.cif
#   From: 2010.05.17/outbox.cif.g08.bks.cpg/sg5_7_cif.got.tgz:13285.got - 2010.06.03 18:56:24.
