data_PCOD9124183
_publ_section_title
;
Structure prediction by ZEFSAII (Michael W. Deem and Ramdas Pophale) SiO2 
 PCOD9124183
Probable space group: C 2
;
_chemical_formula_sum "Si O2"
_cell_formula_units_Z 30
_cell_length_a 11.557789
_cell_length_b 16.394389
_cell_length_c 8.904243
_cell_angle_alpha 90.000000
_cell_angle_beta 68.863294
_cell_angle_gamma 90.000000
_cell_volume 1573.691338
_symmetry_space_group_name_H-M "C 2"
_symmetry_group_IT_number 5
_symmetry_cell_setting 'monoclinic'
loop_
_space_group_symop_operation_xyz
x,y,z
-x,y,-z
1/2+x,1/2+y,z
1/2-x,1/2+y,-z
loop_
_atom_site_type_symbol
_atom_site_label
_atom_site_fract_x
_atom_site_fract_y
_atom_site_fract_z
Si Si1 0.355365 0.521060 0.594212
Si Si2 0.500000 0.072090 0.000000
Si Si3 0.729920 0.167684 0.824774
Si Si4 0.880835 0.284997 0.969774
Si Si5 0.296920 0.949033 0.580696
Si Si6 0.982549 0.443787 0.749524
Si Si7 0.155679 0.834746 0.289849
Si Si8 0.376730 0.297191 0.354046
O O1 0.500000 0.532506 0.500000
O O2 0.303128 0.592595 0.719363
O O3 0.282037 0.516302 0.470689
O O4 0.339925 0.431474 0.676101
O O5 0.381518 0.128563 0.027702
O O6 0.477858 0.013273 0.152375
O O7 0.819813 0.224246 0.879432
O O8 0.666805 0.221077 0.722801
O O9 0.931868 0.365816 0.862397
O O10 0.772928 0.309857 0.136612
O O11 0.000000 0.249169 0.000000
O O12 0.373081 0.974712 0.691239
O O13 0.401697 0.920930 0.411029
O O14 0.203702 0.875320 0.660812
O O15 0.152494 0.791050 0.454254
O O16 0.023682 0.814769 0.273927
#
# Coordination Sequence:
#
# PCOD9124183 Si02
#       8
#     4   2   4   4   4   4   4   4
#     4  11  21  41  67  92 131 165 215 272 323 374
#     4  12  24  46  64  96 136 172 210 276 340 378
#     4  12  26  42  63  99 136 164 208 280 338 373
#     4  12  24  42  64  98 135 172 219 268 327 390
#     4  10  20  42  67  97 119 173 231 261 306 404
#     4  11  22  40  73  91 127 176 226 264 316 403
#     4  10  21  42  71  89 125 181 222 258 312 402
#     4  10  20  42  67  95 124 170 225 262 316 390
#
# _framework density 19.063459999999999
#
# number of rings (size 3 to 8) (size 9 to 14) (size 15 to 20)
#    0.000    1.067    6.000    3.200    0.000    2.133 
#    9.600    0.000    0.000    0.000    0.000    0.000 
#    0.000    0.000    0.000    0.000    0.000    0.000 
#
# Total GULP energy -83810.233272 kJ/mol
# GULP energy per Si atom -5587.348885 kJ/mol
# Density = 1.902007 g / cm^3
# Si number density = 19.063460 Si / 1000 Ang^3
#
#
#
# Elastic Constant Matrix: (Units=GPa)
#
#
# Indices 1 2 3 4 5 6 
#
# 1 149.8486 38.1804 35.5138 0.0000 3.1387 0.0000
# 2 38.1804 79.6014 30.5151 0.0000 2.3653 0.0000
# 3 35.5138 30.5151 49.4582 0.0000 -1.8305 0.0000
# 4 0.0000 0.0000 0.0000 14.5677 0.0000 -5.8809
# 5 3.1387 2.3653 -1.8305 0.0000 32.0330 0.0000
# 6 0.0000 0.0000 0.0000 -5.8809 0.0000 19.6760
#
#
#
# Elastic Compliance Matrix: (Units=1/GPa)
#
#
# Indices 1 2 3 4 5 6 
#
# 1 0.008361 -0.002185 -0.004690 0.000000 -0.000926 0.000000
# 2 -0.002185 0.017130 -0.009058 0.000000 -0.001568 0.000000
# 3 -0.004690 -0.009058 0.029279 0.000000 0.002801 0.000000
# 4 0.000000 0.000000 0.000000 0.078064 0.000000 0.023332
# 5 -0.000926 -0.001568 0.002801 0.000000 0.031584 0.000000
# 6 0.000000 0.000000 0.000000 0.023332 0.000000 0.057797
#
#
# Mechanical properties :
#
#
# Convention : Reuss Voigt Hill
#
# Bulk Modulus (GPa) = 43.66014 54.14742 48.90378
# Shear Modulus (GPa) = 19.10474 24.90192 22.00333
#
# Velocity S-wave (km/s) = 3.16913 3.61815 3.40106
# Velocity P-wave (km/s) = 6.02855 6.77644 6.41341
#
# Compressibility (1/GPa) = 0.02290418
#
# Stress axis : x y z
#
# Youngs Moduli (GPa) = 119.60301 58.37877 34.15420
#
# Poissons Ratio (x) = 0.12755 0.16018
# Poissons Ratio (y) = 0.26133 0.30936
# Poissons Ratio (z) = 0.56092 0.52879
#
# Static dielectric constant tensor:
#      x y z
#    x 1.675660 0.000000 0.011550 
#    y 0.000000 1.623970 0.000000 
#    z 0.011550 0.000000 1.660900 
# 
# From -- ./inp_files/20597.got.cif
#   From: 2010.05.17/outbox.cif.g08.bks.cpg/sg5_11_cif.got.tgz:20597.got - 2010.06.03 18:56:24.
