data_PCOD9124640
_publ_section_title
;
Structure prediction by ZEFSAII (Michael W. Deem and Ramdas Pophale) SiO2 
 PCOD9124640
Probable space group: C 2
;
_chemical_formula_sum "Si O2"
_cell_formula_units_Z 30
_cell_length_a 15.046917
_cell_length_b 10.998492
_cell_length_c 25.354026
_cell_angle_alpha 90.000000
_cell_angle_beta 157.240584
_cell_angle_gamma 90.000000
_cell_volume 1623.245645
_symmetry_space_group_name_H-M "C 2"
_symmetry_group_IT_number 5
_symmetry_cell_setting 'monoclinic'
loop_
_space_group_symop_operation_xyz
x,y,z
-x,y,-z
1/2+x,1/2+y,z
1/2-x,1/2+y,-z
loop_
_atom_site_type_symbol
_atom_site_label
_atom_site_fract_x
_atom_site_fract_y
_atom_site_fract_z
Si Si1 0.924204 0.443260 0.015411
Si Si2 0.591320 0.824270 0.210989
Si Si3 0.500000 0.951784 0.500000
Si Si4 0.237039 0.501443 0.374772
Si Si5 0.138349 0.091972 0.730704
Si Si6 0.024348 0.094075 0.243156
Si Si7 0.917974 0.851502 0.563276
Si Si8 0.360752 0.735816 0.499867
O O1 0.971809 0.355082 0.090362
O O2 0.094935 0.559471 0.116210
O O3 0.665945 0.490982 0.871929
O O4 0.000000 0.390341 0.000000
O O5 0.495704 0.709143 0.189480
O O6 0.862195 0.800046 0.347400
O O7 0.586379 0.944411 0.245806
O O8 0.440844 0.858332 0.515246
O O9 0.724540 0.036132 0.627413
O O10 0.500000 0.490550 0.500000
O O11 0.232247 0.411354 0.422363
O O12 0.230497 0.641201 0.389789
O O13 0.026520 0.134643 0.724301
O O14 0.079098 0.172006 0.647298
O O15 0.019872 0.963172 0.652691
O O16 0.807439 0.760591 0.543605
#
# Coordination Sequence:
#
# PCOD9124640 Si02
#       8
#     4   4   2   4   4   4   4   4
#     4   9  21  42  59  79 111 160 207 226 288 358
#     4  10  21  37  60  84 111 155 201 239 284 352
#     4  12  26  34  54  96 122 148 184 252 314 326
#     4   9  18  32  54  83 111 152 192 228 282 344
#     4   9  19  37  60  80 115 162 196 222 288 358
#     4  11  23  39  59  88 120 148 193 254 294 342
#     4   9  18  32  53  84 120 153 187 228 288 349
#     4  11  20  34  55  89 125 149 186 245 290 348
#
# _framework density 18.481490999999998
#
# number of rings (size 3 to 8) (size 9 to 14) (size 15 to 20)
#    0.000    2.133    2.000    1.600    4.667    1.067 
#    0.000    0.000    0.000    0.000    0.000    0.000 
#    0.000    0.000    0.000    0.000    0.000    0.000 
#
# Total GULP energy -83607.184652 kJ/mol
# GULP energy per Si atom -5573.812310 kJ/mol
# Density = 1.843943 g / cm^3
# Si number density = 18.481491 Si / 1000 Ang^3
#
#
#
# Elastic Constant Matrix: (Units=GPa)
#
#
# Indices 1 2 3 4 5 6 
#
# 1 100.9339 38.0669 24.4585 0.0006 -11.1494 0.0001
# 2 38.0669 62.1784 15.6579 0.0023 -6.5535 -0.0009
# 3 24.4585 15.6579 69.5589 0.0093 -4.6609 -0.0026
# 4 0.0006 0.0023 0.0093 10.3710 -0.0029 -6.6995
# 5 -11.1494 -6.5535 -4.6609 -0.0029 30.2577 0.0001
# 6 0.0001 -0.0009 -0.0026 -6.6995 0.0001 44.5489
#
#
#
# Elastic Compliance Matrix: (Units=1/GPa)
#
#
# Indices 1 2 3 4 5 6 
#
# 1 0.013728 -0.007339 -0.002974 0.000005 0.003011 0.000000
# 2 -0.007339 0.021271 -0.002102 -0.000002 0.001579 0.000000
# 3 -0.002974 -0.002102 0.015956 -0.000014 0.000907 -0.000001
# 4 0.000005 -0.000002 -0.000014 0.106798 0.000009 0.016061
# 5 0.003011 0.001579 0.000907 0.000009 0.034641 0.000001
# 6 0.000000 0.000000 -0.000001 0.016061 0.000001 0.024863
#
#
# Mechanical properties :
#
#
# Convention : Reuss Voigt Hill
#
# Bulk Modulus (GPa) = 38.27416 43.22644 40.75030
# Shear Modulus (GPa) = 19.93667 27.33470 23.63569
#
# Velocity S-wave (km/s) = 3.28798 3.84999 3.58003
# Velocity P-wave (km/s) = 5.93033 6.57290 6.25987
#
# Compressibility (1/GPa) = 0.02612729
#
# Stress axis : x y z
#
# Youngs Moduli (GPa) = 72.84177 47.01143 62.67317
#
# Poissons Ratio (x) = 0.34500 0.18636
# Poissons Ratio (y) = 0.53456 0.13174
# Poissons Ratio (z) = 0.21660 0.09882
#
# Static dielectric constant tensor:
#      x y z
#    x 1.683120 0.000000 -0.019590 
#    y 0.000000 1.638250 0.000000 
#    z -0.019590 0.000000 1.653760 
# 
# From -- ./inp_files/70700.got.cif
#   From: 2010.05.17/outbox.cif.g08.bks.cpg/sg5_36_cif.got.tgz:70700.got - 2010.06.03 18:56:24.
