data_PCOD9124365
_publ_section_title
;
Structure prediction by ZEFSAII (Michael W. Deem and Ramdas Pophale) SiO2 
 PCOD9124365
Probable space group: C 2
;
_chemical_formula_sum "Si O2"
_cell_formula_units_Z 18
_cell_length_a 15.102638
_cell_length_b 8.898725
_cell_length_c 16.642366
_cell_angle_alpha 90.000000
_cell_angle_beta 18.331548
_cell_angle_gamma 90.000000
_cell_volume 703.456546
_symmetry_space_group_name_H-M "C 2"
_symmetry_group_IT_number 5
_symmetry_cell_setting 'monoclinic'
loop_
_space_group_symop_operation_xyz
x,y,z
-x,y,-z
1/2+x,1/2+y,z
1/2-x,1/2+y,-z
loop_
_atom_site_type_symbol
_atom_site_label
_atom_site_fract_x
_atom_site_fract_y
_atom_site_fract_z
Si Si1 0.289713 0.294920 0.342920
Si Si2 0.762370 0.890261 0.837670
Si Si3 0.387798 0.137308 0.508236
Si Si4 0.500000 0.574041 0.500000
Si Si5 0.886451 0.175811 0.831375
O O1 0.153425 0.458615 0.457349
O O2 0.247767 0.194079 0.298736
O O3 0.109806 0.220994 0.569717
O O4 0.623054 0.286361 0.065224
O O5 0.998446 0.967296 0.577217
O O6 0.761690 0.011593 0.911036
O O7 0.500000 0.889582 0.000000
O O8 0.885419 0.722841 0.743207
O O9 0.500000 0.172471 0.500000
O O10 0.079532 0.187289 0.744386
#
# Coordination Sequence:
#
# PCOD9124365 Si02
#       5
#     4   4   4   2   4
#     4  11  25  48  76 109 150 199 250 311 380 452
#     4  11  23  45  77 108 144 201 252 312 372 454
#     4  12  27  46  73 116 152 192 258 323 371 439
#     4  10  20  44  72 104 142 200 240 302 374 458
#     4  11  27  49  77 105 154 203 251 301 388 459
#
# _framework density 25.587934000000001
#
# number of rings (size 3 to 8) (size 9 to 14) (size 15 to 20)
#    0.000    0.889    4.444    1.333    0.000   10.667 
#    0.000    0.000    0.000    0.000    0.000    0.000 
#    0.000    0.000    0.000    0.000    0.000    0.000 
#
# Total GULP energy -50183.620714 kJ/mol
# GULP energy per Si atom -5575.957857 kJ/mol
# Density = 2.552969 g / cm^3
# Si number density = 25.587934 Si / 1000 Ang^3
#
#
#
# Elastic Constant Matrix: (Units=GPa)
#
#
# Indices 1 2 3 4 5 6 
#
# 1 103.7157 40.0231 58.9571 -0.0019 -38.6000 -0.0007
# 2 40.0231 131.3386 48.0289 -0.0348 -16.8987 0.0082
# 3 58.9571 48.0289 120.2119 -0.0469 -19.3174 0.0156
# 4 -0.0019 -0.0348 -0.0469 25.8938 0.0067 -17.8089
# 5 -38.6000 -16.8987 -19.3174 0.0067 55.6481 -0.0002
# 6 -0.0007 0.0082 0.0156 -17.8089 -0.0002 27.8037
#
#
#
# Elastic Compliance Matrix: (Units=1/GPa)
#
#
# Indices 1 2 3 4 5 6 
#
# 1 0.017396 -0.001791 -0.006317 -0.000021 0.009330 -0.000009
# 2 -0.001791 0.009230 -0.002710 0.000011 0.000620 0.000006
# 3 -0.006317 -0.002710 0.012352 0.000025 -0.000917 0.000010
# 4 -0.000021 0.000011 0.000025 0.069028 -0.000011 0.044214
# 5 0.009330 0.000620 -0.000917 -0.000011 0.024312 -0.000006
# 6 -0.000009 0.000006 0.000010 0.044214 -0.000006 0.064287
#
#
# Mechanical properties :
#
#
# Convention : Reuss Voigt Hill
#
# Bulk Modulus (GPa) = 57.65929 72.14271 64.90100
# Shear Modulus (GPa) = 22.31926 35.75293 29.03610
#
# Velocity S-wave (km/s) = 2.95660 3.74205 3.37227
# Velocity P-wave (km/s) = 5.85133 6.85024 6.37039
#
# Compressibility (1/GPa) = 0.01734326
#
# Stress axis : x y z
#
# Youngs Moduli (GPa) = 57.48441 108.33787 80.95707
#
# Poissons Ratio (x) = 0.19399 0.51141
# Poissons Ratio (y) = 0.10293 0.21939
# Poissons Ratio (z) = 0.36313 0.29360
#
# Static dielectric constant tensor:
#      x y z
#    x 2.153700 0.000000 0.013920 
#    y 0.000000 2.050260 0.000010 
#    z 0.013920 0.000010 2.049190 
# 
# From -- ./inp_files/4709.got.cif
#   From: 2010.05.17/outbox.cif.g08.bks.cpg/sg5_3_cif.got.tgz:4709.got - 2010.06.03 18:56:24.
