data_PCOD9124238
_publ_section_title
;
Structure prediction by ZEFSAII (Michael W. Deem and Ramdas Pophale) SiO2 
 PCOD9124238
Probable space group: C 2
;
_chemical_formula_sum "Si O2"
_cell_formula_units_Z 32
_cell_length_a 18.925216
_cell_length_b 14.795734
_cell_length_c 12.492415
_cell_angle_alpha 90.000000
_cell_angle_beta 27.823155
_cell_angle_gamma 90.000000
_cell_volume 1632.685702
_symmetry_space_group_name_H-M "C 2"
_symmetry_group_IT_number 5
_symmetry_cell_setting 'monoclinic'
loop_
_space_group_symop_operation_xyz
x,y,z
-x,y,-z
1/2+x,1/2+y,z
1/2-x,1/2+y,-z
loop_
_atom_site_type_symbol
_atom_site_label
_atom_site_fract_x
_atom_site_fract_y
_atom_site_fract_z
Si Si1 0.814239 0.436330 0.503471
Si Si2 0.175861 0.104930 0.802639
Si Si3 0.150172 0.377420 0.089275
Si Si4 0.078311 0.912572 0.642203
Si Si5 0.847471 0.205967 0.763873
Si Si6 0.662381 0.543301 0.064713
Si Si7 0.350442 0.277632 0.641199
Si Si8 0.126541 0.805545 0.912173
O O1 0.767846 0.536511 0.603877
O O2 0.733852 0.419727 0.497947
O O3 0.738020 0.368468 0.692701
O O4 0.990648 0.415761 0.263256
O O5 0.253394 0.202432 0.709060
O O6 0.187938 0.066113 0.906740
O O7 0.000000 0.107711 0.000000
O O8 0.122405 0.299698 0.214287
O O9 0.240279 0.459663 0.022461
O O10 0.246885 0.329682 0.866293
O O11 0.090497 0.849204 0.524028
O O12 0.010881 0.008795 0.697973
O O13 0.960598 0.868211 0.884797
O O14 0.805811 0.130130 0.905681
O O15 0.717284 0.229031 0.853301
O O16 0.000000 0.177608 0.500000
O O17 0.500000 0.238526 0.500000
O O18 0.000000 0.769669 0.000000
#
# Coordination Sequence:
#
# PCOD9124238 Si02
#       8
#     4   4   4   4   4   4   4   4
#     4  11  23  43  72 101 133 177 235 292 331 407
#     4  12  25  45  72 104 137 180 238 288 344 416
#     4  12  26  44  69 104 139 179 231 286 347 408
#     4  11  23  44  70  94 138 185 219 276 356 406
#     4  12  24  42  69 103 132 175 233 279 337 409
#     4  12  25  44  70  98 138 179 228 280 349 409
#     4  12  27  45  68 100 144 183 229 289 352 417
#     4  10  20  42  70  98 129 175 226 282 336 397
#
# _framework density 19.599608
#
# number of rings (size 3 to 8) (size 9 to 14) (size 15 to 20)
#    0.000    0.500    7.500    0.375    5.250    0.000 
#    0.000    1.250    0.000    0.000    0.000    0.000 
#    0.000    0.000    0.000    0.000    0.000    0.000 
#
# Total GULP energy -89457.739126 kJ/mol
# GULP energy per Si atom -5591.108695 kJ/mol
# Density = 1.955500 g / cm^3
# Si number density = 19.599608 Si / 1000 Ang^3
#
#
#
# Elastic Constant Matrix: (Units=GPa)
#
#
# Indices 1 2 3 4 5 6 
#
# 1 103.9114 14.0696 23.1295 0.0000 -26.7840 0.0000
# 2 14.0696 53.9500 -0.7918 0.0000 -9.5488 0.0000
# 3 23.1295 -0.7918 59.5555 -0.0001 -22.5092 0.0000
# 4 0.0000 0.0000 -0.0001 24.3594 0.0000 -6.0761
# 5 -26.7840 -9.5488 -22.5092 0.0000 36.7799 0.0000
# 6 0.0000 0.0000 0.0000 -6.0761 0.0000 28.8904
#
#
#
# Elastic Compliance Matrix: (Units=1/GPa)
#
#
# Indices 1 2 3 4 5 6 
#
# 1 0.012178 -0.001951 -0.002075 0.000000 0.007091 0.000000
# 2 -0.001951 0.020111 0.003202 0.000000 0.005760 0.000000
# 3 -0.002075 0.003202 0.022613 0.000000 0.013159 0.000000
# 4 0.000000 0.000000 0.000000 0.043325 0.000000 0.009112
# 5 0.007091 0.005760 0.013159 0.000000 0.041902 0.000000
# 6 0.000000 0.000000 0.000000 0.009112 0.000000 0.036530
#
#
# Mechanical properties :
#
#
# Convention : Reuss Voigt Hill
#
# Bulk Modulus (GPa) = 18.77800 32.24796 25.51298
# Shear Modulus (GPa) = 25.50273 30.07325 27.78799
#
# Velocity S-wave (km/s) = 3.61111 3.92137 3.76943
# Velocity P-wave (km/s) = 5.19504 6.08210 5.65598
#
# Compressibility (1/GPa) = 0.05325381
#
# Stress axis : x y z
#
# Youngs Moduli (GPa) = 82.11846 49.72399 44.22199
#
# Poissons Ratio (x) = 0.09702 0.09176
# Poissons Ratio (y) = 0.16022 -0.14161
# Poissons Ratio (z) = 0.17040 -0.15923
#
# Static dielectric constant tensor:
#      x y z
#    x 1.698080 0.000000 -0.009130 
#    y 0.000000 1.669000 0.000000 
#    z -0.009130 0.000000 1.681080 
# 
# From -- ./inp_files/44945.got.cif
#   From: 2010.05.17/outbox.cif.g08.bks.cpg/sg5_23_cif.got.tgz:44945.got - 2010.06.03 18:56:24.
