data_PCOD9124278
_publ_section_title
;
Structure prediction by ZEFSAII (Michael W. Deem and Ramdas Pophale) SiO2 
 PCOD9124278
Probable space group: C 2
;
_chemical_formula_sum "Si O2"
_cell_formula_units_Z 32
_cell_length_a 11.335415
_cell_length_b 8.896388
_cell_length_c 30.515587
_cell_angle_alpha 90.000000
_cell_angle_beta 152.234746
_cell_angle_gamma 90.000000
_cell_volume 1433.570571
_symmetry_space_group_name_H-M "C 2"
_symmetry_group_IT_number 5
_symmetry_cell_setting 'monoclinic'
loop_
_space_group_symop_operation_xyz
x,y,z
-x,y,-z
1/2+x,1/2+y,z
1/2-x,1/2+y,-z
loop_
_atom_site_type_symbol
_atom_site_label
_atom_site_fract_x
_atom_site_fract_y
_atom_site_fract_z
Si Si1 0.036028 0.850100 0.221456
Si Si2 0.281355 0.024979 0.729185
Si Si3 0.943927 0.986875 0.101467
Si Si4 0.626792 0.271722 0.996247
Si Si5 0.241226 0.081510 0.809341
Si Si6 0.701473 0.107498 0.527058
Si Si7 0.988413 0.391685 0.717475
Si Si8 0.377909 0.940963 0.589849
O O1 0.079826 0.674566 0.243566
O O2 0.321783 0.909171 0.310263
O O3 0.899051 0.887539 0.130368
O O4 0.901575 0.946771 0.214107
O O5 0.370252 0.016235 0.808282
O O6 0.978807 0.042161 0.629573
O O7 0.354215 0.895415 0.719982
O O8 0.242199 0.974704 0.190399
O O9 0.853173 0.155543 0.079129
O O10 0.813082 0.906670 0.017064
O O11 0.500000 0.321651 0.000000
O O12 0.422814 0.168215 0.902740
O O13 0.056868 0.216817 0.731551
O O14 0.500000 0.071077 0.500000
O O15 0.728478 0.286960 0.532302
O O16 0.652657 0.048675 0.461627
O O17 0.830102 0.469941 0.626183
#
# Coordination Sequence:
#
# PCOD9124278 Si02
#       8
#     4   4   4   4   4   4   4   4
#     4  10  20  43  64  87 127 164 208 260 310 381
#     4  11  23  43  65  94 123 170 213 258 319 382
#     4  10  22  43  62  93 130 164 212 266 312 377
#     4  11  22  39  65  95 130 169 211 265 324 369
#     4  11  21  43  67  89 130 168 214 263 315 381
#     4  11  24  43  66  94 128 165 211 265 319 375
#     4  10  23  45  65  92 132 169 213 262 317 383
#     4  10  23  43  64  92 128 166 207 263 320 374
#
# _framework density 22.321885999999999
#
# number of rings (size 3 to 8) (size 9 to 14) (size 15 to 20)
#    0.000    1.500    6.250    0.750    1.750    3.000 
#   11.250    0.000    0.000    0.000    0.000    0.000 
#    0.000    0.000    0.000    0.000    0.000    0.000 
#
# Total GULP energy -89343.419498 kJ/mol
# GULP energy per Si atom -5583.963719 kJ/mol
# Density = 2.227108 g / cm^3
# Si number density = 22.321886 Si / 1000 Ang^3
#
#
#
# Elastic Constant Matrix: (Units=GPa)
#
#
# Indices 1 2 3 4 5 6 
#
# 1 115.8505 25.3450 23.0020 0.0000 -18.8519 0.0000
# 2 25.3450 21.6315 21.0383 0.0000 1.7113 0.0000
# 3 23.0020 21.0383 63.2001 -0.0001 -25.1424 0.0000
# 4 0.0000 0.0000 -0.0001 24.3902 0.0000 -9.2257
# 5 -18.8519 1.7113 -25.1424 0.0000 33.6687 0.0000
# 6 0.0000 0.0000 0.0000 -9.2257 0.0000 43.9353
#
#
#
# Elastic Compliance Matrix: (Units=1/GPa)
#
#
# Indices 1 2 3 4 5 6 
#
# 1 0.017413 -0.036766 0.014971 0.000000 0.022798 0.000000
# 2 -0.036766 0.174395 -0.080220 0.000000 -0.089355 0.000000
# 3 0.014971 -0.080220 0.059800 0.000000 0.057116 0.000000
# 4 0.000000 0.000000 0.000000 0.044538 0.000000 0.009352
# 5 0.022798 -0.089355 0.057116 0.000000 0.089660 0.000000
# 6 0.000000 0.000000 0.000000 0.009352 0.000000 0.024725
#
#
# Mechanical properties :
#
#
# Convention : Reuss Voigt Hill
#
# Bulk Modulus (GPa) = 21.01784 37.71698 29.36741
# Shear Modulus (GPa) = 7.93124 29.15193 18.54158
#
# Velocity S-wave (km/s) = 1.88702 3.61775 2.88522
# Velocity P-wave (km/s) = 3.76617 5.86382 4.92790
#
# Compressibility (1/GPa) = 0.04757862
#
# Stress axis : x y z
#
# Youngs Moduli (GPa) = 57.42962 5.73410 16.72243
#
# Poissons Ratio (x) = 0.21082 -0.25035
# Poissons Ratio (y) = 2.11145 1.34147
# Poissons Ratio (z) = -0.85978 0.45999
#
# Static dielectric constant tensor:
#      x y z
#    x 1.849600 0.000000 -0.025450 
#    y 0.000000 1.793650 0.000000 
#    z -0.025450 0.000000 1.905490 
# 
# From -- ./inp_files/71751.got.cif
#   From: 2010.05.17/outbox.cif.g08.bks.cpg/sg5_36_cif.got.tgz:71751.got - 2010.06.03 18:56:24.
