data_PCOD9124963
_publ_section_title
;
Structure prediction by ZEFSAII (Michael W. Deem and Ramdas Pophale) SiO2 
 PCOD9124963
Probable space group: C 2
;
_chemical_formula_sum "Si O2"
_cell_formula_units_Z 24
_cell_length_a 18.438935
_cell_length_b 7.870448
_cell_length_c 19.016877
_cell_angle_alpha 90.000000
_cell_angle_beta 24.750492
_cell_angle_gamma 90.000000
_cell_volume 1155.430350
_symmetry_space_group_name_H-M "C 2"
_symmetry_group_IT_number 5
_symmetry_cell_setting 'monoclinic'
loop_
_space_group_symop_operation_xyz
x,y,z
-x,y,-z
1/2+x,1/2+y,z
1/2-x,1/2+y,-z
loop_
_atom_site_type_symbol
_atom_site_label
_atom_site_fract_x
_atom_site_fract_y
_atom_site_fract_z
Si Si1 0.257816 0.040860 0.320870
Si Si2 0.416018 0.686866 0.667420
Si Si3 0.915465 0.191086 0.145244
Si Si4 0.390501 0.065531 0.657276
Si Si5 0.858180 0.608439 0.976607
Si Si6 0.750163 0.715187 0.918454
O O1 0.187957 0.101767 0.306112
O O2 0.097751 0.086191 0.513435
O O3 0.306050 0.841326 0.276877
O O4 0.441988 0.128340 0.176583
O O5 0.284244 0.697025 0.848509
O O6 0.464619 0.881206 0.607826
O O7 0.795896 0.047862 0.216345
O O8 0.000000 0.273448 0.000000
O O9 0.066323 0.124480 0.062630
O O10 0.500000 0.153599 0.500000
O O11 0.368520 0.172379 0.747188
O O12 0.804852 0.410896 0.031045
O O13 0.832232 0.661520 0.919037
#
# Coordination Sequence:
#
# PCOD9124963 Si02
#       6
#     4   4   4   4   4   4
#     4  10  21  39  62  95 123 162 212 255 309 369
#     4  11  22  39  62  96 125 162 210 256 313 369
#     4   9  20  38  64  90 120 166 207 256 314 364
#     4  11  22  39  61  96 126 155 212 258 305 370
#     4  11  23  43  64  91 130 167 206 257 316 375
#     4  10  23  42  63  92 124 169 207 255 318 372
#
# _framework density 20.771481000000001
#
# number of rings (size 3 to 8) (size 9 to 14) (size 15 to 20)
#    0.000    1.667    1.667    4.500    4.667    5.333 
#    3.000    0.000    0.000    0.000    0.000    0.000 
#    0.000    0.000    0.000    0.000    0.000    0.000 
#
# Total GULP energy -66946.091723 kJ/mol
# GULP energy per Si atom -5578.840977 kJ/mol
# Density = 2.072420 g / cm^3
# Si number density = 20.771481 Si / 1000 Ang^3
#
#
#
# Elastic Constant Matrix: (Units=GPa)
#
#
# Indices 1 2 3 4 5 6 
#
# 1 101.5843 3.7530 69.1647 -0.0002 7.1452 0.0000
# 2 3.7530 30.3783 21.1796 -0.0008 -4.6607 0.0002
# 3 69.1647 21.1796 150.1335 -0.0008 0.5334 0.0001
# 4 -0.0002 -0.0008 -0.0008 25.9790 0.0001 -0.2922
# 5 7.1452 -4.6607 0.5334 0.0001 27.4582 0.0001
# 6 0.0000 0.0002 0.0001 -0.2922 0.0001 22.0974
#
#
#
# Elastic Compliance Matrix: (Units=1/GPa)
#
#
# Indices 1 2 3 4 5 6 
#
# 1 0.014900 0.002699 -0.007233 0.000000 -0.003279 0.000000
# 2 0.002699 0.038120 -0.006642 0.000001 0.005897 0.000000
# 3 -0.007233 -0.006642 0.010928 0.000000 0.000543 0.000000
# 4 0.000000 0.000001 0.000000 0.038498 0.000000 0.000509
# 5 -0.003279 0.005897 0.000543 0.000000 0.038263 0.000000
# 6 0.000000 0.000000 0.000000 0.000509 0.000000 0.045261
#
#
# Mechanical properties :
#
#
# Convention : Reuss Voigt Hill
#
# Bulk Modulus (GPa) = 24.04080 52.25450 38.14765
# Shear Modulus (GPa) = 22.50347 27.64017 25.07182
#
# Velocity S-wave (km/s) = 3.29505 3.65180 3.47800
# Velocity P-wave (km/s) = 5.10642 6.55686 5.87656
#
# Compressibility (1/GPa) = 0.04159596
#
# Stress axis : x y z
#
# Youngs Moduli (GPa) = 67.11497 26.23264 91.50688
#
# Poissons Ratio (x) = -0.07081 0.66190
# Poissons Ratio (y) = -0.18116 0.60781
# Poissons Ratio (z) = 0.48546 0.17424
#
# Static dielectric constant tensor:
#      x y z
#    x 1.730980 0.000000 -0.012240 
#    y 0.000000 1.758080 0.000000 
#    z -0.012240 0.000000 1.830210 
# 
# From -- ./inp_files/67023.got.cif
#   From: 2010.05.17/outbox.cif.g08.bks.cpg/sg5_34_cif.got.tgz:67023.got - 2010.06.03 18:56:24.
