data_PCOD9124660
_publ_section_title
;
Structure prediction by ZEFSAII (Michael W. Deem and Ramdas Pophale) SiO2 
 PCOD9124660
Probable space group: C 2
;
_chemical_formula_sum "Si O2"
_cell_formula_units_Z 32
_cell_length_a 14.982583
_cell_length_b 25.023640
_cell_length_c 8.908969
_cell_angle_alpha 90.000000
_cell_angle_beta 151.035616
_cell_angle_gamma 90.000000
_cell_volume 1617.515557
_symmetry_space_group_name_H-M "C 2"
_symmetry_group_IT_number 5
_symmetry_cell_setting 'monoclinic'
loop_
_space_group_symop_operation_xyz
x,y,z
-x,y,-z
1/2+x,1/2+y,z
1/2-x,1/2+y,-z
loop_
_atom_site_type_symbol
_atom_site_label
_atom_site_fract_x
_atom_site_fract_y
_atom_site_fract_z
Si Si1 0.326860 0.723620 0.854419
Si Si2 0.459376 0.941738 0.117585
Si Si3 0.707149 0.338559 0.735152
Si Si4 0.804490 0.635769 0.122540
Si Si5 0.458535 0.212184 0.115074
Si Si6 0.679969 0.517031 0.868444
Si Si7 0.325512 0.439021 0.855681
Si Si8 0.043850 0.829257 0.891109
O O1 0.298450 0.780843 0.893747
O O2 0.322833 0.675204 0.966180
O O3 0.149717 0.714854 0.487501
O O4 0.500000 0.725052 0.000000
O O5 0.644642 0.940492 0.487708
O O6 0.500000 0.946412 0.000000
O O7 0.337109 0.888121 0.961114
O O8 0.342739 0.991202 0.009538
O O9 0.500000 0.341049 0.500000
O O10 0.650761 0.339261 0.476949
O O11 0.000000 0.631136 0.500000
O O12 0.843097 0.665539 0.021957
O O13 0.721464 0.577878 0.972866
O O14 0.375140 0.271173 0.026428
O O15 0.500000 0.205280 0.000000
O O16 0.500000 0.512386 0.500000
O O17 0.665558 0.483063 0.000985
O O18 0.500000 0.443618 0.000000
O O19 0.333831 0.381385 0.950319
O O20 0.000000 0.825939 0.000000
#
# Coordination Sequence:
#
# PCOD9124660 Si02
#       8
#     4   4   4   4   4   4   4   4
#     4  10  21  37  61  91 124 161 202 249 306 366
#     4  12  24  40  64  95 126 164 206 253 310 371
#     4  11  21  37  62  92 127 166 204 247 301 365
#     4  10  22  42  61  83 117 161 208 255 306 365
#     4   9  19  36  61  87 119 159 198 244 305 363
#     4  12  26  44  63  87 120 162 211 262 310 366
#     4  11  23  41  64  92 125 161 202 255 312 368
#     4   9  17  33  57  87 120 154 189 237 295 354
#
# _framework density 19.783427
#
# number of rings (size 3 to 8) (size 9 to 14) (size 15 to 20)
#    0.000    1.500    0.000    7.500    0.000    5.000 
#    0.000    2.500    0.000    6.000    0.000    0.000 
#    0.000    0.000    0.000    0.000    0.000    0.000 
#
# Total GULP energy -89350.556930 kJ/mol
# GULP energy per Si atom -5584.409808 kJ/mol
# Density = 1.973840 g / cm^3
# Si number density = 19.783427 Si / 1000 Ang^3
#
#
#
# Elastic Constant Matrix: (Units=GPa)
#
#
# Indices 1 2 3 4 5 6 
#
# 1 143.2456 81.0319 44.8331 0.0000 -1.0924 0.0000
# 2 81.0319 166.0653 69.5041 0.0000 -9.8768 0.0000
# 3 44.8331 69.5041 99.4042 -0.0001 -3.1095 -0.0001
# 4 0.0000 0.0000 -0.0001 4.3757 0.0000 -65.5704
# 5 -1.0924 -9.8768 -3.1095 0.0000 33.7712 0.0000
# 6 0.0000 0.0000 -0.0001 -65.5704 0.0000 -105.1963
#
#
#
# Elastic Compliance Matrix: (Units=1/GPa)
#
#
# Indices 1 2 3 4 5 6 
#
# 1 0.009840 -0.004231 -0.001513 0.000000 -0.001058 0.000000
# 2 -0.004231 0.010462 -0.005331 0.000000 0.002432 0.000000
# 3 -0.001513 -0.005331 0.014461 0.000000 -0.000276 0.000000
# 4 0.000000 0.000000 0.000000 0.022101 0.000000 -0.013776
# 5 -0.001058 0.002432 -0.000276 0.000000 0.030263 0.000000
# 6 0.000000 0.000000 0.000000 -0.013776 0.000000 -0.000919
#
#
# Mechanical properties :
#
#
# Convention : Reuss Voigt Hill
#
# Bulk Modulus (GPa) = 79.27900 88.82812 84.05356
# Shear Modulus (GPa) = 44.42038 0.81319 22.61678
#
# Velocity S-wave (km/s) = 4.74364 0.64182 3.38482
# Velocity P-wave (km/s) = 8.37635 6.74885 7.60625
#
# Compressibility (1/GPa) = 0.01261368
#
# Stress axis : x y z
#
# Youngs Moduli (GPa) = 101.62671 95.58270 69.15273
#
# Poissons Ratio (x) = 0.40444 0.10460
# Poissons Ratio (y) = 0.43001 0.36863
# Poissons Ratio (z) = 0.15371 0.50952
#
# Static dielectric constant tensor:
#      x y z
#    x 1.736670 0.000000 -0.014310 
#    y 0.000000 1.712730 0.000000 
#    z -0.014310 0.000000 1.714220 
# 
# From -- ./inp_files/25644.got.cif
#   From: 2010.05.17/outbox.cif.g08.bks.cpg/sg5_13_cif.got.tgz:25644.got - 2010.06.03 18:56:24.
