data_PCOD9124350
_publ_section_title
;
Structure prediction by ZEFSAII (Michael W. Deem and Ramdas Pophale) SiO2 
 PCOD9124350
Probable space group: C 2
;
_chemical_formula_sum "Si O2"
_cell_formula_units_Z 30
_cell_length_a 9.448803
_cell_length_b 14.853463
_cell_length_c 10.336330
_cell_angle_alpha 90.000000
_cell_angle_beta 104.884519
_cell_angle_gamma 90.000000
_cell_volume 1402.000784
_symmetry_space_group_name_H-M "C 2"
_symmetry_group_IT_number 5
_symmetry_cell_setting 'monoclinic'
loop_
_space_group_symop_operation_xyz
x,y,z
-x,y,-z
1/2+x,1/2+y,z
1/2-x,1/2+y,-z
loop_
_atom_site_type_symbol
_atom_site_label
_atom_site_fract_x
_atom_site_fract_y
_atom_site_fract_z
Si Si1 0.918133 0.103890 0.616396
Si Si2 0.797738 0.916005 0.664986
Si Si3 0.168424 0.751956 0.534579
Si Si4 0.837249 0.495294 0.906872
Si Si5 0.000000 0.410447 0.500000
Si Si6 0.608763 0.650185 0.903175
Si Si7 0.626790 0.860688 0.270585
Si Si8 0.809893 0.339671 0.089385
O O1 0.774555 0.165160 0.553318
O O2 0.000000 0.097523 0.500000
O O3 0.011937 0.154051 0.749689
O O4 0.900829 0.001544 0.667257
O O5 0.824631 0.829040 0.578439
O O6 0.641429 0.959357 0.585408
O O7 0.771102 0.879753 0.803831
O O8 0.226672 0.803620 0.678242
O O9 0.000000 0.724293 0.500000
O O10 0.718664 0.567943 0.913569
O O11 0.842362 0.464911 0.758189
O O12 0.782231 0.404025 0.963294
O O13 0.000000 0.516984 0.000000
O O14 0.945134 0.351022 0.605315
O O15 0.715666 0.735896 0.940918
O O16 0.500000 0.642876 0.000000
O O17 0.487729 0.839133 0.149118
#
# Coordination Sequence:
#
# PCOD9124350 Si02
#       8
#     4   4   4   4   2   4   4   4
#     4  12  27  44  71 104 142 189 236 291 356 421
#     4  10  22  41  64  97 139 178 231 285 349 411
#     4  11  24  41  64 100 138 178 234 287 349 412
#     4  10  23  42  69  97 133 178 236 282 354 414
#     4   8  18  32  64  88 128 168 222 262 344 394
#     4  12  25  44  72 105 138 185 239 290 350 430
#     4   9  18  38  65  90 128 181 216 276 337 421
#     4  10  20  44  69  96 132 187 224 282 350 428
#
# _framework density 21.397991000000001
#
# number of rings (size 3 to 8) (size 9 to 14) (size 15 to 20)
#    0.000    1.600    1.333    3.200   10.267    0.000 
#    0.000    6.000    0.000    0.000    0.000    0.000 
#    0.000    0.000    0.000    0.000    0.000    0.000 
#
# Total GULP energy -83577.098468 kJ/mol
# GULP energy per Si atom -5571.806565 kJ/mol
# Density = 2.134929 g / cm^3
# Si number density = 21.397991 Si / 1000 Ang^3
#
#
#
# Elastic Constant Matrix: (Units=GPa)
#
#
# Indices 1 2 3 4 5 6 
#
# 1 90.5972 54.0182 36.2028 0.0000 -8.7678 0.0000
# 2 54.0182 142.6123 31.3131 0.0000 -18.4854 0.0000
# 3 36.2028 31.3131 78.7412 0.0000 -21.0292 0.0000
# 4 0.0000 0.0000 0.0000 15.9021 0.0000 7.7108
# 5 -8.7678 -18.4854 -21.0292 0.0000 25.8905 0.0000
# 6 0.0000 0.0000 0.0000 7.7108 0.0000 22.9789
#
#
#
# Elastic Compliance Matrix: (Units=1/GPa)
#
#
# Indices 1 2 3 4 5 6 
#
# 1 0.016373 -0.005244 -0.006336 0.000000 -0.003346 0.000000
# 2 -0.005244 0.009673 -0.000084 0.000000 0.005063 0.000000
# 3 -0.006336 -0.000084 0.019228 0.000000 0.013412 0.000000
# 4 0.000000 0.000000 0.000000 0.075105 0.000000 -0.025202
# 5 -0.003346 0.005063 0.013412 0.000000 0.052000 0.000000
# 6 0.000000 0.000000 0.000000 -0.025202 0.000000 0.051975
#
#
# Mechanical properties :
#
#
# Convention : Reuss Voigt Hill
#
# Bulk Modulus (GPa) = 45.56460 61.66877 53.61669
# Shear Modulus (GPa) = 19.60813 25.64873 22.62843
#
# Velocity S-wave (km/s) = 3.03042 3.46591 3.25545
# Velocity P-wave (km/s) = 5.79523 6.70068 6.26434
#
# Compressibility (1/GPa) = 0.02194686
#
# Stress axis : x y z
#
# Youngs Moduli (GPa) = 61.07756 103.38148 52.00739
#
# Poissons Ratio (x) = 0.54214 0.32950
# Poissons Ratio (y) = 0.32030 0.00434
# Poissons Ratio (z) = 0.38697 0.00863
#
# Static dielectric constant tensor:
#      x y z
#    x 1.847840 0.000000 -0.011080 
#    y 0.000000 1.829090 0.000000 
#    z -0.011080 0.000000 1.859620 
# 
# From -- ./inp_files/36135.got.cif
#   From: 2010.05.17/outbox.cif.g08.bks.cpg/sg5_19_cif.got.tgz:36135.got - 2010.06.03 18:56:24.
