data_PCOD9124203
_publ_section_title
;
Structure prediction by ZEFSAII (Michael W. Deem and Ramdas Pophale) SiO2 
 PCOD9124203
Probable space group: C 2
;
_chemical_formula_sum "Si O2"
_cell_formula_units_Z 18
_cell_length_a 8.914685
_cell_length_b 11.331476
_cell_length_c 11.416884
_cell_angle_alpha 90.000000
_cell_angle_beta 39.380828
_cell_angle_gamma 90.000000
_cell_volume 731.732716
_symmetry_space_group_name_H-M "C 2"
_symmetry_group_IT_number 5
_symmetry_cell_setting 'monoclinic'
loop_
_space_group_symop_operation_xyz
x,y,z
-x,y,-z
1/2+x,1/2+y,z
1/2-x,1/2+y,-z
loop_
_atom_site_type_symbol
_atom_site_label
_atom_site_fract_x
_atom_site_fract_y
_atom_site_fract_z
Si Si1 0.247079 0.746730 0.101836
Si Si2 0.347903 0.337377 0.476118
Si Si3 0.353181 0.747762 0.767074
Si Si4 0.428856 0.992975 0.782525
Si Si5 0.000000 0.556381 0.000000
O O1 0.038188 0.835974 0.259331
O O2 0.157751 0.620154 0.204196
O O3 0.500000 0.776228 0.000000
O O4 0.301454 0.730025 0.934535
O O5 0.500000 0.308176 0.500000
O O6 0.199652 0.456049 0.590575
O O7 0.133661 0.246823 0.575936
O O8 0.191753 0.642972 0.818620
O O9 0.293550 0.887641 0.793218
O O10 0.406433 0.989089 0.939256
#
# Coordination Sequence:
#
# PCOD9124203 Si02
#       5
#     4   4   4   4   2
#     4  11  20  40  63  90 126 164 211 257 316 378
#     4  10  21  38  59  92 123 162 211 255 308 385
#     4   9  22  40  62  92 124 163 209 264 305 380
#     4   9  23  37  63  94 122 172 198 268 320 362
#     4  10  20  42  68  94 128 164 218 258 318 382
#
# _framework density 24.599146000000001
#
# number of rings (size 3 to 8) (size 9 to 14) (size 15 to 20)
#    1.333    0.889    2.222    0.000    6.222    1.778 
#    4.000    3.333    0.000    0.000    0.000    0.000 
#    0.000    0.000    0.000    0.000    0.000    0.000 
#
# Total GULP energy -50119.149508 kJ/mol
# GULP energy per Si atom -5568.794390 kJ/mol
# Density = 2.454316 g / cm^3
# Si number density = 24.599146 Si / 1000 Ang^3
#
#
#
# Elastic Constant Matrix: (Units=GPa)
#
#
# Indices 1 2 3 4 5 6 
#
# 1 41.6641 6.5091 21.1700 -0.0014 -16.2659 0.0008
# 2 6.5091 94.7711 39.0792 -0.0014 -12.9909 0.0010
# 3 21.1700 39.0792 181.9893 -0.0090 -36.9346 0.0066
# 4 -0.0014 -0.0014 -0.0090 -81.8966 0.0033 84.6473
# 5 -16.2659 -12.9909 -36.9346 0.0033 37.3648 -0.0021
# 6 0.0008 0.0010 0.0066 84.6473 -0.0021 -46.8351
#
#
#
# Elastic Compliance Matrix: (Units=1/GPa)
#
#
# Indices 1 2 3 4 5 6 
#
# 1 0.029066 0.000022 -0.001021 0.000000 0.011651 0.000000
# 2 0.000022 0.011693 -0.002110 0.000000 0.001990 0.000000
# 3 -0.001021 -0.002110 0.007290 0.000000 0.006028 0.000000
# 4 0.000000 0.000000 0.000000 0.014067 0.000000 0.025423
# 5 0.011651 0.001990 0.006028 0.000000 0.038486 -0.000001
# 6 0.000000 0.000000 0.000000 0.025423 -0.000001 0.024597
#
#
# Mechanical properties :
#
#
# Convention : Reuss Voigt Hill
#
# Bulk Modulus (GPa) = 23.90586 50.21567 37.06077
# Shear Modulus (GPa) = 34.39756 -1.49563 16.45096
#
# Velocity S-wave (km/s) = 3.74347 -0.78059 2.58885
# Velocity P-wave (km/s) = 5.33142 4.43232 4.90253
#
# Compressibility (1/GPa) = 0.04183074
#
# Stress axis : x y z
#
# Youngs Moduli (GPa) = 34.40494 85.52218 137.17386
#
# Poissons Ratio (x) = -0.00187 0.14008
# Poissons Ratio (y) = -0.00075 0.28938
# Poissons Ratio (z) = 0.03513 0.18042
#
# Static dielectric constant tensor:
#      x y z
#    x 2.197970 0.000000 -0.198630 
#    y 0.000000 2.101090 0.000000 
#    z -0.198630 0.000000 2.061720 
# 
# From -- ./inp_files/18495.got.cif
#   From: 2010.05.17/outbox.cif.g08.bks.cpg/sg5_10_cif.got.tgz:18495.got - 2010.06.03 18:56:24.
