data_PCOD9124067
_publ_section_title
;
Structure prediction by ZEFSAII (Michael W. Deem and Ramdas Pophale) SiO2 
 PCOD9124067
Probable space group: C 2
;
_chemical_formula_sum "Si O2"
_cell_formula_units_Z 26
_cell_length_a 13.588122
_cell_length_b 5.086911
_cell_length_c 13.420717
_cell_angle_alpha 90.000000
_cell_angle_beta 100.046830
_cell_angle_gamma 90.000000
_cell_volume 913.435771
_symmetry_space_group_name_H-M "C 2"
_symmetry_group_IT_number 5
_symmetry_cell_setting 'monoclinic'
loop_
_space_group_symop_operation_xyz
x,y,z
-x,y,-z
1/2+x,1/2+y,z
1/2-x,1/2+y,-z
loop_
_atom_site_type_symbol
_atom_site_label
_atom_site_fract_x
_atom_site_fract_y
_atom_site_fract_z
Si Si1 0.188080 0.759150 0.460672
Si Si2 0.192661 0.061000 0.983550
Si Si3 0.404572 0.753599 0.841132
Si Si4 0.568769 0.875944 0.700549
Si Si5 0.185610 0.871090 0.766525
Si Si6 0.000000 0.079023 0.500000
Si Si7 0.084461 0.711727 0.228911
O O1 0.225640 0.481801 0.512299
O O2 0.095286 0.895121 0.499661
O O3 0.147722 0.713554 0.341116
O O4 0.165651 0.892650 0.880784
O O5 0.271402 0.852556 0.044382
O O6 0.109630 0.131516 0.050311
O O7 0.487446 0.943115 0.775182
O O8 0.293098 0.738977 0.765564
O O9 0.457152 0.492755 0.797343
O O10 0.656517 0.664926 0.727630
O O11 0.508995 0.768475 0.596522
O O12 0.610176 0.168989 0.701098
O O13 0.375825 0.074759 0.862771
#
# Coordination Sequence:
#
# PCOD9124067 Si02
#       7
#     4   4   4   4   4   2   4
#     4  12  29  50  79 111 152 208 274 327 395 489
#     4  10  20  41  70 108 144 184 248 313 378 453
#     4  11  23  43  74 103 146 189 241 317 377 447
#     4  12  27  47  70 101 151 192 251 308 390 460
#     4  11  24  43  73 106 135 197 254 300 369 478
#     4  12  30  54  76 112 162 216 256 346 396 454
#     4  12  26  47  65 109 146 190 241 324 384 448
#
# _framework density 28.463961000000001
#
# number of rings (size 3 to 8) (size 9 to 14) (size 15 to 20)
#    0.000    0.615    0.000    9.231    6.462    4.308 
#    0.000    4.615    0.000    0.000    0.000    0.000 
#    0.000    0.000    0.000    0.000    0.000    0.000 
#
# Total GULP energy -72577.985431 kJ/mol
# GULP energy per Si atom -5582.921956 kJ/mol
# Density = 2.839918 g / cm^3
# Si number density = 28.463961 Si / 1000 Ang^3
#
#
#
# Elastic Constant Matrix: (Units=GPa)
#
#
# Indices 1 2 3 4 5 6 
#
# 1 128.4508 43.9616 26.2528 0.0000 -14.6715 0.0000
# 2 43.9616 264.8021 47.3954 0.0000 7.4594 0.0000
# 3 26.2528 47.3954 80.7254 0.0000 -23.6529 0.0000
# 4 0.0000 0.0000 0.0000 47.3078 0.0000 -11.3148
# 5 -14.6715 7.4594 -23.6529 0.0000 26.1517 0.0000
# 6 0.0000 0.0000 0.0000 -11.3148 0.0000 39.8997
#
#
#
# Elastic Compliance Matrix: (Units=1/GPa)
#
#
# Indices 1 2 3 4 5 6 
#
# 1 0.008993 -0.001531 -0.000571 0.000000 0.004965 0.000000
# 2 -0.001531 0.004949 -0.004182 0.000000 -0.006052 0.000000
# 3 -0.000571 -0.004182 0.020795 0.000000 0.019680 0.000000
# 4 0.000000 0.000000 0.000000 0.022676 0.000000 0.006431
# 5 0.004965 -0.006052 0.019680 0.000000 0.060550 0.000000
# 6 0.000000 0.000000 0.000000 0.006431 0.000000 0.026886
#
#
# Mechanical properties :
#
#
# Convention : Reuss Voigt Hill
#
# Bulk Modulus (GPa) = 45.10485 78.79977 61.95231
# Shear Modulus (GPa) = 30.33868 46.42974 38.38421
#
# Velocity S-wave (km/s) = 3.26830 4.04316 3.67620
# Velocity P-wave (km/s) = 5.48845 7.03849 6.31124
#
# Compressibility (1/GPa) = 0.02217057
#
# Stress axis : x y z
#
# Youngs Moduli (GPa) = 111.20068 202.04341 48.08890
#
# Poissons Ratio (x) = 0.30925 0.02746
# Poissons Ratio (y) = 0.17020 0.20108
# Poissons Ratio (z) = 0.06351 0.84485
#
# Static dielectric constant tensor:
#      x y z
#    x 2.537580 0.000000 -0.034110 
#    y 0.000000 2.154720 0.000000 
#    z -0.034110 0.000000 2.285810 
# 
# From -- ./inp_files/53854.got.cif
#   From: 2010.05.17/outbox.cif.g08.bks.cpg/sg5_27_cif.got.tgz:53854.got - 2010.06.03 18:56:24.
