data_PCOD9124388
_publ_section_title
;
Structure prediction by ZEFSAII (Michael W. Deem and Ramdas Pophale) SiO2 
 PCOD9124388
Probable space group: C 2
;
_chemical_formula_sum "Si O2"
_cell_formula_units_Z 32
_cell_length_a 23.307859
_cell_length_b 13.001840
_cell_length_c 9.246847
_cell_angle_alpha 90.000000
_cell_angle_beta 148.864749
_cell_angle_gamma 90.000000
_cell_volume 1448.911474
_symmetry_space_group_name_H-M "C 2"
_symmetry_group_IT_number 5
_symmetry_cell_setting 'monoclinic'
loop_
_space_group_symop_operation_xyz
x,y,z
-x,y,-z
1/2+x,1/2+y,z
1/2-x,1/2+y,-z
loop_
_atom_site_type_symbol
_atom_site_label
_atom_site_fract_x
_atom_site_fract_y
_atom_site_fract_z
Si Si1 0.124649 0.147640 0.300803
Si Si2 0.345250 0.196645 0.356136
Si Si3 0.862124 0.452524 0.068306
Si Si4 0.806069 0.958288 0.730627
Si Si5 0.610795 0.964963 0.546389
Si Si6 0.224545 0.682781 0.104349
Si Si7 0.538426 0.360057 0.737037
Si Si8 0.240296 0.300549 0.371828
O O1 0.170879 0.174889 0.561216
O O2 0.139408 0.252776 0.242332
O O3 0.195824 0.054885 0.381938
O O4 0.000000 0.114164 0.000000
O O5 0.404820 0.087789 0.472646
O O6 0.433231 0.289193 0.548235
O O7 0.287870 0.205585 0.385700
O O8 0.260714 0.194602 0.037529
O O9 0.845110 0.427958 0.201738
O O10 0.985006 0.425325 0.274198
O O11 0.836852 0.573712 0.002060
O O12 0.783910 0.384838 0.800981
O O13 0.814678 0.856581 0.650172
O O14 0.698070 0.950338 0.603999
O O15 0.915969 0.951768 0.066429
O O16 0.140244 0.777534 0.951343
O O17 0.500000 0.403063 0.500000
#
# Coordination Sequence:
#
# PCOD9124388 Si02
#       8
#     4   4   4   4   4   4   4   4
#     4  12  28  48  62  98 147 186 226 284 356 412
#     4  10  22  43  72  98 130 175 240 286 333 406
#     4  10  22  40  72 102 129 174 230 287 340 411
#     4  12  26  44  67 100 143 184 228 287 351 414
#     4  10  22  44  69  98 134 174 232 288 344 401
#     4  10  20  45  70  98 133 179 223 296 338 401
#     4  10  22  40  73 101 130 178 236 287 348 406
#     4  12  26  42  66 100 137 181 232 280 343 420
#
# _framework density 22.085545
#
# number of rings (size 3 to 8) (size 9 to 14) (size 15 to 20)
#    0.000    1.250    5.000    0.000    7.000    0.000 
#    4.500    2.500    0.000    0.000    0.000    0.000 
#    0.000    0.000    0.000    0.000    0.000    0.000 
#
# Total GULP energy -89156.742890 kJ/mol
# GULP energy per Si atom -5572.296431 kJ/mol
# Density = 2.203528 g / cm^3
# Si number density = 22.085545 Si / 1000 Ang^3
#
#
#
# Elastic Constant Matrix: (Units=GPa)
#
#
# Indices 1 2 3 4 5 6 
#
# 1 76.6401 -3.5254 44.5315 0.0000 -8.3851 0.0000
# 2 -3.5254 41.5082 -4.5809 0.0000 -3.9616 0.0000
# 3 44.5315 -4.5809 93.8792 0.0000 -7.9544 0.0000
# 4 0.0000 0.0000 0.0000 37.2849 0.0000 -6.9920
# 5 -8.3851 -3.9616 -7.9544 0.0000 16.9665 0.0000
# 6 0.0000 0.0000 0.0000 -6.9920 0.0000 28.9743
#
#
#
# Elastic Compliance Matrix: (Units=1/GPa)
#
#
# Indices 1 2 3 4 5 6 
#
# 1 0.018503 0.001192 -0.008248 0.000000 0.005556 0.000000
# 2 0.001192 0.025000 0.001249 0.000000 0.007012 0.000000
# 3 -0.008248 0.001249 0.014896 0.000000 0.003199 0.000000
# 4 0.000000 0.000000 0.000000 0.028092 0.000000 0.006779
# 5 0.005556 0.007012 0.003199 0.000000 0.064823 0.000000
# 6 0.000000 0.000000 0.000000 0.006779 0.000000 0.036149
#
#
# Mechanical properties :
#
#
# Convention : Reuss Voigt Hill
#
# Bulk Modulus (GPa) = 21.37486 31.65310 26.51398
# Shear Modulus (GPa) = 23.29122 28.35197 25.82159
#
# Velocity S-wave (km/s) = 3.25097 3.58681 3.42301
# Velocity P-wave (km/s) = 4.87760 5.61398 5.25869
#
# Compressibility (1/GPa) = 0.04678394
#
# Stress axis : x y z
#
# Youngs Moduli (GPa) = 54.04480 40.00024 67.13005
#
# Poissons Ratio (x) = -0.04766 0.55369
# Poissons Ratio (y) = -0.06440 -0.08383
# Poissons Ratio (z) = 0.44577 -0.04995
#
# Static dielectric constant tensor:
#      x y z
#    x 1.860960 0.000000 -0.010150 
#    y 0.000000 1.860010 0.000000 
#    z -0.010150 0.000000 1.804970 
# 
# From -- ./inp_files/31075.got.cif
#   From: 2010.05.17/outbox.cif.g08.bks.cpg/sg5_16_cif.got.tgz:31075.got - 2010.06.03 18:56:24.
