data_PCOD9124987
_publ_section_title
;
Structure prediction by ZEFSAII (Michael W. Deem and Ramdas Pophale) SiO2 
 PCOD9124987
Probable space group: C 2
;
_chemical_formula_sum "Si O2"
_cell_formula_units_Z 28
_cell_length_a 16.908683
_cell_length_b 10.335065
_cell_length_c 12.038861
_cell_angle_alpha 90.000000
_cell_angle_beta 150.355771
_cell_angle_gamma 90.000000
_cell_volume 1040.576108
_symmetry_space_group_name_H-M "C 2"
_symmetry_group_IT_number 5
_symmetry_cell_setting 'monoclinic'
loop_
_space_group_symop_operation_xyz
x,y,z
-x,y,-z
1/2+x,1/2+y,z
1/2-x,1/2+y,-z
loop_
_atom_site_type_symbol
_atom_site_label
_atom_site_fract_x
_atom_site_fract_y
_atom_site_fract_z
Si Si1 0.935486 0.129750 0.184541
Si Si2 0.849687 0.517418 0.467892
Si Si3 0.000000 0.000575 0.500000
Si Si4 0.957179 0.643445 0.145764
Si Si5 0.369621 0.388177 0.945023
Si Si6 0.712739 0.809110 0.434357
Si Si7 0.000000 0.449892 0.000000
Si Si8 0.316076 0.244701 0.283666
O O1 0.089794 0.215987 0.347183
O O2 0.951042 0.080057 0.330462
O O3 0.925872 0.000605 0.096630
O O4 0.791518 0.216642 0.955040
O O5 0.025854 0.553206 0.726156
O O6 0.775203 0.444891 0.483635
O O7 0.759632 0.645348 0.311554
O O8 0.804343 0.420700 0.316318
O O9 0.856430 0.896664 0.348056
O O10 0.119699 0.732166 0.354505
O O11 0.839967 0.758032 0.977027
O O12 0.945876 0.547743 0.029473
O O13 0.500000 0.374074 0.000000
O O14 0.625075 0.857773 0.215408
O O15 0.500000 0.194791 0.500000
#
# Coordination Sequence:
#
# PCOD9124987 Si02
#       8
#     4   4   2   4   4   4   2   4
#     4  11  25  42  71 101 128 177 227 279 335 396
#     4  10  21  39  63  95 128 170 223 260 324 394
#     4  10  24  52  66  94 130 176 226 288 340 386
#     4  11  21  40  62  95 140 178 202 258 325 397
#     4  11  20  39  66  97 134 175 212 252 329 402
#     4  11  24  37  62 104 131 174 210 268 324 399
#     4  10  24  38  56  94 142 166 214 244 314 402
#     4   9  23  46  69  90 124 178 224 287 340 378
#
# _framework density 26.908173000000001
#
# number of rings (size 3 to 8) (size 9 to 14) (size 15 to 20)
#    0.429    1.143    2.143    1.714    7.000    2.286 
#    6.429    1.429    0.000    0.000    0.000    0.000 
#    0.000    0.000    0.000    0.000    0.000    0.000 
#
# Total GULP energy -78109.396147 kJ/mol
# GULP energy per Si atom -5579.242582 kJ/mol
# Density = 2.684693 g / cm^3
# Si number density = 26.908173 Si / 1000 Ang^3
#
#
#
# Elastic Constant Matrix: (Units=GPa)
#
#
# Indices 1 2 3 4 5 6 
#
# 1 68.4522 36.2149 47.4913 0.0000 -17.8663 0.0000
# 2 36.2149 145.7317 88.5538 0.0000 -5.4160 0.0000
# 3 47.4913 88.5538 207.0890 0.0000 -47.8448 0.0000
# 4 0.0000 0.0000 0.0000 64.3464 0.0000 -0.7550
# 5 -17.8663 -5.4160 -47.8448 0.0000 41.5100 0.0000
# 6 0.0000 0.0000 0.0000 -0.7550 0.0000 35.5793
#
#
#
# Elastic Compliance Matrix: (Units=1/GPa)
#
#
# Indices 1 2 3 4 5 6 
#
# 1 0.019125 -0.003678 -0.001394 0.000000 0.006146 0.000000
# 2 -0.003678 0.010664 -0.005126 0.000000 -0.006100 0.000000
# 3 -0.001394 -0.005126 0.009605 0.000000 0.009802 0.000000
# 4 0.000000 0.000000 0.000000 0.015545 0.000000 0.000330
# 5 0.006146 -0.006100 0.009802 0.000000 0.037238 0.000000
# 6 0.000000 0.000000 0.000000 0.000330 0.000000 0.028113
#
#
# Mechanical properties :
#
#
# Convention : Reuss Voigt Hill
#
# Bulk Modulus (GPa) = 52.63107 85.08810 68.85959
# Shear Modulus (GPa) = 34.00965 44.88800 39.44883
#
# Velocity S-wave (km/s) = 3.55902 4.08878 3.83306
# Velocity P-wave (km/s) = 6.04076 7.34719 6.72577
#
# Compressibility (1/GPa) = 0.01900018
#
# Stress axis : x y z
#
# Youngs Moduli (GPa) = 52.28709 93.77481 104.11308
#
# Poissons Ratio (x) = 0.34486 0.14508
# Poissons Ratio (y) = 0.19229 0.53367
# Poissons Ratio (z) = 0.07286 0.48068
#
# Static dielectric constant tensor:
#      x y z
#    x 2.358100 0.000000 -0.018910 
#    y 0.000000 2.174270 0.000000 
#    z -0.018910 0.000000 2.141520 
# 
# From -- ./inp_files/46450.got.cif
#   From: 2010.05.17/outbox.cif.g08.bks.cpg/sg5_24_cif.got.tgz:46450.got - 2010.06.03 18:56:24.
