data_PCOD9124934
_publ_section_title
;
Structure prediction by ZEFSAII (Michael W. Deem and Ramdas Pophale) SiO2 
 PCOD9124934
Probable space group: C 2
;
_chemical_formula_sum "Si O2"
_cell_formula_units_Z 28
_cell_length_a 11.737774
_cell_length_b 7.843211
_cell_length_c 15.295785
_cell_angle_alpha 90.000000
_cell_angle_beta 110.247143
_cell_angle_gamma 90.000000
_cell_volume 1321.146015
_symmetry_space_group_name_H-M "C 2"
_symmetry_group_IT_number 5
_symmetry_cell_setting 'monoclinic'
loop_
_space_group_symop_operation_xyz
x,y,z
-x,y,-z
1/2+x,1/2+y,z
1/2-x,1/2+y,-z
loop_
_atom_site_type_symbol
_atom_site_label
_atom_site_fract_x
_atom_site_fract_y
_atom_site_fract_z
Si Si1 0.403825 0.337070 0.787537
Si Si2 0.711729 0.821192 0.426117
Si Si3 0.789184 0.320492 0.116470
Si Si4 0.794766 0.176504 0.373469
Si Si5 0.135354 0.491486 0.568809
Si Si6 0.984434 0.144179 0.288958
Si Si7 0.095595 0.638036 0.947391
O O1 0.316322 0.383638 0.845243
O O2 0.334455 0.193140 0.712274
O O3 0.437000 0.490092 0.731184
O O4 0.526177 0.263970 0.862903
O O5 0.690047 0.819134 0.527988
O O6 0.800400 0.669541 0.422570
O O7 0.585601 0.781780 0.346241
O O8 0.759475 0.010330 0.426968
O O9 0.885838 0.200498 0.191570
O O10 0.863824 0.472458 0.093792
O O11 0.714258 0.220119 0.022578
O O12 0.843865 0.377762 0.343178
O O13 0.911177 0.086275 0.355878
O O14 0.000000 0.507852 0.500000
O O15 0.000000 0.598824 0.000000
#
# Coordination Sequence:
#
# PCOD9124934 Si02
#       7
#     4   4   4   4   4   4   4
#     4  10  22  40  62  90 128 164 205 262 308 365
#     4  12  25  41  67  92 122 169 209 259 325 369
#     4  10  22  38  62  92 126 164 209 254 307 372
#     4  11  24  42  63  92 127 161 212 261 311 377
#     4  12  25  42  64  91 124 161 212 263 314 379
#     4  11  23  41  64  92 127 164 210 261 311 375
#     4  10  21  39  61  91 128 163 206 258 303 366
#
# _framework density 21.193722999999999
#
# number of rings (size 3 to 8) (size 9 to 14) (size 15 to 20)
#    0.000    1.143    4.286    1.714    0.000    5.143 
#    0.000    0.000    0.000    0.000    0.000    0.000 
#    0.000    0.000    0.000    0.000    0.000    0.000 
#
# Total GULP energy -77944.254727 kJ/mol
# GULP energy per Si atom -5567.446766 kJ/mol
# Density = 2.114549 g / cm^3
# Si number density = 21.193723 Si / 1000 Ang^3
#
#
#
# Elastic Constant Matrix: (Units=GPa)
#
#
# Indices 1 2 3 4 5 6 
#
# 1 75.1293 59.6707 23.8177 0.0000 11.1466 0.0000
# 2 59.6707 116.8937 31.1296 0.0000 -3.9712 0.0000
# 3 23.8177 31.1296 78.6402 0.0000 24.7637 0.0000
# 4 0.0000 0.0000 0.0000 28.9539 0.0000 -2.5160
# 5 11.1466 -3.9712 24.7637 0.0000 40.3485 0.0000
# 6 0.0000 0.0000 0.0000 -2.5160 0.0000 36.3507
#
#
#
# Elastic Compliance Matrix: (Units=1/GPa)
#
#
# Indices 1 2 3 4 5 6 
#
# 1 0.024784 -0.012998 0.000245 0.000000 -0.008277 0.000000
# 2 -0.012998 0.016944 -0.005487 0.000000 0.008626 0.000000
# 3 0.000245 -0.005487 0.018600 0.000000 -0.012024 0.000000
# 4 0.000000 0.000000 0.000000 0.034747 0.000000 0.002405
# 5 -0.008277 0.008626 -0.012024 0.000000 0.035299 0.000000
# 6 0.000000 0.000000 0.000000 0.002405 0.000000 0.027676
#
#
# Mechanical properties :
#
#
# Convention : Reuss Voigt Hill
#
# Bulk Modulus (GPa) = 41.93084 55.54434 48.73759
# Shear Modulus (GPa) = 24.69383 31.53362 28.11373
#
# Velocity S-wave (km/s) = 3.41713 3.86148 3.64608
# Velocity P-wave (km/s) = 5.94950 6.79310 6.38525
#
# Compressibility (1/GPa) = 0.02384880
#
# Stress axis : x y z
#
# Youngs Moduli (GPa) = 40.34824 59.01728 53.76319
#
# Poissons Ratio (x) = 0.76711 -0.01318
# Poissons Ratio (y) = 0.52445 0.29500
# Poissons Ratio (z) = -0.00989 0.32383
#
# Static dielectric constant tensor:
#      x y z
#    x 1.920360 0.000000 -0.032020 
#    y 0.000000 1.740700 0.000000 
#    z -0.032020 0.000000 1.801420 
# 
# From -- ./inp_files/52504.got.cif
#   From: 2010.05.17/outbox.cif.g08.bks.cpg/sg5_27_cif.got.tgz:52504.got - 2010.06.03 18:56:24.
