data_PCOD9124173
_publ_section_title
;
Structure prediction by ZEFSAII (Michael W. Deem and Ramdas Pophale) SiO2 
 PCOD9124173
Probable space group: C 2
;
_chemical_formula_sum "Si O2"
_cell_formula_units_Z 22
_cell_length_a 15.655747
_cell_length_b 7.482188
_cell_length_c 7.637128
_cell_angle_alpha 90.000000
_cell_angle_beta 79.163247
_cell_angle_gamma 90.000000
_cell_volume 878.653721
_symmetry_space_group_name_H-M "C 2"
_symmetry_group_IT_number 5
_symmetry_cell_setting 'monoclinic'
loop_
_space_group_symop_operation_xyz
x,y,z
-x,y,-z
1/2+x,1/2+y,z
1/2-x,1/2+y,-z
loop_
_atom_site_type_symbol
_atom_site_label
_atom_site_fract_x
_atom_site_fract_y
_atom_site_fract_z
Si Si1 0.757091 0.731080 0.466803
Si Si2 0.127889 0.969190 0.433600
Si Si3 0.411277 0.501177 0.938956
Si Si4 0.262085 0.023417 0.796803
Si Si5 0.500000 0.783192 0.500000
Si Si6 0.566850 0.926930 0.120637
O O1 0.725740 0.550898 0.383316
O O2 0.738281 0.688346 0.679437
O O3 0.856662 0.801608 0.446001
O O4 0.711834 0.875737 0.358746
O O5 0.090548 0.930390 0.258727
O O6 0.074235 0.138006 0.526928
O O7 0.409285 0.719163 0.930696
O O8 0.500000 0.450041 0.000000
O O9 0.322365 0.455098 0.070697
O O10 0.344762 0.038737 0.890344
O O11 0.521553 0.904546 0.326562
O O12 0.500000 0.991557 0.000000
#
# Coordination Sequence:
#
# PCOD9124173 Si02
#       6
#     4   4   4   4   2   4
#     4  10  23  38  66  93 128 176 217 274 329 395
#     4  10  22  39  65  94 126 174 219 272 335 387
#     4  10  23  39  67  95 127 174 225 275 325 396
#     4  11  23  43  67 100 132 174 231 273 335 400
#     4  10  20  42  66  98 130 174 232 262 332 410
#     4  10  23  41  69 102 128 182 222 278 331 402
#
# _framework density 25.038305999999999
#
# number of rings (size 3 to 8) (size 9 to 14) (size 15 to 20)
#    0.000    1.818    3.636    0.000   17.818    0.000 
#    0.000    1.818    0.000    0.000    0.000    0.000 
#    0.000    0.000    0.000    0.000    0.000    0.000 
#
# Total GULP energy -61353.726974 kJ/mol
# GULP energy per Si atom -5577.611543 kJ/mol
# Density = 2.498132 g / cm^3
# Si number density = 25.038306 Si / 1000 Ang^3
#
#
#
# Elastic Constant Matrix: (Units=GPa)
#
#
# Indices 1 2 3 4 5 6 
#
# 1 191.6599 26.9761 85.2198 0.0000 45.0518 0.0000
# 2 26.9761 54.0431 1.3425 0.0000 0.9236 0.0000
# 3 85.2198 1.3425 94.4546 0.0000 19.0018 0.0000
# 4 0.0000 0.0000 0.0000 16.1524 0.0000 4.3608
# 5 45.0518 0.9236 19.0018 0.0000 51.4875 0.0000
# 6 0.0000 0.0000 0.0000 4.3608 0.0000 32.5551
#
#
#
# Elastic Compliance Matrix: (Units=1/GPa)
#
#
# Indices 1 2 3 4 5 6 
#
# 1 0.011560 -0.005432 -0.009006 0.000000 -0.006694 0.000000
# 2 -0.005432 0.021066 0.004020 0.000000 0.002892 0.000000
# 3 -0.009006 0.004020 0.018455 0.000000 0.000997 0.000000
# 4 0.000000 0.000000 0.000000 0.064233 0.000000 -0.008604
# 5 -0.006694 0.002892 0.000997 0.000000 0.024859 0.000000
# 6 0.000000 0.000000 0.000000 -0.008604 0.000000 0.031870
#
#
# Mechanical properties :
#
#
# Convention : Reuss Voigt Hill
#
# Bulk Modulus (GPa) = 33.06401 63.02606 48.04504
# Shear Modulus (GPa) = 24.63525 35.14695 29.89110
#
# Velocity S-wave (km/s) = 3.14012 3.75070 3.45891
# Velocity P-wave (km/s) = 5.13626 6.63201 5.93147
#
# Compressibility (1/GPa) = 0.03024437
#
# Stress axis : x y z
#
# Youngs Moduli (GPa) = 86.50466 47.46983 54.18647
#
# Poissons Ratio (x) = 0.25787 0.48800
# Poissons Ratio (y) = 0.46991 -0.21783
# Poissons Ratio (z) = 0.77906 -0.19083
#
# Static dielectric constant tensor:
#      x y z
#    x 2.050170 0.000000 -0.010910 
#    y 0.000000 2.120270 0.000000 
#    z -0.010910 0.000000 1.965190 
# 
# From -- ./inp_files/22569.got.cif
#   From: 2010.05.17/outbox.cif.g08.bks.cpg/sg5_12_cif.got.tgz:22569.got - 2010.06.03 18:56:24.
