data_PCOD9124236
_publ_section_title
;
Structure prediction by ZEFSAII (Michael W. Deem and Ramdas Pophale) SiO2 
 PCOD9124236
Probable space group: C 2
;
_chemical_formula_sum "Si O2"
_cell_formula_units_Z 20
_cell_length_a 14.529761
_cell_length_b 11.198488
_cell_length_c 5.163707
_cell_angle_alpha 90.000000
_cell_angle_beta 85.862105
_cell_angle_gamma 90.000000
_cell_volume 838.003606
_symmetry_space_group_name_H-M "C 2"
_symmetry_group_IT_number 5
_symmetry_cell_setting 'monoclinic'
loop_
_space_group_symop_operation_xyz
x,y,z
-x,y,-z
1/2+x,1/2+y,z
1/2-x,1/2+y,-z
loop_
_atom_site_type_symbol
_atom_site_label
_atom_site_fract_x
_atom_site_fract_y
_atom_site_fract_z
Si Si1 0.598742 0.069100 0.111755
Si Si2 0.096866 0.840068 0.141882
Si Si3 0.384231 0.674649 0.318261
Si Si4 0.500000 0.889878 0.500000
Si Si5 0.290997 0.567493 0.864801
Si Si6 0.500000 0.490662 0.500000
O O1 0.621276 0.204429 0.190793
O O2 0.574581 0.971971 0.334261
O O3 0.500000 0.077960 0.000000
O O4 0.681836 0.044690 0.897302
O O5 0.080315 0.900286 0.423030
O O6 0.168366 0.940348 0.034078
O O7 0.000000 0.843665 0.000000
O O8 0.435505 0.800404 0.344939
O O9 0.328622 0.624596 0.585596
O O10 0.469264 0.580461 0.284717
O O11 0.323246 0.661618 0.077295
#
# Coordination Sequence:
#
# PCOD9124236 Si02
#       6
#     4   4   4   2   4   2
#     4  11  28  45  68 107 150 203 232 309 376 444
#     4  10  20  42  70  97 143 180 247 296 360 433
#     4  10  24  43  77 101 141 185 251 303 358 435
#     4  11  27  46  74 104 159 191 250 302 390 435
#     4  11  25  47  72 110 137 199 252 301 363 436
#     4   9  17  38  68 100 123 181 232 298 350 411
#
# _framework density 23.866243000000001
#
# number of rings (size 3 to 8) (size 9 to 14) (size 15 to 20)
#    0.000    1.600    2.000    0.600    8.400    0.000 
#    3.600    0.000    0.000    0.000    0.000    0.000 
#    0.000    0.000    0.000    0.000    0.000    0.000 
#
# Total GULP energy -55668.506169 kJ/mol
# GULP energy per Si atom -5566.850617 kJ/mol
# Density = 2.381192 g / cm^3
# Si number density = 23.866243 Si / 1000 Ang^3
#
#
#
# Elastic Constant Matrix: (Units=GPa)
#
#
# Indices 1 2 3 4 5 6 
#
# 1 96.2959 19.7357 19.8852 0.0000 -23.8056 0.0000
# 2 19.7357 156.9938 24.9608 0.0000 -11.9179 0.0000
# 3 19.8852 24.9608 105.1164 0.0000 -10.0312 0.0000
# 4 0.0000 0.0000 0.0000 26.5035 0.0000 0.6659
# 5 -23.8056 -11.9179 -10.0312 0.0000 27.9990 0.0000
# 6 0.0000 0.0000 0.0000 0.6659 0.0000 7.8315
#
#
#
# Elastic Compliance Matrix: (Units=1/GPa)
#
#
# Indices 1 2 3 4 5 6 
#
# 1 0.013436 -0.000663 -0.001368 0.000000 0.010652 0.000000
# 2 -0.000663 0.006803 -0.001312 0.000000 0.001862 0.000000
# 3 -0.001368 -0.001312 0.010271 0.000000 0.001958 0.000000
# 4 0.000000 0.000000 0.000000 0.037812 0.000000 -0.003215
# 5 0.010652 0.001862 0.001958 0.000000 0.046266 0.000000
# 6 0.000000 0.000000 0.000000 -0.003215 0.000000 0.127963
#
#
# Mechanical properties :
#
#
# Convention : Reuss Voigt Hill
#
# Bulk Modulus (GPa) = 41.97559 54.17438 48.07499
# Shear Modulus (GPa) = 19.44177 32.05509 25.74843
#
# Velocity S-wave (km/s) = 2.85724 3.66883 3.28817
# Velocity P-wave (km/s) = 5.33958 6.37930 5.88246
#
# Compressibility (1/GPa) = 0.02382337
#
# Stress axis : x y z
#
# Youngs Moduli (GPa) = 74.42572 146.99363 97.36621
#
# Poissons Ratio (x) = 0.09746 0.13318
# Poissons Ratio (y) = 0.04934 0.12778
# Poissons Ratio (z) = 0.10180 0.19291
#
# Static dielectric constant tensor:
#      x y z
#    x 2.055590 0.000000 -0.119470 
#    y 0.000000 1.931230 0.000000 
#    z -0.119470 0.000000 2.132060 
# 
# From -- ./inp_files/6493.got.cif
#   From: 2010.05.17/outbox.cif.g08.bks.cpg/sg5_4_cif.got.tgz:6493.got - 2010.06.03 18:56:24.
