data_PCOD9124403
_publ_section_title
;
Structure prediction by ZEFSAII (Michael W. Deem and Ramdas Pophale) SiO2 
 PCOD9124403
Probable space group: C 2
;
_chemical_formula_sum "Si O2"
_cell_formula_units_Z 24
_cell_length_a 8.707070
_cell_length_b 21.272665
_cell_length_c 8.523447
_cell_angle_alpha 90.000000
_cell_angle_beta 130.948580
_cell_angle_gamma 90.000000
_cell_volume 1192.415378
_symmetry_space_group_name_H-M "C 2"
_symmetry_group_IT_number 5
_symmetry_cell_setting 'monoclinic'
loop_
_space_group_symop_operation_xyz
x,y,z
-x,y,-z
1/2+x,1/2+y,z
1/2-x,1/2+y,-z
loop_
_atom_site_type_symbol
_atom_site_label
_atom_site_fract_x
_atom_site_fract_y
_atom_site_fract_z
Si Si1 0.572496 0.334980 0.226338
Si Si2 0.369621 0.995196 0.651188
Si Si3 0.360685 0.105004 0.049923
Si Si4 0.500000 0.896318 0.500000
Si Si5 0.931851 0.704326 0.620542
Si Si6 0.415809 0.603679 0.620494
Si Si7 0.500000 0.411540 0.500000
O O1 0.806236 0.353471 0.380124
O O2 0.556349 0.260995 0.249656
O O3 0.492274 0.372315 0.329690
O O4 0.500000 0.350443 0.000000
O O5 0.494609 0.943463 0.641807
O O6 0.198567 0.956468 0.630528
O O7 0.531225 0.038580 0.847143
O O8 0.236689 0.044672 0.456882
O O9 0.408314 0.150396 0.225807
O O10 0.500000 0.131585 0.000000
O O11 0.121783 0.102226 0.858397
O O12 0.717034 0.667513 0.463476
O O13 0.000000 0.731105 0.500000
O O14 0.500000 0.597368 0.500000
#
# Coordination Sequence:
#
# PCOD9124403 Si02
#       7
#     4   4   4   2   4   4   2
#     4  11  25  45  69  95 128 179 226 271 334 382
#     4  10  21  40  66  93 137 168 212 267 335 385
#     4  11  21  38  67  98 125 171 211 258 335 397
#     4  10  26  42  62 100 132 170 220 280 314 396
#     4  11  25  43  65  94 131 167 222 282 325 388
#     4  11  22  40  66  98 129 173 210 267 336 395
#     4  10  20  46  68  94 136 174 224 274 320 392
#
# _framework density 20.127213999999999
#
# number of rings (size 3 to 8) (size 9 to 14) (size 15 to 20)
#    0.000    1.333    5.000    0.500    5.833    4.667 
#    0.000    2.500    0.000    0.000    0.000    0.000 
#    0.000    0.000    0.000    0.000    0.000    0.000 
#
# Total GULP energy -66903.296058 kJ/mol
# GULP energy per Si atom -5575.274672 kJ/mol
# Density = 2.008140 g / cm^3
# Si number density = 20.127214 Si / 1000 Ang^3
#
#
#
# Elastic Constant Matrix: (Units=GPa)
#
#
# Indices 1 2 3 4 5 6 
#
# 1 36.6143 4.3515 12.1138 0.0000 -7.1395 0.0000
# 2 4.3515 68.0998 27.5696 0.0000 2.5908 0.0000
# 3 12.1138 27.5696 115.3324 0.0000 10.2552 0.0000
# 4 0.0000 0.0000 0.0000 19.1955 0.0000 -1.2341
# 5 -7.1395 2.5908 10.2552 0.0000 33.7737 0.0000
# 6 0.0000 0.0000 0.0000 -1.2341 0.0000 -15.2139
#
#
#
# Elastic Compliance Matrix: (Units=1/GPa)
#
#
# Indices 1 2 3 4 5 6 
#
# 1 0.030074 -0.000729 -0.003653 0.000000 0.007523 0.000000
# 2 -0.000729 0.016275 -0.003792 0.000000 -0.000251 0.000000
# 3 -0.003653 -0.003792 0.010281 0.000000 -0.003603 0.000000
# 4 0.000000 0.000000 0.000000 0.051825 0.000000 -0.004204
# 5 0.007523 -0.000251 -0.003603 0.000000 0.032312 0.000000
# 6 0.000000 0.000000 0.000000 -0.004204 0.000000 -0.065388
#
#
# Mechanical properties :
#
#
# Convention : Reuss Voigt Hill
#
# Bulk Modulus (GPa) = 24.82459 34.23514 29.52987
# Shear Modulus (GPa) = 47.54863 19.28517 33.41690
#
# Velocity S-wave (km/s) = 4.86573 3.09878 4.07908
# Velocity P-wave (km/s) = 6.62780 5.46347 6.07360
#
# Compressibility (1/GPa) = 0.04028263
#
# Stress axis : x y z
#
# Youngs Moduli (GPa) = 33.25137 61.44213 97.26587
#
# Poissons Ratio (x) = 0.04478 0.35536
# Poissons Ratio (y) = 0.02423 0.36880
# Poissons Ratio (z) = 0.12148 0.23297
#
# Static dielectric constant tensor:
#      x y z
#    x 1.792890 0.000000 -0.114880 
#    y 0.000000 1.711420 0.000000 
#    z -0.114880 0.000000 1.881210 
# 
# From -- ./inp_files/16881.got.cif
#   From: 2010.05.17/outbox.cif.g08.bks.cpg/sg5_9_cif.got.tgz:16881.got - 2010.06.03 18:56:24.
