data_PCOD9124715
_publ_section_title
;
Structure prediction by ZEFSAII (Michael W. Deem and Ramdas Pophale) SiO2 
 PCOD9124715
Probable space group: C 2
;
_chemical_formula_sum "Si O2"
_cell_formula_units_Z 22
_cell_length_a 8.846851
_cell_length_b 20.424890
_cell_length_c 7.797554
_cell_angle_alpha 90.000000
_cell_angle_beta 131.212916
_cell_angle_gamma 90.000000
_cell_volume 1059.933203
_symmetry_space_group_name_H-M "C 2"
_symmetry_group_IT_number 5
_symmetry_cell_setting 'monoclinic'
loop_
_space_group_symop_operation_xyz
x,y,z
-x,y,-z
1/2+x,1/2+y,z
1/2-x,1/2+y,-z
loop_
_atom_site_type_symbol
_atom_site_label
_atom_site_fract_x
_atom_site_fract_y
_atom_site_fract_z
Si Si1 0.761943 0.027980 0.884821
Si Si2 0.766934 0.174178 0.855452
Si Si3 0.000000 0.421099 0.500000
Si Si4 0.000000 0.781671 0.500000
Si Si5 0.727072 0.683580 0.730367
Si Si6 0.634878 0.328958 0.263406
Si Si7 0.500000 0.072342 0.000000
O O1 0.705053 0.099703 0.768802
O O2 0.672181 0.035591 0.014843
O O3 0.628853 0.969079 0.715312
O O4 0.000000 0.018868 0.000000
O O5 0.676618 0.230306 0.670089
O O6 0.746348 0.187481 0.043604
O O7 0.000000 0.174962 0.000000
O O8 0.170540 0.372749 0.556195
O O9 0.991053 0.826812 0.658480
O O10 0.500000 0.672518 0.500000
O O11 0.798783 0.753579 0.715806
O O12 0.865378 0.621901 0.782264
O O13 0.500000 0.349369 0.000000
#
# Coordination Sequence:
#
# PCOD9124715 Si02
#       7
#     4   4   2   2   4   4   2
#     4  10  23  46  66  97 136 180 234 285 337 409
#     4  10  21  37  69 105 134 169 224 285 350 411
#     4  12  27  46  64  90 137 192 226 282 334 404
#     4  12  23  40  70 104 133 176 224 282 354 408
#     4  11  20  38  66 105 146 174 215 291 355 408
#     4  12  24  44  64  98 142 179 230 280 341 419
#     4  10  22  42  74 104 132 176 228 294 356 410
#
# _framework density 20.756025000000001
#
# number of rings (size 3 to 8) (size 9 to 14) (size 15 to 20)
#    0.000    1.091    3.636    3.273    0.000    4.364 
#    6.545    0.000    0.000    0.000    0.000    0.000 
#    0.000    0.000    0.000    0.000    0.000    0.000 
#
# Total GULP energy -61252.387626 kJ/mol
# GULP energy per Si atom -5568.398875 kJ/mol
# Density = 2.070878 g / cm^3
# Si number density = 20.756025 Si / 1000 Ang^3
#
#
#
# Elastic Constant Matrix: (Units=GPa)
#
#
# Indices 1 2 3 4 5 6 
#
# 1 112.2069 39.3907 34.7683 0.0000 7.7973 0.0000
# 2 39.3907 83.1211 33.0114 0.0000 2.6832 0.0000
# 3 34.7683 33.0114 97.1542 0.0000 15.8229 0.0000
# 4 0.0000 0.0000 0.0000 30.5935 0.0000 16.2960
# 5 7.7973 2.6832 15.8229 0.0000 36.0374 0.0000
# 6 0.0000 0.0000 0.0000 16.2960 0.0000 7.3335
#
#
#
# Elastic Compliance Matrix: (Units=1/GPa)
#
#
# Indices 1 2 3 4 5 6 
#
# 1 0.011250 -0.004355 -0.002372 0.000000 -0.001068 0.000000
# 2 -0.004355 0.015635 -0.004004 0.000000 0.001536 0.000000
# 3 -0.002372 -0.004004 0.013323 0.000000 -0.005038 0.000000
# 4 0.000000 0.000000 0.000000 -0.177983 0.000000 0.395503
# 5 -0.001068 0.001536 -0.005038 0.000000 0.030078 0.000000
# 6 0.000000 0.000000 0.000000 0.395503 0.000000 -0.742503
#
#
# Mechanical properties :
#
#
# Convention : Reuss Voigt Hill
#
# Bulk Modulus (GPa) = 53.34649 56.31367 54.83008
# Shear Modulus (GPa) = -6.07911 27.14699 10.53394
#
# Velocity S-wave (km/s) = -1.71324 3.62043 2.25525
# Velocity P-wave (km/s) = 4.67374 6.68332 5.76674
#
# Compressibility (1/GPa) = 0.01874538
#
# Stress axis : x y z
#
# Youngs Moduli (GPa) = 88.88727 63.95886 75.05767
#
# Poissons Ratio (x) = 0.27852 0.17807
# Poissons Ratio (y) = 0.38708 0.30056
# Poissons Ratio (z) = 0.21088 0.25611
#
# Static dielectric constant tensor:
#      x y z
#    x 1.978460 0.000000 -0.024380 
#    y 0.000000 1.749080 0.000000 
#    z -0.024380 0.000000 1.740070 
# 
# From -- ./inp_files/16945.got.cif
#   From: 2010.05.17/outbox.cif.g08.bks.cpg/sg5_9_cif.got.tgz:16945.got - 2010.06.03 18:56:24.
