data_PCOD9124326
_publ_section_title
;
Structure prediction by ZEFSAII (Michael W. Deem and Ramdas Pophale) SiO2 
 PCOD9124326
Probable space group: C 2
;
_chemical_formula_sum "Si O2"
_cell_formula_units_Z 24
_cell_length_a 11.552943
_cell_length_b 15.694558
_cell_length_c 10.570519
_cell_angle_alpha 90.000000
_cell_angle_beta 145.745609
_cell_angle_gamma 90.000000
_cell_volume 1078.809597
_symmetry_space_group_name_H-M "C 2"
_symmetry_group_IT_number 5
_symmetry_cell_setting 'monoclinic'
loop_
_space_group_symop_operation_xyz
x,y,z
-x,y,-z
1/2+x,1/2+y,z
1/2-x,1/2+y,-z
loop_
_atom_site_type_symbol
_atom_site_label
_atom_site_fract_x
_atom_site_fract_y
_atom_site_fract_z
Si Si1 0.583227 0.638080 0.849785
Si Si2 0.431888 0.266681 0.185767
Si Si3 0.704641 0.011104 0.121574
Si Si4 0.632916 0.773059 0.498713
Si Si5 0.500000 0.515637 0.000000
Si Si6 0.500000 0.372416 0.500000
Si Si7 0.348536 0.913468 0.184483
O O1 0.631952 0.582373 0.769625
O O2 0.434671 0.714864 0.679646
O O3 0.485888 0.576613 0.865751
O O4 0.797814 0.681955 0.087954
O O5 0.627514 0.257087 0.272555
O O6 0.509563 0.312471 0.384815
O O7 0.283108 0.332616 0.981139
O O8 0.808395 0.935962 0.298330
O O9 0.500000 0.045924 0.000000
O O10 0.637548 0.973005 0.925062
O O11 0.500000 0.747961 0.500000
O O12 0.565953 0.871348 0.416043
O O13 0.295171 0.460244 0.842389
#
# Coordination Sequence:
#
# PCOD9124326 Si02
#       7
#     4   4   4   4   2   2   4
#     4  10  25  38  62  92 130 166 200 268 328 366
#     4  10  22  40  61  94 124 164 210 262 317 382
#     4  10  21  38  62  88 123 163 205 261 312 375
#     4  11  23  38  63  91 124 167 209 258 312 394
#     4  10  20  44  64  88 130 168 212 262 326 388
#     4  10  22  38  66  90 122 164 222 252 304 394
#     4   9  20  41  62  89 118 166 211 259 314 373
#
# _framework density 22.246742999999999
#
# number of rings (size 3 to 8) (size 9 to 14) (size 15 to 20)
#    0.000    2.000    0.000    2.000    5.833    1.333 
#    3.000   10.000    0.000    0.000    0.000    0.000 
#    0.000    0.000    0.000    0.000    0.000    0.000 
#
# Total GULP energy -67012.210085 kJ/mol
# GULP energy per Si atom -5584.350840 kJ/mol
# Density = 2.219611 g / cm^3
# Si number density = 22.246743 Si / 1000 Ang^3
#
#
#
# Elastic Constant Matrix: (Units=GPa)
#
#
# Indices 1 2 3 4 5 6 
#
# 1 90.5285 22.4239 18.7089 0.0000 7.3003 0.0000
# 2 22.4239 88.4050 11.9598 0.0000 -8.3046 0.0000
# 3 18.7089 11.9598 39.2594 0.0000 -8.3817 0.0000
# 4 0.0000 0.0000 0.0000 1.9877 0.0000 -24.1253
# 5 7.3003 -8.3046 -8.3817 0.0000 27.3414 0.0000
# 6 0.0000 0.0000 0.0000 -24.1253 0.0000 21.2742
#
#
#
# Elastic Compliance Matrix: (Units=1/GPa)
#
#
# Indices 1 2 3 4 5 6 
#
# 1 0.013856 -0.003198 -0.007090 0.000000 -0.006844 0.000000
# 2 -0.003198 0.012719 -0.001438 0.000000 0.004277 0.000000
# 3 -0.007090 -0.001438 0.031672 0.000000 0.011166 0.000000
# 4 0.000000 0.000000 0.000000 -0.039415 0.000000 -0.044698
# 5 -0.006844 0.004277 0.011166 0.000000 0.043124 0.000000
# 6 0.000000 0.000000 0.000000 -0.044698 0.000000 -0.003683
#
#
# Mechanical properties :
#
#
# Convention : Reuss Voigt Hill
#
# Bulk Modulus (GPa) = 28.73939 36.04201 32.39070
# Shear Modulus (GPa) = 53.57785 21.12734 37.35259
#
# Velocity S-wave (km/s) = 4.91281 3.08503 4.10202
# Velocity P-wave (km/s) = 6.71770 5.37830 6.08497
#
# Compressibility (1/GPa) = 0.03479545
#
# Stress axis : x y z
#
# Youngs Moduli (GPa) = 72.17301 78.62235 31.57367
#
# Poissons Ratio (x) = 0.25146 0.22385
# Poissons Ratio (y) = 0.23083 0.04539
# Poissons Ratio (z) = 0.51169 0.11302
#
# Static dielectric constant tensor:
#      x y z
#    x 1.803600 0.000000 -0.024180 
#    y 0.000000 1.819720 0.000000 
#    z -0.024180 0.000000 1.848030 
# 
# From -- ./inp_files/40510.got.cif
#   From: 2010.05.17/outbox.cif.g08.bks.cpg/sg5_21_cif.got.tgz:40510.got - 2010.06.03 18:56:24.
