data_PCOD9124802
_publ_section_title
;
Structure prediction by ZEFSAII (Michael W. Deem and Ramdas Pophale) SiO2 
 PCOD9124802
Probable space group: C 2
;
_chemical_formula_sum "Si O2"
_cell_formula_units_Z 28
_cell_length_a 15.491374
_cell_length_b 18.046403
_cell_length_c 9.436917
_cell_angle_alpha 90.000000
_cell_angle_beta 151.757950
_cell_angle_gamma 90.000000
_cell_volume 1248.398127
_symmetry_space_group_name_H-M "C 2"
_symmetry_group_IT_number 5
_symmetry_cell_setting 'monoclinic'
loop_
_space_group_symop_operation_xyz
x,y,z
-x,y,-z
1/2+x,1/2+y,z
1/2-x,1/2+y,-z
loop_
_atom_site_type_symbol
_atom_site_label
_atom_site_fract_x
_atom_site_fract_y
_atom_site_fract_z
Si Si1 0.600218 0.169100 0.504232
Si Si2 0.542345 0.599358 0.914671
Si Si3 0.337454 0.866238 0.158869
Si Si4 0.198969 0.378646 0.224176
Si Si5 0.502311 0.294497 0.171946
Si Si6 0.214238 0.552460 0.269011
Si Si7 0.830793 0.541098 0.110422
O O1 0.500000 0.201476 0.500000
O O2 0.517224 0.210650 0.250133
O O3 0.522491 0.085087 0.390837
O O4 0.820125 0.166244 0.837757
O O5 0.346027 0.603011 0.555170
O O6 0.500000 0.557562 0.000000
O O7 0.674019 0.560400 0.994237
O O8 0.500000 0.840276 0.500000
O O9 0.363351 0.954495 0.175837
O O10 0.309977 0.847912 0.950909
O O11 0.161789 0.838398 0.990122
O O12 0.320742 0.329327 0.500818
O O13 0.264264 0.464204 0.340973
O O14 0.000000 0.378192 0.000000
O O15 0.500000 0.299553 0.000000
O O16 0.244443 0.568350 0.148616
O O17 0.000000 0.558391 0.000000
#
# Coordination Sequence:
#
# PCOD9124802 Si02
#       7
#     4   4   4   4   4   4   4
#     4  10  23  44  64  90 131 177 227 284 341 406
#     4  11  22  36  61  93 125 172 221 272 335 397
#     4  11  22  41  70 102 136 179 229 284 344 404
#     4  10  22  40  64  97 136 176 227 288 340 400
#     4  12  26  44  68  97 138 187 233 279 338 414
#     4  10  21  38  62  95 134 173 221 284 346 402
#     4  10  22  41  66  98 136 174 223 283 340 403
#
# _framework density 22.428742
#
# number of rings (size 3 to 8) (size 9 to 14) (size 15 to 20)
#    0.000    1.429    0.000    5.571    0.000    9.143 
#    0.000    7.143    0.000    0.000    0.000    0.000 
#    0.000    0.000    0.000    0.000    0.000    0.000 
#
# Total GULP energy -78031.415920 kJ/mol
# GULP energy per Si atom -5573.672566 kJ/mol
# Density = 2.237769 g / cm^3
# Si number density = 22.428742 Si / 1000 Ang^3
#
#
#
# Elastic Constant Matrix: (Units=GPa)
#
#
# Indices 1 2 3 4 5 6 
#
# 1 164.7980 25.5637 59.8889 0.0000 -39.2122 0.0000
# 2 25.5637 68.5158 42.0668 0.0000 3.2593 0.0000
# 3 59.8889 42.0668 141.9286 0.0000 -22.5325 0.0000
# 4 0.0000 0.0000 0.0000 22.4363 0.0000 11.1472
# 5 -39.2122 3.2593 -22.5325 0.0000 47.0314 0.0000
# 6 0.0000 0.0000 0.0000 11.1472 0.0000 12.9999
#
#
#
# Elastic Compliance Matrix: (Units=1/GPa)
#
#
# Indices 1 2 3 4 5 6 
#
# 1 0.008676 -0.002357 -0.001935 0.000000 0.006470 0.000000
# 2 -0.002357 0.019236 -0.005661 0.000000 -0.006010 0.000000
# 3 -0.001935 -0.005661 0.010116 0.000000 0.003625 0.000000
# 4 0.000000 0.000000 0.000000 0.077653 0.000000 -0.066586
# 5 0.006470 -0.006010 0.003625 0.000000 0.028810 0.000000
# 6 0.000000 0.000000 0.000000 -0.066586 0.000000 0.134020
#
#
# Mechanical properties :
#
#
# Convention : Reuss Voigt Hill
#
# Bulk Modulus (GPa) = 55.18204 70.03124 62.60664
# Shear Modulus (GPa) = 16.42255 33.00837 24.71546
#
# Velocity S-wave (km/s) = 2.70887 3.84044 3.32317
# Velocity P-wave (km/s) = 5.86862 7.13841 6.53443
#
# Compressibility (1/GPa) = 0.01812184
#
# Stress axis : x y z
#
# Youngs Moduli (GPa) = 115.25454 51.98524 98.85335
#
# Poissons Ratio (x) = 0.12251 0.19133
# Poissons Ratio (y) = 0.27162 0.55963
# Poissons Ratio (z) = 0.22307 0.29430
#
# Static dielectric constant tensor:
#      x y z
#    x 1.827080 0.000000 -0.017040 
#    y 0.000000 1.945140 0.000000 
#    z -0.017040 0.000000 2.000440 
# 
# From -- ./inp_files/25517.got.cif
#   From: 2010.05.17/outbox.cif.g08.bks.cpg/sg5_13_cif.got.tgz:25517.got - 2010.06.03 18:56:24.
