data_PCOD9124475
_publ_section_title
;
Structure prediction by ZEFSAII (Michael W. Deem and Ramdas Pophale) SiO2 
 PCOD9124475
Probable space group: C 2
;
_chemical_formula_sum "Si O2"
_cell_formula_units_Z 32
_cell_length_a 19.451640
_cell_length_b 13.500369
_cell_length_c 19.712947
_cell_angle_alpha 90.000000
_cell_angle_beta 160.830357
_cell_angle_gamma 90.000000
_cell_volume 1699.855166
_symmetry_space_group_name_H-M "C 2"
_symmetry_group_IT_number 5
_symmetry_cell_setting 'monoclinic'
loop_
_space_group_symop_operation_xyz
x,y,z
-x,y,-z
1/2+x,1/2+y,z
1/2-x,1/2+y,-z
loop_
_atom_site_type_symbol
_atom_site_label
_atom_site_fract_x
_atom_site_fract_y
_atom_site_fract_z
Si Si1 0.807275 0.876830 0.182617
Si Si2 0.199002 0.677906 0.009012
Si Si3 0.745489 0.856762 0.271557
Si Si4 0.618230 0.082595 0.180263
Si Si5 0.586410 0.858882 0.836178
Si Si6 0.712498 0.242330 0.555564
Si Si7 0.430917 0.061425 0.658277
Si Si8 0.061349 0.075130 0.421949
O O1 0.685442 0.840705 0.136377
O O2 0.994375 0.800739 0.341976
O O3 0.672235 0.893864 0.989519
O O4 0.915526 0.981206 0.300679
O O5 0.227824 0.793811 0.022672
O O6 0.419876 0.646591 0.245993
O O7 0.034293 0.636254 0.908998
O O8 0.123652 0.624393 0.869920
O O9 0.720415 0.771521 0.305070
O O10 0.000000 0.865197 0.500000
O O11 0.658148 0.963017 0.216483
O O12 0.843795 0.116785 0.419738
O O13 0.500000 0.103576 0.000000
O O14 0.387964 0.790116 0.670384
O O15 0.516093 0.951422 0.725391
O O16 0.669906 0.128703 0.494792
O O17 0.255114 0.046951 0.553381
#
# Coordination Sequence:
#
# PCOD9124475 Si02
#       8
#     4   4   4   4   4   4   4   4
#     4  11  21  35  60  89 128 159 196 257 315 370
#     4  11  23  36  57  87 122 164 201 250 313 368
#     4  10  21  35  56  90 126 163 190 248 319 369
#     4  11  23  35  58  91 123 161 198 249 320 381
#     4  12  23  37  59  90 125 163 207 257 306 372
#     4  11  21  37  54  86 128 162 199 251 306 378
#     4  11  22  36  59  88 121 167 205 248 310 368
#     4  11  20  37  55  87 124 155 200 250 306 369
#
# _framework density 18.825133000000001
#
# number of rings (size 3 to 8) (size 9 to 14) (size 15 to 20)
#    0.000    1.000    7.500    1.500    3.500    0.000 
#    0.000    0.000    0.000    0.000    9.750    0.000 
#    0.000    0.000    0.000    0.000    0.000    0.000 
#
# Total GULP energy -89137.517462 kJ/mol
# GULP energy per Si atom -5571.094841 kJ/mol
# Density = 1.878229 g / cm^3
# Si number density = 18.825133 Si / 1000 Ang^3
#
#
#
# Elastic Constant Matrix: (Units=GPa)
#
#
# Indices 1 2 3 4 5 6 
#
# 1 84.2773 49.6426 25.5966 0.0033 -5.8128 0.0003
# 2 49.6426 94.2643 30.9436 0.0091 -6.5502 0.0041
# 3 25.5966 30.9436 83.8304 0.0041 -14.1115 0.0028
# 4 0.0033 0.0091 0.0041 36.0367 0.0022 0.7731
# 5 -5.8128 -6.5502 -14.1115 0.0022 30.6842 0.0004
# 6 0.0003 0.0041 0.0028 0.7731 0.0004 27.4130
#
#
#
# Elastic Compliance Matrix: (Units=1/GPa)
#
#
# Indices 1 2 3 4 5 6 
#
# 1 0.017564 -0.008513 -0.002131 0.000001 0.000530 0.000001
# 2 -0.008513 0.016207 -0.003330 -0.000003 0.000316 -0.000002
# 3 -0.002131 -0.003330 0.014764 -0.000001 0.005675 -0.000001
# 4 0.000001 -0.000003 -0.000001 0.027766 -0.000003 -0.000783
# 5 0.000530 0.000316 0.005675 -0.000003 0.035368 -0.000001
# 6 0.000001 -0.000002 -0.000001 -0.000783 -0.000001 0.036501
#
#
# Mechanical properties :
#
#
# Convention : Reuss Voigt Hill
#
# Bulk Modulus (GPa) = 48.57631 52.74863 50.66247
# Shear Modulus (GPa) = 27.32518 29.23938 28.28228
#
# Velocity S-wave (km/s) = 3.81402 3.94535 3.88024
# Velocity P-wave (km/s) = 6.72723 6.98825 6.85898
#
# Compressibility (1/GPa) = 0.02058616
#
# Stress axis : x y z
#
# Youngs Moduli (GPa) = 56.93402 61.70226 67.73208
#
# Poissons Ratio (x) = 0.52530 0.14436
# Poissons Ratio (y) = 0.48470 0.22553
# Poissons Ratio (z) = 0.12135 0.20545
#
# Static dielectric constant tensor:
#      x y z
#    x 1.697630 0.000000 0.004970 
#    y 0.000000 1.652100 0.000000 
#    z 0.004970 0.000000 1.807620 
# 
# From -- ./inp_files/67156.got.cif
#   From: 2010.05.17/outbox.cif.g08.bks.cpg/sg5_34_cif.got.tgz:67156.got - 2010.06.03 18:56:24.
