data_PCOD9124137
_publ_section_title
;
Structure prediction by ZEFSAII (Michael W. Deem and Ramdas Pophale) SiO2 
 PCOD9124137
Probable space group: C 2
;
_chemical_formula_sum "Si O2"
_cell_formula_units_Z 22
_cell_length_a 10.594028
_cell_length_b 11.478055
_cell_length_c 7.645842
_cell_angle_alpha 90.000000
_cell_angle_beta 98.130613
_cell_angle_gamma 90.000000
_cell_volume 920.380104
_symmetry_space_group_name_H-M "C 2"
_symmetry_group_IT_number 5
_symmetry_cell_setting 'monoclinic'
loop_
_space_group_symop_operation_xyz
x,y,z
-x,y,-z
1/2+x,1/2+y,z
1/2-x,1/2+y,-z
loop_
_atom_site_type_symbol
_atom_site_label
_atom_site_fract_x
_atom_site_fract_y
_atom_site_fract_z
Si Si1 0.500000 0.866811 0.000000
Si Si2 0.769145 0.621894 0.819225
Si Si3 0.744692 0.853020 0.239536
Si Si4 0.485024 0.241006 0.306624
Si Si5 0.853222 0.312972 0.414391
Si Si6 0.660647 0.025457 0.794024
O O1 0.629493 0.810680 0.092404
O O2 0.454086 0.951648 0.143471
O O3 0.765457 0.492243 0.736470
O O4 0.657880 0.704168 0.720465
O O5 0.895162 0.694558 0.780984
O O6 0.772312 0.586464 0.026171
O O7 0.882698 0.822535 0.188282
O O8 0.718528 0.791505 0.418443
O O9 0.500000 0.298482 0.500000
O O10 0.402903 0.124965 0.330688
O O11 0.781035 0.423868 0.311936
O O12 0.000000 0.336147 0.500000
#
# Coordination Sequence:
#
# PCOD9124137 Si02
#       6
#     2   4   4   4   4   4
#     4  10  20  42  64  98 138 180 234 300 348 442
#     4  11  25  45  66 108 147 189 244 309 372 445
#     4  11  24  42  72 104 142 191 248 302 378 442
#     4  12  22  41  72 101 137 188 242 305 365 447
#     4  12  24  43  73 100 145 196 245 311 377 441
#     4  11  22  41  70  98 137 192 247 286 373 442
#
# _framework density 23.903168000000001
#
# number of rings (size 3 to 8) (size 9 to 14) (size 15 to 20)
#    0.000    0.727    7.273    1.636    5.091    0.727 
#    0.000    0.000    0.000    4.364    0.000    0.000 
#    0.000    0.000    0.000    0.000    0.000    0.000 
#
# Total GULP energy -61322.866862 kJ/mol
# GULP energy per Si atom -5574.806078 kJ/mol
# Density = 2.384876 g / cm^3
# Si number density = 23.903168 Si / 1000 Ang^3
#
#
#
# Elastic Constant Matrix: (Units=GPa)
#
#
# Indices 1 2 3 4 5 6 
#
# 1 79.3302 29.9085 29.9486 0.0000 10.0236 0.0000
# 2 29.9085 81.9226 45.4960 0.0000 15.8211 0.0000
# 3 29.9486 45.4960 129.1507 0.0000 21.8637 0.0000
# 4 0.0000 0.0000 0.0000 40.8771 0.0000 12.9076
# 5 10.0236 15.8211 21.8637 0.0000 29.8110 0.0000
# 6 0.0000 0.0000 0.0000 12.9076 0.0000 35.7410
#
#
#
# Elastic Compliance Matrix: (Units=1/GPa)
#
#
# Indices 1 2 3 4 5 6 
#
# 1 0.015052 -0.004232 -0.001739 0.000000 -0.001540 0.000000
# 2 -0.004232 0.016970 -0.004239 0.000000 -0.004474 0.000000
# 3 -0.001739 -0.004239 0.010458 0.000000 -0.004836 0.000000
# 4 0.000000 0.000000 0.000000 0.027612 0.000000 -0.009972
# 5 -0.001540 -0.004474 -0.004836 0.000000 0.039983 0.000000
# 6 0.000000 0.000000 0.000000 -0.009972 0.000000 0.031580
#
#
# Mechanical properties :
#
#
# Convention : Reuss Voigt Hill
#
# Bulk Modulus (GPa) = 45.33172 55.67885 50.50529
# Shear Modulus (GPa) = 29.51064 33.62250 31.56657
#
# Velocity S-wave (km/s) = 3.51749 3.75455 3.63795
# Velocity P-wave (km/s) = 5.95843 6.49150 6.23067
#
# Compressibility (1/GPa) = 0.02205961
#
# Stress axis : x y z
#
# Youngs Moduli (GPa) = 66.43565 58.92721 95.61979
#
# Poissons Ratio (x) = 0.24939 0.16627
# Poissons Ratio (y) = 0.28117 0.40536
# Poissons Ratio (z) = 0.11552 0.24981
#
# Static dielectric constant tensor:
#      x y z
#    x 2.101340 0.000000 -0.032000 
#    y 0.000000 1.945290 0.000000 
#    z -0.032000 0.000000 2.072970 
# 
# From -- ./inp_files/19026.got.cif
#   From: 2010.05.17/outbox.cif.g08.bks.cpg/sg5_10_cif.got.tgz:19026.got - 2010.06.03 18:56:24.
