data_PCOD9124598
_publ_section_title
;
Structure prediction by ZEFSAII (Michael W. Deem and Ramdas Pophale) SiO2 
 PCOD9124598
Probable space group: C 2
;
_chemical_formula_sum "Si O2"
_cell_formula_units_Z 32
_cell_length_a 26.914160
_cell_length_b 9.097557
_cell_length_c 6.831791
_cell_angle_alpha 90.000000
_cell_angle_beta 105.796288
_cell_angle_gamma 90.000000
_cell_volume 1609.613559
_symmetry_space_group_name_H-M "C 2"
_symmetry_group_IT_number 5
_symmetry_cell_setting 'monoclinic'
loop_
_space_group_symop_operation_xyz
x,y,z
-x,y,-z
1/2+x,1/2+y,z
1/2-x,1/2+y,-z
loop_
_atom_site_type_symbol
_atom_site_label
_atom_site_fract_x
_atom_site_fract_y
_atom_site_fract_z
Si Si1 0.888411 0.236450 0.060928
Si Si2 0.411078 0.301441 0.917848
Si Si3 0.258059 0.952611 0.129977
Si Si4 0.794887 0.129709 0.233507
Si Si5 0.058336 0.729638 0.473672
Si Si6 0.047186 0.989070 0.697702
Si Si7 0.873115 0.556938 0.173158
Si Si8 0.333765 0.559708 0.703977
O O1 0.842595 0.172432 0.146899
O O2 0.935732 0.142040 0.191661
O O3 0.893842 0.407168 0.100788
O O4 0.868340 0.193835 0.824757
O O5 0.438071 0.233898 0.755496
O O6 0.369510 0.419572 0.793548
O O7 0.451040 0.384666 0.106815
O O8 0.380900 0.183400 0.019093
O O9 0.315128 0.022514 0.181703
O O10 0.219779 0.035001 0.236870
O O11 0.261223 0.780258 0.188201
O O12 0.234340 0.990664 0.891804
O O13 0.817248 0.090512 0.466948
O O14 0.092766 0.603870 0.605086
O O15 0.000000 0.718392 0.500000
O O16 0.080503 0.884914 0.585918
O O17 0.000000 0.018128 0.500000
#
# Coordination Sequence:
#
# PCOD9124598 Si02
#       8
#     4   4   4   4   4   4   4   4
#     4   9  20  38  55  85 119 147 192 239 289 353
#     4  10  21  39  62  88 115 153 203 242 293 357
#     4  10  22  37  55  86 119 152 198 242 291 354
#     4  10  21  37  56  79 115 155 193 240 291 345
#     4  10  22  39  62  87 116 155 200 249 297 348
#     4   9  19  36  61  85 110 147 191 245 295 346
#     4  10  22  37  57  85 122 156 189 244 299 351
#     4  10  21  37  61  85 116 159 199 242 290 353
#
# _framework density 19.880548999999998
#
# number of rings (size 3 to 8) (size 9 to 14) (size 15 to 20)
#    0.000    2.250    0.000    1.500    0.000   15.000 
#    0.000    0.000    0.000    7.500    0.000    0.000 
#    0.000    0.000    0.000    0.000    0.000    0.000 
#
# Total GULP energy -89122.842952 kJ/mol
# GULP energy per Si atom -5570.177684 kJ/mol
# Density = 1.983530 g / cm^3
# Si number density = 19.880549 Si / 1000 Ang^3
#
#
#
# Elastic Constant Matrix: (Units=GPa)
#
#
# Indices 1 2 3 4 5 6 
#
# 1 57.2747 22.5468 38.4704 0.0000 5.8431 0.0000
# 2 22.5468 98.4904 46.1086 0.0000 25.6719 0.0000
# 3 38.4704 46.1086 151.2770 0.0000 28.8533 0.0000
# 4 0.0000 0.0000 0.0000 18.3737 0.0000 4.1104
# 5 5.8431 25.6719 28.8533 0.0000 29.2637 0.0000
# 6 0.0000 0.0000 0.0000 4.1104 0.0000 12.5364
#
#
#
# Elastic Compliance Matrix: (Units=1/GPa)
#
#
# Indices 1 2 3 4 5 6 
#
# 1 0.022003 -0.003609 -0.005248 0.000000 0.003947 0.000000
# 2 -0.003609 0.014395 -0.001476 0.000000 -0.010452 0.000000
# 3 -0.005248 -0.001476 0.009789 0.000000 -0.007309 0.000000
# 4 0.000000 0.000000 0.000000 0.058734 0.000000 -0.019257
# 5 0.003947 -0.010452 -0.007309 0.000000 0.049759 0.000000
# 6 0.000000 0.000000 0.000000 -0.019257 0.000000 0.086081
#
#
# Mechanical properties :
#
#
# Convention : Reuss Voigt Hill
#
# Bulk Modulus (GPa) = 39.18503 57.92152 48.55327
# Shear Modulus (GPa) = 18.52302 25.36253 21.94277
#
# Velocity S-wave (km/s) = 3.05571 3.57563 3.32585
# Velocity P-wave (km/s) = 5.67476 6.80036 6.26290
#
# Compressibility (1/GPa) = 0.02551995
#
# Stress axis : x y z
#
# Youngs Moduli (GPa) = 45.44861 69.46925 102.15519
#
# Poissons Ratio (x) = 0.25070 0.53615
# Poissons Ratio (y) = 0.16402 0.15081
# Poissons Ratio (z) = 0.23853 0.10255
#
# Static dielectric constant tensor:
#      x y z
#    x 1.779350 0.000000 0.037050 
#    y 0.000000 1.739970 0.000000 
#    z 0.037050 0.000000 1.736550 
# 
# From -- ./inp_files/11263.got.cif
#   From: 2010.05.17/outbox.cif.g08.bks.cpg/sg5_6_cif.got.tgz:11263.got - 2010.06.03 18:56:24.
