data_PCOD9124191
_publ_section_title
;
Structure prediction by ZEFSAII (Michael W. Deem and Ramdas Pophale) SiO2 
 PCOD9124191
Probable space group: C 2
;
_chemical_formula_sum "Si O2"
_cell_formula_units_Z 24
_cell_length_a 7.417340
_cell_length_b 14.872040
_cell_length_c 11.600283
_cell_angle_alpha 90.000000
_cell_angle_beta 50.637974
_cell_angle_gamma 90.000000
_cell_volume 989.357775
_symmetry_space_group_name_H-M "C 2"
_symmetry_group_IT_number 5
_symmetry_cell_setting 'monoclinic'
loop_
_space_group_symop_operation_xyz
x,y,z
-x,y,-z
1/2+x,1/2+y,z
1/2-x,1/2+y,-z
loop_
_atom_site_type_symbol
_atom_site_label
_atom_site_fract_x
_atom_site_fract_y
_atom_site_fract_z
Si Si1 0.000000 0.087400 0.500000
Si Si2 0.087513 0.470317 0.220850
Si Si3 0.828980 0.971490 0.351360
Si Si4 0.713362 0.708209 0.243342
Si Si5 0.241538 0.546036 0.948363
Si Si6 0.000000 0.836073 0.000000
Si Si7 0.254739 0.832019 0.432673
O O1 0.798357 0.148659 0.637378
O O2 0.894095 0.034522 0.433580
O O3 0.127458 0.490382 0.339456
O O4 0.840668 0.417589 0.317801
O O5 0.175169 0.553944 0.109373
O O6 0.270198 0.397012 0.096158
O O7 0.779911 0.874732 0.426674
O O8 0.050176 0.982565 0.176874
O O9 0.714465 0.639440 0.134754
O O10 0.469641 0.763515 0.341779
O O11 0.936497 0.771001 0.132799
O O12 0.000000 0.505733 0.000000
O O13 0.000000 0.798475 0.500000
#
# Coordination Sequence:
#
# PCOD9124191 Si02
#       7
#     2   4   4   4   4   2   4
#     4  10  24  42  70 102 146 188 230 286 364 424
#     4  11  23  41  76 105 138 181 251 293 346 426
#     4  11  22  43  71 103 139 184 241 290 348 424
#     4  10  24  41  73 100 143 187 229 295 363 419
#     4  11  22  42  71 106 145 186 235 296 356 424
#     4  10  20  42  68 106 128 186 230 294 358 408
#     4  11  24  44  72 107 142 190 242 294 355 421
#
# _framework density 24.25816
#
# number of rings (size 3 to 8) (size 9 to 14) (size 15 to 20)
#    0.000    1.333    3.333    1.500    7.000    0.000 
#    0.000    6.667   22.000    0.000    0.000    0.000 
#    0.000    0.000    0.000    0.000    0.000    0.000 
#
# Total GULP energy -66933.183234 kJ/mol
# GULP energy per Si atom -5577.765269 kJ/mol
# Density = 2.420295 g / cm^3
# Si number density = 24.258160 Si / 1000 Ang^3
#
#
#
# Elastic Constant Matrix: (Units=GPa)
#
#
# Indices 1 2 3 4 5 6 
#
# 1 80.3446 7.6132 35.0003 -0.0001 -8.0671 0.0000
# 2 7.6132 54.7915 55.1833 0.0000 1.7267 0.0000
# 3 35.0003 55.1833 174.7941 -0.0001 7.7975 0.0001
# 4 -0.0001 0.0000 -0.0001 76.1638 0.0001 -15.9517
# 5 -8.0671 1.7267 7.7975 0.0001 61.9916 0.0000
# 6 0.0000 0.0000 0.0001 -15.9517 0.0000 11.7446
#
#
#
# Elastic Compliance Matrix: (Units=1/GPa)
#
#
# Indices 1 2 3 4 5 6 
#
# 1 0.013987 0.001330 -0.003319 0.000000 0.002201 0.000000
# 2 0.001330 0.026892 -0.008780 0.000000 0.000528 0.000000
# 3 -0.003319 -0.008780 0.009217 0.000000 -0.001347 0.000000
# 4 0.000000 0.000000 0.000000 0.018349 0.000000 0.024922
# 5 0.002201 0.000528 -0.001347 0.000000 0.016572 0.000000
# 6 0.000000 0.000000 0.000000 0.024922 0.000000 0.118995
#
#
# Mechanical properties :
#
#
# Convention : Reuss Voigt Hill
#
# Bulk Modulus (GPa) = 35.01536 56.16931 45.59234
# Shear Modulus (GPa) = 21.27018 44.12221 32.69620
#
# Velocity S-wave (km/s) = 2.96434 4.26944 3.67528
# Velocity P-wave (km/s) = 5.11685 6.89269 6.07007
#
# Compressibility (1/GPa) = 0.02855890
#
# Stress axis : x y z
#
# Youngs Moduli (GPa) = 71.49475 37.18552 108.49023
#
# Poissons Ratio (x) = -0.04944 0.36004
# Poissons Ratio (y) = -0.09505 0.95252
# Poissons Ratio (z) = 0.23726 0.32648
#
# Static dielectric constant tensor:
#      x y z
#    x 2.040200 0.000000 0.080280 
#    y 0.000000 2.091880 0.000000 
#    z 0.080280 0.000000 2.020270 
# 
# From -- ./inp_files/36790.got.cif
#   From: 2010.05.17/outbox.cif.g08.bks.cpg/sg5_19_cif.got.tgz:36790.got - 2010.06.03 18:56:24.
