data_PCOD9124536
_publ_section_title
;
Structure prediction by ZEFSAII (Michael W. Deem and Ramdas Pophale) SiO2 
 PCOD9124536
Probable space group: C 2
;
_chemical_formula_sum "Si O2"
_cell_formula_units_Z 32
_cell_length_a 22.195471
_cell_length_b 8.481172
_cell_length_c 16.081231
_cell_angle_alpha 90.000000
_cell_angle_beta 147.282375
_cell_angle_gamma 90.000000
_cell_volume 1636.193061
_symmetry_space_group_name_H-M "C 2"
_symmetry_group_IT_number 5
_symmetry_cell_setting 'monoclinic'
loop_
_space_group_symop_operation_xyz
x,y,z
-x,y,-z
1/2+x,1/2+y,z
1/2-x,1/2+y,-z
loop_
_atom_site_type_symbol
_atom_site_label
_atom_site_fract_x
_atom_site_fract_y
_atom_site_fract_z
Si Si1 0.783901 0.957550 0.916758
Si Si2 0.992712 0.822771 0.893577
Si Si3 0.318414 0.480968 0.574734
Si Si4 0.053428 0.551778 0.853618
Si Si5 0.641436 0.175541 0.467276
Si Si6 0.978218 0.238188 0.678605
Si Si7 0.775615 0.168003 0.046573
Si Si8 0.890320 0.454870 0.426952
O O1 0.755215 0.842476 0.959758
O O2 0.705321 0.911841 0.749157
O O3 0.909287 0.926039 0.034536
O O4 0.761457 0.126115 0.932756
O O5 0.014434 0.641090 0.891598
O O6 0.879884 0.889724 0.721986
O O7 0.000000 0.839867 0.000000
O O8 0.309585 0.346928 0.494085
O O9 0.206765 0.556798 0.481123
O O10 0.394243 0.619907 0.625735
O O11 0.988460 0.660603 0.709434
O O12 0.016232 0.375895 0.787171
O O13 0.185128 0.571331 0.995122
O O14 0.650197 0.107568 0.569206
O O15 0.922422 0.325541 0.534486
O O16 0.092270 0.150525 0.783768
O O17 0.000000 0.486120 0.500000
#
# Coordination Sequence:
#
# PCOD9124536 Si02
#       8
#     4   4   4   4   4   4   4   4
#     4  11  21  37  63  88 125 162 210 260 307 376
#     4  10  21  36  58  89 120 164 205 255 311 369
#     4  11  22  40  64  89 120 165 216 259 312 381
#     4   9  20  35  59  87 117 163 205 257 309 373
#     4  10  21  38  61  88 121 163 210 260 313 374
#     4  11  21  39  64  91 122 165 212 264 314 375
#     4  11  19  37  61  90 121 159 210 250 313 371
#     4  11  21  39  61  92 128 167 206 257 320 368
#
# _framework density 19.557596
#
# number of rings (size 3 to 8) (size 9 to 14) (size 15 to 20)
#    0.000    1.500    3.750    3.000    0.000    1.000 
#    0.000    2.500    5.500    0.000    0.000    0.000 
#    0.000    0.000    0.000    0.000    0.000    0.000 
#
# Total GULP energy -89204.589827 kJ/mol
# GULP energy per Si atom -5575.286864 kJ/mol
# Density = 1.951308 g / cm^3
# Si number density = 19.557596 Si / 1000 Ang^3
#
#
#
# Elastic Constant Matrix: (Units=GPa)
#
#
# Indices 1 2 3 4 5 6 
#
# 1 86.6930 42.9013 29.7217 0.0000 -10.4166 0.0000
# 2 42.9013 87.8552 24.0523 0.0000 -11.9621 0.0000
# 3 29.7217 24.0523 74.7487 0.0000 1.8952 0.0000
# 4 0.0000 0.0000 0.0000 23.8393 0.0000 8.3276
# 5 -10.4166 -11.9621 1.8952 0.0000 30.4857 0.0000
# 6 0.0000 0.0000 0.0000 8.3276 0.0000 20.6160
#
#
#
# Elastic Compliance Matrix: (Units=1/GPa)
#
#
# Indices 1 2 3 4 5 6 
#
# 1 0.016733 -0.006415 -0.004678 0.000000 0.003491 0.000000
# 2 -0.006415 0.015806 -0.002641 0.000000 0.004174 0.000000
# 3 -0.004678 -0.002641 0.016180 0.000000 -0.003641 0.000000
# 4 0.000000 0.000000 0.000000 0.048839 0.000000 -0.019728
# 5 0.003491 0.004174 -0.003641 0.000000 0.035859 0.000000
# 6 0.000000 0.000000 0.000000 -0.019728 0.000000 0.056475
#
#
# Mechanical properties :
#
#
# Convention : Reuss Voigt Hill
#
# Bulk Modulus (GPa) = 47.05497 49.18306 48.11902
# Shear Modulus (GPa) = 22.27729 25.16297 23.72013
#
# Velocity S-wave (km/s) = 3.37866 3.59082 3.48636
# Velocity P-wave (km/s) = 6.27155 6.51110 6.39245
#
# Compressibility (1/GPa) = 0.02125174
#
# Stress axis : x y z
#
# Youngs Moduli (GPa) = 59.76363 63.26572 61.80369
#
# Poissons Ratio (x) = 0.40584 0.28909
# Poissons Ratio (y) = 0.38338 0.16324
# Poissons Ratio (z) = 0.27955 0.16710
#
# Static dielectric constant tensor:
#      x y z
#    x 1.684920 0.000000 0.033890 
#    y 0.000000 1.738860 0.000000 
#    z 0.033890 0.000000 1.715460 
# 
# From -- ./inp_files/46125.got.cif
#   From: 2010.05.17/outbox.cif.g08.bks.cpg/sg5_24_cif.got.tgz:46125.got - 2010.06.03 18:56:24.
