data_PCOD9124799
_publ_section_title
;
Structure prediction by ZEFSAII (Michael W. Deem and Ramdas Pophale) SiO2 
 PCOD9124799
Probable space group: C 2
;
_chemical_formula_sum "Si O2"
_cell_formula_units_Z 20
_cell_length_a 5.190594
_cell_length_b 24.728624
_cell_length_c 9.559668
_cell_angle_alpha 90.000000
_cell_angle_beta 53.446058
_cell_angle_gamma 90.000000
_cell_volume 985.679435
_symmetry_space_group_name_H-M "C 2"
_symmetry_group_IT_number 5
_symmetry_cell_setting 'monoclinic'
loop_
_space_group_symop_operation_xyz
x,y,z
-x,y,-z
1/2+x,1/2+y,z
1/2-x,1/2+y,-z
loop_
_atom_site_type_symbol
_atom_site_label
_atom_site_fract_x
_atom_site_fract_y
_atom_site_fract_z
Si Si1 0.874499 0.173290 0.688438
Si Si2 0.000000 0.588402 0.000000
Si Si3 0.742365 0.354132 0.292084
Si Si4 0.743147 0.924024 0.291311
Si Si5 0.748791 0.732360 0.801143
Si Si6 0.000000 0.013754 0.000000
O O1 0.707872 0.126828 0.832269
O O2 0.603234 0.217631 0.737814
O O3 0.000000 0.152052 0.500000
O O4 0.148451 0.201440 0.692473
O O5 0.233709 0.551134 0.014991
O O6 0.500000 0.345116 0.500000
O O7 0.560636 0.395727 0.249406
O O8 0.792962 0.296079 0.207635
O O9 0.059487 0.381417 0.251373
O O10 0.500000 0.935757 0.500000
O O11 0.838655 0.975735 0.169866
O O12 0.500000 0.713459 0.000000
#
# Coordination Sequence:
#
# PCOD9124799 Si02
#       6
#     4   2   4   4   4   2
#     4  12  25  45  68  94 133 173 213 264 326 384
#     4  12  26  46  63  96 119 162 224 278 318 378
#     4  10  21  38  62  94 131 167 205 247 306 386
#     4  10  23  41  62  93 127 163 210 257 311 381
#     4  12  23  40  67 101 137 170 213 258 314 390
#     4  12  26  42  69  86 125 162 214 276 330 364
#
# _framework density 20.290572999999998
#
# number of rings (size 3 to 8) (size 9 to 14) (size 15 to 20)
#    0.000    0.800    2.000    5.400    2.800    3.200 
#    0.000    0.000    0.000    0.000    0.000    0.000 
#    0.000    0.000    0.000    0.000    0.000    0.000 
#
# Total GULP energy -55979.028594 kJ/mol
# GULP energy per Si atom -5597.902859 kJ/mol
# Density = 2.024439 g / cm^3
# Si number density = 20.290573 Si / 1000 Ang^3
#
#
#
# Elastic Constant Matrix: (Units=GPa)
#
#
# Indices 1 2 3 4 5 6 
#
# 1 99.8578 26.0295 18.5874 0.0000 24.9377 0.0000
# 2 26.0295 113.2089 55.0811 0.0000 17.3787 0.0000
# 3 18.5874 55.0811 109.8414 0.0000 16.8107 0.0000
# 4 0.0000 0.0000 0.0000 -46.7071 0.0000 14.2739
# 5 24.9377 17.3787 16.8107 0.0000 26.3560 0.0000
# 6 0.0000 0.0000 0.0000 14.2739 0.0000 33.9491
#
#
#
# Elastic Compliance Matrix: (Units=1/GPa)
#
#
# Indices 1 2 3 4 5 6 
#
# 1 0.013275 -0.001356 0.000243 0.000000 -0.011821 0.000000
# 2 -0.001356 0.012301 -0.005423 0.000000 -0.003369 0.000000
# 3 0.000243 -0.005423 0.012490 0.000000 -0.004620 0.000000
# 4 0.000000 0.000000 0.000000 -0.018972 0.000000 0.007977
# 5 -0.011821 -0.003369 -0.004620 0.000000 0.054295 0.000000
# 6 0.000000 0.000000 0.000000 0.007977 0.000000 0.026102
#
#
# Mechanical properties :
#
#
# Convention : Reuss Voigt Hill
#
# Bulk Modulus (GPa) = 40.01217 58.03379 49.02298
# Shear Modulus (GPa) = 41.35882 17.60028 29.47955
#
# Velocity S-wave (km/s) = 4.51968 2.94838 3.81579
# Velocity P-wave (km/s) = 6.85559 6.34461 6.60504
#
# Compressibility (1/GPa) = 0.02499240
#
# Stress axis : x y z
#
# Youngs Moduli (GPa) = 75.33222 81.29567 80.06654
#
# Poissons Ratio (x) = 0.11020 -0.01942
# Poissons Ratio (y) = 0.10211 0.43423
# Poissons Ratio (z) = -0.01827 0.44089
#
# Static dielectric constant tensor:
#      x y z
#    x 1.690490 0.000000 -0.000910 
#    y 0.000000 1.663210 0.000000 
#    z -0.000910 0.000000 1.738720 
# 
# From -- ./inp_files/12427.got.cif
#   From: 2010.05.17/outbox.cif.g08.bks.cpg/sg5_7_cif.got.tgz:12427.got - 2010.06.03 18:56:24.
