data_PCOD9124644
_publ_section_title
;
Structure prediction by ZEFSAII (Michael W. Deem and Ramdas Pophale) SiO2 
 PCOD9124644
Probable space group: C 2
;
_chemical_formula_sum "Si O2"
_cell_formula_units_Z 26
_cell_length_a 5.507390
_cell_length_b 23.810227
_cell_length_c 11.961536
_cell_angle_alpha 90.000000
_cell_angle_beta 55.564626
_cell_angle_gamma 90.000000
_cell_volume 1293.678310
_symmetry_space_group_name_H-M "C 2"
_symmetry_group_IT_number 5
_symmetry_cell_setting 'monoclinic'
loop_
_space_group_symop_operation_xyz
x,y,z
-x,y,-z
1/2+x,1/2+y,z
1/2-x,1/2+y,-z
loop_
_atom_site_type_symbol
_atom_site_label
_atom_site_fract_x
_atom_site_fract_y
_atom_site_fract_z
Si Si1 0.415728 0.330060 0.222433
Si Si2 0.859716 0.912826 0.415058
Si Si3 0.786760 0.517199 0.663600
Si Si4 0.000000 0.370728 0.000000
Si Si5 0.200456 0.208232 0.335562
Si Si6 0.693457 0.936083 0.147138
Si Si7 0.795073 0.645407 0.664732
O O1 0.469533 0.355075 0.331964
O O2 0.276591 0.269741 0.270184
O O3 0.234156 0.380365 0.212439
O O4 0.716010 0.331742 0.074319
O O5 0.500000 0.909163 0.500000
O O6 0.000000 0.918408 0.500000
O O7 0.934739 0.969800 0.326534
O O8 0.896832 0.486454 0.747877
O O9 0.710158 0.580894 0.712910
O O10 0.000000 0.522967 0.500000
O O11 0.980892 0.413294 0.107774
O O12 0.497385 0.174924 0.296067
O O13 0.000000 0.213062 0.500000
O O14 0.000306 0.177320 0.295400
O O15 0.000000 0.948388 0.000000
O O16 0.000000 0.645218 0.500000
#
# Coordination Sequence:
#
# PCOD9124644 Si02
#       7
#     4   4   4   2   4   4   4
#     4  10  22  36  60  86 119 163 203 254 299 371
#     4  10  22  34  56  92 126 152 191 250 311 363
#     4   9  19  36  62  91 126 156 203 255 309 365
#     4  10  22  38  62  86 124 168 208 246 314 380
#     4  10  21  37  60  88 124 160 202 251 312 364
#     4   9  20  40  58  89 122 163 201 249 312 377
#     4   9  20  37  56  89 123 161 197 247 308 369
#
# _framework density 20.097733000000002
#
# number of rings (size 3 to 8) (size 9 to 14) (size 15 to 20)
#    0.000    2.462    0.000    0.462    8.615    6.769 
#    5.538    0.000    1.692    0.000    0.000    0.000 
#    0.000    0.000    0.000    0.000    0.000    0.000 
#
# Total GULP energy -72381.010874 kJ/mol
# GULP energy per Si atom -5567.770067 kJ/mol
# Density = 2.005199 g / cm^3
# Si number density = 20.097733 Si / 1000 Ang^3
#
#
#
# Elastic Constant Matrix: (Units=GPa)
#
#
# Indices 1 2 3 4 5 6 
#
# 1 117.2089 68.5508 37.4042 0.0000 8.8316 0.0000
# 2 68.5508 193.3743 46.6542 0.0000 4.4680 0.0000
# 3 37.4042 46.6542 60.0256 0.0000 7.2071 0.0000
# 4 0.0000 0.0000 0.0000 14.4149 0.0000 -4.5370
# 5 8.8316 4.4680 7.2071 0.0000 31.7158 0.0000
# 6 0.0000 0.0000 0.0000 -4.5370 0.0000 15.9047
#
#
#
# Elastic Compliance Matrix: (Units=1/GPa)
#
#
# Indices 1 2 3 4 5 6 
#
# 1 0.012007 -0.003030 -0.004911 0.000000 -0.001801 0.000000
# 2 -0.003030 0.007131 -0.003737 0.000000 0.000688 0.000000
# 3 -0.004911 -0.003737 0.023025 0.000000 -0.003338 0.000000
# 4 0.000000 0.000000 0.000000 0.076215 0.000000 0.021741
# 5 -0.001801 0.000688 -0.003338 0.000000 0.032693 0.000000
# 6 0.000000 0.000000 0.000000 0.021741 0.000000 0.069077
#
#
# Mechanical properties :
#
#
# Convention : Reuss Voigt Hill
#
# Bulk Modulus (GPa) = 53.17063 75.09192 64.13127
# Shear Modulus (GPa) = 20.01821 26.94039 23.47930
#
# Velocity S-wave (km/s) = 3.15944 3.66521 3.42168
# Velocity P-wave (km/s) = 6.31054 7.44018 6.89852
#
# Compressibility (1/GPa) = 0.01880738
#
# Stress axis : x y z
#
# Youngs Moduli (GPa) = 83.28714 140.22914 43.43105
#
# Poissons Ratio (x) = 0.42489 0.21327
# Poissons Ratio (y) = 0.25236 0.16231
# Poissons Ratio (z) = 0.40899 0.52406
#
# Static dielectric constant tensor:
#      x y z
#    x 1.794550 0.000000 -0.024930 
#    y 0.000000 1.684400 0.000000 
#    z -0.024930 0.000000 1.823970 
# 
# From -- ./inp_files/33741.got.cif
#   From: 2010.05.17/outbox.cif.g08.bks.cpg/sg5_17_cif.got.tgz:33741.got - 2010.06.03 18:56:24.
