data_PCOD9124588
_publ_section_title
;
Structure prediction by ZEFSAII (Michael W. Deem and Ramdas Pophale) SiO2 
 PCOD9124588
Probable space group: C 2
;
_chemical_formula_sum "Si O2"
_cell_formula_units_Z 32
_cell_length_a 13.738067
_cell_length_b 11.382220
_cell_length_c 13.583195
_cell_angle_alpha 90.000000
_cell_angle_beta 138.396254
_cell_angle_gamma 90.000000
_cell_volume 1410.283210
_symmetry_space_group_name_H-M "C 2"
_symmetry_group_IT_number 5
_symmetry_cell_setting 'monoclinic'
loop_
_space_group_symop_operation_xyz
x,y,z
-x,y,-z
1/2+x,1/2+y,z
1/2-x,1/2+y,-z
loop_
_atom_site_type_symbol
_atom_site_label
_atom_site_fract_x
_atom_site_fract_y
_atom_site_fract_z
Si Si1 0.367893 0.548340 0.698114
Si Si2 0.371691 0.969529 0.969686
Si Si3 0.342919 0.045133 0.172028
Si Si4 0.608361 0.710370 0.951596
Si Si5 0.536848 0.443813 0.639314
Si Si6 0.877417 0.787916 0.767953
Si Si7 0.787177 0.792379 0.907243
Si Si8 0.898521 0.686974 0.575275
O O1 0.486165 0.611922 0.855907
O O2 0.444736 0.516130 0.651544
O O3 0.325626 0.421185 0.708188
O O4 0.239455 0.642848 0.589778
O O5 0.209546 0.956364 0.799162
O O6 0.500000 0.023371 0.000000
O O7 0.428485 0.838871 0.039564
O O8 0.361759 0.033441 0.067731
O O9 0.492622 0.076361 0.337773
O O10 0.266043 0.925798 0.143957
O O11 0.240584 0.156596 0.113259
O O12 0.669520 0.730460 0.887339
O O13 0.500000 0.481572 0.500000
O O14 0.478786 0.307863 0.604182
O O15 0.804635 0.740802 0.812134
O O16 0.850240 0.712186 0.651119
O O17 0.053479 0.795034 0.920065
#
# Coordination Sequence:
#
# PCOD9124588 Si02
#       8
#     4   4   4   4   4   4   4   4
#     4  11  24  41  63  88 127 166 196 249 313 368
#     4  11  25  39  65  96 122 159 213 259 299 367
#     4  11  20  41  63  88 121 159 206 250 303 354
#     4  11  20  41  63  88 121 159 206 250 303 354
#     4  11  25  43  59  92 134 159 202 262 308 360
#     4  10  21  40  60  92 121 151 204 251 305 352
#     4  10  21  36  66  92 117 151 202 263 291 352
#     4  11  24  41  63  88 127 166 196 249 313 368
#
# _framework density 22.690479
#
# number of rings (size 3 to 8) (size 9 to 14) (size 15 to 20)
#    0.000    1.250    5.000    1.500    3.500    7.000 
#    0.000    1.250    0.000    0.000    0.000    0.000 
#    0.000    0.000    0.000    0.000    0.000    0.000 
#
# Total GULP energy -89488.973273 kJ/mol
# GULP energy per Si atom -5593.060830 kJ/mol
# Density = 2.263883 g / cm^3
# Si number density = 22.690479 Si / 1000 Ang^3
#
#
#
# Elastic Constant Matrix: (Units=GPa)
#
#
# Indices 1 2 3 4 5 6 
#
# 1 97.2466 -1.0165 24.7829 0.0000 -6.9349 0.0000
# 2 -1.0165 88.5066 -8.4330 0.0000 9.3957 0.0000
# 3 24.7829 -8.4330 54.6061 0.0000 11.5717 0.0000
# 4 0.0000 0.0000 0.0000 22.2696 0.0000 18.7036
# 5 -6.9349 9.3957 11.5717 0.0000 23.6609 0.0000
# 6 0.0000 0.0000 0.0000 18.7036 0.0000 -23.5301
#
#
#
# Elastic Compliance Matrix: (Units=1/GPa)
#
#
# Indices 1 2 3 4 5 6 
#
# 1 0.012829 -0.001457 -0.007773 0.000000 0.008140 0.000000
# 2 -0.001457 0.012464 0.004157 0.000000 -0.007410 0.000000
# 3 -0.007773 0.004157 0.026011 0.000000 -0.016650 0.000000
# 4 0.000000 0.000000 0.000000 0.026927 0.000000 0.021404
# 5 0.008140 -0.007410 -0.016650 0.000000 0.055735 0.000000
# 6 0.000000 0.000000 0.000000 0.021404 0.000000 -0.025485
#
#
# Mechanical properties :
#
#
# Convention : Reuss Voigt Hill
#
# Bulk Modulus (GPa) = 24.29686 30.11401 27.20544
# Shear Modulus (GPa) = 37.77927 19.48182 28.63054
#
# Velocity S-wave (km/s) = 4.08485 2.93335 3.55602
# Velocity P-wave (km/s) = 5.74275 4.97727 5.37366
#
# Compressibility (1/GPa) = 0.04115758
#
# Stress axis : x y z
#
# Youngs Moduli (GPa) = 77.94705 80.22794 38.44562
#
# Poissons Ratio (x) = 0.11692 0.29882
# Poissons Ratio (y) = 0.11360 -0.15980
# Poissons Ratio (z) = 0.60585 -0.33347
#
# Static dielectric constant tensor:
#      x y z
#    x 1.889000 0.000000 -0.016220 
#    y 0.000000 1.824800 0.000000 
#    z -0.016220 0.000000 1.763770 
# 
# From -- ./inp_files/54569.got.cif
#   From: 2010.05.17/outbox.cif.g08.bks.cpg/sg5_28_cif.got.tgz:54569.got - 2010.06.03 18:56:24.
