data_PCOD9124193
_publ_section_title
;
Structure prediction by ZEFSAII (Michael W. Deem and Ramdas Pophale) SiO2 
 PCOD9124193
Probable space group: C 2
;
_chemical_formula_sum "Si O2"
_cell_formula_units_Z 30
_cell_length_a 15.364166
_cell_length_b 14.173938
_cell_length_c 20.113261
_cell_angle_alpha 90.000000
_cell_angle_beta 160.606339
_cell_angle_gamma 90.000000
_cell_volume 1454.435126
_symmetry_space_group_name_H-M "C 2"
_symmetry_group_IT_number 5
_symmetry_cell_setting 'monoclinic'
loop_
_space_group_symop_operation_xyz
x,y,z
-x,y,-z
1/2+x,1/2+y,z
1/2-x,1/2+y,-z
loop_
_atom_site_type_symbol
_atom_site_label
_atom_site_fract_x
_atom_site_fract_y
_atom_site_fract_z
Si Si1 0.703721 0.751740 0.201081
Si Si2 0.830391 0.038089 0.061577
Si Si3 0.500000 0.520124 0.500000
Si Si4 0.708629 0.305851 0.488228
Si Si5 0.306876 0.528124 0.803708
Si Si6 0.332273 0.124161 0.636374
Si Si7 0.455782 0.869185 0.793873
Si Si8 0.263624 0.999129 0.463193
O O1 0.730042 0.640192 0.212365
O O2 0.592962 0.781595 0.192355
O O3 0.981296 0.791913 0.379235
O O4 0.500000 0.788189 0.000000
O O5 0.025079 0.061598 0.262672
O O6 0.707275 0.934760 0.984679
O O7 0.032432 0.023309 0.147550
O O8 0.595655 0.110614 0.871937
O O9 0.577452 0.590897 0.495094
O O10 0.737525 0.445654 0.662146
O O11 0.708024 0.219914 0.435014
O O12 0.942561 0.332454 0.708162
O O13 0.658313 0.398455 0.409085
O O14 0.014890 0.487441 0.596668
O O15 0.500000 0.490198 0.000000
O O16 0.374819 0.047082 0.609583
#
# Coordination Sequence:
#
# PCOD9124193 Si02
#       8
#     4   4   2   4   4   4   4   4
#     4  11  21  35  64 104 130 163 227 287 331 402
#     4  11  24  41  65  97 135 178 219 280 346 408
#     4  10  20  42  68  84 140 180 214 278 352 392
#     4  12  22  41  66  98 134 178 232 284 343 405
#     4  11  21  41  64  94 135 171 218 281 342 400
#     4  11  23  45  66  99 135 177 226 292 335 412
#     4  11  21  40  67  97 133 176 227 285 338 413
#     4  12  23  42  68  95 134 182 224 280 350 408
#
# _framework density 20.626563000000001
#
# number of rings (size 3 to 8) (size 9 to 14) (size 15 to 20)
#    0.000    0.800    6.667    2.000    1.867    1.067 
#    2.400    2.000    0.000    1.600    0.000    0.000 
#    0.000    0.000    0.000    0.000    0.000    0.000 
#
# Total GULP energy -83554.833709 kJ/mol
# GULP energy per Si atom -5570.322247 kJ/mol
# Density = 2.057962 g / cm^3
# Si number density = 20.626563 Si / 1000 Ang^3
#
#
#
# Elastic Constant Matrix: (Units=GPa)
#
#
# Indices 1 2 3 4 5 6 
#
# 1 80.4354 16.9945 13.8442 -0.0150 3.0356 -0.0223
# 2 16.9945 51.8372 9.1134 0.1278 -1.6122 0.0936
# 3 13.8442 9.1134 78.8135 0.0294 -10.8846 0.0135
# 4 -0.0150 0.1278 0.0294 14.8227 0.0160 8.9953
# 5 3.0356 -1.6122 -10.8846 0.0160 38.6566 0.0131
# 6 -0.0223 0.0936 0.0135 8.9953 0.0131 34.9289
#
#
#
# Elastic Compliance Matrix: (Units=1/GPa)
#
#
# Indices 1 2 3 4 5 6 
#
# 1 0.013765 -0.004186 -0.002193 0.000051 -0.001873 0.000008
# 2 -0.004186 0.020966 -0.001585 -0.000174 0.000757 -0.000014
# 3 -0.002193 -0.001585 0.013808 -0.000021 0.003994 0.000001
# 4 0.000051 -0.000174 -0.000021 0.079962 -0.000043 -0.020592
# 5 -0.001873 0.000757 0.003994 -0.000043 0.027172 -0.000004
# 6 0.000008 -0.000014 0.000001 -0.020592 -0.000004 0.033933
#
#
# Mechanical properties :
#
#
# Convention : Reuss Voigt Hill
#
# Bulk Modulus (GPa) = 30.66214 32.33227 31.49721
# Shear Modulus (GPa) = 23.10509 29.09058 26.09784
#
# Velocity S-wave (km/s) = 3.35051 3.75953 3.56090
# Velocity P-wave (km/s) = 5.46494 5.87831 5.67539
#
# Compressibility (1/GPa) = 0.03261351
#
# Stress axis : x y z
#
# Youngs Moduli (GPa) = 72.64937 47.69640 72.42095
#
# Poissons Ratio (x) = 0.19964 0.15879
# Poissons Ratio (y) = 0.30408 0.11475
# Poissons Ratio (z) = 0.15929 0.07558
#
# Static dielectric constant tensor:
#      x y z
#    x 1.772440 -0.000020 -0.027950 
#    y -0.000020 1.751310 -0.000060 
#    z -0.027950 -0.000060 1.850780 
# 
# From -- ./inp_files/66220.got.cif
#   From: 2010.05.17/outbox.cif.g08.bks.cpg/sg5_34_cif.got.tgz:66220.got - 2010.06.03 18:56:24.
