data_PCOD9124448
_publ_section_title
;
Structure prediction by ZEFSAII (Michael W. Deem and Ramdas Pophale) SiO2 
 PCOD9124448
Probable space group: C 2
;
_chemical_formula_sum "Si O2"
_cell_formula_units_Z 30
_cell_length_a 13.093133
_cell_length_b 19.671214
_cell_length_c 7.607317
_cell_angle_alpha 90.000000
_cell_angle_beta 44.660289
_cell_angle_gamma 90.000000
_cell_volume 1377.212532
_symmetry_space_group_name_H-M "C 2"
_symmetry_group_IT_number 5
_symmetry_cell_setting 'monoclinic'
loop_
_space_group_symop_operation_xyz
x,y,z
-x,y,-z
1/2+x,1/2+y,z
1/2-x,1/2+y,-z
loop_
_atom_site_type_symbol
_atom_site_label
_atom_site_fract_x
_atom_site_fract_y
_atom_site_fract_z
Si Si1 0.569821 0.036350 0.193288
Si Si2 0.266781 0.032722 0.385697
Si Si3 0.624485 0.239323 0.577120
Si Si4 0.500000 0.776321 0.500000
Si Si5 0.680335 0.178823 0.151288
Si Si6 0.732802 0.881633 0.612290
Si Si7 0.590517 0.886207 0.161178
Si Si8 0.310773 0.670481 0.615584
O O1 0.398609 0.042999 0.361144
O O2 0.626607 0.100816 0.228889
O O3 0.605266 0.961564 0.221960
O O4 0.650337 0.035073 0.904690
O O5 0.158136 0.096084 0.499354
O O6 0.204442 0.957559 0.492254
O O7 0.716967 0.209077 0.297412
O O8 0.457337 0.224626 0.739277
O O9 0.667027 0.317606 0.553461
O O10 0.666773 0.195293 0.694431
O O11 0.614564 0.826891 0.270448
O O12 0.428184 0.728791 0.441225
O O13 0.787922 0.174432 0.853589
O O14 0.576723 0.880200 0.703532
O O15 0.691739 0.877728 0.868765
#
# Coordination Sequence:
#
# PCOD9124448 Si02
#       8
#     4   4   4   2   4   4   4   4
#     4   8  14  30  52  78 100 131 169 223 268 294
#     4   8  15  30  55  71 101 140 172 210 261 303
#     4  11  20  33  54  81 108 134 170 217 270 311
#     4  12  22  32  50  80 108 144 172 206 268 318
#     4  10  21  34  55  82 104 135 176 219 267 307
#     4   9  17  34  52  75 102 140 174 213 259 309
#     4   9  18  31  51  75 108 134 172 218 260 307
#     4  11  21  37  52  77 111 138 175 217 256 312
#
# _framework density 21.783131999999998
#
# number of rings (size 3 to 8) (size 9 to 14) (size 15 to 20)
#    0.000    2.400    2.667    2.800    0.000    1.067 
#    0.000    1.333    0.000    0.000    0.000    5.600 
#    0.000    0.000    0.000    0.000    0.000    0.000 
#
# Total GULP energy -83655.639159 kJ/mol
# GULP energy per Si atom -5577.042611 kJ/mol
# Density = 2.173355 g / cm^3
# Si number density = 21.783132 Si / 1000 Ang^3
#
#
#
# Elastic Constant Matrix: (Units=GPa)
#
#
# Indices 1 2 3 4 5 6 
#
# 1 31.0098 20.3896 -1.4838 0.0000 7.4187 0.0000
# 2 20.3896 198.5217 2.9276 0.0000 -7.3131 0.0000
# 3 -1.4838 2.9276 21.9596 0.0000 12.7318 0.0000
# 4 0.0000 0.0000 0.0000 19.7562 0.0000 -2.2744
# 5 7.4187 -7.3131 12.7318 0.0000 22.0744 0.0000
# 6 0.0000 0.0000 0.0000 -2.2744 0.0000 11.6128
#
#
#
# Elastic Compliance Matrix: (Units=1/GPa)
#
#
# Indices 1 2 3 4 5 6 
#
# 1 0.043812 -0.005838 0.020127 0.000000 -0.028267 0.000000
# 2 -0.005838 0.005970 -0.005220 0.000000 0.006951 0.000000
# 3 0.020127 -0.005220 0.078904 0.000000 -0.054003 0.000000
# 4 0.000000 0.000000 0.000000 0.051785 0.000000 0.010142
# 5 -0.028267 0.006951 -0.054003 0.000000 0.088251 0.000000
# 6 0.000000 0.000000 0.000000 0.010142 0.000000 0.088098
#
#
# Mechanical properties :
#
#
# Convention : Reuss Voigt Hill
#
# Bulk Modulus (GPa) = 6.81086 32.79532 19.80309
# Shear Modulus (GPa) = 12.89916 25.99919 19.44917
#
# Velocity S-wave (km/s) = 2.43608 3.45852 2.99131
# Velocity P-wave (km/s) = 3.32357 5.57105 4.58708
#
# Compressibility (1/GPa) = 0.14682437
#
# Stress axis : x y z
#
# Youngs Moduli (GPa) = 22.82478 167.50831 12.67363
#
# Poissons Ratio (x) = 0.97790 -0.25509
# Poissons Ratio (y) = 0.13325 0.06616
# Poissons Ratio (z) = -0.45940 0.87442
#
# Static dielectric constant tensor:
#      x y z
#    x 1.783420 0.000000 0.015070 
#    y 0.000000 1.850980 0.000000 
#    z 0.015070 0.000000 1.849010 
# 
# From -- ./inp_files/21487.got.cif
#   From: 2010.05.17/outbox.cif.g08.bks.cpg/sg5_11_cif.got.tgz:21487.got - 2010.06.03 18:56:24.
