data_PCOD9124079
_publ_section_title
;
Structure prediction by ZEFSAII (Michael W. Deem and Ramdas Pophale) SiO2 
 PCOD9124079
Probable space group: C 2
;
_chemical_formula_sum "Si O2"
_cell_formula_units_Z 20
_cell_length_a 14.872100
_cell_length_b 6.703726
_cell_length_c 9.921753
_cell_angle_alpha 90.000000
_cell_angle_beta 61.123940
_cell_angle_gamma 90.000000
_cell_volume 866.194935
_symmetry_space_group_name_H-M "C 2"
_symmetry_group_IT_number 5
_symmetry_cell_setting 'monoclinic'
loop_
_space_group_symop_operation_xyz
x,y,z
-x,y,-z
1/2+x,1/2+y,z
1/2-x,1/2+y,-z
loop_
_atom_site_type_symbol
_atom_site_label
_atom_site_fract_x
_atom_site_fract_y
_atom_site_fract_z
Si Si1 0.429862 0.763190 0.670246
Si Si2 0.241564 0.502479 0.836794
Si Si3 0.461691 0.026312 0.879035
Si Si4 0.137621 0.773341 0.679957
Si Si5 0.283119 0.108612 0.657815
O O1 0.500000 0.679935 0.500000
O O2 0.350849 0.602175 0.783167
O O3 0.491993 0.863315 0.746579
O O4 0.363843 0.945821 0.654240
O O5 0.195297 0.619376 0.739831
O O6 0.254428 0.274155 0.787213
O O7 0.160527 0.535065 0.014966
O O8 0.518311 0.229914 0.795637
O O9 0.500000 0.969758 0.000000
O O10 0.182422 0.987911 0.683684
O O11 0.167363 0.717735 0.506869
#
# Coordination Sequence:
#
# PCOD9124079 Si02
#       5
#     4   4   4   4   4
#     4  11  24  43  68 100 141 182 228 282 343 413
#     4  10  24  41  66 100 142 178 225 284 344 405
#     4  10  23  46  67  98 141 178 227 286 340 411
#     4  10  20  41  71  97 135 180 232 279 334 409
#     4  11  21  40  72 102 137 182 229 285 340 408
#
# _framework density 23.089492
#
# number of rings (size 3 to 8) (size 9 to 14) (size 15 to 20)
#    0.000    1.600    4.000    0.000    2.800    0.800 
#    0.000   15.000    0.000    0.000    0.000    0.000 
#    0.000    0.000    0.000    0.000    0.000    0.000 
#
# Total GULP energy -55962.984125 kJ/mol
# GULP energy per Si atom -5596.298412 kJ/mol
# Density = 2.303694 g / cm^3
# Si number density = 23.089492 Si / 1000 Ang^3
#
#
#
# Elastic Constant Matrix: (Units=GPa)
#
#
# Indices 1 2 3 4 5 6 
#
# 1 41.4699 27.2571 30.5695 0.0000 1.6079 0.0000
# 2 27.2571 96.2108 21.3534 0.0000 -8.5118 0.0000
# 3 30.5695 21.3534 117.6491 0.0000 -5.2286 0.0000
# 4 0.0000 0.0000 0.0000 12.9408 0.0000 -9.1821
# 5 1.6079 -8.5118 -5.2286 0.0000 34.8747 0.0000
# 6 0.0000 0.0000 0.0000 -9.1821 0.0000 32.0807
#
#
#
# Elastic Compliance Matrix: (Units=1/GPa)
#
#
# Indices 1 2 3 4 5 6 
#
# 1 0.036021 -0.008880 -0.007971 0.000000 -0.005023 0.000000
# 2 -0.008880 0.013217 0.000071 0.000000 0.003646 0.000000
# 3 -0.007971 0.000071 0.010646 0.000000 0.001981 0.000000
# 4 0.000000 0.000000 0.000000 0.096968 0.000000 0.027754
# 5 -0.005023 0.003646 0.001981 0.000000 0.030092 0.000000
# 6 0.000000 0.000000 0.000000 0.027754 0.000000 0.039115
#
#
# Mechanical properties :
#
#
# Convention : Reuss Voigt Hill
#
# Bulk Modulus (GPa) = 37.99023 45.96553 41.97788
# Shear Modulus (GPa) = 18.62922 27.72255 23.17589
#
# Velocity S-wave (km/s) = 2.84355 3.46881 3.17163
# Velocity P-wave (km/s) = 5.22209 5.99952 5.62426
#
# Compressibility (1/GPa) = 0.02632256
#
# Stress axis : x y z
#
# Youngs Moduli (GPa) = 27.76127 75.66268 93.92969
#
# Poissons Ratio (x) = 0.67191 0.74873
# Poissons Ratio (y) = 0.24653 -0.00664
# Poissons Ratio (z) = 0.22129 -0.00535
#
# Static dielectric constant tensor:
#      x y z
#    x 1.934960 0.000000 -0.035770 
#    y 0.000000 1.817060 0.000000 
#    z -0.035770 0.000000 1.831910 
# 
# From -- ./inp_files/43698.got.cif
#   From: 2010.05.17/outbox.cif.g08.bks.cpg/sg5_22_cif.got.tgz:43698.got - 2010.06.03 18:56:24.
