data_PCOD9124862
_publ_section_title
;
Structure prediction by ZEFSAII (Michael W. Deem and Ramdas Pophale) SiO2 
 PCOD9124862
Probable space group: C 2
;
_chemical_formula_sum "Si O2"
_cell_formula_units_Z 32
_cell_length_a 11.230343
_cell_length_b 11.831202
_cell_length_c 12.197816
_cell_angle_alpha 90.000000
_cell_angle_beta 71.207078
_cell_angle_gamma 90.000000
_cell_volume 1534.303685
_symmetry_space_group_name_H-M "C 2"
_symmetry_group_IT_number 5
_symmetry_cell_setting 'monoclinic'
loop_
_space_group_symop_operation_xyz
x,y,z
-x,y,-z
1/2+x,1/2+y,z
1/2-x,1/2+y,-z
loop_
_atom_site_type_symbol
_atom_site_label
_atom_site_fract_x
_atom_site_fract_y
_atom_site_fract_z
Si Si1 0.112352 0.015100 0.089992
Si Si2 0.151392 0.139086 0.863880
Si Si3 0.030914 0.553903 0.111098
Si Si4 0.117298 0.341931 0.219728
Si Si5 0.822263 0.283439 0.328773
Si Si6 0.148372 0.237768 0.434538
Si Si7 0.203446 0.772011 0.025370
Si Si8 0.258404 0.034098 0.272028
O O1 0.182953 0.039748 0.181025
O O2 0.981691 0.083138 0.128830
O O3 0.117973 0.880898 0.074458
O O4 0.179440 0.058161 0.959310
O O5 0.218627 0.173633 0.730591
O O6 0.181992 0.256747 0.920064
O O7 0.095398 0.465151 0.174426
O O8 0.108881 0.667185 0.065006
O O9 0.897795 0.578767 0.206182
O O10 0.000000 0.501680 0.000000
O O11 0.165230 0.327269 0.329987
O O12 0.974685 0.290943 0.262462
O O13 0.220528 0.283970 0.110410
O O14 0.794659 0.269389 0.465098
O O15 0.767359 0.403607 0.306588
O O16 0.195926 0.117438 0.377420
O O17 0.000000 0.230779 0.500000
#
# Coordination Sequence:
#
# PCOD9124862 Si02
#       8
#     4   4   4   4   4   4   4   4
#     4  11  23  40  68  99 139 180 228 284 350 435
#     4  11  22  40  65  98 136 181 227 276 351 422
#     4  11  24  38  65  99 141 179 213 287 368 421
#     4  10  21  38  66  93 130 183 233 274 351 425
#     4  10  22  41  68  94 131 183 233 293 347 416
#     4  10  21  43  69  93 127 179 242 293 341 422
#     4  12  23  41  63 103 147 178 222 289 350 430
#     4  11  22  46  66 100 136 176 232 294 360 423
#
# _framework density 20.856366000000001
#
# number of rings (size 3 to 8) (size 9 to 14) (size 15 to 20)
#    0.000    1.250    1.250    6.750    3.500    0.000 
#    6.750    1.250    0.000    0.000    0.000    0.000 
#    0.000    0.000    0.000    0.000    0.000    0.000 
#
# Total GULP energy -89142.718708 kJ/mol
# GULP energy per Si atom -5571.419919 kJ/mol
# Density = 2.080890 g / cm^3
# Si number density = 20.856366 Si / 1000 Ang^3
#
#
#
# Elastic Constant Matrix: (Units=GPa)
#
#
# Indices 1 2 3 4 5 6 
#
# 1 63.6961 48.0131 64.3224 0.0000 19.2613 0.0000
# 2 48.0131 134.1726 77.7683 0.0000 19.1010 0.0000
# 3 64.3224 77.7683 162.3202 0.0000 24.6196 0.0000
# 4 0.0000 0.0000 0.0000 30.1550 0.0000 -5.0686
# 5 19.2613 19.1010 24.6196 0.0000 28.4346 0.0000
# 6 0.0000 0.0000 0.0000 -5.0686 0.0000 35.2212
#
#
#
# Elastic Compliance Matrix: (Units=1/GPa)
#
#
# Indices 1 2 3 4 5 6 
#
# 1 0.030897 -0.004691 -0.008403 0.000000 -0.010503 0.000000
# 2 -0.004691 0.011266 -0.003307 0.000000 -0.001527 0.000000
# 3 -0.008403 -0.003307 0.011368 0.000000 -0.001929 0.000000
# 4 0.000000 0.000000 0.000000 0.033984 0.000000 0.004891
# 5 -0.010503 -0.001527 -0.001929 0.000000 0.044978 0.000000
# 6 0.000000 0.000000 0.000000 0.004891 0.000000 0.029096
#
#
# Mechanical properties :
#
#
# Convention : Reuss Voigt Hill
#
# Bulk Modulus (GPa) = 48.24287 82.26628 65.25457
# Shear Modulus (GPa) = 24.83850 30.10116 27.46983
#
# Velocity S-wave (km/s) = 3.45473 3.80315 3.63312
# Velocity P-wave (km/s) = 6.25258 7.66910 6.99678
#
# Compressibility (1/GPa) = 0.02072845
#
# Stress axis : x y z
#
# Youngs Moduli (GPa) = 32.36554 88.76369 87.96909
#
# Poissons Ratio (x) = 0.41635 0.73923
# Poissons Ratio (y) = 0.15181 0.29093
# Poissons Ratio (z) = 0.27198 0.29356
#
# Static dielectric constant tensor:
#      x y z
#    x 1.880610 0.000000 0.045980 
#    y 0.000000 1.837510 0.000000 
#    z 0.045980 0.000000 1.751900 
# 
# From -- ./inp_files/39406.got.cif
#   From: 2010.05.17/outbox.cif.g08.bks.cpg/sg5_20_cif.got.tgz:39406.got - 2010.06.03 18:56:24.
