data_PCOD9124717
_publ_section_title
;
Structure prediction by ZEFSAII (Michael W. Deem and Ramdas Pophale) SiO2 
 PCOD9124717
Probable space group: C 2
;
_chemical_formula_sum "Si O2"
_cell_formula_units_Z 28
_cell_length_a 19.619171
_cell_length_b 5.347559
_cell_length_c 12.452316
_cell_angle_alpha 90.000000
_cell_angle_beta 118.994128
_cell_angle_gamma 90.000000
_cell_volume 1142.694924
_symmetry_space_group_name_H-M "C 2"
_symmetry_group_IT_number 5
_symmetry_cell_setting 'monoclinic'
loop_
_space_group_symop_operation_xyz
x,y,z
-x,y,-z
1/2+x,1/2+y,z
1/2-x,1/2+y,-z
loop_
_atom_site_type_symbol
_atom_site_label
_atom_site_fract_x
_atom_site_fract_y
_atom_site_fract_z
Si Si1 0.870736 0.309030 0.665457
Si Si2 0.247202 0.749101 0.233398
Si Si3 0.201205 0.358374 0.946844
Si Si4 0.514589 0.712255 0.640093
Si Si5 0.302341 0.085012 0.439869
Si Si6 0.071737 0.720558 0.637567
Si Si7 0.650536 0.751888 0.124901
O O1 0.933321 0.174284 0.638807
O O2 0.852674 0.564822 0.586469
O O3 0.902718 0.308061 0.811956
O O4 0.783288 0.194623 0.605942
O O5 0.286410 0.808476 0.376945
O O6 0.213970 0.473926 0.193774
O O7 0.182084 0.968416 0.165097
O O8 0.306941 0.806149 0.184531
O O9 0.136225 0.298514 0.987459
O O10 0.231796 0.645612 0.976113
O O11 0.500000 0.730197 0.500000
O O12 0.568301 0.473903 0.701157
O O13 0.548890 0.984258 0.692730
O O14 0.353254 0.203061 0.382567
O O15 0.000000 0.738842 0.500000
#
# Coordination Sequence:
#
# PCOD9124717 Si02
#       7
#     4   4   4   4   4   4   4
#     4  11  22  33  53  82 110 138 173 226 266 307
#     4   9  18  31  47  75 105 137 170 209 264 309
#     4   8  14  28  48  66 101 138 167 204 252 316
#     4  10  21  38  52  68 100 143 182 204 248 316
#     4  11  22  33  53  82 110 138 173 226 266 307
#     4  10  21  38  52  68 100 143 182 204 248 316
#     4   9  18  31  47  75 105 137 170 209 264 309
#
# _framework density 24.503478999999999
#
# number of rings (size 3 to 8) (size 9 to 14) (size 15 to 20)
#    0.000    2.286    2.857    0.857    4.000    4.571 
#    0.000    0.000    0.000    0.000    0.000    1.000 
#    0.000    4.571    0.000    0.000    0.000    0.571 
#
# Total GULP energy -78001.990251 kJ/mol
# GULP energy per Si atom -5571.570732 kJ/mol
# Density = 2.444771 g / cm^3
# Si number density = 24.503479 Si / 1000 Ang^3
#
#
#
# Elastic Constant Matrix: (Units=GPa)
#
#
# Indices 1 2 3 4 5 6 
#
# 1 100.2195 35.3503 17.7101 0.0000 -42.2460 0.0000
# 2 35.3503 147.5870 5.1916 0.0000 -6.8713 0.0000
# 3 17.7101 5.1916 128.9978 0.0000 -54.6384 0.0000
# 4 0.0000 0.0000 0.0000 -17.7790 0.0000 27.9558
# 5 -42.2460 -6.8713 -54.6384 0.0000 37.4608 0.0000
# 6 0.0000 0.0000 0.0000 27.9558 0.0000 2.0686
#
#
#
# Elastic Compliance Matrix: (Units=1/GPa)
#
#
# Indices 1 2 3 4 5 6 
#
# 1 0.102523 -0.016378 0.089695 0.000000 0.243439 0.000000
# 2 -0.016378 0.009472 -0.013657 0.000000 -0.036651 0.000000
# 3 0.089695 -0.013657 0.098820 0.000000 0.242782 0.000000
# 4 0.000000 0.000000 0.000000 -0.002528 0.000000 0.034163
# 5 0.243439 -0.036651 0.242782 0.000000 0.648616 0.000000
# 6 0.000000 0.000000 0.000000 0.034163 0.000000 0.021727
#
#
# Mechanical properties :
#
#
# Convention : Reuss Voigt Hill
#
# Bulk Modulus (GPa) = 3.02905 54.81204 28.92054
# Shear Modulus (GPa) = 5.75140 25.58690 15.66915
#
# Velocity S-wave (km/s) = 1.53371 3.23494 2.53151
# Velocity P-wave (km/s) = 2.09170 6.03082 4.51364
#
# Compressibility (1/GPa) = 0.33013690
#
# Stress axis : x y z
#
# Youngs Moduli (GPa) = 9.75396 105.56917 10.11937
#
# Poissons Ratio (x) = 1.72897 -0.90766
# Poissons Ratio (y) = 0.15975 0.13820
# Poissons Ratio (z) = -0.87488 1.44173
#
# Static dielectric constant tensor:
#      x y z
#    x 1.948190 0.000000 -0.019920 
#    y 0.000000 2.089300 0.000000 
#    z -0.019920 0.000000 2.084910 
# 
# From -- ./inp_files/55200.got.cif
#   From: 2010.05.17/outbox.cif.g08.bks.cpg/sg5_28_cif.got.tgz:55200.got - 2010.06.03 18:56:24.
