data_PCOD9124168
_publ_section_title
;
Structure prediction by ZEFSAII (Michael W. Deem and Ramdas Pophale) SiO2 
 PCOD9124168
Probable space group: C 2
;
_chemical_formula_sum "Si O2"
_cell_formula_units_Z 26
_cell_length_a 12.536188
_cell_length_b 8.079698
_cell_length_c 19.527287
_cell_angle_alpha 90.000000
_cell_angle_beta 147.293568
_cell_angle_gamma 90.000000
_cell_volume 1068.723750
_symmetry_space_group_name_H-M "C 2"
_symmetry_group_IT_number 5
_symmetry_cell_setting 'monoclinic'
loop_
_space_group_symop_operation_xyz
x,y,z
-x,y,-z
1/2+x,1/2+y,z
1/2-x,1/2+y,-z
loop_
_atom_site_type_symbol
_atom_site_label
_atom_site_fract_x
_atom_site_fract_y
_atom_site_fract_z
Si Si1 0.500000 0.781821 0.000000
Si Si2 0.714830 0.864731 0.314480
Si Si3 0.354594 0.996156 0.047197
Si Si4 0.928243 0.028531 0.555327
Si Si5 0.311343 0.096697 0.260793
Si Si6 0.156161 0.793433 0.378555
Si Si7 0.045854 0.842755 0.161976
O O1 0.603256 0.890913 0.997776
O O2 0.334279 0.676290 0.873380
O O3 0.488695 0.914134 0.179807
O O4 0.803659 0.906581 0.436551
O O5 0.766961 0.686891 0.310097
O O6 0.843912 0.988449 0.335842
O O7 0.436469 0.178510 0.078086
O O8 0.122653 0.984616 0.936471
O O9 0.876329 0.968168 0.602664
O O10 0.869730 0.212800 0.503626
O O11 0.521530 0.158877 0.347132
O O12 0.242243 0.908449 0.231132
O O13 0.095801 0.808244 0.267924
#
# Coordination Sequence:
#
# PCOD9124168 Si02
#       7
#     2   4   4   4   4   4   4
#     4  10  20  42  66  94 142 176 228 290 344 420
#     4   9  20  42  66  89 134 182 223 288 353 402
#     4  11  22  42  66 101 138 182 229 291 353 422
#     4  10  22  41  67  93 136 180 230 288 346 412
#     4  10  23  41  66  95 136 182 230 288 350 415
#     4  11  24  45  66 103 137 180 240 287 346 430
#     4  12  25  43  70 103 141 187 231 291 362 421
#
# _framework density 24.328084
#
# number of rings (size 3 to 8) (size 9 to 14) (size 15 to 20)
#    0.000    1.538    3.077    1.846    2.154    1.846 
#    0.000    0.000    0.000    0.000    0.000    0.000 
#    0.000    0.000    0.000    0.000    0.000    0.000 
#
# Total GULP energy -72748.884179 kJ/mol
# GULP energy per Si atom -5596.068014 kJ/mol
# Density = 2.427271 g / cm^3
# Si number density = 24.328084 Si / 1000 Ang^3
#
#
#
# Elastic Constant Matrix: (Units=GPa)
#
#
# Indices 1 2 3 4 5 6 
#
# 1 43.4258 12.1822 27.9371 -0.0001 -6.3387 0.0000
# 2 12.1822 71.1663 15.8389 0.0005 4.4432 0.0001
# 3 27.9371 15.8389 84.7389 0.0008 8.2788 0.0002
# 4 -0.0001 0.0005 0.0008 39.9846 -0.0001 11.2079
# 5 -6.3387 4.4432 8.2788 -0.0001 37.9605 -0.0001
# 6 0.0000 0.0001 0.0002 11.2079 -0.0001 18.4202
#
#
#
# Elastic Compliance Matrix: (Units=1/GPa)
#
#
# Indices 1 2 3 4 5 6 
#
# 1 0.032116 -0.003622 -0.010704 0.000000 0.008121 0.000000
# 2 -0.003622 0.015119 -0.001430 0.000000 -0.002063 0.000000
# 3 -0.010704 -0.001430 0.016099 0.000000 -0.005131 0.000000
# 4 0.000000 0.000000 0.000000 0.030152 0.000000 -0.018346
# 5 0.008121 -0.002063 -0.005131 0.000000 0.029060 0.000000
# 6 0.000000 0.000000 0.000000 -0.018346 0.000000 0.065451
#
#
# Mechanical properties :
#
#
# Convention : Reuss Voigt Hill
#
# Bulk Modulus (GPa) = 31.42731 34.58302 33.00517
# Shear Modulus (GPa) = 21.72814 28.83127 25.27971
#
# Velocity S-wave (km/s) = 2.99177 3.44627 3.22703
# Velocity P-wave (km/s) = 4.98803 5.48469 5.24224
#
# Compressibility (1/GPa) = 0.03181946
#
# Stress axis : x y z
#
# Youngs Moduli (GPa) = 31.13730 66.14313 62.11697
#
# Poissons Ratio (x) = 0.23958 0.66493
# Poissons Ratio (y) = 0.11279 0.08884
# Poissons Ratio (z) = 0.33331 0.09460
#
# Static dielectric constant tensor:
#      x y z
#    x 1.950800 0.000000 0.041600 
#    y 0.000000 1.984780 0.000000 
#    z 0.041600 0.000000 1.882270 
# 
# From -- ./inp_files/65917.got.cif
#   From: 2010.05.17/outbox.cif.g08.bks.cpg/sg5_33_cif.got.tgz:65917.got - 2010.06.03 18:56:24.
