data_PCOD9124949
_publ_section_title
;
Structure prediction by ZEFSAII (Michael W. Deem and Ramdas Pophale) SiO2 
 PCOD9124949
Probable space group: C 2
;
_chemical_formula_sum "Si O2"
_cell_formula_units_Z 28
_cell_length_a 5.355782
_cell_length_b 25.836458
_cell_length_c 9.738606
_cell_angle_alpha 90.000000
_cell_angle_beta 121.955789
_cell_angle_gamma 90.000000
_cell_volume 1143.358350
_symmetry_space_group_name_H-M "C 2"
_symmetry_group_IT_number 5
_symmetry_cell_setting 'monoclinic'
loop_
_space_group_symop_operation_xyz
x,y,z
-x,y,-z
1/2+x,1/2+y,z
1/2-x,1/2+y,-z
loop_
_atom_site_type_symbol
_atom_site_label
_atom_site_fract_x
_atom_site_fract_y
_atom_site_fract_z
Si Si1 0.157088 0.095930 0.404754
Si Si2 0.649568 0.846693 0.394148
Si Si3 0.286548 0.207237 0.541075
Si Si4 0.284030 0.960659 0.682402
Si Si5 0.420244 0.509415 0.818081
Si Si6 0.198063 0.311893 0.944718
Si Si7 0.170930 0.694541 0.919331
O O1 0.500000 0.083182 0.500000
O O2 0.158502 0.158293 0.417645
O O3 0.033446 0.065843 0.238938
O O4 0.000000 0.079152 0.500000
O O5 0.500000 0.850830 0.500000
O O6 0.610899 0.901690 0.305217
O O7 0.485113 0.806089 0.247135
O O8 0.000000 0.840341 0.500000
O O9 0.500000 0.235074 0.500000
O O10 0.474976 0.189358 0.726513
O O11 0.000000 0.238001 0.500000
O O12 0.000000 0.966874 0.500000
O O13 0.572849 0.992975 0.718253
O O14 0.140062 0.974315 0.788656
O O15 0.500000 0.509162 0.000000
O O16 0.500000 0.340165 0.000000
O O17 0.288322 0.256282 0.037555
O O18 0.000000 0.338724 0.000000
O O19 0.500000 0.673559 0.000000
O O20 0.000000 0.672278 0.000000
#
# Coordination Sequence:
#
# PCOD9124949 Si02
#       7
#     4   4   4   4   4   4   4
#     4  10  21  39  62  87 122 167 209 259 316 376
#     4  11  23  41  64  93 125 169 220 261 310 378
#     4  10  21  40  65  92 121 165 215 257 315 384
#     4  11  23  41  64  89 126 171 215 262 313 380
#     4  12  24  39  62  95 127 164 215 267 321 374
#     4  10  22  41  62  91 130 167 203 262 326 373
#     4  10  21  41  64  93 128 163 206 262 324 379
#
# _framework density 24.489259000000001
#
# number of rings (size 3 to 8) (size 9 to 14) (size 15 to 20)
#    0.000    1.429    0.000    6.429    0.000    1.714 
#    0.000   25.714    0.000    3.429    0.000    0.000 
#    0.000    0.000    0.000    0.000    0.000    0.000 
#
# Total GULP energy -78259.470831 kJ/mol
# GULP energy per Si atom -5589.962202 kJ/mol
# Density = 2.443352 g / cm^3
# Si number density = 24.489259 Si / 1000 Ang^3
#
#
#
# Elastic Constant Matrix: (Units=GPa)
#
#
# Indices 1 2 3 4 5 6 
#
# 1 274.4809 9.7441 79.8479 0.0000 -22.2990 0.0000
# 2 9.7441 103.5467 29.9876 0.0000 -12.7202 0.0000
# 3 79.8479 29.9876 135.0700 0.0000 -24.7224 0.0000
# 4 0.0000 0.0000 0.0000 -14.0332 0.0000 52.4910
# 5 -22.2990 -12.7202 -24.7224 0.0000 56.9791 0.0000
# 6 0.0000 0.0000 0.0000 52.4910 0.0000 -74.0628
#
#
#
# Elastic Compliance Matrix: (Units=1/GPa)
#
#
# Indices 1 2 3 4 5 6 
#
# 1 0.004439 0.000419 -0.002587 0.000000 0.000708 0.000000
# 2 0.000419 0.010468 -0.002296 0.000000 0.001504 0.000000
# 3 -0.002587 -0.002296 0.009954 0.000000 0.002794 0.000000
# 4 0.000000 0.000000 0.000000 0.043161 0.000000 0.030590
# 5 0.000708 0.001504 0.002794 0.000000 0.019375 0.000000
# 6 0.000000 0.000000 0.000000 0.030590 0.000000 0.008178
#
#
# Mechanical properties :
#
#
# Convention : Reuss Voigt Hill
#
# Bulk Modulus (GPa) = 62.77057 83.58407 73.17732
# Shear Modulus (GPa) = 45.53116 20.01116 32.77116
#
# Velocity S-wave (km/s) = 4.31656 2.86167 3.66209
# Velocity P-wave (km/s) = 7.10852 6.71743 6.91574
#
# Compressibility (1/GPa) = 0.01593103
#
# Stress axis : x y z
#
# Youngs Moduli (GPa) = 225.29966 95.53049 100.46036
#
# Poissons Ratio (x) = -0.03998 0.25991
# Poissons Ratio (y) = -0.09430 0.23067
# Poissons Ratio (z) = 0.58290 0.21935
#
# Static dielectric constant tensor:
#      x y z
#    x 2.036490 0.000000 -0.007630 
#    y 0.000000 2.005410 0.000000 
#    z -0.007630 0.000000 2.008790 
# 
# From -- ./inp_files/13380.got.cif
#   From: 2010.05.17/outbox.cif.g08.bks.cpg/sg5_7_cif.got.tgz:13380.got - 2010.06.03 18:56:24.
