data_PCOD9124683
_publ_section_title
;
Structure prediction by ZEFSAII (Michael W. Deem and Ramdas Pophale) SiO2 
 PCOD9124683
Probable space group: C 2
;
_chemical_formula_sum "Si O2"
_cell_formula_units_Z 30
_cell_length_a 26.158630
_cell_length_b 9.417693
_cell_length_c 10.747230
_cell_angle_alpha 90.000000
_cell_angle_beta 32.987096
_cell_angle_gamma 90.000000
_cell_volume 1441.498450
_symmetry_space_group_name_H-M "C 2"
_symmetry_group_IT_number 5
_symmetry_cell_setting 'monoclinic'
loop_
_space_group_symop_operation_xyz
x,y,z
-x,y,-z
1/2+x,1/2+y,z
1/2-x,1/2+y,-z
loop_
_atom_site_type_symbol
_atom_site_label
_atom_site_fract_x
_atom_site_fract_y
_atom_site_fract_z
Si Si1 0.500000 0.515100 0.000000
Si Si2 0.807081 0.839130 0.413832
Si Si3 0.216608 0.017367 0.933677
Si Si4 0.768308 0.718666 0.222816
Si Si5 0.338158 0.938219 0.097303
Si Si6 0.552011 0.671363 0.140010
Si Si7 0.171084 0.758470 0.366506
Si Si8 0.388116 0.540436 0.591989
O O1 0.596455 0.425134 0.801546
O O2 0.493464 0.610753 0.891469
O O3 0.773354 0.772367 0.354105
O O4 0.720801 0.927439 0.652408
O O5 0.831014 0.733996 0.480574
O O6 0.149837 0.089058 0.964984
O O7 0.164147 0.037633 0.170501
O O8 0.311552 0.111441 0.737631
O O9 0.228744 0.854085 0.872633
O O10 0.850769 0.601700 0.038216
O O11 0.678443 0.623491 0.370436
O O12 0.265700 0.855743 0.152506
O O13 0.427321 0.837310 0.916294
O O14 0.483817 0.626977 0.390089
O O15 0.094614 0.875765 0.484052
#
# Coordination Sequence:
#
# PCOD9124683 Si02
#       8
#     2   4   4   4   4   4   4   4
#     4  12  20  38  64  96 122 172 216 274 328 396
#     4  10  21  37  63  90 129 167 209 273 328 387
#     4  11  22  38  64  91 128 177 221 256 333 390
#     4  11  22  39  64  97 127 174 215 273 332 382
#     4   8  21  36  60  90 128 160 210 267 324 388
#     4  11  22  39  64  93 124 172 220 270 325 383
#     4   8  19  36  57  88 121 165 214 260 308 387
#     4  11  22  40  61  92 132 171 224 268 309 400
#
# _framework density 20.811675999999999
#
# number of rings (size 3 to 8) (size 9 to 14) (size 15 to 20)
#    0.800    1.067    2.667    1.200    5.600    0.000 
#    0.000    3.333    0.000    4.800    0.000    0.000 
#    0.000    0.000    0.000    0.000    0.000    0.000 
#
# Total GULP energy -83537.726467 kJ/mol
# GULP energy per Si atom -5569.181764 kJ/mol
# Density = 2.076431 g / cm^3
# Si number density = 20.811676 Si / 1000 Ang^3
#
#
#
# Elastic Constant Matrix: (Units=GPa)
#
#
# Indices 1 2 3 4 5 6 
#
# 1 66.2577 24.2649 17.4270 0.0000 9.5810 0.0000
# 2 24.2649 158.8473 58.3243 0.0000 1.4328 0.0000
# 3 17.4270 58.3243 86.2476 0.0000 12.3071 0.0000
# 4 0.0000 0.0000 0.0000 8.8105 0.0000 2.8761
# 5 9.5810 1.4328 12.3071 0.0000 22.5407 0.0000
# 6 0.0000 0.0000 0.0000 2.8761 0.0000 18.8053
#
#
#
# Elastic Compliance Matrix: (Units=1/GPa)
#
#
# Indices 1 2 3 4 5 6 
#
# 1 0.017113 -0.002167 -0.001056 0.000000 -0.006559 0.000000
# 2 -0.002167 0.008813 -0.006044 0.000000 0.003661 0.000000
# 3 -0.001056 -0.006044 0.017109 0.000000 -0.008508 0.000000
# 4 0.000000 0.000000 0.000000 0.119466 0.000000 -0.018271
# 5 -0.006559 0.003661 -0.008508 0.000000 0.051565 0.000000
# 6 0.000000 0.000000 0.000000 -0.018271 0.000000 0.055971
#
#
# Mechanical properties :
#
#
# Convention : Reuss Voigt Hill
#
# Bulk Modulus (GPa) = 40.81680 56.82055 48.81868
# Shear Modulus (GPa) = 16.84992 24.12038 20.48515
#
# Velocity S-wave (km/s) = 2.84850 3.40808 3.14078
# Velocity P-wave (km/s) = 5.52029 6.54585 6.05483
#
# Compressibility (1/GPa) = 0.02449971
#
# Stress axis : x y z
#
# Youngs Moduli (GPa) = 58.43678 113.47493 58.44806
#
# Poissons Ratio (x) = 0.24590 0.06174
# Poissons Ratio (y) = 0.12663 0.35326
# Poissons Ratio (z) = 0.06173 0.68583
#
# Static dielectric constant tensor:
#      x y z
#    x 1.826190 0.000000 -0.052880 
#    y 0.000000 1.791820 0.000000 
#    z -0.052880 0.000000 1.801770 
# 
# From -- ./inp_files/48340.got.cif
#   From: 2010.05.17/outbox.cif.g08.bks.cpg/sg5_25_cif.got.tgz:48340.got - 2010.06.03 18:56:24.
