data_PCOD9124292
_publ_section_title
;
Structure prediction by ZEFSAII (Michael W. Deem and Ramdas Pophale) SiO2 
 PCOD9124292
Probable space group: C 2
;
_chemical_formula_sum "Si O2"
_cell_formula_units_Z 32
_cell_length_a 11.370491
_cell_length_b 7.273143
_cell_length_c 27.291073
_cell_angle_alpha 90.000000
_cell_angle_beta 148.817933
_cell_angle_gamma 90.000000
_cell_volume 1168.556820
_symmetry_space_group_name_H-M "C 2"
_symmetry_group_IT_number 5
_symmetry_cell_setting 'monoclinic'
loop_
_space_group_symop_operation_xyz
x,y,z
-x,y,-z
1/2+x,1/2+y,z
1/2-x,1/2+y,-z
loop_
_atom_site_type_symbol
_atom_site_label
_atom_site_fract_x
_atom_site_fract_y
_atom_site_fract_z
Si Si1 0.512541 0.763180 0.433915
Si Si2 0.246868 0.250541 0.282004
Si Si3 0.618137 0.212704 0.353819
Si Si4 0.456465 0.350366 0.900350
Si Si5 0.744720 0.369179 0.915730
Si Si6 0.089789 0.696709 0.480025
Si Si7 0.686746 0.953493 0.898002
Si Si8 0.592642 0.539726 0.766656
O O1 0.261745 0.687682 0.355257
O O2 0.690101 0.680374 0.536846
O O3 0.642379 0.729401 0.429992
O O4 0.523124 0.982670 0.447879
O O5 0.383853 0.127600 0.290294
O O6 0.455105 0.313112 0.390972
O O7 0.073343 0.391233 0.195400
O O8 0.086681 0.151606 0.264451
O O9 0.535293 0.425875 0.320565
O O10 0.568007 0.449180 0.892677
O O11 0.284022 0.445973 0.877298
O O12 0.305145 0.172564 0.831758
O O13 0.671071 0.324731 0.014168
O O14 0.662568 0.383935 0.830932
O O15 0.744210 0.159883 0.934099
O O16 0.000000 0.442799 0.000000
O O17 0.000000 0.754166 0.500000
#
# Coordination Sequence:
#
# PCOD9124292 Si02
#       8
#     4   4   4   4   4   4   4   4
#     4  10  21  42  71  93 131 177 207 261 331 380
#     4  10  22  40  71  92 127 177 214 263 329 377
#     4  10  20  43  66  95 132 168 212 267 319 385
#     4  10  24  44  66  88 133 171 216 264 318 386
#     4  12  27  40  67  97 124 171 222 265 329 380
#     4  11  21  45  66  95 133 171 213 263 321 392
#     4  10  23  47  63  93 133 173 214 271 324 377
#     4  11  24  42  65  99 125 174 217 267 323 380
#
# _framework density 27.384205000000001
#
# number of rings (size 3 to 8) (size 9 to 14) (size 15 to 20)
#    0.000    1.500    3.750    0.750    7.000    1.000 
#   15.750    0.000    0.000    0.000    0.000    0.000 
#    0.000    0.000    0.000    0.000    0.000    0.000 
#
# Total GULP energy -89362.196917 kJ/mol
# GULP energy per Si atom -5585.137307 kJ/mol
# Density = 2.732188 g / cm^3
# Si number density = 27.384205 Si / 1000 Ang^3
#
#
#
# Elastic Constant Matrix: (Units=GPa)
#
#
# Indices 1 2 3 4 5 6 
#
# 1 187.1038 9.1688 53.4198 -0.0001 42.2924 0.0001
# 2 9.1688 54.1391 11.1763 -0.0001 3.8055 0.0001
# 3 53.4198 11.1763 101.4798 0.0000 34.6317 0.0000
# 4 -0.0001 -0.0001 0.0000 29.5267 0.0000 -0.1354
# 5 42.2924 3.8055 34.6317 0.0000 58.7841 0.0000
# 6 0.0001 0.0001 0.0000 -0.1354 0.0000 40.7517
#
#
#
# Elastic Compliance Matrix: (Units=1/GPa)
#
#
# Indices 1 2 3 4 5 6 
#
# 1 0.006828 -0.000425 -0.002354 0.000000 -0.003498 0.000000
# 2 -0.000425 0.018927 -0.001936 0.000000 0.000221 0.000000
# 3 -0.002354 -0.001936 0.013375 0.000000 -0.006061 0.000000
# 4 0.000000 0.000000 0.000000 0.033868 0.000000 0.000113
# 5 -0.003498 0.000221 -0.006061 0.000000 0.023085 0.000000
# 6 0.000000 0.000000 0.000000 0.000113 0.000000 0.024539
#
#
# Mechanical properties :
#
#
# Convention : Reuss Voigt Hill
#
# Bulk Modulus (GPa) = 33.66939 54.47251 44.07095
# Shear Modulus (GPa) = 35.72655 43.74302 39.73478
#
# Velocity S-wave (km/s) = 3.61590 4.00106 3.81335
# Velocity P-wave (km/s) = 5.45480 6.42493 5.95964
#
# Compressibility (1/GPa) = 0.02970057
#
# Stress axis : x y z
#
# Youngs Moduli (GPa) = 146.45086 52.83438 74.76728
#
# Poissons Ratio (x) = 0.02243 0.17599
# Poissons Ratio (y) = 0.06218 0.14478
# Poissons Ratio (z) = 0.34471 0.10231
#
# Static dielectric constant tensor:
#      x y z
#    x 2.229420 0.000000 -0.007620 
#    y 0.000000 2.173620 0.000000 
#    z -0.007620 0.000000 2.156980 
# 
# From -- ./inp_files/71762.got.cif
#   From: 2010.05.17/outbox.cif.g08.bks.cpg/sg5_36_cif.got.tgz:71762.got - 2010.06.03 18:56:24.
