data_PCOD9124538
_publ_section_title
;
Structure prediction by ZEFSAII (Michael W. Deem and Ramdas Pophale) SiO2 
 PCOD9124538
Probable space group: C 2
;
_chemical_formula_sum "Si O2"
_cell_formula_units_Z 26
_cell_length_a 19.503807
_cell_length_b 5.568918
_cell_length_c 17.027410
_cell_angle_alpha 90.000000
_cell_angle_beta 143.014439
_cell_angle_gamma 90.000000
_cell_volume 1112.644831
_symmetry_space_group_name_H-M "C 2"
_symmetry_group_IT_number 5
_symmetry_cell_setting 'monoclinic'
loop_
_space_group_symop_operation_xyz
x,y,z
-x,y,-z
1/2+x,1/2+y,z
1/2-x,1/2+y,-z
loop_
_atom_site_type_symbol
_atom_site_label
_atom_site_fract_x
_atom_site_fract_y
_atom_site_fract_z
Si Si1 0.078394 0.221340 0.490703
Si Si2 0.190225 0.220168 0.914838
Si Si3 0.321182 0.341703 0.757988
Si Si4 0.006852 0.728869 0.601867
Si Si5 0.239827 0.527214 0.828451
Si Si6 0.000000 0.529987 0.000000
Si Si7 0.517754 0.659270 0.876864
O O1 0.214801 0.198978 0.627157
O O2 0.055443 0.481664 0.432087
O O3 0.000000 0.228796 0.500000
O O4 0.043158 0.978424 0.415571
O O5 0.198248 0.278390 0.829787
O O6 0.061837 0.219828 0.830868
O O7 0.246338 0.468323 0.004623
O O8 0.256713 0.540572 0.750969
O O9 0.390067 0.195239 0.887615
O O10 0.416825 0.465786 0.791787
O O11 0.000000 0.735807 0.500000
O O12 0.136188 0.705114 0.749702
O O13 0.362346 0.573210 0.976765
O O14 0.992932 0.375675 0.914033
#
# Coordination Sequence:
#
# PCOD9124538 Si02
#       7
#     4   4   4   4   4   2   4
#     4  10  22  35  56  89 130 162 211 271 332 373
#     4  10  24  42  63  93 139 178 223 261 336 415
#     4  12  22  37  58  97 137 168 216 283 345 394
#     4  10  21  36  58  90 126 158 220 266 327 368
#     4  11  20  42  62  94 133 176 217 275 330 411
#     4  12  22  32  64  90 134 172 226 264 362 392
#     4  11  24  38  59 100 134 176 216 278 340 407
#
# _framework density 23.367743999999998
#
# number of rings (size 3 to 8) (size 9 to 14) (size 15 to 20)
#    0.000    1.231    6.154    0.923    8.615    2.462 
#    0.000    0.000    0.000    0.000    4.000    0.000 
#    0.000    0.000    0.000    0.000    0.000    0.000 
#
# Total GULP energy -72449.783460 kJ/mol
# GULP energy per Si atom -5573.060266 kJ/mol
# Density = 2.331456 g / cm^3
# Si number density = 23.367744 Si / 1000 Ang^3
#
#
#
# Elastic Constant Matrix: (Units=GPa)
#
#
# Indices 1 2 3 4 5 6 
#
# 1 79.7514 18.3539 34.8971 0.0001 17.0172 0.0000
# 2 18.3539 150.8877 61.6842 -0.0002 15.1547 -0.0001
# 3 34.8971 61.6842 128.0591 0.0000 38.3453 0.0000
# 4 0.0001 -0.0002 0.0000 24.4489 0.0000 -6.3313
# 5 17.0172 15.1547 38.3453 0.0000 29.7046 0.0000
# 6 0.0000 -0.0001 0.0000 -6.3313 0.0000 21.1511
#
#
#
# Elastic Compliance Matrix: (Units=1/GPa)
#
#
# Indices 1 2 3 4 5 6 
#
# 1 0.014747 -0.000335 -0.002247 0.000000 -0.005376 0.000000
# 2 -0.000335 0.008301 -0.004396 0.000000 0.001631 0.000000
# 3 -0.002247 -0.004396 0.015456 0.000000 -0.016422 0.000000
# 4 0.000000 0.000000 0.000000 0.044339 0.000000 0.013272
# 5 -0.005376 0.001631 -0.016422 0.000000 0.057111 0.000000
# 6 0.000000 0.000000 0.000000 0.013272 0.000000 0.051252
#
#
# Mechanical properties :
#
#
# Convention : Reuss Voigt Hill
#
# Bulk Modulus (GPa) = 40.73760 65.39650 53.06705
# Shear Modulus (GPa) = 23.43632 31.31181 27.37406
#
# Velocity S-wave (km/s) = 3.17035 3.66452 3.42635
# Velocity P-wave (km/s) = 5.55631 6.77875 6.19774
#
# Compressibility (1/GPa) = 0.02454735
#
# Stress axis : x y z
#
# Youngs Moduli (GPa) = 67.81230 120.46154 64.70005
#
# Poissons Ratio (x) = 0.04036 0.14541
# Poissons Ratio (y) = 0.02272 0.28441
# Poissons Ratio (z) = 0.15240 0.52952
#
# Static dielectric constant tensor:
#      x y z
#    x 1.986070 0.000000 -0.046920 
#    y 0.000000 1.972410 0.000000 
#    z -0.046920 0.000000 1.962930 
# 
# From -- ./inp_files/66947.got.cif
#   From: 2010.05.17/outbox.cif.g08.bks.cpg/sg5_34_cif.got.tgz:66947.got - 2010.06.03 18:56:24.
