data_PCOD9124022
_publ_section_title
;
Structure prediction by ZEFSAII (Michael W. Deem and Ramdas Pophale) SiO2 
 PCOD9124022
Probable space group: C 2
;
_chemical_formula_sum "Si O2"
_cell_formula_units_Z 16
_cell_length_a 12.327387
_cell_length_b 7.032757
_cell_length_c 9.634262
_cell_angle_alpha 90.000000
_cell_angle_beta 53.865333
_cell_angle_gamma 90.000000
_cell_volume 674.573506
_symmetry_space_group_name_H-M "C 2"
_symmetry_group_IT_number 5
_symmetry_cell_setting 'monoclinic'
loop_
_space_group_symop_operation_xyz
x,y,z
-x,y,-z
1/2+x,1/2+y,z
1/2-x,1/2+y,-z
loop_
_atom_site_type_symbol
_atom_site_label
_atom_site_fract_x
_atom_site_fract_y
_atom_site_fract_z
Si Si1 0.367396 0.383490 0.041277
Si Si2 0.114513 0.483391 0.816121
Si Si3 0.900283 0.923059 0.699065
Si Si4 0.060763 0.379523 0.305668
O O1 0.364523 0.198567 0.144042
O O2 0.212973 0.455239 0.163956
O O3 0.500000 0.489944 0.000000
O O4 0.398113 0.339060 0.856291
O O5 0.255818 0.390179 0.739245
O O6 0.051239 0.456467 0.714658
O O7 0.000000 0.401308 0.000000
O O8 0.000000 0.866012 0.500000
O O9 0.926691 0.148740 0.710048
O O10 0.000000 0.425301 0.500000
#
# Coordination Sequence:
#
# PCOD9124022 Si02
#       4
#     4   4   4   4
#     4  10  22  40  63  94 134 166 213 267 316 383
#     4  10  20  41  66  89 134 171 209 265 318 382
#     4  10  22  41  65  98 130 166 219 267 320 381
#     4  10  22  41  68  97 128 172 216 263 323 383
#
# _framework density 23.718689999999999
#
# number of rings (size 3 to 8) (size 9 to 14) (size 15 to 20)
#    0.000    2.000    2.500    0.000    3.500    1.000 
#    0.000    5.000    0.000    0.000    0.000    0.000 
#    0.000    0.000    0.000    0.000    0.000    0.000 
#
# Total GULP energy -44648.777544 kJ/mol
# GULP energy per Si atom -5581.097193 kJ/mol
# Density = 2.366471 g / cm^3
# Si number density = 23.718690 Si / 1000 Ang^3
#
#
#
# Elastic Constant Matrix: (Units=GPa)
#
#
# Indices 1 2 3 4 5 6 
#
# 1 270.9554 31.2092 111.3849 0.0000 18.7165 0.0000
# 2 31.2092 107.9223 -2.6486 0.0000 12.1079 0.0000
# 3 111.3849 -2.6486 153.9961 0.0000 25.2711 0.0000
# 4 0.0000 0.0000 0.0000 67.3683 0.0000 -41.7134
# 5 18.7165 12.1079 25.2711 0.0000 62.2216 0.0000
# 6 0.0000 0.0000 0.0000 -41.7134 0.0000 104.5731
#
#
#
# Elastic Compliance Matrix: (Units=1/GPa)
#
#
# Indices 1 2 3 4 5 6 
#
# 1 0.005555 -0.001745 -0.004103 0.000000 0.000335 0.000000
# 2 -0.001745 0.010057 0.001789 0.000000 -0.002159 0.000000
# 3 -0.004103 0.001789 0.010014 0.000000 -0.003181 0.000000
# 4 0.000000 0.000000 0.000000 0.019713 0.000000 0.007863
# 5 0.000335 -0.002159 -0.003181 0.000000 0.017683 0.000000
# 6 0.000000 0.000000 0.000000 0.007863 0.000000 0.012699
#
#
# Mechanical properties :
#
#
# Convention : Reuss Voigt Hill
#
# Bulk Modulus (GPa) = 57.11409 90.30719 73.71064
# Shear Modulus (GPa) = 55.75758 73.02780 64.39269
#
# Velocity S-wave (km/s) = 4.85375 5.55482 5.21608
# Velocity P-wave (km/s) = 7.45278 8.90496 8.21103
#
# Compressibility (1/GPa) = 0.01750881
#
# Stress axis : x y z
#
# Youngs Moduli (GPa) = 180.01390 99.43749 99.85873
#
# Poissons Ratio (x) = 0.17349 0.40972
# Poissons Ratio (y) = 0.31407 -0.17866
# Poissons Ratio (z) = 0.73859 -0.17791
#
# Static dielectric constant tensor:
#      x y z
#    x 1.711960 0.000000 -0.081150 
#    y 0.000000 2.043670 0.000000 
#    z -0.081150 0.000000 1.784200 
# 
# From -- ./inp_files/17961.got.cif
#   From: 2010.05.17/outbox.cif.g08.bks.cpg/sg5_9_cif.got.tgz:17961.got - 2010.06.03 18:56:24.
