data_PCOD9124741
_publ_section_title
;
Structure prediction by ZEFSAII (Michael W. Deem and Ramdas Pophale) SiO2 
 PCOD9124741
Probable space group: C 2
;
_chemical_formula_sum "Si O2"
_cell_formula_units_Z 16
_cell_length_a 7.090466
_cell_length_b 15.762837
_cell_length_c 7.007970
_cell_angle_alpha 90.000000
_cell_angle_beta 118.134884
_cell_angle_gamma 90.000000
_cell_volume 690.702707
_symmetry_space_group_name_H-M "C 2"
_symmetry_group_IT_number 5
_symmetry_cell_setting 'monoclinic'
loop_
_space_group_symop_operation_xyz
x,y,z
-x,y,-z
1/2+x,1/2+y,z
1/2-x,1/2+y,-z
loop_
_atom_site_type_symbol
_atom_site_label
_atom_site_fract_x
_atom_site_fract_y
_atom_site_fract_z
Si Si1 0.500000 0.717470 0.000000
Si Si2 0.192275 0.139491 0.707234
Si Si3 0.500000 0.020429 0.000000
Si Si4 0.733122 0.831151 0.663857
Si Si5 0.306178 0.363780 0.146409
O O1 0.390222 0.661005 0.114799
O O2 0.672896 0.784897 0.173071
O O3 0.411132 0.087133 0.803266
O O4 0.230830 0.230671 0.630618
O O5 0.000000 0.097057 0.500000
O O6 0.304280 0.954940 0.901951
O O7 0.500000 0.867025 0.500000
O O8 0.947584 0.868475 0.677414
O O9 0.775210 0.841068 0.908572
#
# Coordination Sequence:
#
# PCOD9124741 Si02
#       5
#     2   4   2   4   4
#     4   9  18  38  62  83 114 156 196 235 280 340
#     4  10  21  38  59  86 117 152 192 236 288 342
#     4  11  22  36  54  85 126 152 182 241 294 342
#     4   9  18  37  61  83 110 150 199 238 275 339
#     4   9  19  35  57  84 116 152 188 236 289 334
#
# _framework density 23.164814
#
# number of rings (size 3 to 8) (size 9 to 14) (size 15 to 20)
#    0.000    2.500    0.000    3.000    0.000    4.000 
#    0.000   27.500    0.000    0.000    0.000    0.000 
#    0.000    0.000    0.000    0.000    0.000    0.000 
#
# Total GULP energy -44544.056978 kJ/mol
# GULP energy per Si atom -5568.007122 kJ/mol
# Density = 2.311209 g / cm^3
# Si number density = 23.164814 Si / 1000 Ang^3
#
#
#
# Elastic Constant Matrix: (Units=GPa)
#
#
# Indices 1 2 3 4 5 6 
#
# 1 113.6798 30.8723 57.9640 0.0000 35.5633 0.0000
# 2 30.8723 70.8673 33.5322 0.0000 20.1622 0.0000
# 3 57.9640 33.5322 103.2388 0.0000 39.7089 0.0000
# 4 0.0000 0.0000 0.0000 23.0742 0.0000 14.8336
# 5 35.5633 20.1622 39.7089 0.0000 70.2379 0.0000
# 6 0.0000 0.0000 0.0000 14.8336 0.0000 -14.1042
#
#
#
# Elastic Compliance Matrix: (Units=1/GPa)
#
#
# Indices 1 2 3 4 5 6 
#
# 1 0.013134 -0.002290 -0.005527 0.000000 -0.002868 0.000000
# 2 -0.002290 0.017344 -0.003678 0.000000 -0.001739 0.000000
# 3 -0.005527 -0.003678 0.015976 0.000000 -0.005177 0.000000
# 4 0.000000 0.000000 0.000000 0.025857 0.000000 0.027194
# 5 -0.002868 -0.001739 -0.005177 0.000000 0.019116 0.000000
# 6 0.000000 0.000000 0.000000 0.027194 0.000000 -0.042301
#
#
# Mechanical properties :
#
#
# Convention : Reuss Voigt Hill
#
# Bulk Modulus (GPa) = 42.62249 59.16921 50.89585
# Shear Modulus (GPa) = 62.54853 26.86940 44.70896
#
# Velocity S-wave (km/s) = 5.20194 3.40946 4.39799
# Velocity P-wave (km/s) = 7.38375 6.41072 6.91438
#
# Compressibility (1/GPa) = 0.02346179
#
# Stress axis : x y z
#
# Youngs Moduli (GPa) = 76.13777 57.65662 62.59521
#
# Poissons Ratio (x) = 0.13206 0.34598
# Poissons Ratio (y) = 0.17439 0.23025
# Poissons Ratio (z) = 0.42083 0.21208
#
# Static dielectric constant tensor:
#      x y z
#    x 2.052970 0.000000 0.009260 
#    y 0.000000 1.877960 0.000000 
#    z 0.009260 0.000000 1.980250 
# 
# From -- ./inp_files/14522.got.cif
#   From: 2010.05.17/outbox.cif.g08.bks.cpg/sg5_8_cif.got.tgz:14522.got - 2010.06.03 18:56:24.
