data_PCOD9124673
_publ_section_title
;
Structure prediction by ZEFSAII (Michael W. Deem and Ramdas Pophale) SiO2 
 PCOD9124673
Probable space group: C 2
;
_chemical_formula_sum "Si O2"
_cell_formula_units_Z 12
_cell_length_a 19.576568
_cell_length_b 4.631500
_cell_length_c 15.349853
_cell_angle_alpha 90.000000
_cell_angle_beta 163.045820
_cell_angle_gamma 90.000000
_cell_volume 405.844963
_symmetry_space_group_name_H-M "C 2"
_symmetry_group_IT_number 5
_symmetry_cell_setting 'monoclinic'
loop_
_space_group_symop_operation_xyz
x,y,z
-x,y,-z
1/2+x,1/2+y,z
1/2-x,1/2+y,-z
loop_
_atom_site_type_symbol
_atom_site_label
_atom_site_fract_x
_atom_site_fract_y
_atom_site_fract_z
Si Si1 0.014111 0.972580 0.896045
Si Si2 0.000000 0.128369 0.500000
Si Si3 0.417181 0.540390 0.210355
Si Si4 0.000000 0.518203 0.000000
O O1 0.269511 0.822406 0.212344
O O2 0.862688 0.766242 0.774157
O O3 0.035869 0.286473 0.965229
O O4 0.950827 0.962787 0.717728
O O5 0.012722 0.962769 0.423049
O O6 0.167574 0.369635 0.900236
#
# Coordination Sequence:
#
# PCOD9124673 Si02
#       4
#     4   2   4   2
#     4  10  21  40  63  90 124 161 202 249 302 361
#     4  10  22  40  70  92 114 160 214 252 292 358
#     4  10  21  37  62  95 123 151 201 261 302 345
#     4  10  22  40  60  88 132 164 188 250 316 356
#
# _framework density 29.56794
#
# number of rings (size 3 to 8) (size 9 to 14) (size 15 to 20)
#    0.000    2.000    0.000    4.000    0.000   12.000 
#    0.000    6.667    0.000    0.000    0.000    0.000 
#    0.000    0.000    0.000    0.000    0.000    0.000 
#
# Total GULP energy -33530.564164 kJ/mol
# GULP energy per Si atom -5588.427361 kJ/mol
# Density = 2.950064 g / cm^3
# Si number density = 29.567940 Si / 1000 Ang^3
#
#
#
# Elastic Constant Matrix: (Units=GPa)
#
#
# Indices 1 2 3 4 5 6 
#
# 1 281.4402 55.5950 63.3449 0.0005 -84.1627 0.0004
# 2 55.5950 172.5962 25.5052 0.0026 -28.1649 0.0006
# 3 63.3449 25.5052 156.2207 0.0003 -64.7039 0.0007
# 4 0.0005 0.0026 0.0003 43.9898 0.0004 -1.9803
# 5 -84.1627 -28.1649 -64.7039 0.0004 79.9260 0.0004
# 6 0.0004 0.0006 0.0007 -1.9803 0.0004 43.2281
#
#
#
# Elastic Compliance Matrix: (Units=1/GPa)
#
#
# Indices 1 2 3 4 5 6 
#
# 1 0.005307 -0.000851 0.000267 0.000000 0.005505 0.000000
# 2 -0.000851 0.006286 -0.000203 0.000000 0.001155 0.000000
# 3 0.000267 -0.000203 0.009648 0.000000 0.008020 0.000000
# 4 0.000000 0.000000 0.000000 0.022780 0.000000 0.001044
# 5 0.005505 0.001155 0.008020 0.000000 0.025208 0.000000
# 6 0.000000 0.000000 0.000000 0.001044 0.000000 0.023181
#
#
# Mechanical properties :
#
#
# Convention : Reuss Voigt Hill
#
# Bulk Modulus (GPa) = 50.84370 99.90524 75.37447
# Shear Modulus (GPa) = 49.73178 64.48292 57.10735
#
# Velocity S-wave (km/s) = 4.10561 4.67501 4.39953
# Velocity P-wave (km/s) = 6.30139 7.93742 7.16625
#
# Compressibility (1/GPa) = 0.01966812
#
# Stress axis : x y z
#
# Youngs Moduli (GPa) = 188.41830 159.07412 103.65043
#
# Poissons Ratio (x) = 0.13532 -0.02767
# Poissons Ratio (y) = 0.16028 0.02104
# Poissons Ratio (z) = -0.05029 0.03228
#
# Static dielectric constant tensor:
#      x y z
#    x 2.744450 0.000000 0.448990 
#    y 0.000000 2.141850 0.000000 
#    z 0.448990 0.000000 2.818180 
# 
# From -- ./inp_files/17690.got.cif
#   From: 2010.05.17/outbox.cif.g08.bks.cpg/sg5_9_cif.got.tgz:17690.got - 2010.06.03 18:56:24.
