data_PCOD9124714
_publ_section_title
;
Structure prediction by ZEFSAII (Michael W. Deem and Ramdas Pophale) SiO2 
 PCOD9124714
Probable space group: C 2
;
_chemical_formula_sum "Si O2"
_cell_formula_units_Z 18
_cell_length_a 5.345449
_cell_length_b 15.642806
_cell_length_c 10.349649
_cell_angle_alpha 90.000000
_cell_angle_beta 103.377147
_cell_angle_gamma 90.000000
_cell_volume 841.934866
_symmetry_space_group_name_H-M "C 2"
_symmetry_group_IT_number 5
_symmetry_cell_setting 'monoclinic'
loop_
_space_group_symop_operation_xyz
x,y,z
-x,y,-z
1/2+x,1/2+y,z
1/2-x,1/2+y,-z
loop_
_atom_site_type_symbol
_atom_site_label
_atom_site_fract_x
_atom_site_fract_y
_atom_site_fract_z
Si Si1 0.500000 0.517781 0.000000
Si Si2 0.594925 0.288596 0.864095
Si Si3 0.329905 0.765481 0.370980
Si Si4 0.000000 0.632195 0.500000
Si Si5 0.500000 0.910733 0.000000
Si Si6 0.658367 0.635578 0.238582
O O1 0.232210 0.465472 0.966986
O O2 0.495778 0.574114 0.129142
O O3 0.376306 0.317088 0.737311
O O4 0.661787 0.191185 0.835443
O O5 0.500000 0.292122 0.000000
O O6 0.846109 0.347875 0.885171
O O7 0.500000 0.812751 0.500000
O O8 0.178430 0.695189 0.437788
O O9 0.495279 0.708679 0.291528
O O10 0.177849 0.588499 0.629476
#
# Coordination Sequence:
#
# PCOD9124714 Si02
#       6
#     2   4   4   2   2   4
#     4  12  27  40  63  92 130 170 210 254 313 374
#     4  11  21  40  65  92 128 165 210 262 307 370
#     4   9  18  35  63 100 120 154 207 270 311 361
#     4   8  18  34  60  94 122 150 202 270 310 362
#     4  12  27  42  57  94 136 170 204 258 315 368
#     4  10  21  37  68  92 121 159 215 258 311 367
#
# _framework density 21.379325999999999
#
# number of rings (size 3 to 8) (size 9 to 14) (size 15 to 20)
#    0.000    1.778    1.111    3.333    7.778    0.000 
#    0.000    0.000    2.444    2.667    0.000    0.000 
#    0.000    0.000    0.000    0.000    0.000    0.000 
#
# Total GULP energy -50179.808592 kJ/mol
# GULP energy per Si atom -5575.534288 kJ/mol
# Density = 2.133067 g / cm^3
# Si number density = 21.379326 Si / 1000 Ang^3
#
#
#
# Elastic Constant Matrix: (Units=GPa)
#
#
# Indices 1 2 3 4 5 6 
#
# 1 106.8697 23.2380 65.9963 0.0000 21.8503 0.0000
# 2 23.2380 38.2856 44.1045 0.0000 13.9878 0.0000
# 3 65.9963 44.1045 173.0737 0.0000 42.4987 0.0000
# 4 0.0000 0.0000 0.0000 3.8264 0.0000 9.1026
# 5 21.8503 13.9878 42.4987 0.0000 62.2204 0.0000
# 6 0.0000 0.0000 0.0000 9.1026 0.0000 16.2916
#
#
#
# Elastic Compliance Matrix: (Units=1/GPa)
#
#
# Indices 1 2 3 4 5 6 
#
# 1 0.012545 -0.002838 -0.003767 0.000000 -0.001194 0.000000
# 2 -0.002838 0.037881 -0.008080 0.000000 -0.002001 0.000000
# 3 -0.003767 -0.008080 0.010216 0.000000 -0.003838 0.000000
# 4 0.000000 0.000000 0.000000 -0.793941 0.000000 0.443599
# 5 -0.001194 -0.002001 -0.003838 0.000000 0.019563 0.000000
# 6 0.000000 0.000000 0.000000 0.443599 0.000000 -0.186471
#
#
# Mechanical properties :
#
#
# Convention : Reuss Voigt Hill
#
# Bulk Modulus (GPa) = 31.97804 64.98962 48.48383
# Shear Modulus (GPa) = -5.81116 28.79369 11.49127
#
# Velocity S-wave (km/s) = -1.65046 3.67386 2.32091
# Velocity P-wave (km/s) = 3.37015 6.96137 5.46894
#
# Compressibility (1/GPa) = 0.03127146
#
# Stress axis : x y z
#
# Youngs Moduli (GPa) = 79.71398 26.39857 97.88753
#
# Poissons Ratio (x) = 0.07493 0.36874
# Poissons Ratio (y) = 0.22626 0.79089
# Poissons Ratio (z) = 0.30028 0.21329
#
# Static dielectric constant tensor:
#      x y z
#    x 1.901940 0.000000 0.025410 
#    y 0.000000 1.762300 0.000000 
#    z 0.025410 0.000000 1.828020 
# 
# From -- ./inp_files/11909.got.cif
#   From: 2010.05.17/outbox.cif.g08.bks.cpg/sg5_6_cif.got.tgz:11909.got - 2010.06.03 18:56:24.
