data_PCOD9124361
_publ_section_title
;
Structure prediction by ZEFSAII (Michael W. Deem and Ramdas Pophale) SiO2 
 PCOD9124361
Probable space group: C 2
;
_chemical_formula_sum "Si O2"
_cell_formula_units_Z 28
_cell_length_a 13.090936
_cell_length_b 5.900893
_cell_length_c 19.190440
_cell_angle_alpha 90.000000
_cell_angle_beta 127.686529
_cell_angle_gamma 90.000000
_cell_volume 1173.144386
_symmetry_space_group_name_H-M "C 2"
_symmetry_group_IT_number 5
_symmetry_cell_setting 'monoclinic'
loop_
_space_group_symop_operation_xyz
x,y,z
-x,y,-z
1/2+x,1/2+y,z
1/2-x,1/2+y,-z
loop_
_atom_site_type_symbol
_atom_site_label
_atom_site_fract_x
_atom_site_fract_y
_atom_site_fract_z
Si Si1 0.000000 0.625000 0.500000
Si Si2 0.763304 0.081549 0.261593
Si Si3 0.244070 0.256848 0.960963
Si Si4 0.640872 0.692003 0.164176
Si Si5 0.621375 0.963767 0.788062
Si Si6 0.023720 0.803822 0.363254
Si Si7 0.223192 0.946674 0.341841
Si Si8 0.500000 0.399759 0.000000
O O1 0.939879 0.748866 0.542425
O O2 0.873218 0.498788 0.418136
O O3 0.819083 0.282963 0.239638
O O4 0.724637 0.186118 0.318263
O O5 0.641873 0.958867 0.176534
O O6 0.883722 0.915236 0.315835
O O7 0.121494 0.329031 0.860791
O O8 0.373328 0.260957 0.967255
O O9 0.239818 0.994981 0.987074
O O10 0.763362 0.649906 0.162517
O O11 0.668761 0.588365 0.252953
O O12 0.529858 0.562671 0.078131
O O13 0.505858 0.088695 0.699813
O O14 0.126585 0.961516 0.366638
#
# Coordination Sequence:
#
# PCOD9124361 Si02
#       8
#     2   4   4   4   4   4   4   2
#     4  12  24  50  58 108 140 166 240 300 350 440
#     4  10  20  44  71  93 139 185 225 294 354 419
#     4  11  27  44  70 109 146 194 249 302 365 441
#     4   9  20  44  66 104 139 184 235 290 355 422
#     4   9  21  44  67  99 142 180 233 301 350 425
#     4  11  25  43  73  96 134 182 232 289 361 431
#     4  11  25  43  70 100 136 180 234 283 358 434
#     4  10  24  44  72 104 150 192 244 306 356 430
#
# _framework density 23.867477000000001
#
# number of rings (size 3 to 8) (size 9 to 14) (size 15 to 20)
#    0.000    1.714    4.286    0.000    8.000    5.714 
#    2.571    0.000    0.000    0.000    0.000    0.000 
#    0.000    0.000    0.000    0.000    0.000    0.000 
#
# Total GULP energy -78001.725730 kJ/mol
# GULP energy per Si atom -5571.551838 kJ/mol
# Density = 2.381315 g / cm^3
# Si number density = 23.867477 Si / 1000 Ang^3
#
#
#
# Elastic Constant Matrix: (Units=GPa)
#
#
# Indices 1 2 3 4 5 6 
#
# 1 122.0833 27.9385 32.5516 0.0000 -6.6898 0.0000
# 2 27.9385 73.1054 20.5536 0.0000 -9.7963 0.0000
# 3 32.5516 20.5536 102.6005 0.0000 -14.5759 0.0000
# 4 0.0000 0.0000 0.0000 22.2771 0.0000 -8.4455
# 5 -6.6898 -9.7963 -14.5759 0.0000 31.8146 0.0000
# 6 0.0000 0.0000 0.0000 -8.4455 0.0000 27.7754
#
#
#
# Elastic Compliance Matrix: (Units=1/GPa)
#
#
# Indices 1 2 3 4 5 6 
#
# 1 0.009514 -0.002956 -0.002430 0.000000 -0.000023 0.000000
# 2 -0.002956 0.015756 -0.001730 0.000000 0.003437 0.000000
# 3 -0.002430 -0.001730 0.011462 0.000000 0.004208 0.000000
# 4 0.000000 0.000000 0.000000 0.050738 0.000000 0.015427
# 5 -0.000023 0.003437 0.004208 0.000000 0.034413 0.000000
# 6 0.000000 0.000000 0.000000 0.015427 0.000000 0.040694
#
#
# Mechanical properties :
#
#
# Convention : Reuss Voigt Hill
#
# Bulk Modulus (GPa) = 44.44428 51.09740 47.77084
# Shear Modulus (GPa) = 27.12849 30.82313 28.97581
#
# Velocity S-wave (km/s) = 3.37505 3.59754 3.48807
# Velocity P-wave (km/s) = 5.81805 6.22187 6.02334
#
# Compressibility (1/GPa) = 0.02250008
#
# Stress axis : x y z
#
# Youngs Moduli (GPa) = 105.10647 63.46959 87.24705
#
# Poissons Ratio (x) = 0.18761 0.21197
# Poissons Ratio (y) = 0.31069 0.15095
# Poissons Ratio (z) = 0.25537 0.10981
#
# Static dielectric constant tensor:
#      x y z
#    x 1.948470 0.000000 0.066550 
#    y 0.000000 2.052460 0.000000 
#    z 0.066550 0.000000 2.093800 
# 
# From -- ./inp_files/65716.got.cif
#   From: 2010.05.17/outbox.cif.g08.bks.cpg/sg5_33_cif.got.tgz:65716.got - 2010.06.03 18:56:24.
