data_PCOD9124869
_publ_section_title
;
Structure prediction by ZEFSAII (Michael W. Deem and Ramdas Pophale) SiO2 
 PCOD9124869
Probable space group: C 2
;
_chemical_formula_sum "Si O2"
_cell_formula_units_Z 24
_cell_length_a 23.460522
_cell_length_b 7.295576
_cell_length_c 15.925796
_cell_angle_alpha 90.000000
_cell_angle_beta 158.466373
_cell_angle_gamma 90.000000
_cell_volume 1000.507511
_symmetry_space_group_name_H-M "C 2"
_symmetry_group_IT_number 5
_symmetry_cell_setting 'monoclinic'
loop_
_space_group_symop_operation_xyz
x,y,z
-x,y,-z
1/2+x,1/2+y,z
1/2-x,1/2+y,-z
loop_
_atom_site_type_symbol
_atom_site_label
_atom_site_fract_x
_atom_site_fract_y
_atom_site_fract_z
Si Si1 0.522210 0.945240 0.221140
Si Si2 0.829272 0.044439 0.575136
Si Si3 0.089388 0.901797 0.838625
Si Si4 0.078827 0.633594 0.519500
Si Si5 0.418749 0.808614 0.245902
Si Si6 0.154135 0.383152 0.172359
O O1 0.593733 0.741205 0.310529
O O2 0.689825 0.045428 0.452204
O O3 0.406816 0.913609 0.140257
O O4 0.418389 0.007365 0.000702
O O5 0.981678 0.915473 0.773824
O O6 0.742888 0.993174 0.367814
O O7 0.072035 0.095076 0.764081
O O8 0.023992 0.743033 0.689731
O O9 0.270319 0.860873 0.098115
O O10 0.066873 0.415677 0.486547
O O11 0.000000 0.672493 0.500000
O O12 0.243009 0.729460 0.731518
O O13 0.000000 0.294278 0.000000
#
# Coordination Sequence:
#
# PCOD9124869 Si02
#       6
#     4   4   4   4   4   4
#     4  10  21  38  67  88 122 171 205 260 323 374
#     4   9  21  36  63  92 122 159 214 252 316 386
#     4  10  21  39  60  89 125 158 211 259 307 386
#     4  11  23  39  63  88 128 168 205 266 320 369
#     4  11  22  37  63  94 122 166 215 252 319 388
#     4   9  20  39  62  88 126 161 207 261 315 378
#
# _framework density 23.987826999999999
#
# number of rings (size 3 to 8) (size 9 to 14) (size 15 to 20)
#    0.000    2.000    1.667    1.000    9.333    0.667 
#    0.000    1.667   29.333    0.000    0.000    0.000 
#    0.000    0.000    0.000    0.000    0.000    0.000 
#
# Total GULP energy -66856.552813 kJ/mol
# GULP energy per Si atom -5571.379401 kJ/mol
# Density = 2.393323 g / cm^3
# Si number density = 23.987827 Si / 1000 Ang^3
#
#
#
# Elastic Constant Matrix: (Units=GPa)
#
#
# Indices 1 2 3 4 5 6 
#
# 1 31.3076 11.4242 6.8591 0.0000 10.1883 0.0000
# 2 11.4242 115.0432 14.9239 0.0000 3.0371 0.0000
# 3 6.8591 14.9239 89.0498 0.0000 18.4678 0.0000
# 4 0.0000 0.0000 0.0000 16.9200 0.0000 3.4067
# 5 10.1883 3.0371 18.4678 0.0000 28.6617 0.0000
# 6 0.0000 0.0000 0.0000 3.4067 0.0000 21.2571
#
#
#
# Elastic Compliance Matrix: (Units=1/GPa)
#
#
# Indices 1 2 3 4 5 6 
#
# 1 0.037393 -0.003421 0.000432 0.000000 -0.013208 0.000000
# 2 -0.003421 0.009198 -0.001533 0.000000 0.001229 0.000000
# 3 0.000432 -0.001533 0.013218 0.000000 -0.008508 0.000000
# 4 0.000000 0.000000 0.000000 0.061072 0.000000 -0.009788
# 5 -0.013208 0.001229 -0.008508 0.000000 0.044936 0.000000
# 6 0.000000 0.000000 0.000000 -0.009788 0.000000 0.048612
#
#
# Mechanical properties :
#
#
# Convention : Reuss Voigt Hill
#
# Bulk Modulus (GPa) = 19.69812 33.53500 26.61656
# Shear Modulus (GPa) = 20.79915 26.84732 23.82324
#
# Velocity S-wave (km/s) = 2.94780 3.34908 3.15483
# Velocity P-wave (km/s) = 4.45147 5.38196 4.93868
#
# Compressibility (1/GPa) = 0.05076626
#
# Stress axis : x y z
#
# Youngs Moduli (GPa) = 26.74312 108.71350 75.65610
#
# Poissons Ratio (x) = 0.37187 -0.03270
# Poissons Ratio (y) = 0.09148 0.11598
# Poissons Ratio (z) = -0.01156 0.16665
#
# Static dielectric constant tensor:
#      x y z
#    x 2.168020 0.000000 0.006100 
#    y 0.000000 1.934770 0.000000 
#    z 0.006100 0.000000 1.977750 
# 
# From -- ./inp_files/47898.got.cif
#   From: 2010.05.17/outbox.cif.g08.bks.cpg/sg5_24_cif.got.tgz:47898.got - 2010.06.03 18:56:24.
