data_PCOD9124005
_publ_section_title
;
Structure prediction by ZEFSAII (Michael W. Deem and Ramdas Pophale) SiO2 
 PCOD9124005
Probable space group: C 2
;
_chemical_formula_sum "Si O2"
_cell_formula_units_Z 28
_cell_length_a 16.295864
_cell_length_b 8.835265
_cell_length_c 11.448403
_cell_angle_alpha 90.000000
_cell_angle_beta 117.222743
_cell_angle_gamma 90.000000
_cell_volume 1465.744797
_symmetry_space_group_name_H-M "C 2"
_symmetry_group_IT_number 5
_symmetry_cell_setting 'monoclinic'
loop_
_space_group_symop_operation_xyz
x,y,z
-x,y,-z
1/2+x,1/2+y,z
1/2-x,1/2+y,-z
loop_
_atom_site_type_symbol
_atom_site_label
_atom_site_fract_x
_atom_site_fract_y
_atom_site_fract_z
Si Si1 0.169551 0.344930 0.350440
Si Si2 0.098704 0.154255 0.102124
Si Si3 0.283870 0.715235 0.173701
Si Si4 0.529248 0.419820 0.252417
Si Si5 0.324217 0.450872 0.052590
Si Si6 0.002982 0.217149 0.638203
Si Si7 0.802695 0.701138 0.629778
O O1 0.161597 0.266193 0.218769
O O2 0.192486 0.520601 0.365641
O O3 0.240051 0.258446 0.481990
O O4 0.068475 0.320543 0.339839
O O5 0.068871 0.015976 0.168403
O O6 0.000000 0.225049 0.000000
O O7 0.148753 0.080788 0.024313
O O8 0.274099 0.541643 0.123781
O O9 0.393673 0.738857 0.249685
O O10 0.242527 0.744269 0.275043
O O11 0.235878 0.826655 0.051306
O O12 0.422494 0.382326 0.157661
O O13 0.527461 0.543753 0.354947
O O14 0.597643 0.281056 0.316110
O O15 0.000000 0.247288 0.500000
#
# Coordination Sequence:
#
# PCOD9124005 Si02
#       7
#     4   4   4   4   4   4   4
#     4  11  24  39  65  94 126 164 213 257 315 374
#     4   9  18  39  63  87 124 168 204 249 309 371
#     4  11  24  39  66  90 129 166 208 260 314 367
#     4   9  20  40  63  88 118 167 205 256 307 371
#     4  10  22  40  62  93 127 167 206 258 316 367
#     4  10  20  41  64  85 125 166 200 252 319 371
#     4  12  24  41  66  95 123 165 215 264 307 372
#
# _framework density 19.102916
#
# number of rings (size 3 to 8) (size 9 to 14) (size 15 to 20)
#    0.000    1.714    2.857    2.571    2.000    1.143 
#    2.571    0.714    0.000    0.000    0.000    0.000 
#    0.000    0.000    0.000    0.000    0.000    0.000 
#
# Total GULP energy -78174.319703 kJ/mol
# GULP energy per Si atom -5583.879979 kJ/mol
# Density = 1.905944 g / cm^3
# Si number density = 19.102916 Si / 1000 Ang^3
#
#
#
# Elastic Constant Matrix: (Units=GPa)
#
#
# Indices 1 2 3 4 5 6 
#
# 1 56.9210 20.5193 21.8686 0.0000 12.1166 0.0000
# 2 20.5193 71.2684 41.5182 0.0000 34.0203 0.0000
# 3 21.8686 41.5182 93.4224 0.0000 29.5256 0.0000
# 4 0.0000 0.0000 0.0000 35.7716 0.0000 9.9924
# 5 12.1166 34.0203 29.5256 0.0000 25.5791 0.0000
# 6 0.0000 0.0000 0.0000 9.9924 0.0000 22.3892
#
#
#
# Elastic Compliance Matrix: (Units=1/GPa)
#
#
# Indices 1 2 3 4 5 6 
#
# 1 0.020208 -0.003199 -0.002563 0.000000 -0.002360 0.000000
# 2 -0.003199 0.039063 -0.001056 0.000000 -0.049220 0.000000
# 3 -0.002563 -0.001056 0.017232 0.000000 -0.017273 0.000000
# 4 0.000000 0.000000 0.000000 0.031937 0.000000 -0.014253
# 5 -0.002360 -0.049220 -0.017273 0.000000 0.125613 0.000000
# 6 0.000000 0.000000 0.000000 -0.014253 0.000000 0.051026
#
#
# Mechanical properties :
#
#
# Convention : Reuss Voigt Hill
#
# Bulk Modulus (GPa) = 15.90624 43.26931 29.58777
# Shear Modulus (GPa) = 15.64115 25.92836 20.78475
#
# Velocity S-wave (km/s) = 2.86454 3.68815 3.30212
# Velocity P-wave (km/s) = 4.39152 6.39034 5.48279
#
# Compressibility (1/GPa) = 0.06286842
#
# Stress axis : x y z
#
# Youngs Moduli (GPa) = 49.48460 25.59982 58.03112
#
# Poissons Ratio (x) = 0.08189 0.14874
# Poissons Ratio (y) = 0.15829 0.06125
# Poissons Ratio (z) = 0.12683 0.02702
#
# Static dielectric constant tensor:
#      x y z
#    x 1.669520 0.000000 -0.013610 
#    y 0.000000 1.644400 0.000000 
#    z -0.013610 0.000000 1.678500 
# 
# From -- ./inp_files/41696.got.cif
#   From: 2010.05.17/outbox.cif.g08.bks.cpg/sg5_21_cif.got.tgz:41696.got - 2010.06.03 18:56:24.
