data_PCOD9124901
_publ_section_title
;
Structure prediction by ZEFSAII (Michael W. Deem and Ramdas Pophale) SiO2 
 PCOD9124901
Probable space group: C 2
;
_chemical_formula_sum "Si O2"
_cell_formula_units_Z 28
_cell_length_a 5.484972
_cell_length_b 24.326629
_cell_length_c 10.009559
_cell_angle_alpha 90.000000
_cell_angle_beta 75.392919
_cell_angle_gamma 90.000000
_cell_volume 1292.415515
_symmetry_space_group_name_H-M "C 2"
_symmetry_group_IT_number 5
_symmetry_cell_setting 'monoclinic'
loop_
_space_group_symop_operation_xyz
x,y,z
-x,y,-z
1/2+x,1/2+y,z
1/2-x,1/2+y,-z
loop_
_atom_site_type_symbol
_atom_site_label
_atom_site_fract_x
_atom_site_fract_y
_atom_site_fract_z
Si Si1 0.273971 0.567060 0.630391
Si Si2 0.279553 0.186117 0.297064
Si Si3 0.323485 0.852472 0.327516
Si Si4 0.168896 0.157161 0.845139
Si Si5 0.189519 0.807925 0.641999
Si Si6 0.426796 0.532346 0.161767
Si Si7 0.534693 0.961961 0.345148
O O1 0.500000 0.552941 0.500000
O O2 0.213825 0.630534 0.617465
O O3 0.350616 0.552716 0.771770
O O4 0.066548 0.523105 0.629933
O O5 0.554329 0.184506 0.186261
O O6 0.280149 0.242739 0.376958
O O7 0.022225 0.178852 0.245085
O O8 0.249057 0.837101 0.492050
O O9 0.601634 0.826669 0.280078
O O10 0.366413 0.916989 0.292265
O O11 0.092423 0.825886 0.280315
O O12 0.221665 0.091253 0.824469
O O13 0.000000 0.164333 0.000000
O O14 0.301459 0.477559 0.243154
O O15 0.500000 0.520168 0.000000
O O16 0.500000 0.940238 0.500000
#
# Coordination Sequence:
#
# PCOD9124901 Si02
#       7
#     4   4   4   4   4   4   4
#     4  11  24  36  64 101 137 174 212 286 344 399
#     4  11  22  39  62  96 133 167 219 273 340 394
#     4  10  23  38  61  88 125 171 216 264 333 392
#     4  10  21  40  63  94 130 176 218 266 331 414
#     4  10  21  39  58  90 121 172 211 266 324 395
#     4  10  23  41  62  97 141 178 219 265 341 417
#     4  12  22  40  66  95 132 171 227 279 339 401
#
# _framework density 21.664857000000001
#
# number of rings (size 3 to 8) (size 9 to 14) (size 15 to 20)
#    0.000    1.429    4.286    1.286    6.000    0.571 
#    5.143    0.000    0.000    3.429    0.000    0.000 
#    0.000    0.000    0.000    0.000    0.000    0.000 
#
# Total GULP energy -77944.073379 kJ/mol
# GULP energy per Si atom -5567.433813 kJ/mol
# Density = 2.161555 g / cm^3
# Si number density = 21.664857 Si / 1000 Ang^3
#
#
#
# Elastic Constant Matrix: (Units=GPa)
#
#
# Indices 1 2 3 4 5 6 
#
# 1 123.0120 35.7919 20.9472 0.0000 -11.9711 0.0000
# 2 35.7919 137.1522 23.6829 0.0000 -0.0932 0.0000
# 3 20.9472 23.6829 45.4372 0.0000 -1.4441 0.0000
# 4 0.0000 0.0000 0.0000 0.4402 0.0000 -3.5933
# 5 -11.9711 -0.0932 -1.4441 0.0000 20.0662 0.0000
# 6 0.0000 0.0000 0.0000 -3.5933 0.0000 34.0561
#
#
#
# Elastic Compliance Matrix: (Units=1/GPa)
#
#
# Indices 1 2 3 4 5 6 
#
# 1 0.009817 -0.001986 -0.003312 0.000000 0.005609 0.000000
# 2 -0.001986 0.008416 -0.003515 0.000000 -0.001399 0.000000
# 3 -0.003312 -0.003515 0.025362 0.000000 -0.000167 0.000000
# 4 0.000000 0.000000 0.000000 16.388126 0.000000 1.729128
# 5 0.005609 -0.001399 -0.000167 0.000000 0.053163 0.000000
# 6 0.000000 0.000000 0.000000 1.729128 0.000000 0.211805
#
#
# Mechanical properties :
#
#
# Convention : Reuss Voigt Hill
#
# Bulk Modulus (GPa) = 38.50945 51.82725 45.16835
# Shear Modulus (GPa) = 0.29899 25.92446 13.11173
#
# Velocity S-wave (km/s) = 0.37190 3.46296 2.46276
# Velocity P-wave (km/s) = 4.24241 6.32168 5.38339
#
# Compressibility (1/GPa) = 0.02596765
#
# Stress axis : x y z
#
# Youngs Moduli (GPa) = 101.86334 118.82809 39.42857
#
# Poissons Ratio (x) = 0.23601 0.13060
# Poissons Ratio (y) = 0.20232 0.13860
# Poissons Ratio (z) = 0.33740 0.41770
#
# Static dielectric constant tensor:
#      x y z
#    x 1.865950 0.000000 0.004480 
#    y 0.000000 1.791420 0.000000 
#    z 0.004480 0.000000 1.789150 
# 
# From -- ./inp_files/33920.got.cif
#   From: 2010.05.17/outbox.cif.g08.bks.cpg/sg5_17_cif.got.tgz:33920.got - 2010.06.03 18:56:24.
