data_PCOD9124017
_publ_section_title
;
Structure prediction by ZEFSAII (Michael W. Deem and Ramdas Pophale) SiO2 
 PCOD9124017
Probable space group: C 2
;
_chemical_formula_sum "Si O2"
_cell_formula_units_Z 18
_cell_length_a 7.465531
_cell_length_b 11.206948
_cell_length_c 19.809600
_cell_angle_alpha 90.000000
_cell_angle_beta 153.516301
_cell_angle_gamma 90.000000
_cell_volume 739.100155
_symmetry_space_group_name_H-M "C 2"
_symmetry_group_IT_number 5
_symmetry_cell_setting 'monoclinic'
loop_
_space_group_symop_operation_xyz
x,y,z
-x,y,-z
1/2+x,1/2+y,z
1/2-x,1/2+y,-z
loop_
_atom_site_type_symbol
_atom_site_label
_atom_site_fract_x
_atom_site_fract_y
_atom_site_fract_z
Si Si1 0.275556 0.650180 0.312137
Si Si2 0.553976 0.782868 0.119756
Si Si3 0.500000 0.500825 0.500000
Si Si4 0.167399 0.543019 0.947122
Si Si5 0.649800 0.316641 0.436878
O O1 0.183507 0.578224 0.350595
O O2 0.287473 0.701039 0.525464
O O3 0.932528 0.751672 0.198361
O O4 0.233806 0.575415 0.230562
O O5 0.738460 0.803496 0.257042
O O6 0.365321 0.910008 0.034875
O O7 0.283164 0.663088 0.026715
O O8 0.668769 0.420405 0.497583
O O9 0.500000 0.534090 0.000000
O O10 0.000000 0.333177 0.500000
#
# Coordination Sequence:
#
# PCOD9124017 Si02
#       5
#     4   4   2   4   4
#     4  10  21  41  65  95 133 173 218 293 335 386
#     4  10  20  41  65  92 132 178 222 270 335 401
#     4  12  20  40  72  96 138 172 220 284 342 392
#     4  10  22  40  64  92 134 180 223 272 337 401
#     4  10  22  42  68 101 131 174 228 279 341 397
#
# _framework density 24.353939
#
# number of rings (size 3 to 8) (size 9 to 14) (size 15 to 20)
#    0.000    1.778    5.556    0.000    0.000    3.556 
#    2.000    7.778    0.000    0.000    0.000    0.000 
#    0.000    0.000    0.000    0.000    0.000    0.000 
#
# Total GULP energy -50207.878427 kJ/mol
# GULP energy per Si atom -5578.653159 kJ/mol
# Density = 2.429851 g / cm^3
# Si number density = 24.353939 Si / 1000 Ang^3
#
#
#
# Elastic Constant Matrix: (Units=GPa)
#
#
# Indices 1 2 3 4 5 6 
#
# 1 55.5736 32.9990 16.4932 0.0012 -14.1418 0.0003
# 2 32.9990 212.4371 78.1000 0.0013 -17.4091 0.0003
# 3 16.4932 78.1000 114.3770 0.0209 -23.5542 0.0026
# 4 0.0012 0.0013 0.0209 50.8492 0.0036 -13.8046
# 5 -14.1418 -17.4091 -23.5542 0.0036 13.3205 0.0010
# 6 0.0003 0.0003 0.0026 -13.8046 0.0010 36.3670
#
#
#
# Elastic Compliance Matrix: (Units=1/GPa)
#
#
# Indices 1 2 3 4 5 6 
#
# 1 0.027004 -0.003408 0.005378 -0.000006 0.033725 -0.000004
# 2 -0.003408 0.006723 -0.004773 0.000002 -0.003272 0.000001
# 3 0.005378 -0.004773 0.017485 -0.000011 0.030390 -0.000006
# 4 -0.000006 0.000002 -0.000011 0.021925 -0.000029 0.008323
# 5 0.033725 -0.003272 0.030390 -0.000029 0.160339 -0.000018
# 6 -0.000004 0.000001 -0.000006 0.008323 -0.000018 0.030657
#
#
# Mechanical properties :
#
#
# Convention : Reuss Voigt Hill
#
# Bulk Modulus (GPa) = 21.92687 70.84133 46.38410
# Shear Modulus (GPa) = 17.54748 37.09370 27.32059
#
# Velocity S-wave (km/s) = 2.68716 3.90694 3.35298
# Velocity P-wave (km/s) = 4.31865 7.03588 5.83757
#
# Compressibility (1/GPa) = 0.04560615
#
# Stress axis : x y z
#
# Youngs Moduli (GPa) = 37.03206 148.73446 57.19151
#
# Poissons Ratio (x) = 0.50691 -0.30760
# Poissons Ratio (y) = 0.12621 0.27299
# Poissons Ratio (z) = -0.19917 0.70994
#
# Static dielectric constant tensor:
#      x y z
#    x 1.922650 0.000000 0.022920 
#    y 0.000000 2.116830 0.000000 
#    z 0.022920 0.000000 2.043000 
# 
# From -- ./inp_files/64437.got.cif
#   From: 2010.05.17/outbox.cif.g08.bks.cpg/sg5_33_cif.got.tgz:64437.got - 2010.06.03 18:56:24.
