data_PCOD9124846
_publ_section_title
;
Structure prediction by ZEFSAII (Michael W. Deem and Ramdas Pophale) SiO2 
 PCOD9124846
Probable space group: C 2
;
_chemical_formula_sum "Si O2"
_cell_formula_units_Z 24
_cell_length_a 10.776198
_cell_length_b 17.115113
_cell_length_c 9.422385
_cell_angle_alpha 90.000000
_cell_angle_beta 39.561646
_cell_angle_gamma 90.000000
_cell_volume 1106.835106
_symmetry_space_group_name_H-M "C 2"
_symmetry_group_IT_number 5
_symmetry_cell_setting 'monoclinic'
loop_
_space_group_symop_operation_xyz
x,y,z
-x,y,-z
1/2+x,1/2+y,z
1/2-x,1/2+y,-z
loop_
_atom_site_type_symbol
_atom_site_label
_atom_site_fract_x
_atom_site_fract_y
_atom_site_fract_z
Si Si1 0.530988 0.214050 0.122537
Si Si2 0.794849 0.279785 0.390281
Si Si3 0.027911 0.928503 0.624796
Si Si4 0.203618 0.979298 0.754402
Si Si5 0.700074 0.862486 0.110100
Si Si6 0.209752 0.656582 0.245184
O O1 0.323067 0.234651 0.379804
O O2 0.648422 0.293684 0.984608
O O3 0.669899 0.171674 0.114943
O O4 0.500000 0.171970 0.000000
O O5 0.642232 0.348362 0.488050
O O6 0.997969 0.320736 0.249070
O O7 0.826636 0.220433 0.232462
O O8 0.167816 0.968825 0.618751
O O9 0.000000 0.971647 0.500000
O O10 0.818471 0.908023 0.880676
O O11 0.230829 0.068773 0.772663
O O12 0.338967 0.922879 0.727968
O O13 0.000000 0.952862 0.000000
O O14 0.000000 0.667081 0.500000
#
# Coordination Sequence:
#
# PCOD9124846 Si02
#       6
#     4   4   4   4   4   4
#     4  10  21  39  62  92 127 162 217 272 316 375
#     4  10  21  38  65  93 123 169 214 259 316 394
#     4  10  21  39  62  92 127 162 217 272 316 375
#     4  10  23  41  64  91 130 172 211 266 332 387
#     4  10  21  38  65  93 123 169 214 259 316 394
#     4  10  23  41  64  91 130 172 211 266 332 387
#
# _framework density 21.683447000000001
#
# number of rings (size 3 to 8) (size 9 to 14) (size 15 to 20)
#    0.000    2.000    0.000    5.000    4.667    4.000 
#    0.000    6.667    7.333    0.000    0.000    0.000 
#    0.000    0.000    0.000    0.000    0.000    0.000 
#
# Total GULP energy -66933.344103 kJ/mol
# GULP energy per Si atom -5577.778675 kJ/mol
# Density = 2.163409 g / cm^3
# Si number density = 21.683447 Si / 1000 Ang^3
#
#
#
# Elastic Constant Matrix: (Units=GPa)
#
#
# Indices 1 2 3 4 5 6 
#
# 1 169.2359 73.9473 83.7749 -0.0010 29.5454 0.0010
# 2 73.9473 119.7481 36.1434 -0.0004 27.1226 0.0004
# 3 83.7749 36.1434 122.8577 -0.0005 15.2024 0.0007
# 4 -0.0010 -0.0004 -0.0005 17.4336 0.0006 0.1738
# 5 29.5454 27.1226 15.2024 0.0006 61.5539 -0.0007
# 6 0.0010 0.0004 0.0007 0.1738 -0.0007 35.3492
#
#
#
# Elastic Compliance Matrix: (Units=1/GPa)
#
#
# Indices 1 2 3 4 5 6 
#
# 1 0.011315 -0.004730 -0.006096 0.000000 -0.001841 0.000000
# 2 -0.004730 0.011926 0.000089 0.000000 -0.003006 0.000000
# 3 -0.006096 0.000089 0.012288 0.000000 -0.000148 0.000000
# 4 0.000000 0.000000 0.000000 0.057363 -0.000001 -0.000282
# 5 -0.001841 -0.003006 -0.000148 -0.000001 0.018491 0.000000
# 6 0.000000 0.000000 0.000000 -0.000282 0.000000 0.028291
#
#
# Mechanical properties :
#
#
# Convention : Reuss Voigt Hill
#
# Bulk Modulus (GPa) = 71.15018 88.84142 79.99580
# Shear Modulus (GPa) = 30.15067 37.39907 33.77487
#
# Velocity S-wave (km/s) = 3.73298 4.15755 3.95097
# Velocity P-wave (km/s) = 7.17388 8.00674 7.60172
#
# Compressibility (1/GPa) = 0.01405478
#
# Stress axis : x y z
#
# Youngs Moduli (GPa) = 88.37931 83.85052 81.37721
#
# Poissons Ratio (x) = 0.39663 0.49608
# Poissons Ratio (y) = 0.41805 -0.00724
# Poissons Ratio (z) = 0.53876 -0.00746
#
# Static dielectric constant tensor:
#      x y z
#    x 2.044480 0.000000 0.032560 
#    y 0.000000 1.854360 0.000000 
#    z 0.032560 0.000000 1.835160 
# 
# From -- ./inp_files/20895.got.cif
#   From: 2010.05.17/outbox.cif.g08.bks.cpg/sg5_11_cif.got.tgz:20895.got - 2010.06.03 18:56:24.
