data_PCOD9124962
_publ_section_title
;
Structure prediction by ZEFSAII (Michael W. Deem and Ramdas Pophale) SiO2 
 PCOD9124962
Probable space group: C 2
;
_chemical_formula_sum "Si O2"
_cell_formula_units_Z 26
_cell_length_a 20.783969
_cell_length_b 13.394756
_cell_length_c 8.017174
_cell_angle_alpha 90.000000
_cell_angle_beta 36.703453
_cell_angle_gamma 90.000000
_cell_volume 1333.977725
_symmetry_space_group_name_H-M "C 2"
_symmetry_group_IT_number 5
_symmetry_cell_setting 'monoclinic'
loop_
_space_group_symop_operation_xyz
x,y,z
-x,y,-z
1/2+x,1/2+y,z
1/2-x,1/2+y,-z
loop_
_atom_site_type_symbol
_atom_site_label
_atom_site_fract_x
_atom_site_fract_y
_atom_site_fract_z
Si Si1 0.510069 0.501620 0.672644
Si Si2 0.069834 0.200792 0.022264
Si Si3 0.750065 0.465713 0.180836
Si Si4 0.000000 0.856172 0.000000
Si Si5 0.534395 0.918286 0.117333
Si Si6 0.693897 0.253289 0.415932
Si Si7 0.397653 0.072948 0.607353
O O1 0.500000 0.468013 0.500000
O O2 0.446499 0.604359 0.830073
O O3 0.636813 0.518606 0.449000
O O4 0.473689 0.424043 0.891909
O O5 0.033938 0.304528 0.183252
O O6 0.195483 0.220901 0.725308
O O7 0.000000 0.185547 0.000000
O O8 0.718504 0.348015 0.242762
O O9 0.845792 0.464372 0.117556
O O10 0.807495 0.518608 0.906360
O O11 0.102769 0.791015 0.732755
O O12 0.452215 0.986848 0.385124
O O13 0.500000 0.912378 0.000000
O O14 0.651191 0.160804 0.399516
O O15 0.500000 0.113255 0.500000
#
# Coordination Sequence:
#
# PCOD9124962 Si02
#       7
#     4   4   4   2   4   4   4
#     4  11  22  41  69  94 127 168 217 256 326 378
#     4  10  21  41  61  95 125 167 216 257 314 384
#     4   9  21  40  59  91 127 162 209 268 304 386
#     4  10  24  46  64  92 132 168 208 278 312 386
#     4   9  20  38  62  90 130 166 210 259 320 375
#     4  10  22  41  65  91 131 164 212 260 327 372
#     4  10  21  39  62  93 125 167 215 260 319 380
#
# _framework density 19.490579
#
# number of rings (size 3 to 8) (size 9 to 14) (size 15 to 20)
#    0.000    2.154    0.769    0.923    1.077    8.000 
#   19.385    0.000    0.000    0.000    0.000    0.000 
#    0.000    0.000    0.000    0.000    0.000    0.000 
#
# Total GULP energy -72474.014282 kJ/mol
# GULP energy per Si atom -5574.924176 kJ/mol
# Density = 1.944622 g / cm^3
# Si number density = 19.490579 Si / 1000 Ang^3
#
#
#
# Elastic Constant Matrix: (Units=GPa)
#
#
# Indices 1 2 3 4 5 6 
#
# 1 78.8435 58.8124 54.2520 0.0000 7.6881 0.0000
# 2 58.8124 87.7605 71.8517 0.0000 -11.7810 0.0000
# 3 54.2520 71.8517 127.2061 0.0000 -17.1201 0.0000
# 4 0.0000 0.0000 0.0000 125.5139 0.0000 -47.1436
# 5 7.6881 -11.7810 -17.1201 0.0000 23.5959 0.0000
# 6 0.0000 0.0000 0.0000 -47.1436 0.0000 43.0680
#
#
#
# Elastic Compliance Matrix: (Units=1/GPa)
#
#
# Indices 1 2 3 4 5 6 
#
# 1 0.037837 -0.023891 -0.006547 0.000000 -0.029006 0.000000
# 2 -0.023891 0.036376 -0.007609 0.000000 0.020426 0.000000
# 3 -0.006547 -0.007609 0.016321 0.000000 0.010176 0.000000
# 4 0.000000 0.000000 0.000000 0.013530 0.000000 0.014810
# 5 -0.029006 0.020426 0.010176 0.000000 0.069412 0.000000
# 6 0.000000 0.000000 0.000000 0.014810 0.000000 0.039431
#
#
# Mechanical properties :
#
#
# Convention : Reuss Voigt Hill
#
# Bulk Modulus (GPa) = 69.24160 73.73801 71.48980
# Shear Modulus (GPa) = 17.01754 45.69517 31.35635
#
# Velocity S-wave (km/s) = 2.95806 4.84723 4.01533
# Velocity P-wave (km/s) = 6.87529 8.32120 7.63256
#
# Compressibility (1/GPa) = 0.01444219
#
# Stress axis : x y z
#
# Youngs Moduli (GPa) = 26.42889 27.49030 61.27184
#
# Poissons Ratio (x) = 0.65676 0.40112
# Poissons Ratio (y) = 0.63140 0.46622
# Poissons Ratio (z) = 0.17302 0.20917
#
# Static dielectric constant tensor:
#      x y z
#    x 1.681960 0.000000 -0.027740 
#    y 0.000000 1.695810 0.000000 
#    z -0.027740 0.000000 1.656720 
# 
# From -- ./inp_files/30918.got.cif
#   From: 2010.05.17/outbox.cif.g08.bks.cpg/sg5_16_cif.got.tgz:30918.got - 2010.06.03 18:56:24.
