data_PCOD9124177
_publ_section_title
;
Structure prediction by ZEFSAII (Michael W. Deem and Ramdas Pophale) SiO2 
 PCOD9124177
Probable space group: C 2
;
_chemical_formula_sum "Si O2"
_cell_formula_units_Z 32
_cell_length_a 15.655258
_cell_length_b 9.289316
_cell_length_c 21.530637
_cell_angle_alpha 90.000000
_cell_angle_beta 148.422275
_cell_angle_gamma 90.000000
_cell_volume 1639.630102
_symmetry_space_group_name_H-M "C 2"
_symmetry_group_IT_number 5
_symmetry_cell_setting 'monoclinic'
loop_
_space_group_symop_operation_xyz
x,y,z
-x,y,-z
1/2+x,1/2+y,z
1/2-x,1/2+y,-z
loop_
_atom_site_type_symbol
_atom_site_label
_atom_site_fract_x
_atom_site_fract_y
_atom_site_fract_z
Si Si1 0.684357 0.096000 0.108585
Si Si2 0.258509 0.110276 0.201172
Si Si3 0.158038 0.900797 0.690165
Si Si4 0.627387 0.968422 0.290441
Si Si5 0.459331 0.829424 0.302349
Si Si6 0.092540 0.144614 0.494444
Si Si7 0.684017 0.931903 0.978643
Si Si8 0.600549 0.615082 0.966946
O O1 0.818388 0.220625 0.191936
O O2 0.724540 0.995430 0.192542
O O3 0.500000 0.152886 0.000000
O O4 0.696052 0.998231 0.054578
O O5 0.357938 0.248305 0.286615
O O6 0.090801 0.107373 0.136547
O O7 0.366835 0.968372 0.271888
O O8 0.197649 0.122384 0.092276
O O9 0.247888 0.890515 0.679509
O O10 0.995587 0.994490 0.580192
O O11 0.569658 0.874938 0.312754
O O12 0.467363 0.003316 0.151530
O O13 0.722559 0.107829 0.374251
O O14 0.562146 0.753397 0.419970
O O15 0.000000 0.192095 0.500000
O O16 0.645688 0.762634 0.959259
O O17 0.840415 0.978315 0.035851
#
# Coordination Sequence:
#
# PCOD9124177 Si02
#       8
#     4   4   4   4   4   4   4   4
#     4  11  21  36  63  96 129 174 201 251 316 392
#     4  11  22  40  59  93 129 169 200 259 323 375
#     4  10  20  42  67  87 121 171 217 250 314 387
#     4  11  21  41  64  93 119 165 213 265 306 373
#     4  11  25  40  64  97 129 159 216 267 320 370
#     4   9  23  46  67  85 118 169 221 264 312 375
#     4  12  22  39  64  99 130 169 214 250 322 381
#     4  11  24  38  60  93 138 164 205 258 313 390
#
# _framework density 19.516597999999998
#
# number of rings (size 3 to 8) (size 9 to 14) (size 15 to 20)
#    0.000    1.250    5.000    0.750    1.750    1.000 
#    0.000    3.125    0.000    0.000    0.000    0.000 
#    0.000    0.000    0.000    0.000    0.000    0.000 
#
# Total GULP energy -89408.736698 kJ/mol
# GULP energy per Si atom -5588.046044 kJ/mol
# Density = 1.947218 g / cm^3
# Si number density = 19.516598 Si / 1000 Ang^3
#
#
#
# Elastic Constant Matrix: (Units=GPa)
#
#
# Indices 1 2 3 4 5 6 
#
# 1 108.3212 50.0209 19.7892 -0.0001 -15.6925 0.0000
# 2 50.0209 91.5627 24.8668 0.0000 -0.3899 0.0000
# 3 19.7892 24.8668 80.7250 0.0001 -15.6627 0.0000
# 4 -0.0001 0.0000 0.0001 26.2155 0.0000 -7.9077
# 5 -15.6925 -0.3899 -15.6627 0.0000 21.7899 0.0000
# 6 0.0000 0.0000 0.0000 -7.9077 0.0000 19.1588
#
#
#
# Elastic Compliance Matrix: (Units=1/GPa)
#
#
# Indices 1 2 3 4 5 6 
#
# 1 0.014363 -0.008101 0.001108 0.000000 0.010995 0.000000
# 2 -0.008101 0.016638 -0.004896 0.000000 -0.009056 0.000000
# 3 0.001108 -0.004896 0.015993 0.000000 0.012206 0.000000
# 4 0.000000 0.000000 0.000000 0.043570 0.000000 0.017983
# 5 0.010995 -0.009056 0.012206 0.000000 0.062423 0.000000
# 6 0.000000 0.000000 0.000000 0.017983 0.000000 0.059618
#
#
# Mechanical properties :
#
#
# Convention : Reuss Voigt Hill
#
# Bulk Modulus (GPa) = 43.07548 52.21806 47.64677
# Shear Modulus (GPa) = 20.48163 25.82831 23.15497
#
# Velocity S-wave (km/s) = 3.24303 3.64181 3.44819
# Velocity P-wave (km/s) = 6.01183 6.67064 6.34979
#
# Compressibility (1/GPa) = 0.02321507
#
# Stress axis : x y z
#
# Youngs Moduli (GPa) = 69.62344 60.10324 62.52827
#
# Poissons Ratio (x) = 0.48687 -0.06926
# Poissons Ratio (y) = 0.56399 0.30617
# Poissons Ratio (z) = -0.07712 0.29429
#
# Static dielectric constant tensor:
#      x y z
#    x 1.685960 0.000000 0.004150 
#    y 0.000000 1.673950 0.000000 
#    z 0.004150 0.000000 1.679320 
# 
# From -- ./inp_files/65912.got.cif
#   From: 2010.05.17/outbox.cif.g08.bks.cpg/sg5_33_cif.got.tgz:65912.got - 2010.06.03 18:56:24.
