data_PCOD9124831
_publ_section_title
;
Structure prediction by ZEFSAII (Michael W. Deem and Ramdas Pophale) SiO2 
 PCOD9124831
Probable space group: C 2
;
_chemical_formula_sum "Si O2"
_cell_formula_units_Z 24
_cell_length_a 7.851269
_cell_length_b 12.137410
_cell_length_c 9.980081
_cell_angle_alpha 90.000000
_cell_angle_beta 92.613150
_cell_angle_gamma 90.000000
_cell_volume 950.053588
_symmetry_space_group_name_H-M "C 2"
_symmetry_group_IT_number 5
_symmetry_cell_setting 'monoclinic'
loop_
_space_group_symop_operation_xyz
x,y,z
-x,y,-z
1/2+x,1/2+y,z
1/2-x,1/2+y,-z
loop_
_atom_site_type_symbol
_atom_site_label
_atom_site_fract_x
_atom_site_fract_y
_atom_site_fract_z
Si Si1 0.144681 0.202220 0.906751
Si Si2 0.000000 0.782871 0.000000
Si Si3 0.000000 0.742424 0.500000
Si Si4 0.975928 0.284227 0.655825
Si Si5 0.483396 0.481364 0.803602
Si Si6 0.223286 0.942606 0.568259
Si Si7 0.701388 0.098816 0.675836
O O1 0.129476 0.263273 0.762623
O O2 0.090725 0.076109 0.881143
O O3 0.329379 0.213538 0.977056
O O4 0.000000 0.251256 0.000000
O O5 0.988503 0.865525 0.125211
O O6 0.157243 0.828084 0.498813
O O7 0.029374 0.665947 0.632688
O O8 0.893399 0.405973 0.654366
O O9 0.835136 0.198051 0.701490
O O10 0.000000 0.258809 0.500000
O O11 0.572867 0.478389 0.661215
O O12 0.282635 0.513871 0.786072
O O13 0.266554 0.033392 0.461522
#
# Coordination Sequence:
#
# PCOD9124831 Si02
#       7
#     4   2   2   4   4   4   4
#     4  11  25  51  72 105 146 188 248 303 357 435
#     4  12  28  46  78  98 140 200 244 296 364 426
#     4  10  22  36  62 106 130 180 228 268 362 440
#     4  10  23  40  68 103 140 185 231 296 364 428
#     4  11  23  46  67  99 139 189 239 303 354 424
#     4  11  21  39  66 101 143 179 230 290 365 424
#     4  10  21  38  64  94 142 177 223 290 351 419
#
# _framework density 25.261734000000001
#
# number of rings (size 3 to 8) (size 9 to 14) (size 15 to 20)
#    0.000    1.333    2.500    3.000    3.500    1.333 
#    4.500    0.000    0.000    0.000    0.000    0.000 
#    0.000    0.000    0.000    0.000    0.000    0.000 
#
# Total GULP energy -67048.690837 kJ/mol
# GULP energy per Si atom -5587.390903 kJ/mol
# Density = 2.520424 g / cm^3
# Si number density = 25.261734 Si / 1000 Ang^3
#
#
#
# Elastic Constant Matrix: (Units=GPa)
#
#
# Indices 1 2 3 4 5 6 
#
# 1 100.3710 25.9169 55.7495 0.0000 34.5401 0.0000
# 2 25.9169 97.9966 37.1816 0.0000 14.2636 0.0000
# 3 55.7495 37.1816 102.8958 0.0000 21.0578 0.0000
# 4 0.0000 0.0000 0.0000 42.1914 0.0000 10.5799
# 5 34.5401 14.2636 21.0578 0.0000 51.8524 0.0000
# 6 0.0000 0.0000 0.0000 10.5799 0.0000 34.3231
#
#
#
# Elastic Compliance Matrix: (Units=1/GPa)
#
#
# Indices 1 2 3 4 5 6 
#
# 1 0.016997 -0.000515 -0.007345 0.000000 -0.008197 0.000000
# 2 -0.000515 0.011973 -0.003756 0.000000 -0.001425 0.000000
# 3 -0.007345 -0.003756 0.015097 0.000000 -0.000205 0.000000
# 4 0.000000 0.000000 0.000000 0.025687 0.000000 -0.007918
# 5 -0.008197 -0.001425 -0.000205 0.000000 0.025221 0.000000
# 6 0.000000 0.000000 0.000000 -0.007918 0.000000 0.031576
#
#
# Mechanical properties :
#
#
# Convention : Reuss Voigt Hill
#
# Bulk Modulus (GPa) = 47.99585 59.88437 53.94011
# Shear Modulus (GPa) = 31.90239 37.83441 34.86840
#
# Velocity S-wave (km/s) = 3.55755 3.87421 3.71925
# Velocity P-wave (km/s) = 5.99296 6.61586 6.31210
#
# Compressibility (1/GPa) = 0.02083514
#
# Stress axis : x y z
#
# Youngs Moduli (GPa) = 58.83512 83.52052 66.23652
#
# Poissons Ratio (x) = 0.04302 0.48652
# Poissons Ratio (y) = 0.03030 0.24877
# Poissons Ratio (z) = 0.43216 0.31369
#
# Static dielectric constant tensor:
#      x y z
#    x 2.052500 0.000000 0.031240 
#    y 0.000000 1.999510 0.000000 
#    z 0.031240 0.000000 2.115180 
# 
# From -- ./inp_files/35497.got.cif
#   From: 2010.05.17/outbox.cif.g08.bks.cpg/sg5_18_cif.got.tgz:35497.got - 2010.06.03 18:56:24.
