data_PCOD9124827
_publ_section_title
;
Structure prediction by ZEFSAII (Michael W. Deem and Ramdas Pophale) SiO2 
 PCOD9124827
Probable space group: C 2
;
_chemical_formula_sum "Si O2"
_cell_formula_units_Z 28
_cell_length_a 22.143184
_cell_length_b 7.860648
_cell_length_c 25.172104
_cell_angle_alpha 90.000000
_cell_angle_beta 162.996477
_cell_angle_gamma 90.000000
_cell_volume 1281.269860
_symmetry_space_group_name_H-M "C 2"
_symmetry_group_IT_number 5
_symmetry_cell_setting 'monoclinic'
loop_
_space_group_symop_operation_xyz
x,y,z
-x,y,-z
1/2+x,1/2+y,z
1/2-x,1/2+y,-z
loop_
_atom_site_type_symbol
_atom_site_label
_atom_site_fract_x
_atom_site_fract_y
_atom_site_fract_z
Si Si1 0.995158 0.639250 0.088285
Si Si2 0.544819 0.747955 0.690476
Si Si3 0.972242 0.143259 0.740940
Si Si4 0.580322 0.268903 0.861164
Si Si5 0.620129 0.589378 0.651886
Si Si6 0.839963 0.305794 0.906780
Si Si7 0.028416 0.629376 0.345236
O O1 0.187709 0.686994 0.213452
O O2 0.006900 0.675483 0.160350
O O3 0.793880 0.743218 0.900152
O O4 0.953785 0.438152 0.042392
O O5 0.491039 0.616508 0.692501
O O6 0.489737 0.699157 0.584222
O O7 0.456806 0.926551 0.635506
O O8 0.736094 0.203731 0.547404
O O9 0.012316 0.964608 0.803116
O O10 0.168364 0.257831 0.922781
O O11 0.497157 0.184419 0.737311
O O12 0.500000 0.524500 0.500000
O O13 0.706852 0.435014 0.759017
O O14 0.682250 0.185697 0.803720
O O15 0.000000 0.223417 0.000000
#
# Coordination Sequence:
#
# PCOD9124827 Si02
#       7
#     4   4   4   4   4   4   4
#     4   9  20  40  66  89 124 168 216 253 315 380
#     4  10  22  40  59  92 126 167 207 258 320 370
#     4  11  25  42  64  98 130 169 217 258 323 383
#     4  11  22  42  66  96 130 170 209 266 319 376
#     4  10  21  38  64  89 122 169 216 257 308 381
#     4   9  21  45  64  93 124 167 216 261 324 372
#     4  12  24  41  68  95 132 166 211 269 320 384
#
# _framework density 21.853318000000002
#
# number of rings (size 3 to 8) (size 9 to 14) (size 15 to 20)
#    0.000    1.714    0.000    6.429    4.000    1.143 
#   10.286    0.714    0.000    0.000    0.000    0.000 
#    0.000    0.000    0.000    0.000    0.000    0.000 
#
# Total GULP energy -78170.290113 kJ/mol
# GULP energy per Si atom -5583.592151 kJ/mol
# Density = 2.180358 g / cm^3
# Si number density = 21.853318 Si / 1000 Ang^3
#
#
#
# Elastic Constant Matrix: (Units=GPa)
#
#
# Indices 1 2 3 4 5 6 
#
# 1 105.5625 24.2851 21.7441 -0.0044 -13.2356 0.0020
# 2 24.2851 32.9668 5.5535 -0.0193 -4.1259 -0.0023
# 3 21.7441 5.5535 98.6471 -0.0360 -2.1287 -0.0003
# 4 -0.0044 -0.0193 -0.0360 18.6526 -0.0183 6.0727
# 5 -13.2356 -4.1259 -2.1287 -0.0183 28.4175 0.0026
# 6 0.0020 -0.0023 -0.0003 6.0727 0.0026 24.4732
#
#
#
# Elastic Compliance Matrix: (Units=1/GPa)
#
#
# Indices 1 2 3 4 5 6 
#
# 1 0.012355 -0.008185 -0.002167 -0.000005 0.004404 -0.000001
# 2 -0.008185 0.036586 -0.000224 0.000039 0.001483 -0.000006
# 3 -0.002167 -0.000224 0.010622 0.000021 -0.000246 -0.000005
# 4 -0.000005 0.000039 0.000021 0.058324 0.000044 -0.014472
# 5 0.004404 0.001483 -0.000246 0.000044 0.037437 -0.000015
# 6 -0.000001 -0.000006 -0.000005 -0.014472 -0.000015 0.044452
#
#
# Mechanical properties :
#
#
# Convention : Reuss Voigt Hill
#
# Bulk Modulus (GPa) = 26.03398 37.81576 31.92487
# Shear Modulus (GPa) = 21.39207 26.68158 24.03682
#
# Velocity S-wave (km/s) = 3.13212 3.49799 3.32010
# Velocity P-wave (km/s) = 5.00192 5.80142 5.41644
#
# Compressibility (1/GPa) = 0.03841134
#
# Stress axis : x y z
#
# Youngs Moduli (GPa) = 80.94159 27.33276 94.14269
#
# Poissons Ratio (x) = 0.22371 0.20405
# Poissons Ratio (y) = 0.66249 0.02104
# Poissons Ratio (z) = 0.17544 0.00611
#
# Static dielectric constant tensor:
#      x y z
#    x 1.819250 0.000000 0.017500 
#    y 0.000000 1.779180 0.000000 
#    z 0.017500 0.000000 1.884080 
# 
# From -- ./inp_files/69454.got.cif
#   From: 2010.05.17/outbox.cif.g08.bks.cpg/sg5_35_cif.got.tgz:69454.got - 2010.06.03 18:56:24.
