data_PCOD9124823
_publ_section_title
;
Structure prediction by ZEFSAII (Michael W. Deem and Ramdas Pophale) SiO2 
 PCOD9124823
Probable space group: C 2
;
_chemical_formula_sum "Si O2"
_cell_formula_units_Z 30
_cell_length_a 12.417286
_cell_length_b 16.421960
_cell_length_c 15.581685
_cell_angle_alpha 90.000000
_cell_angle_beta 152.793669
_cell_angle_gamma 90.000000
_cell_volume 1452.675822
_symmetry_space_group_name_H-M "C 2"
_symmetry_group_IT_number 5
_symmetry_cell_setting 'monoclinic'
loop_
_space_group_symop_operation_xyz
x,y,z
-x,y,-z
1/2+x,1/2+y,z
1/2-x,1/2+y,-z
loop_
_atom_site_type_symbol
_atom_site_label
_atom_site_fract_x
_atom_site_fract_y
_atom_site_fract_z
Si Si1 0.500000 0.710031 0.000000
Si Si2 0.345157 0.185418 0.974863
Si Si3 0.248713 0.855891 0.030526
Si Si4 0.187108 0.154274 0.403366
Si Si5 0.153178 0.972692 0.301399
Si Si6 0.879904 0.446736 0.278726
Si Si7 0.610214 0.110050 0.822163
Si Si8 0.246083 0.303230 0.317600
O O1 0.653446 0.655429 0.043838
O O2 0.679846 0.767019 0.178441
O O3 0.074254 0.178284 0.754007
O O4 0.500000 0.186315 0.000000
O O5 0.363193 0.265997 0.047825
O O6 0.399520 0.114453 0.082257
O O7 0.515492 0.852159 0.184656
O O8 0.086419 0.921333 0.867258
O O9 0.267542 0.874960 0.145219
O O10 0.161144 0.065757 0.339480
O O11 0.379501 0.148370 0.614268
O O12 0.266034 0.223604 0.392672
O O13 0.236078 0.971584 0.261073
O O14 0.356741 0.929386 0.501716
O O15 0.880411 0.520498 0.211594
O O16 0.500000 0.345801 0.500000
#
# Coordination Sequence:
#
# PCOD9124823 Si02
#       8
#     2   4   4   4   4   4   4   4
#     4  12  20  36  66  98 118 156 208 272 326 358
#     4  11  24  40  59  90 128 171 209 249 312 387
#     4  11  23  38  59  89 129 172 198 248 318 388
#     4  10  21  39  64  94 122 154 212 275 311 364
#     4  10  21  38  63  98 125 156 208 267 323 364
#     4  10  22  36  64  93 125 158 206 270 314 370
#     4  11  22  37  67  96 119 160 212 271 324 355
#     4  11  23  38  62  94 129 159 209 265 317 372
#
# _framework density 20.651544000000001
#
# number of rings (size 3 to 8) (size 9 to 14) (size 15 to 20)
#    0.000    1.333    4.000    2.800    3.733    3.733 
#    0.000    0.000   17.600    0.000    0.000    0.000 
#    0.000    0.000    0.000    0.000    0.000    0.000 
#
# Total GULP energy -83792.192738 kJ/mol
# GULP energy per Si atom -5586.146183 kJ/mol
# Density = 2.060454 g / cm^3
# Si number density = 20.651544 Si / 1000 Ang^3
#
#
#
# Elastic Constant Matrix: (Units=GPa)
#
#
# Indices 1 2 3 4 5 6 
#
# 1 92.3266 9.4673 38.5447 -0.0133 17.1954 -0.0213
# 2 9.4673 40.0325 28.3263 0.0747 7.0286 0.0531
# 3 38.5447 28.3263 127.2403 0.0281 17.1918 0.0401
# 4 -0.0133 0.0747 0.0281 26.4424 0.0093 4.3572
# 5 17.1954 7.0286 17.1918 0.0093 30.9441 0.0027
# 6 -0.0213 0.0531 0.0401 4.3572 0.0027 12.2514
#
#
#
# Elastic Compliance Matrix: (Units=1/GPa)
#
#
# Indices 1 2 3 4 5 6 
#
# 1 0.013223 0.000180 -0.003295 0.000006 -0.005559 0.000032
# 2 0.000180 0.029971 -0.006264 -0.000062 -0.003428 -0.000086
# 3 -0.003295 -0.006264 0.010608 0.000008 -0.002640 -0.000016
# 4 0.000006 -0.000062 0.000008 0.040172 -0.000005 -0.014287
# 5 -0.005559 -0.003428 -0.002640 -0.000005 0.037651 0.000007
# 6 0.000032 -0.000086 -0.000016 -0.014287 0.000007 0.086705
#
#
# Mechanical properties :
#
#
# Convention : Reuss Voigt Hill
#
# Bulk Modulus (GPa) = 28.53373 45.80845 37.17109
# Shear Modulus (GPa) = 20.09890 26.14497 23.12194
#
# Velocity S-wave (km/s) = 3.12306 3.56196 3.34971
# Velocity P-wave (km/s) = 5.18184 6.25672 5.74447
#
# Compressibility (1/GPa) = 0.03504624
#
# Stress axis : x y z
#
# Youngs Moduli (GPa) = 75.62323 33.36542 94.26538
#
# Poissons Ratio (x) = -0.00601 0.31059
# Poissons Ratio (y) = -0.01361 0.59043
# Poissons Ratio (z) = 0.24916 0.20899
#
# Static dielectric constant tensor:
#      x y z
#    x 1.740820 -0.000020 0.019390 
#    y -0.000020 1.775970 0.000000 
#    z 0.019390 0.000000 1.756820 
# 
# From -- ./inp_files/53432.got.cif
#   From: 2010.05.17/outbox.cif.g08.bks.cpg/sg5_27_cif.got.tgz:53432.got - 2010.06.03 18:56:24.
