data_PCOD9124504
_publ_section_title
;
Structure prediction by ZEFSAII (Michael W. Deem and Ramdas Pophale) SiO2 
 PCOD9124504
Probable space group: C 2
;
_chemical_formula_sum "Si O2"
_cell_formula_units_Z 24
_cell_length_a 23.697727
_cell_length_b 7.844056
_cell_length_c 9.889809
_cell_angle_alpha 90.000000
_cell_angle_beta 43.843233
_cell_angle_gamma 90.000000
_cell_volume 1273.422992
_symmetry_space_group_name_H-M "C 2"
_symmetry_group_IT_number 5
_symmetry_cell_setting 'monoclinic'
loop_
_space_group_symop_operation_xyz
x,y,z
-x,y,-z
1/2+x,1/2+y,z
1/2-x,1/2+y,-z
loop_
_atom_site_type_symbol
_atom_site_label
_atom_site_fract_x
_atom_site_fract_y
_atom_site_fract_z
Si Si1 0.418687 0.201570 0.383059
Si Si2 0.687315 0.860603 0.461735
Si Si3 0.322206 0.933389 0.815408
Si Si4 0.500000 0.402192 0.000000
Si Si5 0.762254 0.783767 0.785255
Si Si6 0.662618 0.598059 0.737277
Si Si7 0.500000 0.051888 0.500000
O O1 0.466443 0.284905 0.178306
O O2 0.343763 0.323845 0.559246
O O3 0.377662 0.017932 0.416234
O O4 0.476440 0.164910 0.411038
O O5 0.693577 0.817483 0.290783
O O6 0.665355 0.701715 0.592623
O O7 0.771531 0.944855 0.367985
O O8 0.419173 0.942777 0.670709
O O9 0.292037 0.115312 0.813262
O O10 0.274071 0.898519 0.035061
O O11 0.425324 0.520482 0.083404
O O12 0.692787 0.729688 0.799943
#
# Coordination Sequence:
#
# PCOD9124504 Si02
#       7
#     4   4   4   2   4   4   2
#     4   9  21  39  56  77 110 146 181 223 273 323
#     4   9  20  39  57  79 111 146 180 220 272 334
#     4   9  19  35  57  81 107 139 178 220 269 322
#     4  12  24  36  54  84 112 142 186 234 272 312
#     4   9  20  37  55  78 108 144 179 216 269 331
#     4  10  21  36  55  81 111 144 183 223 270 325
#     4   8  18  36  58  82 106 136 180 224 270 318
#
# _framework density 18.84684
#
# number of rings (size 3 to 8) (size 9 to 14) (size 15 to 20)
#    0.000    3.333    0.000    2.000    0.000   12.667 
#    0.000    0.000    0.000    0.000    0.000    0.000 
#    0.000    0.000    0.000    0.000    0.000    0.000 
#
# Total GULP energy -66862.450075 kJ/mol
# GULP energy per Si atom -5571.870840 kJ/mol
# Density = 1.880394 g / cm^3
# Si number density = 18.846840 Si / 1000 Ang^3
#
#
#
# Elastic Constant Matrix: (Units=GPa)
#
#
# Indices 1 2 3 4 5 6 
#
# 1 120.8617 27.5104 64.7200 0.0000 -10.2972 0.0000
# 2 27.5104 29.6814 46.6201 0.0000 3.3037 0.0000
# 3 64.7200 46.6201 166.7884 0.0000 11.4809 0.0000
# 4 0.0000 0.0000 0.0000 38.7718 0.0000 7.2930
# 5 -10.2972 3.3037 11.4809 0.0000 22.4837 0.0000
# 6 0.0000 0.0000 0.0000 7.2930 0.0000 13.0775
#
#
#
# Elastic Compliance Matrix: (Units=1/GPa)
#
#
# Indices 1 2 3 4 5 6 
#
# 1 0.012451 -0.007093 -0.003434 0.000000 0.008498 0.000000
# 2 -0.007093 0.064101 -0.014814 0.000000 -0.005103 0.000000
# 3 -0.003434 -0.014814 0.011844 0.000000 -0.005444 0.000000
# 4 0.000000 0.000000 0.000000 0.028815 0.000000 -0.016069
# 5 0.008498 -0.005103 -0.005444 0.000000 0.051898 0.000000
# 6 0.000000 0.000000 0.000000 -0.016069 0.000000 0.085428
#
#
# Mechanical properties :
#
#
# Convention : Reuss Voigt Hill
#
# Bulk Modulus (GPa) = 26.51492 66.11474 46.31483
# Shear Modulus (GPa) = 15.73372 26.76535 21.24954
#
# Velocity S-wave (km/s) = 2.89246 3.77258 3.36145
# Velocity P-wave (km/s) = 5.02536 7.35749 6.30027
#
# Compressibility (1/GPa) = 0.03771462
#
# Stress axis : x y z
#
# Youngs Moduli (GPa) = 80.31322 15.60047 84.43428
#
# Poissons Ratio (x) = 0.11065 0.28995
# Poissons Ratio (y) = 0.56964 1.25078
# Poissons Ratio (z) = 0.27580 0.23110
#
# Static dielectric constant tensor:
#      x y z
#    x 1.661700 0.000000 0.012490 
#    y 0.000000 1.674970 0.000000 
#    z 0.012490 0.000000 1.688180 
# 
# From -- ./inp_files/26578.got.cif
#   From: 2010.05.17/outbox.cif.g08.bks.cpg/sg5_14_cif.got.tgz:26578.got - 2010.06.03 18:56:24.
