data_PCOD9124124
_publ_section_title
;
Structure prediction by ZEFSAII (Michael W. Deem and Ramdas Pophale) SiO2 
 PCOD9124124
Probable space group: C 2
;
_chemical_formula_sum "Si O2"
_cell_formula_units_Z 20
_cell_length_a 17.192164
_cell_length_b 8.188051
_cell_length_c 11.361355
_cell_angle_alpha 90.000000
_cell_angle_beta 30.549889
_cell_angle_gamma 90.000000
_cell_volume 812.926770
_symmetry_space_group_name_H-M "C 2"
_symmetry_group_IT_number 5
_symmetry_cell_setting 'monoclinic'
loop_
_space_group_symop_operation_xyz
x,y,z
-x,y,-z
1/2+x,1/2+y,z
1/2-x,1/2+y,-z
loop_
_atom_site_type_symbol
_atom_site_label
_atom_site_fract_x
_atom_site_fract_y
_atom_site_fract_z
Si Si1 0.978209 0.897690 0.213356
Si Si2 0.802351 0.114371 0.933824
Si Si3 0.259459 0.705139 0.744915
Si Si4 0.828300 0.233912 0.389301
Si Si5 0.375778 0.906846 0.989953
O O1 0.844015 0.772869 0.421530
O O2 0.890242 0.055318 0.274228
O O3 0.076383 0.973845 0.192690
O O4 0.105328 0.810314 0.967080
O O5 0.845779 0.211629 0.757848
O O6 0.801684 0.236441 0.044316
O O7 0.646248 0.027308 0.094743
O O8 0.332389 0.746406 0.526693
O O9 0.215240 0.513049 0.797255
O O10 0.955209 0.365862 0.189646
#
# Coordination Sequence:
#
# PCOD9124124 Si02
#       5
#     4   4   4   4   4
#     4  11  22  40  63  96 125 166 214 261 314 379
#     4   9  18  39  66  88 132 162 207 274 309 366
#     4  10  20  42  64  86 128 170 206 258 318 376
#     4  11  24  39  67  88 129 174 207 255 326 384
#     4   9  19  37  65  90 123 168 206 263 316 372
#
# _framework density 24.602464000000001
#
# number of rings (size 3 to 8) (size 9 to 14) (size 15 to 20)
#    1.200    0.800    2.000    1.800    0.000    3.200 
#    0.000   12.000    4.400    0.000    0.000    0.000 
#    0.000    0.000    0.000    0.000    0.000    0.000 
#
# Total GULP energy -55780.654837 kJ/mol
# GULP energy per Si atom -5578.065484 kJ/mol
# Density = 2.454647 g / cm^3
# Si number density = 24.602464 Si / 1000 Ang^3
#
#
#
# Elastic Constant Matrix: (Units=GPa)
#
#
# Indices 1 2 3 4 5 6 
#
# 1 105.2484 28.1257 17.9457 0.0000 -3.8517 0.0000
# 2 28.1257 74.2992 22.1314 0.0000 -5.6684 0.0000
# 3 17.9457 22.1314 66.7074 0.0000 1.4705 0.0000
# 4 0.0000 0.0000 0.0000 47.1982 0.0000 -18.5903
# 5 -3.8517 -5.6684 1.4705 0.0000 31.4971 0.0000
# 6 0.0000 0.0000 0.0000 -18.5903 0.0000 46.3566
#
#
#
# Elastic Compliance Matrix: (Units=1/GPa)
#
#
# Indices 1 2 3 4 5 6 
#
# 1 0.010762 -0.003493 -0.001753 0.000000 0.000769 0.000000
# 2 -0.003493 0.016342 -0.004542 0.000000 0.002726 0.000000
# 3 -0.001753 -0.004542 0.017010 0.000000 -0.001826 0.000000
# 4 0.000000 0.000000 0.000000 0.025162 0.000000 0.010091
# 5 0.000769 0.002726 -0.001826 0.000000 0.032419 0.000000
# 6 0.000000 0.000000 0.000000 0.010091 0.000000 0.025619
#
#
# Mechanical properties :
#
#
# Convention : Reuss Voigt Hill
#
# Bulk Modulus (GPa) = 40.75490 42.51785 41.63638
# Shear Modulus (GPa) = 32.24373 36.88053 34.56213
#
# Velocity S-wave (km/s) = 3.62413 3.87597 3.75216
# Velocity P-wave (km/s) = 5.84070 6.11149 5.97763
#
# Compressibility (1/GPa) = 0.02453693
#
# Stress axis : x y z
#
# Youngs Moduli (GPa) = 92.92081 61.19088 58.78974
#
# Poissons Ratio (x) = 0.21373 0.10308
# Poissons Ratio (y) = 0.32456 0.26704
# Poissons Ratio (z) = 0.16292 0.27795
#
# Static dielectric constant tensor:
#      x y z
#    x 1.971180 0.000000 -0.012970 
#    y 0.000000 1.992320 0.000000 
#    z -0.012970 0.000000 1.942510 
# 
# From -- ./inp_files/38164.got.cif
#   From: 2010.05.17/outbox.cif.g08.bks.cpg/sg5_20_cif.got.tgz:38164.got - 2010.06.03 18:56:24.
