data_PCOD9124410
_publ_section_title
;
Structure prediction by ZEFSAII (Michael W. Deem and Ramdas Pophale) SiO2 
 PCOD9124410
Probable space group: C 2
;
_chemical_formula_sum "Si O2"
_cell_formula_units_Z 24
_cell_length_a 11.022432
_cell_length_b 8.660486
_cell_length_c 24.524039
_cell_angle_alpha 90.000000
_cell_angle_beta 151.265853
_cell_angle_gamma 90.000000
_cell_volume 1125.453419
_symmetry_space_group_name_H-M "C 2"
_symmetry_group_IT_number 5
_symmetry_cell_setting 'monoclinic'
loop_
_space_group_symop_operation_xyz
x,y,z
-x,y,-z
1/2+x,1/2+y,z
1/2-x,1/2+y,-z
loop_
_atom_site_type_symbol
_atom_site_label
_atom_site_fract_x
_atom_site_fract_y
_atom_site_fract_z
Si Si1 0.910139 0.740660 0.121799
Si Si2 0.499758 0.763392 0.653305
Si Si3 0.447034 0.905404 0.103717
Si Si4 0.650211 0.410058 0.435040
Si Si5 0.515579 0.405748 0.741644
Si Si6 0.664405 0.734714 0.290326
O O1 0.201535 0.769601 0.221697
O O2 0.841359 0.564634 0.084541
O O3 0.906417 0.780517 0.183732
O O4 0.728636 0.840933 0.012799
O O5 0.423148 0.591396 0.600756
O O6 0.394897 0.883380 0.567862
O O7 0.383973 0.794444 0.667277
O O8 0.721773 0.942034 0.185945
O O9 0.485621 0.793210 0.170683
O O10 0.668736 0.354397 0.379652
O O11 0.434225 0.304502 0.378469
O O12 0.394804 0.553322 0.724275
#
# Coordination Sequence:
#
# PCOD9124410 Si02
#       6
#     4   4   4   4   4   4
#     4  12  24  45  68  96 135 174 221 277 328 390
#     4  11  24  44  67 101 135 173 224 271 332 395
#     4  11  24  46  65  99 133 173 224 274 326 398
#     4  10  23  44  68  99 135 174 222 272 330 398
#     4  10  23  45  67  95 134 174 222 272 332 391
#     4  10  20  46  71  90 136 176 215 276 334 386
#
# _framework density 21.324739000000001
#
# number of rings (size 3 to 8) (size 9 to 14) (size 15 to 20)
#    0.000    1.333    5.000    2.000    2.333    2.667 
#   12.000    0.000    0.000    0.000    0.000    0.000 
#    0.000    0.000    0.000    0.000    0.000    0.000 
#
# Total GULP energy -66997.643806 kJ/mol
# GULP energy per Si atom -5583.136984 kJ/mol
# Density = 2.127620 g / cm^3
# Si number density = 21.324739 Si / 1000 Ang^3
#
#
#
# Elastic Constant Matrix: (Units=GPa)
#
#
# Indices 1 2 3 4 5 6 
#
# 1 95.4126 37.6839 16.5324 0.0001 -11.0924 -0.0001
# 2 37.6839 -151.6546 -198.4300 -0.0005 151.3931 0.0006
# 3 16.5324 -198.4300 -119.1308 0.0001 150.7543 0.0000
# 4 0.0001 -0.0005 0.0001 40.3304 0.0000 -10.2808
# 5 -11.0924 151.3931 150.7543 0.0000 -85.9409 -0.0004
# 6 -0.0001 0.0006 0.0000 -10.2808 -0.0004 32.9781
#
#
#
# Elastic Compliance Matrix: (Units=1/GPa)
#
#
# Indices 1 2 3 4 5 6 
#
# 1 0.010839 -0.002515 0.001380 0.000000 -0.003408 0.000000
# 2 -0.002515 0.012485 -0.005819 0.000000 0.012111 0.000000
# 3 0.001380 -0.005819 0.009598 0.000000 0.006407 0.000000
# 4 0.000000 0.000000 0.000000 0.026936 0.000000 0.008397
# 5 -0.003408 0.012111 0.006407 0.000000 0.021378 0.000000
# 6 0.000000 0.000000 0.000000 0.008397 0.000000 0.032941
#
#
# Mechanical properties :
#
#
# Convention : Reuss Voigt Hill
#
# Bulk Modulus (GPa) = 52.59215 -51.53334 0.52940
# Shear Modulus (GPa) = 37.19608 -4.60375 16.29617
#
# Velocity S-wave (km/s) = 4.18098 -1.47091 2.76740
# Velocity P-wave (km/s) = 6.92990 5.20607 3.23421
#
# Compressibility (1/GPa) = 0.01901424
#
# Stress axis : x y z
#
# Youngs Moduli (GPa) = 92.26193 80.09323 104.19079
#
# Poissons Ratio (x) = 0.20143 -0.14380
# Poissons Ratio (y) = 0.23203 0.60629
# Poissons Ratio (z) = -0.12733 0.46607
#
# Static dielectric constant tensor:
#      x y z
#    x 1.848510 0.000000 0.026030 
#    y 0.000000 1.795330 0.000000 
#    z 0.026030 0.000000 1.773290 
# 
# From -- ./inp_files/70325.got.cif
#   From: 2010.05.17/outbox.cif.g08.bks.cpg/sg5_36_cif.got.tgz:70325.got - 2010.06.03 18:56:24.
