data_PCOD9124575
_publ_section_title
;
Structure prediction by ZEFSAII (Michael W. Deem and Ramdas Pophale) SiO2 
 PCOD9124575
Probable space group: C 2
;
_chemical_formula_sum "Si O2"
_cell_formula_units_Z 32
_cell_length_a 13.709107
_cell_length_b 14.168228
_cell_length_c 11.792622
_cell_angle_alpha 90.000000
_cell_angle_beta 42.616618
_cell_angle_gamma 90.000000
_cell_volume 1550.890445
_symmetry_space_group_name_H-M "C 2"
_symmetry_group_IT_number 5
_symmetry_cell_setting 'monoclinic'
loop_
_space_group_symop_operation_xyz
x,y,z
-x,y,-z
1/2+x,1/2+y,z
1/2-x,1/2+y,-z
loop_
_atom_site_type_symbol
_atom_site_label
_atom_site_fract_x
_atom_site_fract_y
_atom_site_fract_z
Si Si1 0.343892 0.710920 0.816125
Si Si2 0.231195 0.092858 0.910896
Si Si3 0.639946 0.299129 0.635542
Si Si4 0.441729 0.854843 0.428653
Si Si5 0.606236 0.379641 0.018435
Si Si6 0.851579 0.627534 0.193827
Si Si7 0.341940 0.162762 0.582511
Si Si8 0.045343 0.531072 0.700325
O O1 0.497457 0.751369 0.647032
O O2 0.279806 0.638547 0.778732
O O3 0.349090 0.662197 0.933583
O O4 0.231963 0.800018 0.905098
O O5 0.241156 0.135310 0.774957
O O6 0.395168 0.088648 0.821510
O O7 0.166607 0.986727 0.967007
O O8 0.771884 0.361601 0.565002
O O9 0.490892 0.352599 0.788288
O O10 0.645010 0.210456 0.716610
O O11 0.676804 0.254944 0.481065
O O12 0.500000 0.886048 0.500000
O O13 0.500871 0.925559 0.285390
O O14 0.500000 0.370089 0.000000
O O15 0.867906 0.536236 0.257697
O O16 0.000000 0.635502 0.000000
O O17 0.500000 0.174291 0.500000
O O18 0.357088 0.074211 0.483654
#
# Coordination Sequence:
#
# PCOD9124575 Si02
#       8
#     4   4   4   4   4   4   4   4
#     4  12  22  41  68  97 129 170 218 279 328 393
#     4  11  23  39  65 100 130 165 222 283 331 387
#     4  11  22  39  64  95 126 175 217 270 332 396
#     4  12  23  39  64  95 131 167 222 271 329 394
#     4  12  22  39  68  97 124 170 229 275 322 401
#     4  11  18  38  66  91 121 163 216 263 319 388
#     4   9  20  39  64  90 134 173 214 269 335 402
#     4  10  21  36  63  95 123 165 215 263 328 397
#
# _framework density 20.633309000000001
#
# number of rings (size 3 to 8) (size 9 to 14) (size 15 to 20)
#    0.000    1.000    6.250    2.625    1.750    1.000 
#    2.250    3.750    0.000    0.000    0.000    0.000 
#    0.000    0.000    0.000    0.000    0.000    0.000 
#
# Total GULP energy -89265.963432 kJ/mol
# GULP energy per Si atom -5579.122715 kJ/mol
# Density = 2.058635 g / cm^3
# Si number density = 20.633309 Si / 1000 Ang^3
#
#
#
# Elastic Constant Matrix: (Units=GPa)
#
#
# Indices 1 2 3 4 5 6 
#
# 1 61.1801 29.8206 26.9736 0.0000 15.1989 0.0000
# 2 29.8206 65.4805 17.0953 0.0000 14.8201 0.0000
# 3 26.9736 17.0953 59.9826 0.0000 15.1295 0.0000
# 4 0.0000 0.0000 0.0000 24.5172 0.0000 8.1255
# 5 15.1989 14.8201 15.1295 0.0000 28.3373 0.0000
# 6 0.0000 0.0000 0.0000 8.1255 0.0000 14.5069
#
#
#
# Elastic Compliance Matrix: (Units=1/GPa)
#
#
# Indices 1 2 3 4 5 6 
#
# 1 0.024967 -0.008248 -0.007612 0.000000 -0.005013 0.000000
# 2 -0.008248 0.020549 -0.000638 0.000000 -0.005982 0.000000
# 3 -0.007612 -0.000638 0.022145 0.000000 -0.007406 0.000000
# 4 0.000000 0.000000 0.000000 0.050085 0.000000 -0.028053
# 5 -0.005013 -0.005982 -0.007406 0.000000 0.045061 0.000000
# 6 0.000000 0.000000 0.000000 -0.028053 0.000000 0.084645
#
#
# Mechanical properties :
#
#
# Convention : Reuss Voigt Hill
#
# Bulk Modulus (GPa) = 28.84952 37.15802 33.00377
# Shear Modulus (GPa) = 17.12305 20.98920 19.05612
#
# Velocity S-wave (km/s) = 2.88388 3.19289 3.04231
# Velocity P-wave (km/s) = 5.01013 5.62500 5.32644
#
# Compressibility (1/GPa) = 0.03466262
#
# Stress axis : x y z
#
# Youngs Moduli (GPa) = 40.05254 48.66501 45.15750
#
# Poissons Ratio (x) = 0.40141 0.34375
# Poissons Ratio (y) = 0.33037 0.02883
# Poissons Ratio (z) = 0.30489 0.03107
#
# Static dielectric constant tensor:
#      x y z
#    x 1.780550 0.000000 -0.046550 
#    y 0.000000 1.816470 0.000000 
#    z -0.046550 0.000000 1.847770 
# 
# From -- ./inp_files/43081.got.cif
#   From: 2010.05.17/outbox.cif.g08.bks.cpg/sg5_22_cif.got.tgz:43081.got - 2010.06.03 18:56:24.
