data_PCOD9124733
_publ_section_title
;
Structure prediction by ZEFSAII (Michael W. Deem and Ramdas Pophale) SiO2 
 PCOD9124733
Probable space group: C 2
;
_chemical_formula_sum "Si O2"
_cell_formula_units_Z 32
_cell_length_a 10.541120
_cell_length_b 22.964797
_cell_length_c 7.411191
_cell_angle_alpha 90.000000
_cell_angle_beta 120.078193
_cell_angle_gamma 90.000000
_cell_volume 1552.477358
_symmetry_space_group_name_H-M "C 2"
_symmetry_group_IT_number 5
_symmetry_cell_setting 'monoclinic'
loop_
_space_group_symop_operation_xyz
x,y,z
-x,y,-z
1/2+x,1/2+y,z
1/2-x,1/2+y,-z
loop_
_atom_site_type_symbol
_atom_site_label
_atom_site_fract_x
_atom_site_fract_y
_atom_site_fract_z
Si Si1 0.446778 0.575020 0.173564
Si Si2 0.942235 0.719554 0.667200
Si Si3 0.660271 0.676160 0.332264
Si Si4 0.635807 0.342637 0.463290
Si Si5 0.958304 0.943665 0.179018
Si Si6 0.839080 0.375275 0.921565
Si Si7 0.738145 0.172021 0.012934
Si Si8 0.939070 0.274035 0.264831
O O1 0.561171 0.622836 0.325485
O O2 0.453524 0.509491 0.248573
O O3 0.500000 0.571394 0.000000
O O4 0.290221 0.606637 0.096855
O O5 0.804312 0.677744 0.554569
O O6 0.883124 0.784766 0.671328
O O7 0.000000 0.721224 0.500000
O O8 0.071716 0.692518 0.875655
O O9 0.700387 0.673900 0.149737
O O10 0.574326 0.736672 0.285078
O O11 0.500000 0.334934 0.500000
O O12 0.591385 0.403845 0.346023
O O13 0.778659 0.349020 0.688978
O O14 0.799419 0.913415 0.105203
O O15 0.000000 0.946578 0.000000
O O16 0.874301 0.323777 0.089498
O O17 0.000000 0.403438 0.000000
O O18 0.819071 0.222099 0.185102
O O19 0.000000 0.296566 0.500000
#
# Coordination Sequence:
#
# PCOD9124733 Si02
#       8
#     4   4   4   4   4   4   4   4
#     4   8  16  32  54  78 107 146 189 228 274 333
#     4   9  15  27  52  82 104 128 176 227 265 319
#     4   9  17  32  56  81 110 151 185 218 275 352
#     4   9  18  33  54  80 111 153 190 225 282 353
#     4  10  21  38  58  83 114 150 195 244 285 327
#     4  11  22  38  58  81 111 150 195 235 283 352
#     4   9  16  31  55  81 110 146 184 223 273 342
#     4  11  21  33  52  82 114 144 180 236 294 336
#
# _framework density 20.612217000000001
#
# number of rings (size 3 to 8) (size 9 to 14) (size 15 to 20)
#    0.000    2.500    0.000    5.625    0.000    2.000 
#    0.000    9.375    0.000    5.250    0.000    0.000 
#    0.000    0.000    0.000    0.000    0.000    0.000 
#
# Total GULP energy -89120.866285 kJ/mol
# GULP energy per Si atom -5570.054143 kJ/mol
# Density = 2.056530 g / cm^3
# Si number density = 20.612217 Si / 1000 Ang^3
#
#
#
# Elastic Constant Matrix: (Units=GPa)
#
#
# Indices 1 2 3 4 5 6 
#
# 1 70.0457 40.3253 38.0970 0.0000 8.0596 0.0000
# 2 40.3253 167.4879 68.6483 0.0000 17.9864 0.0000
# 3 38.0970 68.6483 118.2712 0.0000 33.2434 0.0000
# 4 0.0000 0.0000 0.0000 12.1333 0.0000 -1.1956
# 5 8.0596 17.9864 33.2434 0.0000 36.6019 0.0000
# 6 0.0000 0.0000 0.0000 -1.1956 0.0000 18.6045
#
#
#
# Elastic Compliance Matrix: (Units=1/GPa)
#
#
# Indices 1 2 3 4 5 6 
#
# 1 0.018197 -0.002580 -0.004827 0.000000 0.001644 0.000000
# 2 -0.002580 0.008204 -0.003971 0.000000 0.000143 0.000000
# 3 -0.004827 -0.003971 0.015399 0.000000 -0.010971 0.000000
# 4 0.000000 0.000000 0.000000 0.082943 0.000000 0.005330
# 5 0.001644 0.000143 -0.010971 0.000000 0.036853 0.000000
# 6 0.000000 0.000000 0.000000 0.005330 0.000000 0.054093
#
#
# Mechanical properties :
#
#
# Convention : Reuss Voigt Hill
#
# Bulk Modulus (GPa) = 52.50637 72.21623 62.36130
# Shear Modulus (GPa) = 20.42549 27.38355 23.90452
#
# Velocity S-wave (km/s) = 3.15134 3.64883 3.40917
# Velocity P-wave (km/s) = 6.22655 7.27074 6.76881
#
# Compressibility (1/GPa) = 0.01904531
#
# Stress axis : x y z
#
# Youngs Moduli (GPa) = 54.95292 121.89263 64.94060
#
# Poissons Ratio (x) = 0.31444 0.31344
# Poissons Ratio (y) = 0.14176 0.25789
# Poissons Ratio (z) = 0.26523 0.48406
#
# Static dielectric constant tensor:
#      x y z
#    x 1.800650 0.000000 -0.007580 
#    y 0.000000 1.756700 0.000000 
#    z -0.007580 0.000000 1.748030 
# 
# From -- ./inp_files/22104.got.cif
#   From: 2010.05.17/outbox.cif.g08.bks.cpg/sg5_12_cif.got.tgz:22104.got - 2010.06.03 18:56:24.
