data_PCOD9124420
_publ_section_title
;
Structure prediction by ZEFSAII (Michael W. Deem and Ramdas Pophale) SiO2 
 PCOD9124420
Probable space group: C 2
;
_chemical_formula_sum "Si O2"
_cell_formula_units_Z 18
_cell_length_a 5.984323
_cell_length_b 16.176312
_cell_length_c 7.563684
_cell_angle_alpha 90.000000
_cell_angle_beta 96.063344
_cell_angle_gamma 90.000000
_cell_volume 728.100842
_symmetry_space_group_name_H-M "C 2"
_symmetry_group_IT_number 5
_symmetry_cell_setting 'monoclinic'
loop_
_space_group_symop_operation_xyz
x,y,z
-x,y,-z
1/2+x,1/2+y,z
1/2-x,1/2+y,-z
loop_
_atom_site_type_symbol
_atom_site_label
_atom_site_fract_x
_atom_site_fract_y
_atom_site_fract_z
Si Si1 0.293207 0.639910 0.341301
Si Si2 0.000000 0.299346 0.000000
Si Si3 0.500000 0.571736 0.000000
Si Si4 0.697727 0.419751 0.209089
Si Si5 0.566767 0.267190 0.805516
Si Si6 0.500000 0.001559 0.500000
O O1 0.500000 0.648744 0.500000
O O2 0.142242 0.561428 0.384852
O O3 0.112942 0.715596 0.323634
O O4 0.381638 0.620339 0.150321
O O5 0.834448 0.254708 0.843660
O O6 0.154867 0.358315 0.895637
O O7 0.334126 0.506710 0.891112
O O8 0.476587 0.365024 0.225496
O O9 0.821711 0.442553 0.395322
O O10 0.500000 0.243878 0.000000
#
# Coordination Sequence:
#
# PCOD9124420 Si02
#       6
#     4   2   2   4   4   2
#     4  12  29  50  75 118 158 203 253 316 390 456
#     4  10  20  47  80 107 144 202 270 300 391 440
#     4  12  24  53  82 109 158 202 254 320 387 458
#     4  11  23  46  76 112 145 204 254 316 380 457
#     4  10  25  45  77 107 149 205 257 314 378 457
#     4  12  28  44  74 122 156 194 256 320 386 454
#
# _framework density 24.721847
#
# number of rings (size 3 to 8) (size 9 to 14) (size 15 to 20)
#    0.000    0.889    5.556    1.333    4.667    7.111 
#    0.000    0.000    0.000    0.000    0.000    0.000 
#    0.000    0.000    0.000    0.000    0.000    0.000 
#
# Total GULP energy -50286.587567 kJ/mol
# GULP energy per Si atom -5587.398619 kJ/mol
# Density = 2.466558 g / cm^3
# Si number density = 24.721847 Si / 1000 Ang^3
#
#
#
# Elastic Constant Matrix: (Units=GPa)
#
#
# Indices 1 2 3 4 5 6 
#
# 1 138.1421 70.1357 58.3519 0.0000 28.8002 0.0000
# 2 70.1357 110.9418 48.8259 0.0000 14.1813 0.0000
# 3 58.3519 48.8259 111.0202 0.0000 14.3091 0.0000
# 4 0.0000 0.0000 0.0000 47.8637 0.0000 15.9503
# 5 28.8002 14.1813 14.3091 0.0000 54.8051 0.0000
# 6 0.0000 0.0000 0.0000 15.9503 0.0000 56.9219
#
#
#
# Elastic Compliance Matrix: (Units=1/GPa)
#
#
# Indices 1 2 3 4 5 6 
#
# 1 0.012563 -0.005877 -0.003481 0.000000 -0.004172 0.000000
# 2 -0.005877 0.014075 -0.003135 0.000000 0.000265 0.000000
# 3 -0.003481 -0.003135 0.012289 0.000000 -0.000568 0.000000
# 4 0.000000 0.000000 0.000000 0.023045 0.000000 -0.006457
# 5 -0.004172 0.000265 -0.000568 0.000000 0.020519 0.000000
# 6 0.000000 0.000000 0.000000 -0.006457 0.000000 0.019377
#
#
# Mechanical properties :
#
#
# Convention : Reuss Voigt Hill
#
# Bulk Modulus (GPa) = 71.73063 79.41457 75.57260
# Shear Modulus (GPa) = 38.02286 44.10417 41.06352
#
# Velocity S-wave (km/s) = 3.92602 4.22834 4.07998
# Velocity P-wave (km/s) = 7.04483 7.48542 7.26846
#
# Compressibility (1/GPa) = 0.01394105
#
# Stress axis : x y z
#
# Youngs Moduli (GPa) = 79.60096 71.04806 81.37419
#
# Poissons Ratio (x) = 0.41753 0.28323
# Poissons Ratio (y) = 0.46780 0.25514
# Poissons Ratio (z) = 0.27706 0.22276
#
# Static dielectric constant tensor:
#      x y z
#    x 1.805420 0.000000 -0.064550 
#    y 0.000000 1.970690 0.000000 
#    z -0.064550 0.000000 1.949730 
# 
# From -- ./inp_files/11964.got.cif
#   From: 2010.05.17/outbox.cif.g08.bks.cpg/sg5_6_cif.got.tgz:11964.got - 2010.06.03 18:56:24.
