data_PCOD9124913
_publ_section_title
;
Structure prediction by ZEFSAII (Michael W. Deem and Ramdas Pophale) SiO2 
 PCOD9124913
Probable space group: C 2
;
_chemical_formula_sum "Si O2"
_cell_formula_units_Z 24
_cell_length_a 12.683315
_cell_length_b 8.129308
_cell_length_c 14.998105
_cell_angle_alpha 90.000000
_cell_angle_beta 147.193927
_cell_angle_gamma 90.000000
_cell_volume 837.837095
_symmetry_space_group_name_H-M "C 2"
_symmetry_group_IT_number 5
_symmetry_cell_setting 'monoclinic'
loop_
_space_group_symop_operation_xyz
x,y,z
-x,y,-z
1/2+x,1/2+y,z
1/2-x,1/2+y,-z
loop_
_atom_site_type_symbol
_atom_site_label
_atom_site_fract_x
_atom_site_fract_y
_atom_site_fract_z
Si Si1 0.256930 0.818060 0.640018
Si Si2 0.745632 0.477380 0.133836
Si Si3 0.701691 0.806519 0.993253
Si Si4 0.273188 0.800971 0.322181
Si Si5 0.181006 0.602452 0.427280
Si Si6 0.765934 0.466788 0.816654
O O1 0.481787 0.860882 0.818114
O O2 0.253223 0.663299 0.573843
O O3 0.183364 0.826901 0.688966
O O4 0.185723 0.968062 0.527356
O O5 0.708199 0.322108 0.040937
O O6 0.683477 0.437100 0.190695
O O7 0.975928 0.518043 0.303137
O O8 0.682096 0.638069 0.033694
O O9 0.806713 0.931370 0.135796
O O10 0.500000 0.841721 0.500000
O O11 0.177202 0.745497 0.348019
O O12 0.272810 0.636952 0.260093
O O13 0.000000 0.453981 0.000000
#
# Coordination Sequence:
#
# PCOD9124913 Si02
#       6
#     4   4   4   4   4   4
#     4   9  20  39  61  88 126 169 212 265 323 382
#     4  11  24  40  63  93 127 166 216 269 320 386
#     4  10  21  39  60  90 127 166 215 266 319 385
#     4  11  23  41  64  92 127 170 216 265 323 386
#     4  10  22  41  64  92 129 168 212 267 322 384
#     4   9  20  40  63  89 126 169 213 264 322 383
#
# _framework density 28.645184
#
# number of rings (size 3 to 8) (size 9 to 14) (size 15 to 20)
#    0.000    2.000    0.000    4.000    0.000    6.667 
#    0.000    7.500    0.000    0.000    0.000    0.000 
#    0.000    0.000    0.000    0.000    0.000    0.000 
#
# Total GULP energy -67123.217184 kJ/mol
# GULP energy per Si atom -5593.601432 kJ/mol
# Density = 2.857999 g / cm^3
# Si number density = 28.645184 Si / 1000 Ang^3
#
#
#
# Elastic Constant Matrix: (Units=GPa)
#
#
# Indices 1 2 3 4 5 6 
#
# 1 140.3768 19.7641 61.9258 0.0006 -22.8292 0.0001
# 2 19.7641 93.9439 46.6947 0.0005 -19.1829 0.0000
# 3 61.9258 46.6947 156.3467 0.0006 -60.2735 0.0005
# 4 0.0006 0.0005 0.0006 43.4950 0.0005 -14.2144
# 5 -22.8292 -19.1829 -60.2735 0.0005 49.0879 0.0003
# 6 0.0001 0.0000 0.0005 -14.2144 0.0003 45.1479
#
#
#
# Elastic Compliance Matrix: (Units=1/GPa)
#
#
# Indices 1 2 3 4 5 6 
#
# 1 0.008637 -0.000142 -0.003515 0.000000 -0.000355 0.000000
# 2 -0.000142 0.012511 -0.003458 0.000000 0.000578 0.000000
# 3 -0.003515 -0.003458 0.014564 0.000000 0.014896 0.000000
# 4 0.000000 0.000000 0.000000 0.025628 -0.000001 0.008069
# 5 -0.000355 0.000578 0.014896 -0.000001 0.038723 -0.000001
# 6 0.000000 0.000000 0.000000 0.008069 -0.000001 0.024690
#
#
# Mechanical properties :
#
#
# Convention : Reuss Voigt Hill
#
# Bulk Modulus (GPa) = 46.55226 71.93740 59.24483
# Shear Modulus (GPa) = 34.21309 45.03165 39.62237
#
# Velocity S-wave (km/s) = 3.45972 3.96921 3.72319
# Velocity P-wave (km/s) = 5.67857 6.79514 6.26179
#
# Compressibility (1/GPa) = 0.02148123
#
# Stress axis : x y z
#
# Youngs Moduli (GPa) = 115.78531 79.92901 68.66379
#
# Poissons Ratio (x) = 0.01137 0.24137
# Poissons Ratio (y) = 0.01647 0.23741
# Poissons Ratio (z) = 0.40702 0.27636
#
# Static dielectric constant tensor:
#      x y z
#    x 2.252770 0.000000 0.007010 
#    y 0.000000 2.318710 0.000000 
#    z 0.007010 0.000000 2.340790 
# 
# From -- ./inp_files/54243.got.cif
#   From: 2010.05.17/outbox.cif.g08.bks.cpg/sg5_28_cif.got.tgz:54243.got - 2010.06.03 18:56:24.
