data_PCOD9124436
_publ_section_title
;
Structure prediction by ZEFSAII (Michael W. Deem and Ramdas Pophale) SiO2 
 PCOD9124436
Probable space group: C 2
;
_chemical_formula_sum "Si O2"
_cell_formula_units_Z 30
_cell_length_a 33.698083
_cell_length_b 5.375269
_cell_length_c 12.476836
_cell_angle_alpha 90.000000
_cell_angle_beta 48.099896
_cell_angle_gamma 90.000000
_cell_volume 1682.146878
_symmetry_space_group_name_H-M "C 2"
_symmetry_group_IT_number 5
_symmetry_cell_setting 'monoclinic'
loop_
_space_group_symop_operation_xyz
x,y,z
-x,y,-z
1/2+x,1/2+y,z
1/2-x,1/2+y,-z
loop_
_atom_site_type_symbol
_atom_site_label
_atom_site_fract_x
_atom_site_fract_y
_atom_site_fract_z
Si Si1 0.423405 0.155800 0.550712
Si Si2 0.010391 0.071603 0.175999
Si Si3 0.414113 0.957925 0.021418
Si Si4 0.544174 0.190966 0.274177
Si Si5 0.500000 0.223450 0.000000
Si Si6 0.810364 0.579919 0.319052
Si Si7 0.402721 0.675364 0.465935
Si Si8 0.187569 0.081609 0.544218
O O1 0.485532 0.098749 0.412711
O O2 0.419777 0.173841 0.685883
O O3 0.411694 0.426263 0.520868
O O4 0.392357 0.924355 0.553861
O O5 0.957479 0.226067 0.299813
O O6 0.031965 0.964469 0.249242
O O7 0.063000 0.179572 0.023630
O O8 0.988387 0.875758 0.128946
O O9 0.353849 0.035264 0.148814
O O10 0.433425 0.054546 0.870726
O O11 0.448529 0.069558 0.057166
O O12 0.817497 0.335733 0.379471
O O13 0.748858 0.577346 0.393439
O O14 0.820019 0.835250 0.368190
O O15 0.355359 0.604462 0.471580
#
# Coordination Sequence:
#
# PCOD9124436 Si02
#       8
#     4   4   4   4   2   4   4   4
#     4  10  21  36  56  81 111 153 184 238 274 340
#     4  10  21  33  50  83 112 154 178 232 280 351
#     4  11  21  34  55  81 116 150 187 229 285 346
#     4   9  21  35  52  79 117 145 193 218 290 342
#     4  10  22  32  48  84 120 148 180 222 292 344
#     4  10  23  38  60  82 114 153 188 233 275 337
#     4  11  21  35  58  80 111 145 194 232 280 325
#     4  10  22  41  58  83 112 151 196 228 278 333
#
# _framework density 17.834351000000002
#
# number of rings (size 3 to 8) (size 9 to 14) (size 15 to 20)
#    0.000    1.867    1.333    2.000    9.333    1.067 
#    0.000    0.000    0.000    1.600    0.000    0.000 
#    0.000    0.000    0.000    0.000    0.000    0.000 
#
# Total GULP energy -83524.800811 kJ/mol
# GULP energy per Si atom -5568.320054 kJ/mol
# Density = 1.779376 g / cm^3
# Si number density = 17.834351 Si / 1000 Ang^3
#
#
#
# Elastic Constant Matrix: (Units=GPa)
#
#
# Indices 1 2 3 4 5 6 
#
# 1 71.4634 23.0181 35.3787 0.0000 3.4468 0.0000
# 2 23.0181 80.0876 17.0174 0.0000 2.2825 0.0000
# 3 35.3787 17.0174 75.0296 0.0000 2.0456 0.0000
# 4 0.0000 0.0000 0.0000 10.0261 0.0000 -2.2493
# 5 3.4468 2.2825 2.0456 0.0000 15.0280 0.0000
# 6 0.0000 0.0000 0.0000 -2.2493 0.0000 12.8101
#
#
#
# Elastic Compliance Matrix: (Units=1/GPa)
#
#
# Indices 1 2 3 4 5 6 
#
# 1 0.019406 -0.003751 -0.008225 0.000000 -0.002762 0.000000
# 2 -0.003751 0.013882 -0.001351 0.000000 -0.001064 0.000000
# 3 -0.008225 -0.001351 0.017521 0.000000 -0.000293 0.000000
# 4 0.000000 0.000000 0.000000 0.103830 0.000000 0.018231
# 5 -0.002762 -0.001064 -0.000293 0.000000 0.067377 0.000000
# 6 0.000000 0.000000 0.000000 0.018231 0.000000 0.081265
#
#
# Mechanical properties :
#
#
# Convention : Reuss Voigt Hill
#
# Bulk Modulus (GPa) = 41.39814 41.93432 41.66623
# Shear Modulus (GPa) = 14.79352 17.65059 16.22206
#
# Velocity S-wave (km/s) = 2.88322 3.14936 3.01922
# Velocity P-wave (km/s) = 5.86063 6.06538 5.96388
#
# Compressibility (1/GPa) = 0.02415568
#
# Stress axis : x y z
#
# Youngs Moduli (GPa) = 51.52967 72.03668 57.07594
#
# Poissons Ratio (x) = 0.27023 0.46942
# Poissons Ratio (y) = 0.19330 0.07709
# Poissons Ratio (z) = 0.42381 0.09730
#
# Static dielectric constant tensor:
#      x y z
#    x 1.589100 0.000000 -0.009990 
#    y 0.000000 1.726880 0.000000 
#    z -0.009990 0.000000 1.644530 
# 
# From -- ./inp_files/46806.got.cif
#   From: 2010.05.17/outbox.cif.g08.bks.cpg/sg5_24_cif.got.tgz:46806.got - 2010.06.03 18:56:24.
