data_PCOD9124943
_publ_section_title
;
Structure prediction by ZEFSAII (Michael W. Deem and Ramdas Pophale) SiO2 
 PCOD9124943
Probable space group: C 2
;
_chemical_formula_sum "Si O2"
_cell_formula_units_Z 20
_cell_length_a 8.395559
_cell_length_b 24.123400
_cell_length_c 9.671272
_cell_angle_alpha 90.000000
_cell_angle_beta 31.760415
_cell_angle_gamma 90.000000
_cell_volume 1031.007005
_symmetry_space_group_name_H-M "C 2"
_symmetry_group_IT_number 5
_symmetry_cell_setting 'monoclinic'
loop_
_space_group_symop_operation_xyz
x,y,z
-x,y,-z
1/2+x,1/2+y,z
1/2-x,1/2+y,-z
loop_
_atom_site_type_symbol
_atom_site_label
_atom_site_fract_x
_atom_site_fract_y
_atom_site_fract_z
Si Si1 0.224581 0.191800 0.095798
Si Si2 0.859769 0.531325 0.252299
Si Si3 0.083190 0.634711 0.598787
Si Si4 0.859734 0.404185 0.252291
Si Si5 0.648471 0.815568 0.240311
O O1 0.140644 0.256407 0.168974
O O2 0.928268 0.156638 0.353896
O O3 0.500000 0.182190 0.000000
O O4 0.358726 0.175180 0.848326
O O5 0.500000 0.532677 0.500000
O O6 0.947933 0.575694 0.302289
O O7 0.947570 0.467924 0.221300
O O8 0.000000 0.545745 0.000000
O O9 0.000000 0.631689 0.500000
O O10 0.500000 0.401558 0.500000
O O11 0.976996 0.362143 0.280365
O O12 0.000000 0.390289 0.000000
O O13 0.500000 0.808183 0.500000
O O14 0.000000 0.830827 0.000000
#
# Coordination Sequence:
#
# PCOD9124943 Si02
#       5
#     4   4   4   4   4
#     4  11  23  41  61  84 119 161 196 231 290 363
#     4  10  21  39  62  84 116 159 196 230 288 360
#     4  12  24  38  60  92 119 149 195 251 295 332
#     4  10  22  40  62  89 117 154 197 240 290 345
#     4  11  23  40  62  89 118 155 197 240 290 346
#
# _framework density 19.398510000000002
#
# number of rings (size 3 to 8) (size 9 to 14) (size 15 to 20)
#    0.000    1.200    0.000    7.800    0.000    3.200 
#    0.000    2.000    0.000    0.000    0.000    0.000 
#    0.000    0.000    0.000    0.000    0.000    0.000 
#
# Total GULP energy -55939.681689 kJ/mol
# GULP energy per Si atom -5593.968169 kJ/mol
# Density = 1.935436 g / cm^3
# Si number density = 19.398510 Si / 1000 Ang^3
#
#
#
# Elastic Constant Matrix: (Units=GPa)
#
#
# Indices 1 2 3 4 5 6 
#
# 1 84.3987 82.8185 43.1493 0.0000 25.2077 0.0000
# 2 82.8185 150.1800 51.1596 0.0000 28.3337 0.0000
# 3 43.1493 51.1596 157.2583 0.0000 22.1228 0.0000
# 4 0.0000 0.0000 0.0000 26.3344 0.0000 -16.3142
# 5 25.2077 28.3337 22.1228 0.0000 40.2574 0.0000
# 6 0.0000 0.0000 0.0000 -16.3142 0.0000 21.2931
#
#
#
# Elastic Compliance Matrix: (Units=1/GPa)
#
#
# Indices 1 2 3 4 5 6 
#
# 1 0.028475 -0.013567 -0.002422 0.000000 -0.006951 0.000000
# 2 -0.013567 0.014693 -0.000865 0.000000 -0.001371 0.000000
# 3 -0.002422 -0.000865 0.007593 0.000000 -0.002047 0.000000
# 4 0.000000 0.000000 0.000000 0.072281 0.000000 0.055379
# 5 -0.006951 -0.001371 -0.002047 0.000000 0.031283 0.000000
# 6 0.000000 0.000000 0.000000 0.055379 0.000000 0.089394
#
#
# Mechanical properties :
#
#
# Convention : Reuss Voigt Hill
#
# Bulk Modulus (GPa) = 58.63289 82.89909 70.76599
# Shear Modulus (GPa) = 17.66093 31.89095 24.77594
#
# Velocity S-wave (km/s) = 3.02060 4.05901 3.57768
# Velocity P-wave (km/s) = 6.51586 8.04953 7.32296
#
# Compressibility (1/GPa) = 0.01705528
#
# Stress axis : x y z
#
# Youngs Moduli (GPa) = 35.11798 68.05739 131.70343
#
# Poissons Ratio (x) = 0.92331 0.31896
# Poissons Ratio (y) = 0.47644 0.11388
# Poissons Ratio (z) = 0.08505 0.05885
#
# Static dielectric constant tensor:
#      x y z
#    x 1.639840 0.000000 0.003040 
#    y 0.000000 1.685710 0.000000 
#    z 0.003040 0.000000 1.688790 
# 
# From -- ./inp_files/17258.got.cif
#   From: 2010.05.17/outbox.cif.g08.bks.cpg/sg5_9_cif.got.tgz:17258.got - 2010.06.03 18:56:24.
