data_PCOD9124983
_publ_section_title
;
Structure prediction by ZEFSAII (Michael W. Deem and Ramdas Pophale) SiO2 
 PCOD9124983
Probable space group: C 2
;
_chemical_formula_sum "Si O2"
_cell_formula_units_Z 24
_cell_length_a 13.080245
_cell_length_b 7.748342
_cell_length_c 9.827721
_cell_angle_alpha 90.000000
_cell_angle_beta 75.391162
_cell_angle_gamma 90.000000
_cell_volume 963.839854
_symmetry_space_group_name_H-M "C 2"
_symmetry_group_IT_number 5
_symmetry_cell_setting 'monoclinic'
loop_
_space_group_symop_operation_xyz
x,y,z
-x,y,-z
1/2+x,1/2+y,z
1/2-x,1/2+y,-z
loop_
_atom_site_type_symbol
_atom_site_label
_atom_site_fract_x
_atom_site_fract_y
_atom_site_fract_z
Si Si1 0.466935 0.283850 0.720109
Si Si2 0.348638 0.976393 0.803010
Si Si3 0.233858 0.397246 0.699146
Si Si4 0.000000 0.049354 0.500000
Si Si5 0.669249 0.695673 0.967018
Si Si6 0.500000 0.402035 0.000000
Si Si7 0.214975 0.254653 0.405003
O O1 0.350957 0.367464 0.724461
O O2 0.536194 0.412141 0.604391
O O3 0.447242 0.080079 0.706056
O O4 0.504429 0.297915 0.860828
O O5 0.279137 0.916791 0.697716
O O6 0.286844 0.113535 0.920493
O O7 0.360639 0.808309 0.892205
O O8 0.157848 0.313261 0.836490
O O9 0.231592 0.301833 0.555557
O O10 0.214369 0.597431 0.673851
O O11 0.903232 0.174556 0.566728
O O12 0.598230 0.528652 0.982473
#
# Coordination Sequence:
#
# PCOD9124983 Si02
#       7
#     4   4   4   2   4   2   4
#     4  10  23  41  62  91 127 167 211 259 314 372
#     4  11  23  43  66  93 127 171 213 255 317 393
#     4  10  21  39  63  92 126 169 210 252 312 385
#     4  10  22  44  66  98 134 162 206 272 316 366
#     4  11  22  40  64  93 129 168 210 263 316 377
#     4  12  24  42  64  94 128 166 214 274 322 364
#     4  11  22  41  68  97 128 168 212 260 318 381
#
# _framework density 24.900400999999999
#
# number of rings (size 3 to 8) (size 9 to 14) (size 15 to 20)
#    0.000    1.333    0.000    8.000    0.000    2.667 
#    0.000    6.667    0.000    0.000    0.000    0.000 
#    0.000    0.000    0.000    0.000    0.000    0.000 
#
# Total GULP energy -67098.891470 kJ/mol
# GULP energy per Si atom -5591.574289 kJ/mol
# Density = 2.484373 g / cm^3
# Si number density = 24.900401 Si / 1000 Ang^3
#
#
#
# Elastic Constant Matrix: (Units=GPa)
#
#
# Indices 1 2 3 4 5 6 
#
# 1 38.1421 9.4036 11.8251 0.0000 -3.0328 0.0000
# 2 9.4036 105.6975 30.4166 0.0000 12.8425 0.0000
# 3 11.8251 30.4166 120.9347 0.0000 35.1040 0.0000
# 4 0.0000 0.0000 0.0000 57.2591 0.0000 1.3100
# 5 -3.0328 12.8425 35.1040 0.0000 39.6994 0.0000
# 6 0.0000 0.0000 0.0000 1.3100 0.0000 18.6438
#
#
#
# Elastic Compliance Matrix: (Units=1/GPa)
#
#
# Indices 1 2 3 4 5 6 
#
# 1 0.028554 -0.002140 -0.004154 0.000000 0.006547 0.000000
# 2 -0.002140 0.010417 -0.001863 0.000000 -0.001886 0.000000
# 3 -0.004154 -0.001863 0.012190 0.000000 -0.010493 0.000000
# 4 0.000000 0.000000 0.000000 0.017493 0.000000 -0.001229
# 5 0.006547 -0.001886 -0.010493 0.000000 0.035578 0.000000
# 6 0.000000 0.000000 0.000000 -0.001229 0.000000 0.053723
#
#
# Mechanical properties :
#
#
# Convention : Reuss Voigt Hill
#
# Bulk Modulus (GPa) = 28.69879 40.89609 34.79744
# Shear Modulus (GPa) = 26.89838 37.32907 32.11372
#
# Velocity S-wave (km/s) = 3.29026 3.87607 3.59512
# Velocity P-wave (km/s) = 5.09754 6.04081 5.58911
#
# Compressibility (1/GPa) = 0.03484467
#
# Stress axis : x y z
#
# Youngs Moduli (GPa) = 35.02147 95.99970 82.03684
#
# Poissons Ratio (x) = 0.20548 0.34079
# Poissons Ratio (y) = 0.07496 0.15286
# Poissons Ratio (z) = 0.14548 0.17888
#
# Static dielectric constant tensor:
#      x y z
#    x 2.203540 0.000000 -0.135260 
#    y 0.000000 1.963620 0.000000 
#    z -0.135260 0.000000 2.020730 
# 
# From -- ./inp_files/22830.got.cif
#   From: 2010.05.17/outbox.cif.g08.bks.cpg/sg5_12_cif.got.tgz:22830.got - 2010.06.03 18:56:24.
