data_PCOD9124991
_publ_section_title
;
Structure prediction by ZEFSAII (Michael W. Deem and Ramdas Pophale) SiO2 
 PCOD9124991
Probable space group: C 2
;
_chemical_formula_sum "Si O2"
_cell_formula_units_Z 24
_cell_length_a 15.011909
_cell_length_b 7.391188
_cell_length_c 9.645342
_cell_angle_alpha 90.000000
_cell_angle_beta 114.091118
_cell_angle_gamma 90.000000
_cell_volume 976.989294
_symmetry_space_group_name_H-M "C 2"
_symmetry_group_IT_number 5
_symmetry_cell_setting 'monoclinic'
loop_
_space_group_symop_operation_xyz
x,y,z
-x,y,-z
1/2+x,1/2+y,z
1/2-x,1/2+y,-z
loop_
_atom_site_type_symbol
_atom_site_label
_atom_site_fract_x
_atom_site_fract_y
_atom_site_fract_z
Si Si1 0.332676 0.376680 0.973077
Si Si2 0.045305 0.717204 0.696357
Si Si3 0.363260 0.565348 0.395379
Si Si4 0.500000 0.869222 0.500000
Si Si5 0.651780 0.164330 0.277175
Si Si6 0.869860 0.248699 0.099020
Si Si7 0.000000 0.454281 0.000000
O O1 0.401734 0.260086 0.122153
O O2 0.368302 0.579214 0.996879
O O3 0.320725 0.330717 0.804072
O O4 0.227018 0.366586 0.977118
O O5 0.055832 0.517278 0.633786
O O6 0.929306 0.720810 0.661926
O O7 0.089757 0.871549 0.620999
O O8 0.425756 0.718532 0.519215
O O9 0.252284 0.563935 0.381400
O O10 0.364031 0.661569 0.245682
O O11 0.592814 0.053304 0.123233
O O12 0.964333 0.350280 0.112070
#
# Coordination Sequence:
#
# PCOD9124991 Si02
#       7
#     4   4   4   2   4   4   2
#     4  10  21  39  64 102 137 171 217 288 356 416
#     4  11  23  45  71  97 140 185 226 294 345 412
#     4  10  25  46  66 101 138 185 239 287 345 418
#     4  12  26  48  70  94 136 192 242 280 342 412
#     4  11  23  42  70 106 139 174 227 289 362 427
#     4  10  22  35  65  98 138 174 215 282 355 418
#     4  12  20  34  62 106 140 172 216 272 360 434
#
# _framework density 24.565263999999999
#
# number of rings (size 3 to 8) (size 9 to 14) (size 15 to 20)
#    0.000    1.333    1.667    4.500    9.333    0.000 
#    6.000    0.000    0.000    0.000    0.000    0.000 
#    0.000    0.000    0.000    0.000    0.000    0.000 
#
# Total GULP energy -66844.398072 kJ/mol
# GULP energy per Si atom -5570.366506 kJ/mol
# Density = 2.450935 g / cm^3
# Si number density = 24.565264 Si / 1000 Ang^3
#
#
#
# Elastic Constant Matrix: (Units=GPa)
#
#
# Indices 1 2 3 4 5 6 
#
# 1 136.3142 35.3129 34.0765 0.0000 11.7122 0.0000
# 2 35.3129 118.0069 13.0592 0.0000 -0.5255 0.0000
# 3 34.0765 13.0592 50.9758 0.0000 0.2631 0.0000
# 4 0.0000 0.0000 0.0000 31.0371 0.0000 -3.2949
# 5 11.7122 -0.5255 0.2631 0.0000 36.5482 0.0000
# 6 0.0000 0.0000 0.0000 -3.2949 0.0000 22.3014
#
#
#
# Elastic Compliance Matrix: (Units=1/GPa)
#
#
# Indices 1 2 3 4 5 6 
#
# 1 0.009649 -0.002253 -0.005857 0.000000 -0.003082 0.000000
# 2 -0.002253 0.009248 -0.000868 0.000000 0.000861 0.000000
# 3 -0.005857 -0.000868 0.023746 0.000000 0.001693 0.000000
# 4 0.000000 0.000000 0.000000 0.032733 0.000000 0.004836
# 5 -0.003082 0.000861 0.001693 0.000000 0.028349 0.000000
# 6 0.000000 0.000000 0.000000 0.004836 0.000000 0.045555
#
#
# Mechanical properties :
#
#
# Convention : Reuss Voigt Hill
#
# Bulk Modulus (GPa) = 40.50583 52.24379 46.37481
# Shear Modulus (GPa) = 28.49600 32.83390 30.66495
#
# Velocity S-wave (km/s) = 3.40959 3.65992 3.53697
# Velocity P-wave (km/s) = 5.65909 6.25888 5.96652
#
# Compressibility (1/GPa) = 0.02468780
#
# Stress axis : x y z
#
# Youngs Moduli (GPa) = 103.64250 108.13040 42.11256
#
# Poissons Ratio (x) = 0.24360 0.24665
# Poissons Ratio (y) = 0.23349 0.03654
# Poissons Ratio (z) = 0.60702 0.09382
#
# Static dielectric constant tensor:
#      x y z
#    x 1.923500 0.000000 0.058780 
#    y 0.000000 2.009450 0.000000 
#    z 0.058780 0.000000 2.089170 
# 
# From -- ./inp_files/41598.got.cif
#   From: 2010.05.17/outbox.cif.g08.bks.cpg/sg5_21_cif.got.tgz:41598.got - 2010.06.03 18:56:24.
