data_PCOD9124636
_publ_section_title
;
Structure prediction by ZEFSAII (Michael W. Deem and Ramdas Pophale) SiO2 
 PCOD9124636
Probable space group: C 2
;
_chemical_formula_sum "Si O2"
_cell_formula_units_Z 22
_cell_length_a 23.042267
_cell_length_b 5.121616
_cell_length_c 21.187660
_cell_angle_alpha 90.000000
_cell_angle_beta 21.524978
_cell_angle_gamma 90.000000
_cell_volume 917.425867
_symmetry_space_group_name_H-M "C 2"
_symmetry_group_IT_number 5
_symmetry_cell_setting 'monoclinic'
loop_
_space_group_symop_operation_xyz
x,y,z
-x,y,-z
1/2+x,1/2+y,z
1/2-x,1/2+y,-z
loop_
_atom_site_type_symbol
_atom_site_label
_atom_site_fract_x
_atom_site_fract_y
_atom_site_fract_z
Si Si1 0.274594 0.341540 0.271119
Si Si2 0.728593 0.745972 0.445567
Si Si3 0.798700 0.811836 0.825603
Si Si4 0.613311 0.295862 0.977171
Si Si5 0.554478 0.256098 0.667928
Si Si6 0.000000 0.724390 0.500000
O O1 0.210218 0.160898 0.391757
O O2 0.331650 0.214899 0.149323
O O3 0.141967 0.549214 0.386229
O O4 0.437726 0.416351 0.142466
O O5 0.620752 0.546315 0.592186
O O6 0.900626 0.710747 0.304091
O O7 0.656703 0.035309 0.527239
O O8 0.716322 0.538254 0.894810
O O9 0.887873 0.770672 0.801856
O O10 0.918248 0.858619 0.644369
O O11 0.670279 0.042353 0.957683
#
# Coordination Sequence:
#
# PCOD9124636 Si02
#       6
#     4   4   4   4   4   2
#     4  10  22  42  59  93 117 165 193 251 294 369
#     4  10  21  37  61  85 119 151 198 253 291 341
#     4  11  22  40  59  92 119 160 194 256 285 370
#     4  10  25  38  60  86 134 151 193 241 320 344
#     4  10  21  37  59  90 115 150 201 252 290 341
#     4  10  22  36  72  84 122 156 220 240 300 346
#
# _framework density 23.980139999999999
#
# number of rings (size 3 to 8) (size 9 to 14) (size 15 to 20)
#    0.000    1.818    1.818    1.091    5.091    8.000 
#    0.000    1.818    0.000    0.000    0.000    0.000 
#    0.000    0.000    0.000    0.000    0.000    0.000 
#
# Total GULP energy -61258.256496 kJ/mol
# GULP energy per Si atom -5568.932409 kJ/mol
# Density = 2.392556 g / cm^3
# Si number density = 23.980140 Si / 1000 Ang^3
#
#
#
# Elastic Constant Matrix: (Units=GPa)
#
#
# Indices 1 2 3 4 5 6 
#
# 1 98.4483 87.7891 144.5780 0.2800 -90.8141 0.0511
# 2 87.7891 22.0370 -77.1702 -0.2290 10.8548 -0.0625
# 3 144.5780 -77.1702 -143.6859 -0.5099 38.1842 -0.1115
# 4 0.2800 -0.2290 -0.5099 3.1992 0.2195 -22.0511
# 5 -90.8141 10.8548 38.1842 0.2195 16.1428 0.0259
# 6 0.0511 -0.0625 -0.1115 -22.0511 0.0259 27.3238
#
#
#
# Elastic Compliance Matrix: (Units=1/GPa)
#
#
# Indices 1 2 3 4 5 6 
#
# 1 0.007239 0.001099 0.010636 -0.000055 0.014831 -0.000026
# 2 0.001099 0.016850 -0.005718 0.000075 0.008377 0.000065
# 3 0.010636 -0.005718 0.014573 0.000226 0.029204 0.000181
# 4 -0.000055 0.000075 0.000226 -0.068519 0.000130 -0.055295
# 5 0.014831 0.008377 0.029204 0.000130 0.070668 0.000148
# 6 -0.000026 0.000065 0.000181 -0.055295 0.000148 -0.008026
#
#
# Mechanical properties :
#
#
# Convention : Reuss Voigt Hill
#
# Bulk Modulus (GPa) = 19.72570 31.91035 25.81803
# Shear Modulus (GPa) = 132.79137 -2.56001 65.11568
#
# Velocity S-wave (km/s) = 7.44955 -1.03435 5.21660
# Velocity P-wave (km/s) = 9.06852 3.45100 6.86103
#
# Compressibility (1/GPa) = 0.05069528
#
# Stress axis : x y z
#
# Youngs Moduli (GPa) = 138.13165 59.34592 68.61887
#
# Poissons Ratio (x) = -0.06521 -0.72981
# Poissons Ratio (y) = -0.15179 0.39240
# Poissons Ratio (z) = -1.46913 0.33937
#
# Static dielectric constant tensor:
#      x y z
#    x 1.953950 -0.000070 0.070810 
#    y -0.000070 1.855020 -0.000100 
#    z 0.070810 -0.000100 1.995180 
# 
# From -- ./inp_files/30187.got.cif
#   From: 2010.05.17/outbox.cif.g08.bks.cpg/sg5_16_cif.got.tgz:30187.got - 2010.06.03 18:56:24.
