data_PCOD9124914
_publ_section_title
;
Structure prediction by ZEFSAII (Michael W. Deem and Ramdas Pophale) SiO2 
 PCOD9124914
Probable space group: C 2
;
_chemical_formula_sum "Si O2"
_cell_formula_units_Z 32
_cell_length_a 11.835632
_cell_length_b 22.931782
_cell_length_c 5.217173
_cell_angle_alpha 90.000000
_cell_angle_beta 73.438842
_cell_angle_gamma 90.000000
_cell_volume 1357.262579
_symmetry_space_group_name_H-M "C 2"
_symmetry_group_IT_number 5
_symmetry_cell_setting 'monoclinic'
loop_
_space_group_symop_operation_xyz
x,y,z
-x,y,-z
1/2+x,1/2+y,z
1/2-x,1/2+y,-z
loop_
_atom_site_type_symbol
_atom_site_label
_atom_site_fract_x
_atom_site_fract_y
_atom_site_fract_z
Si Si1 0.610068 0.146490 0.120570
Si Si2 0.868584 0.410404 0.609162
Si Si3 0.337987 0.609727 0.656088
Si Si4 0.185766 0.538374 0.361031
Si Si5 0.101362 0.002632 0.130065
Si Si6 0.130607 0.238583 0.496256
Si Si7 0.281237 0.264537 0.890619
Si Si8 0.781630 0.890582 0.781276
O O1 0.608306 0.092000 0.313167
O O2 0.627144 0.211592 0.216559
O O3 0.500000 0.143965 0.000000
O O4 0.736126 0.134988 0.905368
O O5 0.876645 0.478878 0.522887
O O6 0.781317 0.385038 0.451960
O O7 0.000000 0.386580 0.500000
O O8 0.814695 0.401457 0.927777
O O9 0.269064 0.564371 0.523413
O O10 0.427819 0.567517 0.746963
O O11 0.377330 0.667616 0.485137
O O12 0.275403 0.516339 0.086690
O O13 0.131443 0.946451 0.283057
O O14 0.000000 0.985299 0.000000
O O15 0.179845 0.258427 0.738810
O O16 0.000000 0.257896 0.500000
O O17 0.220521 0.257498 0.210204
O O18 0.336852 0.328405 0.820647
#
# Coordination Sequence:
#
# PCOD9124914 Si02
#       8
#     4   4   4   4   4   4   4   4
#     4  10  23  39  63  92 126 170 210 258 322 378
#     4  11  24  40  68  95 127 168 212 264 328 376
#     4  10  21  39  60  91 128 159 206 264 316 383
#     4  10  21  39  60  91 128 159 206 264 316 383
#     4  10  23  39  63  92 126 170 210 258 322 378
#     4  11  24  40  68  95 127 168 212 264 328 376
#     4  11  24  44  63  92 131 170 220 266 305 374
#     4  11  24  44  63  92 131 170 220 266 305 374
#
# _framework density 23.576867
#
# number of rings (size 3 to 8) (size 9 to 14) (size 15 to 20)
#    0.000    1.500    2.500    1.500    3.500    3.500 
#    0.000    0.000    0.000    4.500    0.000    0.000 
#    0.000    0.000    0.000    0.000    0.000    0.000 
#
# Total GULP energy -89359.108167 kJ/mol
# GULP energy per Si atom -5584.944260 kJ/mol
# Density = 2.352320 g / cm^3
# Si number density = 23.576867 Si / 1000 Ang^3
#
#
#
# Elastic Constant Matrix: (Units=GPa)
#
#
# Indices 1 2 3 4 5 6 
#
# 1 60.8700 1.8474 -0.9451 0.0000 13.1848 0.0000
# 2 1.8474 165.3523 -16.2230 0.0000 4.0388 0.0000
# 3 -0.9451 -16.2230 68.2771 0.0000 5.7321 0.0000
# 4 0.0000 0.0000 0.0000 28.5397 0.0000 10.0169
# 5 13.1848 4.0388 5.7321 0.0000 37.9012 0.0000
# 6 0.0000 0.0000 0.0000 10.0169 0.0000 -17.7182
#
#
#
# Elastic Compliance Matrix: (Units=1/GPa)
#
#
# Indices 1 2 3 4 5 6 
#
# 1 0.017808 0.000032 0.000785 0.000000 -0.006317 0.000000
# 2 0.000032 0.006222 0.001555 0.000000 -0.000909 0.000000
# 3 0.000785 0.001555 0.015257 0.000000 -0.002746 0.000000
# 4 0.000000 0.000000 0.000000 0.029238 0.000000 0.016529
# 5 -0.006317 -0.000909 -0.002746 0.000000 0.029094 0.000000
# 6 0.000000 0.000000 0.000000 0.016529 0.000000 -0.047094
#
#
# Mechanical properties :
#
#
# Convention : Reuss Voigt Hill
#
# Bulk Modulus (GPa) = 22.71112 29.31756 26.01434
# Shear Modulus (GPa) = 82.70261 30.39919 56.55090
#
# Velocity S-wave (km/s) = 5.92908 3.59467 4.90284
# Velocity P-wave (km/s) = 7.51836 5.44892 6.56569
#
# Compressibility (1/GPa) = 0.04403130
#
# Stress axis : x y z
#
# Youngs Moduli (GPa) = 56.15462 160.71668 65.54313
#
# Poissons Ratio (x) = -0.00519 -0.05142
# Poissons Ratio (y) = -0.00181 -0.10193
# Poissons Ratio (z) = -0.04405 -0.24995
#
# Static dielectric constant tensor:
#      x y z
#    x 1.844750 0.000000 0.003950 
#    y 0.000000 1.997890 0.000000 
#    z 0.003950 0.000000 1.934580 
# 
# From -- ./inp_files/5967.got.cif
#   From: 2010.05.17/outbox.cif.g08.bks.cpg/sg5_3_cif.got.tgz:5967.got - 2010.06.03 18:56:24.
