data_PCOD9124626
_publ_section_title
;
Structure prediction by ZEFSAII (Michael W. Deem and Ramdas Pophale) SiO2 
 PCOD9124626
Probable space group: C 2
;
_chemical_formula_sum "Si O2"
_cell_formula_units_Z 28
_cell_length_a 9.631272
_cell_length_b 10.592116
_cell_length_c 12.585314
_cell_angle_alpha 90.000000
_cell_angle_beta 109.294516
_cell_angle_gamma 90.000000
_cell_volume 1211.784512
_symmetry_space_group_name_H-M "C 2"
_symmetry_group_IT_number 5
_symmetry_cell_setting 'monoclinic'
loop_
_space_group_symop_operation_xyz
x,y,z
-x,y,-z
1/2+x,1/2+y,z
1/2-x,1/2+y,-z
loop_
_atom_site_type_symbol
_atom_site_label
_atom_site_fract_x
_atom_site_fract_y
_atom_site_fract_z
Si Si1 0.830087 0.487080 0.423275
Si Si2 0.367544 0.861362 0.883000
Si Si3 0.613369 0.238116 0.623145
Si Si4 0.300653 0.135400 0.821165
Si Si5 0.380435 0.151624 0.154962
Si Si6 0.842990 0.007950 0.411847
Si Si7 0.375407 0.875769 0.204305
O O1 0.771604 0.630465 0.384024
O O2 0.743601 0.452729 0.507630
O O3 0.832697 0.403575 0.317258
O O4 0.000000 0.493772 0.500000
O O5 0.252463 0.749742 0.876125
O O6 0.454376 0.859693 0.790145
O O7 0.294715 0.999135 0.875267
O O8 0.500000 0.849991 0.000000
O O9 0.500000 0.250051 0.500000
O O10 0.550768 0.168017 0.709284
O O11 0.642274 0.382614 0.657125
O O12 0.472293 0.173023 0.873360
O O13 0.206333 0.247681 0.846340
O O14 0.237279 0.107902 0.685119
O O15 0.330002 0.006601 0.135411
O O16 0.000000 0.051371 0.500000
#
# Coordination Sequence:
#
# PCOD9124626 Si02
#       7
#     4   4   4   4   4   4   4
#     4  10  21  37  58  89 137 182 225 277 320 386
#     4  11  25  48  73  99 131 173 226 290 356 409
#     4   9  18  34  58  85 129 176 219 257 323 380
#     4  11  24  44  69 102 138 178 226 278 338 400
#     4  10  22  44  68  94 136 178 219 283 337 400
#     4  11  23  36  61 100 136 186 230 264 321 401
#     4  10  25  41  66 102 133 173 228 278 336 400
#
# _framework density 23.10642
#
# number of rings (size 3 to 8) (size 9 to 14) (size 15 to 20)
#    0.000    1.714    1.429    3.429    6.000    6.286 
#    0.000    0.714    0.000    0.000    0.000    0.000 
#    0.000    0.000    0.000    0.000    0.000    0.000 
#
# Total GULP energy -77986.278638 kJ/mol
# GULP energy per Si atom -5570.448474 kJ/mol
# Density = 2.305383 g / cm^3
# Si number density = 23.106420 Si / 1000 Ang^3
#
#
#
# Elastic Constant Matrix: (Units=GPa)
#
#
# Indices 1 2 3 4 5 6 
#
# 1 98.3566 66.7726 37.7963 0.0000 13.1558 0.0000
# 2 66.7726 169.6843 16.5032 0.0000 25.0692 0.0000
# 3 37.7963 16.5032 101.8597 0.0000 0.4903 0.0000
# 4 0.0000 0.0000 0.0000 -7.7911 0.0000 23.0971
# 5 13.1558 25.0692 0.4903 0.0000 32.2285 0.0000
# 6 0.0000 0.0000 0.0000 23.0971 0.0000 31.7200
#
#
#
# Elastic Compliance Matrix: (Units=1/GPa)
#
#
# Indices 1 2 3 4 5 6 
#
# 1 0.016188 -0.005547 -0.005097 0.000000 -0.002216 0.000000
# 2 -0.005547 0.008674 0.000675 0.000000 -0.004493 0.000000
# 3 -0.005097 0.000675 0.011593 0.000000 0.001380 0.000000
# 4 0.000000 0.000000 0.000000 -0.040635 0.000000 0.029589
# 5 -0.002216 -0.004493 0.001380 0.000000 0.035407 0.000000
# 6 0.000000 0.000000 0.000000 0.029589 0.000000 0.009981
#
#
# Mechanical properties :
#
#
# Convention : Reuss Voigt Hill
#
# Bulk Modulus (GPa) = 60.54910 68.00498 64.27704
# Shear Modulus (GPa) = 75.01510 27.82005 51.41758
#
# Velocity S-wave (km/s) = 5.70399 3.47363 4.72237
# Velocity P-wave (km/s) = 8.34518 6.75154 7.59030
#
# Compressibility (1/GPa) = 0.01651552
#
# Stress axis : x y z
#
# Youngs Moduli (GPa) = 61.77389 115.28209 86.25932
#
# Poissons Ratio (x) = 0.63948 0.43970
# Poissons Ratio (y) = 0.34266 -0.05818
# Poissons Ratio (z) = 0.31489 -0.07776
#
# Static dielectric constant tensor:
#      x y z
#    x 1.888500 0.000000 -0.018090 
#    y 0.000000 1.947270 0.000000 
#    z -0.018090 0.000000 1.980170 
# 
# From -- ./inp_files/50328.got.cif
#   From: 2010.05.17/outbox.cif.g08.bks.cpg/sg5_26_cif.got.tgz:50328.got - 2010.06.03 18:56:24.
