data_PCOD9124968
_publ_section_title
;
Structure prediction by ZEFSAII (Michael W. Deem and Ramdas Pophale) SiO2 
 PCOD9124968
Probable space group: C 2
;
_chemical_formula_sum "Si O2"
_cell_formula_units_Z 20
_cell_length_a 12.900049
_cell_length_b 13.668466
_cell_length_c 4.943489
_cell_angle_alpha 90.000000
_cell_angle_beta 88.298417
_cell_angle_gamma 90.000000
_cell_volume 871.270802
_symmetry_space_group_name_H-M "C 2"
_symmetry_group_IT_number 5
_symmetry_cell_setting 'monoclinic'
loop_
_space_group_symop_operation_xyz
x,y,z
-x,y,-z
1/2+x,1/2+y,z
1/2-x,1/2+y,-z
loop_
_atom_site_type_symbol
_atom_site_label
_atom_site_fract_x
_atom_site_fract_y
_atom_site_fract_z
Si Si1 0.896821 0.945870 0.586836
Si Si2 0.000000 0.597052 0.000000
Si Si3 0.604762 0.567611 0.909554
Si Si4 0.500000 0.946584 0.500000
Si Si5 0.779713 0.702485 0.087575
Si Si6 0.293350 0.820621 0.412539
O O1 0.792089 0.899272 0.500678
O O2 0.000000 0.886201 0.500000
O O3 0.900088 0.972091 0.899031
O O4 0.902533 0.042355 0.401489
O O5 0.019635 0.521931 0.249003
O O6 0.100790 0.666595 0.933925
O O7 0.500000 0.626156 0.000000
O O8 0.711608 0.614000 0.981481
O O9 0.403856 0.873653 0.435577
O O10 0.742990 0.787862 0.883907
O O11 0.733688 0.731830 0.382797
#
# Coordination Sequence:
#
# PCOD9124968 Si02
#       6
#     4   2   4   2   4   4
#     4  10  21  39  63  88 123 167 210 259 323 399
#     4  12  26  48  74 100 140 194 236 276 350 436
#     4  10  21  39  63  88 123 167 210 259 323 399
#     4  12  26  48  74 100 140 194 236 276 350 436
#     4  12  26  41  68 100 139 171 226 287 340 395
#     4  12  26  41  68 100 139 171 226 287 340 395
#
# _framework density 22.954975000000001
#
# number of rings (size 3 to 8) (size 9 to 14) (size 15 to 20)
#    0.000    0.800    0.000    7.200    5.600    0.000 
#    0.000    0.000    0.000    0.000    0.000    0.000 
#    0.000    0.000    0.000    0.000    0.000    0.000 
#
# Total GULP energy -55779.301487 kJ/mol
# GULP energy per Si atom -5577.930149 kJ/mol
# Density = 2.290273 g / cm^3
# Si number density = 22.954975 Si / 1000 Ang^3
#
#
#
# Elastic Constant Matrix: (Units=GPa)
#
#
# Indices 1 2 3 4 5 6 
#
# 1 167.4057 34.7784 -16.3285 0.0000 19.0681 0.0000
# 2 34.7784 49.8696 14.4412 0.0000 6.0941 0.0000
# 3 -16.3285 14.4412 83.9213 0.0000 9.2364 0.0000
# 4 0.0000 0.0000 0.0000 20.6544 0.0000 14.4490
# 5 19.0681 6.0941 9.2364 0.0000 24.7037 0.0000
# 6 0.0000 0.0000 0.0000 14.4490 0.0000 15.7017
#
#
#
# Elastic Compliance Matrix: (Units=1/GPa)
#
#
# Indices 1 2 3 4 5 6 
#
# 1 0.008227 -0.005944 0.003297 0.000000 -0.006116 0.000000
# 2 -0.005944 0.025788 -0.005631 0.000000 0.000332 0.000000
# 3 0.003297 -0.005631 0.014239 0.000000 -0.006480 0.000000
# 4 0.000000 0.000000 0.000000 0.135905 0.000000 -0.125063
# 5 -0.006116 0.000332 -0.006480 0.000000 0.047541 0.000000
# 6 0.000000 0.000000 0.000000 -0.125063 0.000000 0.178773
#
#
# Mechanical properties :
#
#
# Convention : Reuss Voigt Hill
#
# Bulk Modulus (GPa) = 31.54865 40.77541 36.16203
# Shear Modulus (GPa) = 11.42608 30.09900 20.76254
#
# Velocity S-wave (km/s) = 2.23348 3.62500 3.01074
# Velocity P-wave (km/s) = 4.51938 5.94329 5.27956
#
# Compressibility (1/GPa) = 0.03169708
#
# Stress axis : x y z
#
# Youngs Moduli (GPa) = 121.55595 38.77794 70.22743
#
# Poissons Ratio (x) = 0.23051 -0.23152
# Poissons Ratio (y) = 0.72258 0.39543
# Poissons Ratio (z) = -0.40074 0.21835
#
# Static dielectric constant tensor:
#      x y z
#    x 1.957980 0.000000 -0.035710 
#    y 0.000000 2.037890 0.000000 
#    z -0.035710 0.000000 1.960560 
# 
# From -- ./inp_files/4682.got.cif
#   From: 2010.05.17/outbox.cif.g08.bks.cpg/sg5_3_cif.got.tgz:4682.got - 2010.06.03 18:56:24.
