data_PCOD9124182
_publ_section_title
;
Structure prediction by ZEFSAII (Michael W. Deem and Ramdas Pophale) SiO2 
 PCOD9124182
Probable space group: C 2
;
_chemical_formula_sum "Si O2"
_cell_formula_units_Z 28
_cell_length_a 7.621850
_cell_length_b 32.781353
_cell_length_c 5.580470
_cell_angle_alpha 90.000000
_cell_angle_beta 67.485890
_cell_angle_gamma 90.000000
_cell_volume 1288.039196
_symmetry_space_group_name_H-M "C 2"
_symmetry_group_IT_number 5
_symmetry_cell_setting 'monoclinic'
loop_
_space_group_symop_operation_xyz
x,y,z
-x,y,-z
1/2+x,1/2+y,z
1/2-x,1/2+y,-z
loop_
_atom_site_type_symbol
_atom_site_label
_atom_site_fract_x
_atom_site_fract_y
_atom_site_fract_z
Si Si1 0.000000 0.526630 0.500000
Si Si2 0.111345 0.899416 0.195724
Si Si3 0.299259 0.315534 0.961690
Si Si4 0.000000 0.762969 0.500000
Si Si5 0.792748 0.064751 0.988008
Si Si6 0.705416 0.984823 0.767700
Si Si7 0.705646 0.736209 0.277970
Si Si8 0.880391 0.150954 0.814059
O O1 0.884647 0.554600 0.745764
O O2 0.841124 0.495855 0.480166
O O3 0.256095 0.862109 0.058752
O O4 0.193512 0.942946 0.227916
O O5 0.000000 0.885949 0.500000
O O6 0.000000 0.905385 0.000000
O O7 0.343766 0.292840 0.692493
O O8 0.500000 0.319025 0.000000
O O9 0.190096 0.280375 0.159536
O O10 0.114373 0.738364 0.639155
O O11 0.764109 0.108707 0.881748
O O12 0.000000 0.066631 0.000000
O O13 0.804124 0.025552 0.811259
O O14 0.500000 0.982597 0.000000
O O15 0.500000 0.731223 0.500000
O O16 0.728533 0.694225 0.120367
O O17 0.000000 0.148605 0.500000
O O18 0.000000 0.151528 0.000000
#
# Coordination Sequence:
#
# PCOD9124182 Si02
#       8
#     2   4   4   2   4   4   4   4
#     4  10  24  44  67 102 142 178 240 288 347 432
#     4  11  24  42  71  98 132 181 233 284 349 416
#     4   9  20  41  63  98 133 176 230 287 339 414
#     4  10  20  42  67  94 134 180 228 284 349 410
#     4  10  23  43  74  96 137 186 228 293 354 412
#     4  10  24  42  62 100 138 175 230 289 341 423
#     4  10  23  42  72  99 140 185 234 290 355 415
#     4  10  24  43  71 104 137 179 237 288 345 431
#
# _framework density 21.738468999999998
#
# number of rings (size 3 to 8) (size 9 to 14) (size 15 to 20)
#    0.000    2.000    0.714    0.429   14.000    0.000 
#    2.571    7.857    0.000    0.000    0.000    0.000 
#    0.000    0.000    0.000    0.000    0.000    0.000 
#
# Total GULP energy -77962.101213 kJ/mol
# GULP energy per Si atom -5568.721515 kJ/mol
# Density = 2.168899 g / cm^3
# Si number density = 21.738469 Si / 1000 Ang^3
#
#
#
# Elastic Constant Matrix: (Units=GPa)
#
#
# Indices 1 2 3 4 5 6 
#
# 1 60.2826 61.6837 23.4653 0.0000 11.4029 0.0000
# 2 61.6837 241.5292 45.5878 0.0000 13.6674 0.0000
# 3 23.4653 45.5878 83.2924 0.0000 14.3848 0.0000
# 4 0.0000 0.0000 0.0000 40.9235 0.0000 -0.2661
# 5 11.4029 13.6674 14.3848 0.0000 27.4796 0.0000
# 6 0.0000 0.0000 0.0000 -0.2661 0.0000 31.3681
#
#
#
# Elastic Compliance Matrix: (Units=1/GPa)
#
#
# Indices 1 2 3 4 5 6 
#
# 1 0.024279 -0.005317 -0.002910 0.000000 -0.005907 0.000000
# 2 -0.005317 0.005811 -0.001720 0.000000 0.000217 0.000000
# 3 -0.002910 -0.001720 0.014743 0.000000 -0.005655 0.000000
# 4 0.000000 0.000000 0.000000 0.024437 0.000000 0.000207
# 5 -0.005907 0.000217 -0.005655 0.000000 0.041694 0.000000
# 6 0.000000 0.000000 0.000000 0.000207 0.000000 0.031881
#
#
# Mechanical properties :
#
#
# Convention : Reuss Voigt Hill
#
# Bulk Modulus (GPa) = 40.09566 71.84197 55.96882
# Shear Modulus (GPa) = 29.23078 36.91208 33.07143
#
# Velocity S-wave (km/s) = 3.67093 4.12516 3.90466
# Velocity P-wave (km/s) = 6.03757 7.47056 6.79197
#
# Compressibility (1/GPa) = 0.02494035
#
# Stress axis : x y z
#
# Youngs Moduli (GPa) = 41.18738 172.10036 67.82667
#
# Poissons Ratio (x) = 0.91509 0.19735
# Poissons Ratio (y) = 0.21900 0.11664
# Poissons Ratio (z) = 0.11984 0.29596
#
# Static dielectric constant tensor:
#      x y z
#    x 1.858320 0.000000 0.036650 
#    y 0.000000 1.806310 0.000000 
#    z 0.036650 0.000000 1.879170 
# 
# From -- ./inp_files/3787.got.cif
#   From: 2010.05.17/outbox.cif.g08.bks.cpg/sg5_2_cif.got.tgz:3787.got - 2010.06.03 18:56:24.
