data_PCOD9124044
_publ_section_title
;
Structure prediction by ZEFSAII (Michael W. Deem and Ramdas Pophale) SiO2 
 PCOD9124044
Probable space group: C 2
;
_chemical_formula_sum "Si O2"
_cell_formula_units_Z 20
_cell_length_a 13.161696
_cell_length_b 9.664526
_cell_length_c 8.392620
_cell_angle_alpha 90.000000
_cell_angle_beta 133.120004
_cell_angle_gamma 90.000000
_cell_volume 779.233159
_symmetry_space_group_name_H-M "C 2"
_symmetry_group_IT_number 5
_symmetry_cell_setting 'monoclinic'
loop_
_space_group_symop_operation_xyz
x,y,z
-x,y,-z
1/2+x,1/2+y,z
1/2-x,1/2+y,-z
loop_
_atom_site_type_symbol
_atom_site_label
_atom_site_fract_x
_atom_site_fract_y
_atom_site_fract_z
Si Si1 0.920601 0.977810 0.057473
Si Si2 0.668623 0.358433 0.503634
Si Si3 0.694149 0.942149 0.047839
Si Si4 0.563490 0.861359 0.412264
Si Si5 0.809661 0.703020 0.754840
O O1 0.037051 0.949115 0.315049
O O2 0.782568 0.016664 0.003429
O O3 0.867987 0.836113 0.913182
O O4 0.000000 0.058196 0.000000
O O5 0.707735 0.352882 0.729032
O O6 0.804770 0.413386 0.550726
O O7 0.642664 0.217216 0.377670
O O8 0.647350 0.068228 0.107658
O O9 0.567598 0.852964 0.844639
O O10 0.500000 0.936332 0.500000
O O11 0.642119 0.725728 0.568268
#
# Coordination Sequence:
#
# PCOD9124044 Si02
#       5
#     4   4   4   4   4
#     4  10  20  43  66  97 146 176 238 297 340 437
#     4   9  22  38  63 102 136 176 242 280 338 437
#     4  12  21  42  77  96 141 199 215 300 375 390
#     4  10  20  41  67  95 145 172 244 294 328 442
#     4   9  23  41  68  94 144 179 233 293 349 409
#
# _framework density 25.666257999999999
#
# number of rings (size 3 to 8) (size 9 to 14) (size 15 to 20)
#    1.200    0.800    2.000    1.200    0.000    6.400 
#    0.000    8.000    4.400    0.000    0.000    0.000 
#    0.000    0.000    0.000    0.000    0.000    0.000 
#
# Total GULP energy -55708.615318 kJ/mol
# GULP energy per Si atom -5570.861532 kJ/mol
# Density = 2.560784 g / cm^3
# Si number density = 25.666258 Si / 1000 Ang^3
#
#
#
# Elastic Constant Matrix: (Units=GPa)
#
#
# Indices 1 2 3 4 5 6 
#
# 1 138.1290 3.0544 37.0215 0.0000 14.2415 0.0000
# 2 3.0544 42.3253 15.3736 0.0000 -10.5681 0.0000
# 3 37.0215 15.3736 207.3503 0.0000 19.3027 0.0000
# 4 0.0000 0.0000 0.0000 -4.6346 0.0000 -17.7590
# 5 14.2415 -10.5681 19.3027 0.0000 45.0723 0.0000
# 6 0.0000 0.0000 0.0000 -17.7590 0.0000 8.3258
#
#
#
# Elastic Compliance Matrix: (Units=1/GPa)
#
#
# Indices 1 2 3 4 5 6 
#
# 1 0.007780 -0.000679 -0.001141 0.000000 -0.002129 0.000000
# 2 -0.000679 0.026473 -0.002541 0.000000 0.007510 0.000000
# 3 -0.001141 -0.002541 0.005454 0.000000 -0.002571 0.000000
# 4 0.000000 0.000000 0.000000 -0.023521 0.000000 -0.050171
# 5 -0.002129 0.007510 -0.002571 0.000000 0.025721 0.000000
# 6 0.000000 0.000000 0.000000 -0.050171 0.000000 0.013093
#
#
# Mechanical properties :
#
#
# Convention : Reuss Voigt Hill
#
# Bulk Modulus (GPa) = 32.27118 55.41151 43.84135
# Shear Modulus (GPa) = 67.52229 31.90972 49.71601
#
# Velocity S-wave (km/s) = 5.13468 3.52981 4.40593
# Velocity P-wave (km/s) = 6.91042 6.18456 6.55754
#
# Compressibility (1/GPa) = 0.03098740
#
# Stress axis : x y z
#
# Youngs Moduli (GPa) = 128.53806 37.77364 183.34743
#
# Poissons Ratio (x) = 0.02564 0.20912
# Poissons Ratio (y) = 0.08724 0.46584
# Poissons Ratio (z) = 0.14660 0.09597
#
# Static dielectric constant tensor:
#      x y z
#    x 2.088270 0.000000 -0.010240 
#    y 0.000000 2.137050 0.000000 
#    z -0.010240 0.000000 2.045380 
# 
# From -- ./inp_files/23494.got.cif
#   From: 2010.05.17/outbox.cif.g08.bks.cpg/sg5_12_cif.got.tgz:23494.got - 2010.06.03 18:56:24.
