data_PCOD9124479
_publ_section_title
;
Structure prediction by ZEFSAII (Michael W. Deem and Ramdas Pophale) SiO2 
 PCOD9124479
Probable space group: C 2
;
_chemical_formula_sum "Si O2"
_cell_formula_units_Z 24
_cell_length_a 10.336961
_cell_length_b 9.839479
_cell_length_c 10.953595
_cell_angle_alpha 90.000000
_cell_angle_beta 105.526167
_cell_angle_gamma 90.000000
_cell_volume 1073.438388
_symmetry_space_group_name_H-M "C 2"
_symmetry_group_IT_number 5
_symmetry_cell_setting 'monoclinic'
loop_
_space_group_symop_operation_xyz
x,y,z
-x,y,-z
1/2+x,1/2+y,z
1/2-x,1/2+y,-z
loop_
_atom_site_type_symbol
_atom_site_label
_atom_site_fract_x
_atom_site_fract_y
_atom_site_fract_z
Si Si1 0.630549 0.577290 0.119131
Si Si2 0.099683 0.556772 0.261696
Si Si3 0.977592 0.290896 0.202105
Si Si4 0.706054 0.944184 0.029498
Si Si5 0.606608 0.575009 0.626265
Si Si6 0.519498 0.353465 0.779879
O O1 0.614270 0.712954 0.194981
O O2 0.602075 0.443469 0.193426
O O3 0.500000 0.583218 0.000000
O O4 0.756107 0.555157 0.063977
O O5 0.139714 0.512856 0.131665
O O6 0.238556 0.567762 0.370546
O O7 0.013626 0.427772 0.282568
O O8 0.024324 0.699115 0.242759
O O9 0.901167 0.179495 0.262289
O O10 0.887827 0.338320 0.065125
O O11 0.847476 0.876721 0.104125
O O12 0.500000 0.621499 0.500000
O O13 0.558480 0.429162 0.664576
#
# Coordination Sequence:
#
# PCOD9124479 Si02
#       6
#     4   4   4   4   4   4
#     4   9  18  33  52  79 119 160 191 228 285 354
#     4  11  23  37  59  90 120 156 200 249 301 356
#     4  11  23  37  58  90 121 154 198 247 300 359
#     4  10  21  35  58  89 128 160 189 237 303 370
#     4  10  24  46  64  82 117 164 211 255 297 345
#     4   9  21  38  59  88 120 158 200 246 298 356
#
# _framework density 22.358059999999998
#
# number of rings (size 3 to 8) (size 9 to 14) (size 15 to 20)
#    0.000    2.000    0.000    3.500    0.000   16.000 
#    0.000    0.833    0.000    0.000    0.000    0.000 
#    0.000    0.000    0.000    0.000    0.000    0.000 
#
# Total GULP energy -67079.158580 kJ/mol
# GULP energy per Si atom -5589.929882 kJ/mol
# Density = 2.230717 g / cm^3
# Si number density = 22.358060 Si / 1000 Ang^3
#
#
#
# Elastic Constant Matrix: (Units=GPa)
#
#
# Indices 1 2 3 4 5 6 
#
# 1 47.2798 27.7116 4.4072 0.0000 9.7854 0.0000
# 2 27.7116 170.7212 4.3486 0.0000 3.9680 0.0000
# 3 4.4072 4.3486 45.3764 0.0000 25.7682 0.0000
# 4 0.0000 0.0000 0.0000 12.7402 0.0000 0.9674
# 5 9.7854 3.9680 25.7682 0.0000 22.7187 0.0000
# 6 0.0000 0.0000 0.0000 0.9674 0.0000 36.0100
#
#
#
# Elastic Compliance Matrix: (Units=1/GPa)
#
#
# Indices 1 2 3 4 5 6 
#
# 1 0.027522 -0.004199 0.011364 0.000000 -0.024011 0.000000
# 2 -0.004199 0.006522 -0.001678 0.000000 0.002573 0.000000
# 3 0.011364 -0.001678 0.066615 0.000000 -0.080158 0.000000
# 4 0.000000 0.000000 0.000000 0.078652 0.000000 -0.002113
# 5 -0.024011 0.002573 -0.080158 0.000000 0.144827 0.000000
# 6 0.000000 0.000000 0.000000 -0.002113 0.000000 0.027827
#
#
# Mechanical properties :
#
#
# Convention : Reuss Voigt Hill
#
# Bulk Modulus (GPa) = 8.95791 37.36802 23.16297
# Shear Modulus (GPa) = 13.22046 29.42111 21.32079
#
# Velocity S-wave (km/s) = 2.43432 3.63148 3.09140
# Velocity P-wave (km/s) = 3.45202 5.85946 4.80883
#
# Compressibility (1/GPa) = 0.11163316
#
# Stress axis : x y z
#
# Youngs Moduli (GPa) = 36.33498 153.32732 15.01162
#
# Poissons Ratio (x) = 0.64378 -0.17060
# Poissons Ratio (y) = 0.15256 0.02520
# Poissons Ratio (z) = -0.41292 0.25734
#
# Static dielectric constant tensor:
#      x y z
#    x 1.882290 0.000000 -0.022280 
#    y 0.000000 1.861480 0.000000 
#    z -0.022280 0.000000 1.834980 
# 
# From -- ./inp_files/38436.got.cif
#   From: 2010.05.17/outbox.cif.g08.bks.cpg/sg5_20_cif.got.tgz:38436.got - 2010.06.03 18:56:24.
