data_PCOD9124227
_publ_section_title
;
Structure prediction by ZEFSAII (Michael W. Deem and Ramdas Pophale) SiO2 
 PCOD9124227
Probable space group: C 2
;
_chemical_formula_sum "Si O2"
_cell_formula_units_Z 22
_cell_length_a 13.371475
_cell_length_b 10.450568
_cell_length_c 14.934077
_cell_angle_alpha 90.000000
_cell_angle_beta 150.574519
_cell_angle_gamma 90.000000
_cell_volume 1025.265978
_symmetry_space_group_name_H-M "C 2"
_symmetry_group_IT_number 5
_symmetry_cell_setting 'monoclinic'
loop_
_space_group_symop_operation_xyz
x,y,z
-x,y,-z
1/2+x,1/2+y,z
1/2-x,1/2+y,-z
loop_
_atom_site_type_symbol
_atom_site_label
_atom_site_fract_x
_atom_site_fract_y
_atom_site_fract_z
Si Si1 0.874036 0.883590 0.084202
Si Si2 0.340034 0.607312 0.636438
Si Si3 0.094584 0.224744 0.992699
Si Si4 0.569970 0.722649 0.651436
Si Si5 0.000000 0.742235 0.000000
Si Si6 0.111369 0.509521 0.742588
O O1 0.978690 0.823120 0.076528
O O2 0.777665 0.783457 0.077245
O O3 0.036739 0.974164 0.258357
O O4 0.677105 0.962354 0.893510
O O5 0.422364 0.684319 0.786936
O O6 0.417559 0.682236 0.609806
O O7 0.102205 0.578076 0.441208
O O8 0.203205 0.106054 0.129445
O O9 0.000000 0.305998 0.000000
O O10 0.500000 0.684677 0.500000
O O11 0.604361 0.876461 0.682786
O O12 0.792503 0.664237 0.839903
#
# Coordination Sequence:
#
# PCOD9124227 Si02
#       6
#     4   4   4   4   2   4
#     4  10  23  44  66  96 129 170 213 269 320 384
#     4  11  24  43  65  98 130 165 220 263 326 380
#     4  11  25  44  66  95 129 173 214 265 325 380
#     4  11  24  40  66 100 124 166 217 267 318 382
#     4  10  20  42  70  88 126 162 218 268 312 364
#     4  10  24  40  69  92 127 167 216 272 312 378
#
# _framework density 21.457846
#
# number of rings (size 3 to 8) (size 9 to 14) (size 15 to 20)
#    0.000    1.455    3.636    1.091   19.091    0.000 
#    4.909    0.000    0.000    0.000    0.000    0.000 
#    0.000    0.000    0.000    0.000    0.000    0.000 
#
# Total GULP energy -61355.897613 kJ/mol
# GULP energy per Si atom -5577.808874 kJ/mol
# Density = 2.140901 g / cm^3
# Si number density = 21.457846 Si / 1000 Ang^3
#
#
#
# Elastic Constant Matrix: (Units=GPa)
#
#
# Indices 1 2 3 4 5 6 
#
# 1 151.7223 25.9933 34.4763 0.0001 -0.5093 0.0000
# 2 25.9933 18.8389 10.6144 0.0003 0.5601 0.0001
# 3 34.4763 10.6144 157.3187 0.0004 10.5055 0.0002
# 4 0.0001 0.0003 0.0004 -18.7500 0.0001 -3.5895
# 5 -0.5093 0.5601 10.5055 0.0001 31.0487 0.0000
# 6 0.0000 0.0001 0.0002 -3.5895 0.0000 -1.7056
#
#
#
# Elastic Compliance Matrix: (Units=1/GPa)
#
#
# Indices 1 2 3 4 5 6 
#
# 1 0.008847 -0.011547 -0.001211 0.000000 0.000763 -0.000001
# 2 -0.011547 0.070253 -0.002161 0.000000 -0.000726 0.000003
# 3 -0.001211 -0.002161 0.006923 0.000000 -0.002323 0.000001
# 4 0.000000 0.000000 0.000000 -0.089319 0.000000 0.187972
# 5 0.000763 -0.000726 -0.002323 0.000000 0.033019 -0.000002
# 6 -0.000001 0.000003 0.000001 0.187972 -0.000002 -0.981884
#
#
# Mechanical properties :
#
#
# Convention : Reuss Voigt Hill
#
# Bulk Modulus (GPa) = 17.79830 52.22755 35.01293
# Shear Modulus (GPa) = -5.53346 19.23834 6.85244
#
# Velocity S-wave (km/s) = -1.60759 2.99752 1.78896
# Velocity P-wave (km/s) = 2.20607 6.03097 4.54089
#
# Compressibility (1/GPa) = 0.05618513
#
# Stress axis : x y z
#
# Youngs Moduli (GPa) = 113.03324 14.23420 144.45059
#
# Poissons Ratio (x) = 0.16437 0.17488
# Poissons Ratio (y) = 1.30523 0.31216
# Poissons Ratio (z) = 0.13684 0.03076
#
# Static dielectric constant tensor:
#      x y z
#    x 1.794660 0.000000 0.012530 
#    y 0.000000 1.847040 0.000000 
#    z 0.012530 0.000000 1.790570 
# 
# From -- ./inp_files/52843.got.cif
#   From: 2010.05.17/outbox.cif.g08.bks.cpg/sg5_27_cif.got.tgz:52843.got - 2010.06.03 18:56:24.
