data_PCOD9124259
_publ_section_title
;
Structure prediction by ZEFSAII (Michael W. Deem and Ramdas Pophale) SiO2 
 PCOD9124259
Probable space group: C 2
;
_chemical_formula_sum "Si O2"
_cell_formula_units_Z 16
_cell_length_a 22.648781
_cell_length_b 5.062534
_cell_length_c 9.155452
_cell_angle_alpha 90.000000
_cell_angle_beta 143.946792
_cell_angle_gamma 90.000000
_cell_volume 617.825497
_symmetry_space_group_name_H-M "C 2"
_symmetry_group_IT_number 5
_symmetry_cell_setting 'monoclinic'
loop_
_space_group_symop_operation_xyz
x,y,z
-x,y,-z
1/2+x,1/2+y,z
1/2-x,1/2+y,-z
loop_
_atom_site_type_symbol
_atom_site_label
_atom_site_fract_x
_atom_site_fract_y
_atom_site_fract_z
Si Si1 0.862693 0.886860 0.475463
Si Si2 0.500000 0.253232 0.000000
Si Si3 0.137307 0.619609 0.024690
Si Si4 0.500000 0.253236 0.500000
Si Si5 0.749999 0.503234 0.393957
O O1 0.840250 0.575460 0.466186
O O2 0.931356 0.934782 0.756198
O O3 0.927944 0.918072 0.462792
O O4 0.840252 0.931009 0.894816
O O5 0.568644 0.071682 0.030774
O O6 0.072056 0.588399 0.751015
O O7 0.250000 0.503235 0.234802
O O8 0.762134 0.253235 0.524268
#
# Coordination Sequence:
#
# PCOD9124259 Si02
#       5
#     4   2   4   2   4
#     4  11  23  47  74 113 157 207 262 329 392 473
#     4  10  20  42  74 108 142 198 266 322 394 464
#     4  11  23  47  74 113 157 207 262 329 392 473
#     4  10  28  46  78 116 158 218 266 310 406 488
#     4  12  22  44  82 112 150 210 252 338 398 444
#
# _framework density 25.897279000000001
#
# number of rings (size 3 to 8) (size 9 to 14) (size 15 to 20)
#    0.000    1.000    5.000    0.000    3.500    0.000 
#    0.000   26.250    0.000    0.000    0.000    0.000 
#    0.000    0.000    0.000    0.000    0.000    0.000 
#
# Total GULP energy -44572.831959 kJ/mol
# GULP energy per Si atom -5571.603995 kJ/mol
# Density = 2.583834 g / cm^3
# Si number density = 25.897279 Si / 1000 Ang^3
#
#
#
# Elastic Constant Matrix: (Units=GPa)
#
#
# Indices 1 2 3 4 5 6 
#
# 1 239.5724 40.3153 122.8010 0.0000 10.0899 0.0000
# 2 40.3153 79.0917 38.5531 0.0000 6.4248 0.0000
# 3 122.8010 38.5531 233.9862 0.0000 10.2848 0.0000
# 4 0.0000 0.0000 0.0000 34.0487 0.0000 19.5031
# 5 10.0899 6.4248 10.2848 0.0000 56.2928 0.0000
# 6 0.0000 0.0000 0.0000 19.5031 0.0000 39.4014
#
#
#
# Elastic Compliance Matrix: (Units=1/GPa)
#
#
# Indices 1 2 3 4 5 6 
#
# 1 0.005904 -0.001607 -0.002818 0.000000 -0.000360 0.000000
# 2 -0.001607 0.014261 -0.001459 0.000000 -0.001073 0.000000
# 3 -0.002818 -0.001459 0.006012 0.000000 -0.000427 0.000000
# 4 0.000000 0.000000 0.000000 0.040992 0.000000 -0.020290
# 5 -0.000360 -0.001073 -0.000427 0.000000 0.018029 0.000000
# 6 0.000000 0.000000 0.000000 -0.020290 0.000000 0.035423
#
#
# Mechanical properties :
#
#
# Convention : Reuss Voigt Hill
#
# Bulk Modulus (GPa) = 69.40121 106.22101 87.81111
# Shear Modulus (GPa) = 36.44510 49.34732 42.89621
#
# Velocity S-wave (km/s) = 3.75546 4.36994 4.07430
# Velocity P-wave (km/s) = 6.75733 8.15887 7.49095
#
# Compressibility (1/GPa) = 0.01440897
#
# Stress axis : x y z
#
# Youngs Moduli (GPa) = 169.37319 70.12122 166.33514
#
# Poissons Ratio (x) = 0.11266 0.46874
# Poissons Ratio (y) = 0.27211 0.24275
# Poissons Ratio (z) = 0.47731 0.10233
#
# Static dielectric constant tensor:
#      x y z
#    x 2.173920 0.000000 0.072530 
#    y 0.000000 2.269100 0.000000 
#    z 0.072530 0.000000 2.154000 
# 
# From -- ./inp_files/25744.got.cif
#   From: 2010.05.17/outbox.cif.g08.bks.cpg/sg5_13_cif.got.tgz:25744.got - 2010.06.03 18:56:24.
