data_PCOD9124427
_publ_section_title
;
Structure prediction by ZEFSAII (Michael W. Deem and Ramdas Pophale) SiO2 
 PCOD9124427
Probable space group: C 2
;
_chemical_formula_sum "Si O2"
_cell_formula_units_Z 20
_cell_length_a 8.980769
_cell_length_b 13.454753
_cell_length_c 8.793402
_cell_angle_alpha 90.000000
_cell_angle_beta 134.519238
_cell_angle_gamma 90.000000
_cell_volume 757.608590
_symmetry_space_group_name_H-M "C 2"
_symmetry_group_IT_number 5
_symmetry_cell_setting 'monoclinic'
loop_
_space_group_symop_operation_xyz
x,y,z
-x,y,-z
1/2+x,1/2+y,z
1/2-x,1/2+y,-z
loop_
_atom_site_type_symbol
_atom_site_label
_atom_site_fract_x
_atom_site_fract_y
_atom_site_fract_z
Si Si1 0.564844 0.088200 0.718740
Si Si2 0.278159 0.326037 0.287843
Si Si3 0.589661 0.691199 0.831491
Si Si4 0.715278 0.380458 0.069011
Si Si5 0.279598 0.048965 0.748277
O O1 0.500000 0.090121 0.500000
O O2 0.356997 0.115121 0.663976
O O3 0.641752 0.975530 0.803445
O O4 0.755290 0.153926 0.921374
O O5 0.500000 0.287555 0.500000
O O6 0.258545 0.438178 0.338764
O O7 0.102233 0.252826 0.232169
O O8 0.287886 0.355839 0.114661
O O9 0.699416 0.776082 0.807870
O O10 0.600629 0.594596 0.728371
O O11 0.500000 0.402165 0.000000
O O12 0.500000 0.045728 0.000000
#
# Coordination Sequence:
#
# PCOD9124427 Si02
#       5
#     4   4   4   4   4
#     4  11  25  49  88 132 175 224 294 361 456 530
#     4  12  26  50  84 123 178 236 292 365 437 517
#     4  11  24  52  87 119 174 237 292 366 436 519
#     4  12  26  47  80 123 181 225 283 368 434 528
#     4  10  20  50  87 119 170 225 288 374 438 516
#
# _framework density 26.398855000000001
#
# number of rings (size 3 to 8) (size 9 to 14) (size 15 to 20)
#    0.000    0.800    6.000    2.400    2.800    2.400 
#    0.000   13.000    4.400    0.000    0.000    0.000 
#    0.000    0.000    0.000    0.000    0.000    0.000 
#
# Total GULP energy -55879.179994 kJ/mol
# GULP energy per Si atom -5587.917999 kJ/mol
# Density = 2.633877 g / cm^3
# Si number density = 26.398855 Si / 1000 Ang^3
#
#
#
# Elastic Constant Matrix: (Units=GPa)
#
#
# Indices 1 2 3 4 5 6 
#
# 1 235.9726 70.1062 85.1801 0.0000 6.5251 0.0000
# 2 70.1062 201.7930 57.7332 0.0000 1.5692 0.0000
# 3 85.1801 57.7332 138.8545 0.0000 1.2173 0.0000
# 4 0.0000 0.0000 0.0000 10.7493 0.0000 1.1197
# 5 6.5251 1.5692 1.2173 0.0000 45.6567 0.0000
# 6 0.0000 0.0000 0.0000 1.1197 0.0000 57.4571
#
#
#
# Elastic Compliance Matrix: (Units=1/GPa)
#
#
# Indices 1 2 3 4 5 6 
#
# 1 0.005673 -0.001103 -0.003016 0.000000 -0.000692 0.000000
# 2 -0.001103 0.005840 -0.001752 0.000000 0.000004 0.000000
# 3 -0.003016 -0.001752 0.009778 0.000000 0.000230 0.000000
# 4 0.000000 0.000000 0.000000 0.093218 0.000000 -0.001817
# 5 -0.000692 0.000004 0.000230 0.000000 0.021995 0.000000
# 6 0.000000 0.000000 0.000000 -0.001817 0.000000 0.017440
#
#
# Mechanical properties :
#
#
# Convention : Reuss Voigt Hill
#
# Bulk Modulus (GPa) = 104.70194 111.40657 108.05425
# Shear Modulus (GPa) = 29.60899 47.01266 38.31082
#
# Velocity S-wave (km/s) = 3.35266 4.22460 3.81363
# Velocity P-wave (km/s) = 7.39830 8.12953 7.77252
#
# Compressibility (1/GPa) = 0.00955092
#
# Stress axis : x y z
#
# Youngs Moduli (GPa) = 176.27026 171.23839 102.27088
#
# Poissons Ratio (x) = 0.18884 0.30841
# Poissons Ratio (y) = 0.19439 0.17914
# Poissons Ratio (z) = 0.53156 0.29994
#
# Static dielectric constant tensor:
#      x y z
#    x 2.090420 0.000000 -0.019560 
#    y 0.000000 2.188130 0.000000 
#    z -0.019560 0.000000 2.186340 
# 
# From -- ./inp_files/19903.got.cif
#   From: 2010.05.17/outbox.cif.g08.bks.cpg/sg5_10_cif.got.tgz:19903.got - 2010.06.03 18:56:24.
