data_PCOD9124763
_publ_section_title
;
Structure prediction by ZEFSAII (Michael W. Deem and Ramdas Pophale) SiO2 
 PCOD9124763
Probable space group: C 2
;
_chemical_formula_sum "Si O2"
_cell_formula_units_Z 32
_cell_length_a 18.666162
_cell_length_b 16.406278
_cell_length_c 5.440388
_cell_angle_alpha 90.000000
_cell_angle_beta 131.340953
_cell_angle_gamma 90.000000
_cell_volume 1250.877327
_symmetry_space_group_name_H-M "C 2"
_symmetry_group_IT_number 5
_symmetry_cell_setting 'monoclinic'
loop_
_space_group_symop_operation_xyz
x,y,z
-x,y,-z
1/2+x,1/2+y,z
1/2-x,1/2+y,-z
loop_
_atom_site_type_symbol
_atom_site_label
_atom_site_fract_x
_atom_site_fract_y
_atom_site_fract_z
Si Si1 0.832493 0.458080 0.313470
Si Si2 0.035163 0.866034 0.327048
Si Si3 0.259340 0.237809 0.318898
Si Si4 0.259676 0.407012 0.409190
Si Si5 0.700608 0.639494 0.577523
Si Si6 0.035541 0.049453 0.331826
Si Si7 0.097860 0.286591 0.573311
Si Si8 0.391454 0.137387 0.336602
O O1 0.755423 0.455016 0.367045
O O2 0.897917 0.378562 0.522177
O O3 0.879231 0.547129 0.423672
O O4 0.807056 0.441670 0.963710
O O5 0.143961 0.889955 0.529664
O O6 0.000000 0.828722 0.500000
O O7 0.990388 0.958583 0.230420
O O8 0.000000 0.825089 0.000000
O O9 0.255014 0.312033 0.499712
O O10 0.217698 0.153717 0.329892
O O11 0.361375 0.211091 0.449228
O O12 0.188625 0.274020 0.958120
O O13 0.649226 0.559244 0.562132
O O14 0.622619 0.710343 0.457426
O O15 0.805115 0.645761 0.939136
O O16 0.000000 0.088910 0.500000
O O17 0.000000 0.086749 0.000000
O O18 0.000000 0.278149 0.500000
O O19 0.500000 0.144314 0.500000
#
# Coordination Sequence:
#
# PCOD9124763 Si02
#       8
#     4   4   4   4   4   4   4   4
#     4  11  24  45  73 103 139 189 239 296 365 429
#     4  10  21  38  60  96 130 172 228 279 344 413
#     4  10  25  44  68 100 141 185 241 292 365 429
#     4  11  23  46  70  99 140 188 237 300 356 429
#     4  11  23  42  66 100 136 188 230 288 359 426
#     4  10  23  37  63 100 138 172 215 275 347 425
#     4  10  22  42  68 102 142 180 234 297 362 439
#     4  11  27  47  70 103 144 196 250 303 358 432
#
# _framework density 25.582045000000001
#
# number of rings (size 3 to 8) (size 9 to 14) (size 15 to 20)
#    0.000    1.500    1.250    2.250    8.750    2.000 
#    2.250    1.250    0.000    0.000    0.000    0.000 
#    0.000    0.000    0.000    0.000    0.000    0.000 
#
# Total GULP energy -89118.459261 kJ/mol
# GULP energy per Si atom -5569.903704 kJ/mol
# Density = 2.552382 g / cm^3
# Si number density = 25.582045 Si / 1000 Ang^3
#
#
#
# Elastic Constant Matrix: (Units=GPa)
#
#
# Indices 1 2 3 4 5 6 
#
# 1 187.2092 46.9159 43.5301 0.0000 3.3984 0.0000
# 2 46.9159 152.0026 18.0167 0.0000 5.9349 0.0000
# 3 43.5301 18.0167 67.4856 0.0000 -5.7439 0.0000
# 4 0.0000 0.0000 0.0000 9.6824 0.0000 15.7433
# 5 3.3984 5.9349 -5.7439 0.0000 47.7388 0.0000
# 6 0.0000 0.0000 0.0000 15.7433 0.0000 25.3773
#
#
#
# Elastic Compliance Matrix: (Units=1/GPa)
#
#
# Indices 1 2 3 4 5 6 
#
# 1 0.006664 -0.001560 -0.003946 0.000000 -0.000755 0.000000
# 2 -0.001560 0.007214 -0.000997 0.000000 -0.000906 0.000000
# 3 -0.003946 -0.000997 0.017847 0.000000 0.002552 0.000000
# 4 0.000000 0.000000 0.000000-11.869525 0.000000 7.363505
# 5 -0.000755 -0.000906 0.002552 0.000000 0.021421 0.000000
# 6 0.000000 0.000000 0.000000 7.363505 0.000000 -4.528697
#
#
# Mechanical properties :
#
#
# Convention : Reuss Voigt Hill
#
# Bulk Modulus (GPa) = 53.42244 69.29144 61.35694
# Shear Modulus (GPa) = -0.30626 36.44200 18.06787
#
# Velocity S-wave (km/s) = -0.34638 3.77837 2.66046
# Velocity P-wave (km/s) = 4.55721 6.79555 5.78566
#
# Compressibility (1/GPa) = 0.01871872
#
# Stress axis : x y z
#
# Youngs Moduli (GPa) = 150.06574 138.62455 56.03239
#
# Poissons Ratio (x) = 0.21619 0.22112
# Poissons Ratio (y) = 0.23403 0.05586
# Poissons Ratio (z) = 0.59220 0.13821
#
# Static dielectric constant tensor:
#      x y z
#    x 2.048390 0.000000 -0.001440 
#    y 0.000000 2.230020 0.000000 
#    z -0.001440 0.000000 2.079680 
# 
# From -- ./inp_files/8956.got.cif
#   From: 2010.05.17/outbox.cif.g08.bks.cpg/sg5_5_cif.got.tgz:8956.got - 2010.06.03 18:56:24.
