data_PCOD9124035
_publ_section_title
;
Structure prediction by ZEFSAII (Michael W. Deem and Ramdas Pophale) SiO2 
 PCOD9124035
Probable space group: C 2
;
_chemical_formula_sum "Si O2"
_cell_formula_units_Z 28
_cell_length_a 17.215159
_cell_length_b 7.935595
_cell_length_c 13.219737
_cell_angle_alpha 90.000000
_cell_angle_beta 43.321742
_cell_angle_gamma 90.000000
_cell_volume 1239.074068
_symmetry_space_group_name_H-M "C 2"
_symmetry_group_IT_number 5
_symmetry_cell_setting 'monoclinic'
loop_
_space_group_symop_operation_xyz
x,y,z
-x,y,-z
1/2+x,1/2+y,z
1/2-x,1/2+y,-z
loop_
_atom_site_type_symbol
_atom_site_label
_atom_site_fract_x
_atom_site_fract_y
_atom_site_fract_z
Si Si1 0.372452 0.090970 0.590848
Si Si2 0.128697 0.878460 0.042670
Si Si3 0.724409 0.099724 0.820704
Si Si4 0.406562 0.321609 0.377780
Si Si5 0.018110 0.128003 0.369182
Si Si6 0.298238 0.778007 0.564579
Si Si7 0.723236 0.750562 0.906279
O O1 0.500000 0.063689 0.500000
O O2 0.380100 0.159992 0.469959
O O3 0.312265 0.200206 0.733796
O O4 0.308997 0.916276 0.641635
O O5 0.212962 0.811845 0.052219
O O6 0.003157 0.837335 0.201501
O O7 0.150603 0.755666 0.928284
O O8 0.152412 0.077912 0.997037
O O9 0.749924 0.119009 0.676043
O O10 0.846843 0.115734 0.764267
O O11 0.670699 0.922241 0.908502
O O12 0.461891 0.446755 0.407353
O O13 0.288272 0.350255 0.434492
O O14 0.924387 0.241406 0.399806
O O15 0.000000 0.184073 0.500000
#
# Coordination Sequence:
#
# PCOD9124035 Si02
#       7
#     4   4   4   4   4   4   4
#     4  12  22  41  70 105 129 183 242 287 347 417
#     4  12  24  41  70 102 138 183 235 291 353 426
#     4  11  22  44  69 101 137 179 242 294 344 424
#     4  12  24  43  65 102 147 183 225 296 361 421
#     4  10  20  41  66  97 131 183 232 295 344 409
#     4  11  25  40  69  99 147 185 228 293 369 422
#     4  12  23  41  74 105 134 182 243 298 352 413
#
# _framework density 22.597518999999998
#
# number of rings (size 3 to 8) (size 9 to 14) (size 15 to 20)
#    0.000    0.571    5.714    4.286    0.000    0.571 
#    2.571    0.000    3.143    0.000    0.000    0.000 
#    0.000    0.000    0.000    0.000    0.000    0.000 
#
# Total GULP energy -77990.631108 kJ/mol
# GULP energy per Si atom -5570.759365 kJ/mol
# Density = 2.254609 g / cm^3
# Si number density = 22.597519 Si / 1000 Ang^3
#
#
#
# Elastic Constant Matrix: (Units=GPa)
#
#
# Indices 1 2 3 4 5 6 
#
# 1 62.4484 2.3084 7.2572 -0.0001 -4.7509 0.0001
# 2 2.3084 102.9891 43.4807 -0.0003 10.6275 0.0003
# 3 7.2572 43.4807 95.7404 -0.0001 3.1781 0.0001
# 4 -0.0001 -0.0003 -0.0001 29.5427 0.0001 9.5432
# 5 -4.7509 10.6275 3.1781 0.0001 10.9054 -0.0001
# 6 0.0001 0.0003 0.0001 9.5432 -0.0001 37.3388
#
#
#
# Elastic Compliance Matrix: (Units=1/GPa)
#
#
# Indices 1 2 3 4 5 6 
#
# 1 0.016821 -0.000726 -0.001224 0.000000 0.008392 0.000000
# 2 -0.000726 0.013288 -0.005594 0.000000 -0.011636 0.000000
# 3 -0.001224 -0.005594 0.013041 0.000000 0.001117 0.000000
# 4 0.000000 0.000000 0.000000 0.036895 -0.000001 -0.009430
# 5 0.008392 -0.011636 0.001117 -0.000001 0.106368 0.000001
# 6 0.000000 0.000000 0.000000 -0.009430 0.000001 0.029192
#
#
# Mechanical properties :
#
#
# Convention : Reuss Voigt Hill
#
# Bulk Modulus (GPa) = 35.63467 40.80785 38.22126
# Shear Modulus (GPa) = 20.82927 29.43283 25.13105
#
# Velocity S-wave (km/s) = 3.03933 3.61290 3.33846
# Velocity P-wave (km/s) = 5.30285 5.95834 5.64013
#
# Compressibility (1/GPa) = 0.02806256
#
# Stress axis : x y z
#
# Youngs Moduli (GPa) = 59.45032 75.25401 76.68169
#
# Poissons Ratio (x) = 0.05466 0.09384
# Poissons Ratio (y) = 0.04318 0.42893
# Poissons Ratio (z) = 0.07275 0.42094
#
# Static dielectric constant tensor:
#      x y z
#    x 1.718940 0.000000 -0.047600 
#    y 0.000000 1.924480 0.000000 
#    z -0.047600 0.000000 1.845360 
# 
# From -- ./inp_files/55716.got.cif
#   From: 2010.05.17/outbox.cif.g08.bks.cpg/sg5_28_cif.got.tgz:55716.got - 2010.06.03 18:56:24.
