data_PCOD9124073
_publ_section_title
;
Structure prediction by ZEFSAII (Michael W. Deem and Ramdas Pophale) SiO2 
 PCOD9124073
Probable space group: C 2
;
_chemical_formula_sum "Si O2"
_cell_formula_units_Z 24
_cell_length_a 8.612492
_cell_length_b 17.823083
_cell_length_c 9.293892
_cell_angle_alpha 90.000000
_cell_angle_beta 49.758904
_cell_angle_gamma 90.000000
_cell_volume 1088.988383
_symmetry_space_group_name_H-M "C 2"
_symmetry_group_IT_number 5
_symmetry_cell_setting 'monoclinic'
loop_
_space_group_symop_operation_xyz
x,y,z
-x,y,-z
1/2+x,1/2+y,z
1/2-x,1/2+y,-z
loop_
_atom_site_type_symbol
_atom_site_label
_atom_site_fract_x
_atom_site_fract_y
_atom_site_fract_z
Si Si1 0.221839 0.012640 0.444156
Si Si2 0.715033 0.733646 0.834660
Si Si3 0.548429 0.350030 0.137472
Si Si4 0.939480 0.621676 0.884589
Si Si5 0.216645 0.842408 0.450707
Si Si6 0.543122 0.523273 0.142163
O O1 0.384113 0.065879 0.272384
O O2 0.000000 0.015296 0.500000
O O3 0.306042 0.926564 0.391852
O O4 0.157995 0.039238 0.642923
O O5 0.765218 0.801846 0.914029
O O6 0.885649 0.674812 0.781399
O O7 0.696839 0.771994 0.689010
O O8 0.500000 0.698213 0.000000
O O9 0.347278 0.326366 0.347749
O O10 0.592109 0.436569 0.149638
O O11 0.500000 0.343569 0.000000
O O12 0.736839 0.575534 0.048305
O O13 0.000000 0.661163 0.000000
O O14 0.000000 0.850561 0.500000
O O15 0.500000 0.524354 0.000000
#
# Coordination Sequence:
#
# PCOD9124073 Si02
#       6
#     4   4   4   4   4   4
#     4  10  20  41  70  98 129 176 233 279 326 397
#     4  11  24  41  63  97 138 178 224 271 342 400
#     4   9  19  41  69  94 132 174 229 281 326 392
#     4  12  25  41  68  99 140 180 227 272 348 399
#     4   8  18  38  65  97 124 171 228 272 326 398
#     4  10  22  42  67 103 136 175 226 283 329 400
#
# _framework density 22.038803999999999
#
# number of rings (size 3 to 8) (size 9 to 14) (size 15 to 20)
#    0.000    2.000    1.667    2.000    2.333    0.667 
#   18.000    0.833    0.000    0.000    0.000    0.000 
#    0.000    0.000    0.000    0.000    0.000    0.000 
#
# Total GULP energy -66912.369659 kJ/mol
# GULP energy per Si atom -5576.030805 kJ/mol
# Density = 2.198864 g / cm^3
# Si number density = 22.038804 Si / 1000 Ang^3
#
#
#
# Elastic Constant Matrix: (Units=GPa)
#
#
# Indices 1 2 3 4 5 6 
#
# 1 40.3057 16.0187 26.7387 0.0000 11.0358 0.0000
# 2 16.0187 84.6542 44.3798 0.0000 -9.6064 0.0000
# 3 26.7387 44.3798 125.6657 0.0000 27.8023 0.0000
# 4 0.0000 0.0000 0.0000 10.8235 0.0000 -18.7219
# 5 11.0358 -9.6064 27.8023 0.0000 38.0851 0.0000
# 6 0.0000 0.0000 0.0000 -18.7219 0.0000 3.8598
#
#
#
# Elastic Compliance Matrix: (Units=1/GPa)
#
#
# Indices 1 2 3 4 5 6 
#
# 1 0.031101 -0.005272 -0.002943 0.000000 -0.008194 0.000000
# 2 -0.005272 0.018387 -0.008033 0.000000 0.012030 0.000000
# 3 -0.002943 -0.008033 0.013930 0.000000 -0.011343 0.000000
# 4 0.000000 0.000000 0.000000 -0.012502 0.000000 -0.060641
# 5 -0.008194 0.012030 -0.011343 0.000000 0.039946 0.000000
# 6 0.000000 0.000000 0.000000 -0.060641 0.000000 -0.035058
#
#
# Mechanical properties :
#
#
# Convention : Reuss Voigt Hill
#
# Bulk Modulus (GPa) = 32.33940 47.21112 39.77526
# Shear Modulus (GPa) = 50.70567 21.45289 36.07928
#
# Velocity S-wave (km/s) = 4.80181 3.12334 4.05047
# Velocity P-wave (km/s) = 6.74158 5.87157 6.32156
#
# Compressibility (1/GPa) = 0.03092203
#
# Stress axis : x y z
#
# Youngs Moduli (GPa) = 32.15281 54.38670 71.78633
#
# Poissons Ratio (x) = 0.28673 0.21127
# Poissons Ratio (y) = 0.16951 0.57667
# Poissons Ratio (z) = 0.09463 0.43690
#
# Static dielectric constant tensor:
#      x y z
#    x 1.830780 0.000000 0.051290 
#    y 0.000000 1.848210 0.000000 
#    z 0.051290 0.000000 1.885740 
# 
# From -- ./inp_files/16695.got.cif
#   From: 2010.05.17/outbox.cif.g08.bks.cpg/sg5_9_cif.got.tgz:16695.got - 2010.06.03 18:56:24.
