data_PCOD9124041
_publ_section_title
;
Structure prediction by ZEFSAII (Michael W. Deem and Ramdas Pophale) SiO2 
 PCOD9124041
Probable space group: C 2
;
_chemical_formula_sum "Si O2"
_cell_formula_units_Z 26
_cell_length_a 8.929383
_cell_length_b 13.576670
_cell_length_c 10.752423
_cell_angle_alpha 90.000000
_cell_angle_beta 59.293525
_cell_angle_gamma 90.000000
_cell_volume 1120.768076
_symmetry_space_group_name_H-M "C 2"
_symmetry_group_IT_number 5
_symmetry_cell_setting 'monoclinic'
loop_
_space_group_symop_operation_xyz
x,y,z
-x,y,-z
1/2+x,1/2+y,z
1/2-x,1/2+y,-z
loop_
_atom_site_type_symbol
_atom_site_label
_atom_site_fract_x
_atom_site_fract_y
_atom_site_fract_z
Si Si1 0.181101 0.558140 0.158015
Si Si2 0.000000 0.923153 0.000000
Si Si3 0.680841 0.271180 0.491115
Si Si4 0.269884 0.073690 0.147974
Si Si5 0.411406 0.593904 0.405567
Si Si6 0.007068 0.746902 0.819067
Si Si7 0.341154 0.956500 0.362676
O O1 0.145543 0.676287 0.173160
O O2 0.024578 0.509840 0.302378
O O3 0.353012 0.496470 0.115232
O O4 0.169833 0.540127 0.012709
O O5 0.943125 0.843882 0.918137
O O6 0.500000 0.292728 0.500000
O O7 0.752327 0.162870 0.436527
O O8 0.634903 0.278548 0.655042
O O9 0.836389 0.341260 0.381398
O O10 0.373042 0.171776 0.149213
O O11 0.292669 0.991667 0.244473
O O12 0.063853 0.094234 0.240932
O O13 0.500000 0.627528 0.500000
O O14 0.315541 0.493188 0.482650
#
# Coordination Sequence:
#
# PCOD9124041 Si02
#       7
#     4   2   4   4   4   4   4
#     4  11  24  46  72 104 143 185 252 310 361 437
#     4  12  28  42  78 108 144 202 246 302 384 442
#     4  12  25  39  67 106 146 181 241 306 361 442
#     4  10  20  44  74  92 138 192 236 302 361 432
#     4  10  20  41  67  93 128 188 237 280 366 430
#     4  11  23  49  69 105 148 193 245 305 372 442
#     4  10  22  41  66  97 132 185 237 286 360 433
#
# _framework density 23.198376
#
# number of rings (size 3 to 8) (size 9 to 14) (size 15 to 20)
#    0.000    1.231    6.154    2.769    6.462    1.231 
#    0.000    0.769    0.000    0.000    0.000    0.000 
#    0.000    0.000    0.000    0.000    0.000    0.000 
#
# Total GULP energy -72559.789574 kJ/mol
# GULP energy per Si atom -5581.522275 kJ/mol
# Density = 2.314558 g / cm^3
# Si number density = 23.198376 Si / 1000 Ang^3
#
#
#
# Elastic Constant Matrix: (Units=GPa)
#
#
# Indices 1 2 3 4 5 6 
#
# 1 52.2915 37.2921 25.8395 0.0000 -14.6600 0.0000
# 2 37.2921 94.2319 21.2241 0.0000 -5.0540 0.0000
# 3 25.8395 21.2241 88.5271 0.0000 -25.9541 0.0000
# 4 0.0000 0.0000 0.0000 39.6996 0.0000 -8.2055
# 5 -14.6600 -5.0540 -25.9541 0.0000 37.4336 0.0000
# 6 0.0000 0.0000 0.0000 -8.2055 0.0000 15.7609
#
#
#
# Elastic Compliance Matrix: (Units=1/GPa)
#
#
# Indices 1 2 3 4 5 6 
#
# 1 0.031232 -0.010998 -0.004178 0.000000 0.007850 0.000000
# 2 -0.010998 0.015096 -0.001349 0.000000 -0.003204 0.000000
# 3 -0.004178 -0.001349 0.015445 0.000000 0.008890 0.000000
# 4 0.000000 0.000000 0.000000 0.028227 0.000000 0.014695
# 5 0.007850 -0.003204 0.008890 0.000000 0.035520 0.000000
# 6 0.000000 0.000000 0.000000 0.014695 0.000000 0.071099
#
#
# Mechanical properties :
#
#
# Convention : Reuss Voigt Hill
#
# Bulk Modulus (GPa) = 34.81321 44.86244 39.83783
# Shear Modulus (GPa) = 20.89928 28.62515 24.76222
#
# Velocity S-wave (km/s) = 3.00475 3.51654 3.27067
# Velocity P-wave (km/s) = 5.20359 5.98905 5.61008
#
# Compressibility (1/GPa) = 0.02872473
#
# Stress axis : x y z
#
# Youngs Moduli (GPa) = 32.01836 66.24075 64.74492
#
# Poissons Ratio (x) = 0.72852 0.27050
# Poissons Ratio (y) = 0.35214 0.08731
# Poissons Ratio (z) = 0.13377 0.08933
#
# Static dielectric constant tensor:
#      x y z
#    x 1.938410 0.000000 0.040770 
#    y 0.000000 1.818020 0.000000 
#    z 0.040770 0.000000 1.892140 
# 
# From -- ./inp_files/36030.got.cif
#   From: 2010.05.17/outbox.cif.g08.bks.cpg/sg5_19_cif.got.tgz:36030.got - 2010.06.03 18:56:24.
