data_PCOD9124712
_publ_section_title
;
Structure prediction by ZEFSAII (Michael W. Deem and Ramdas Pophale) SiO2 
 PCOD9124712
Probable space group: C 2
;
_chemical_formula_sum "Si O2"
_cell_formula_units_Z 32
_cell_length_a 13.445646
_cell_length_b 7.508221
_cell_length_c 22.922403
_cell_angle_alpha 90.000000
_cell_angle_beta 37.786825
_cell_angle_gamma 90.000000
_cell_volume 1417.897079
_symmetry_space_group_name_H-M "C 2"
_symmetry_group_IT_number 5
_symmetry_cell_setting 'monoclinic'
loop_
_space_group_symop_operation_xyz
x,y,z
-x,y,-z
1/2+x,1/2+y,z
1/2-x,1/2+y,-z
loop_
_atom_site_type_symbol
_atom_site_label
_atom_site_fract_x
_atom_site_fract_y
_atom_site_fract_z
Si Si1 0.823753 0.133050 0.596551
Si Si2 0.511030 0.252202 0.284908
Si Si3 0.640992 0.005645 0.984213
Si Si4 0.262047 0.300246 0.259944
Si Si5 0.966382 0.511588 0.415706
Si Si6 0.393361 0.207871 0.881379
Si Si7 0.220585 0.271965 0.587875
Si Si8 0.113134 0.149786 0.215245
O O1 0.681325 0.256389 0.637529
O O2 0.782070 0.119809 0.684162
O O3 0.000000 0.203147 0.500000
O O4 0.809168 0.941752 0.573545
O O5 0.519890 0.151221 0.340911
O O6 0.579065 0.140468 0.197663
O O7 0.595029 0.443450 0.244497
O O8 0.779681 0.135192 0.892474
O O9 0.727232 0.816727 0.955526
O O10 0.500000 0.996993 0.000000
O O11 0.592593 0.078401 0.070168
O O12 0.451025 0.338386 0.180620
O O13 0.209130 0.267455 0.218460
O O14 0.142144 0.433453 0.349329
O O15 0.867362 0.350158 0.429993
O O16 0.847421 0.618109 0.513274
O O17 0.071790 0.216648 0.698557
#
# Coordination Sequence:
#
# PCOD9124712 Si02
#       8
#     4   4   4   4   4   4   4   4
#     4  10  23  38  53  86 129 170 221 270 327 382
#     4   9  21  40  62  89 129 167 222 276 330 401
#     4  11  23  46  72  99 134 176 222 285 353 410
#     4  10  22  41  64  92 135 169 219 279 333 402
#     4  10  21  37  67  92 129 177 225 269 334 398
#     4  10  23  46  67 101 132 171 225 280 344 412
#     4  10  22  37  61  91 128 176 224 272 334 396
#     4  10  21  40  68  93 126 171 220 276 342 404
#
# _framework density 22.568635
#
# number of rings (size 3 to 8) (size 9 to 14) (size 15 to 20)
#    0.000    2.000    1.250    0.750   10.500    4.000 
#   11.250    0.000    0.000    0.000    0.000    0.000 
#    0.000    0.000    0.000    0.000    0.000    0.000 
#
# Total GULP energy -89273.680041 kJ/mol
# GULP energy per Si atom -5579.605003 kJ/mol
# Density = 2.251727 g / cm^3
# Si number density = 22.568635 Si / 1000 Ang^3
#
#
#
# Elastic Constant Matrix: (Units=GPa)
#
#
# Indices 1 2 3 4 5 6 
#
# 1 63.0565 12.7724 25.1599 0.0000 -6.4420 0.0001
# 2 12.7724 37.6508 18.9697 0.0000 -4.8448 0.0001
# 3 25.1599 18.9697 95.1054 0.0000 -9.2956 0.0000
# 4 0.0000 0.0000 0.0000 35.9044 0.0000 -2.5872
# 5 -6.4420 -4.8448 -9.2956 0.0000 30.6485 0.0000
# 6 0.0001 0.0001 0.0000 -2.5872 0.0000 13.5238
#
#
#
# Elastic Compliance Matrix: (Units=1/GPa)
#
#
# Indices 1 2 3 4 5 6 
#
# 1 0.018431 -0.004038 -0.003869 0.000000 0.002062 0.000000
# 2 -0.004038 0.030676 -0.004802 0.000000 0.002544 0.000000
# 3 -0.003869 -0.004802 0.012719 0.000000 0.002285 0.000000
# 4 0.000000 0.000000 0.000000 0.028241 0.000000 0.005403
# 5 0.002062 0.002544 0.002285 0.000000 0.034157 0.000000
# 6 0.000000 0.000000 0.000000 0.005403 0.000000 0.074978
#
#
# Mechanical properties :
#
#
# Convention : Reuss Voigt Hill
#
# Bulk Modulus (GPa) = 27.46530 34.40186 30.93358
# Shear Modulus (GPa) = 21.11880 25.27605 23.19742
#
# Velocity S-wave (km/s) = 3.06234 3.35022 3.20951
# Velocity P-wave (km/s) = 4.96991 5.49923 5.24126
#
# Compressibility (1/GPa) = 0.03640958
#
# Stress axis : x y z
#
# Youngs Moduli (GPa) = 54.25619 32.59841 78.62045
#
# Poissons Ratio (x) = 0.13162 0.30418
# Poissons Ratio (y) = 0.21907 0.37752
# Poissons Ratio (z) = 0.20991 0.15653
#
# Static dielectric constant tensor:
#      x y z
#    x 1.914560 0.000000 0.033170 
#    y 0.000000 1.869350 0.000000 
#    z 0.033170 0.000000 1.856240 
# 
# From -- ./inp_files/68760.got.cif
#   From: 2010.05.17/outbox.cif.g08.bks.cpg/sg5_35_cif.got.tgz:68760.got - 2010.06.03 18:56:24.
