data_PCOD9124113
_publ_section_title
;
Structure prediction by ZEFSAII (Michael W. Deem and Ramdas Pophale) SiO2 
 PCOD9124113
Probable space group: C 2
;
_chemical_formula_sum "Si O2"
_cell_formula_units_Z 28
_cell_length_a 21.808225
_cell_length_b 10.969116
_cell_length_c 12.087837
_cell_angle_alpha 90.000000
_cell_angle_beta 25.519191
_cell_angle_gamma 90.000000
_cell_volume 1245.746675
_symmetry_space_group_name_H-M "C 2"
_symmetry_group_IT_number 5
_symmetry_cell_setting 'monoclinic'
loop_
_space_group_symop_operation_xyz
x,y,z
-x,y,-z
1/2+x,1/2+y,z
1/2-x,1/2+y,-z
loop_
_atom_site_type_symbol
_atom_site_label
_atom_site_fract_x
_atom_site_fract_y
_atom_site_fract_z
Si Si1 0.113112 0.806750 0.228067
Si Si2 0.249336 0.863449 0.362592
Si Si3 0.100688 0.291122 0.102726
Si Si4 0.010665 0.036972 0.678262
Si Si5 0.584196 0.983054 0.709544
Si Si6 0.542468 0.232213 0.098978
Si Si7 0.368895 0.469692 0.136018
O O1 0.000000 0.752462 0.500000
O O2 0.102410 0.739799 0.126875
O O3 0.060953 0.945633 0.292067
O O4 0.268630 0.806426 0.026570
O O5 0.358278 0.904947 0.280149
O O6 0.114866 0.793291 0.634105
O O7 0.324040 0.787491 0.142767
O O8 0.168027 0.982653 0.443741
O O9 0.005311 0.180638 0.305245
O O10 0.997673 0.403729 0.248113
O O11 0.911435 0.014519 0.946868
O O12 0.728453 0.024831 0.415368
O O13 0.483889 0.096822 0.899532
O O14 0.634214 0.321954 0.872277
O O15 0.500000 0.501943 0.000000
#
# Coordination Sequence:
#
# PCOD9124113 Si02
#       7
#     4   4   4   4   4   4   4
#     4  10  21  47  66  92 134 181 236 278 346 398
#     4  10  22  45  63 101 134 171 223 278 351 406
#     4  12  25  40  68 102 129 176 235 279 333 414
#     4  10  23  41  69  93 131 183 222 282 342 399
#     4  12  25  39  66 104 134 172 226 274 348 416
#     4  10  23  42  67  93 133 183 218 282 339 398
#     4  10  20  42  63  91 134 176 214 269 346 405
#
# _framework density 22.476481
#
# number of rings (size 3 to 8) (size 9 to 14) (size 15 to 20)
#    0.000    1.714    5.714    1.286    4.000    3.429 
#    0.000    2.857    0.000    0.000    0.000    0.000 
#    0.000    0.000    0.000    0.000    0.000    0.000 
#
# Total GULP energy -78172.395340 kJ/mol
# GULP energy per Si atom -5583.742524 kJ/mol
# Density = 2.242532 g / cm^3
# Si number density = 22.476481 Si / 1000 Ang^3
#
#
#
# Elastic Constant Matrix: (Units=GPa)
#
#
# Indices 1 2 3 4 5 6 
#
# 1 131.0749 27.5979 11.3565 0.0000 -14.8225 0.0000
# 2 27.5979 74.4838 -4.1025 0.0000 -21.3960 0.0000
# 3 11.3565 -4.1025 61.4217 0.0000 -9.6836 0.0000
# 4 0.0000 0.0000 0.0000 27.5455 0.0000 11.8969
# 5 -14.8225 -21.3960 -9.6836 0.0000 44.1335 0.0000
# 6 0.0000 0.0000 0.0000 11.8969 0.0000 -8.0702
#
#
#
# Elastic Compliance Matrix: (Units=1/GPa)
#
#
# Indices 1 2 3 4 5 6 
#
# 1 0.008507 -0.002928 -0.001597 0.000000 0.001087 0.000000
# 2 -0.002928 0.016930 0.002912 0.000000 0.007863 0.000000
# 3 -0.001597 0.002912 0.017515 0.000000 0.004718 0.000000
# 4 0.000000 0.000000 0.000000 0.022181 0.000000 0.032699
# 5 0.001087 0.007863 0.004718 0.000000 0.027871 0.000000
# 6 0.000000 0.000000 0.000000 0.032699 0.000000 -0.075709
#
#
# Mechanical properties :
#
#
# Convention : Reuss Voigt Hill
#
# Bulk Modulus (GPa) = 25.17284 37.40934 31.29109
# Shear Modulus (GPa) = 148.09673 28.19699 88.14686
#
# Velocity S-wave (km/s) = 8.12605 3.54575 6.26917
# Velocity P-wave (km/s) = 9.96331 5.78299 8.14587
#
# Compressibility (1/GPa) = 0.03972535
#
# Stress axis : x y z
#
# Youngs Moduli (GPa) = 117.55073 59.06818 57.09551
#
# Poissons Ratio (x) = 0.17293 0.09118
# Poissons Ratio (y) = 0.34414 -0.16625
# Poissons Ratio (z) = 0.18773 -0.17199
#
# Static dielectric constant tensor:
#      x y z
#    x 1.746740 0.000000 -0.050820 
#    y 0.000000 1.904490 0.000000 
#    z -0.050820 0.000000 1.726780 
# 
# From -- ./inp_files/38867.got.cif
#   From: 2010.05.17/outbox.cif.g08.bks.cpg/sg5_20_cif.got.tgz:38867.got - 2010.06.03 18:56:24.
