data_PCOD9124199
_publ_section_title
;
Structure prediction by ZEFSAII (Michael W. Deem and Ramdas Pophale) SiO2 
 PCOD9124199
Probable space group: C 2
;
_chemical_formula_sum "Si O2"
_cell_formula_units_Z 22
_cell_length_a 10.867715
_cell_length_b 9.064643
_cell_length_c 13.562202
_cell_angle_alpha 90.000000
_cell_angle_beta 131.583623
_cell_angle_gamma 90.000000
_cell_volume 999.340957
_symmetry_space_group_name_H-M "C 2"
_symmetry_group_IT_number 5
_symmetry_cell_setting 'monoclinic'
loop_
_space_group_symop_operation_xyz
x,y,z
-x,y,-z
1/2+x,1/2+y,z
1/2-x,1/2+y,-z
loop_
_atom_site_type_symbol
_atom_site_label
_atom_site_fract_x
_atom_site_fract_y
_atom_site_fract_z
Si Si1 0.653402 0.829730 0.687547
Si Si2 0.500000 0.391267 0.500000
Si Si3 0.148252 0.750342 0.014905
Si Si4 0.064202 0.073028 0.923270
Si Si5 0.185807 0.163286 0.517433
Si Si6 0.772046 0.648854 0.349396
O O1 0.732938 0.812160 0.836009
O O2 0.746365 0.729957 0.653509
O O3 0.468654 0.768893 0.589552
O O4 0.660018 0.998186 0.658608
O O5 0.611356 0.501454 0.495134
O O6 0.373447 0.291633 0.370030
O O7 0.259989 0.645104 0.007742
O O8 0.000000 0.678919 0.000000
O O9 0.079792 0.895397 0.922700
O O10 0.921253 0.140373 0.778435
O O11 0.000000 0.101056 0.000000
O O12 0.296047 0.156045 0.480207
#
# Coordination Sequence:
#
# PCOD9124199 Si02
#       6
#     4   2   4   4   4   4
#     4  10  20  42  68  90 135 175 221 273 342 397
#     4  10  24  38  62 102 128 162 224 262 340 396
#     4  11  23  48  67  99 135 185 229 285 331 403
#     4  11  25  45  69  98 138 179 234 280 337 397
#     4  10  23  42  64  97 132 173 218 282 336 407
#     4  12  21  43  68  93 136 174 219 281 333 405
#
# _framework density 22.014507999999999
#
# number of rings (size 3 to 8) (size 9 to 14) (size 15 to 20)
#    0.000    1.455    5.455    2.182    0.000    2.182 
#    9.818    0.000    0.000    0.000    0.000    0.000 
#    0.000    0.000    0.000    0.000    0.000    0.000 
#
# Total GULP energy -61433.210849 kJ/mol
# GULP energy per Si atom -5584.837350 kJ/mol
# Density = 2.196440 g / cm^3
# Si number density = 22.014508 Si / 1000 Ang^3
#
#
#
# Elastic Constant Matrix: (Units=GPa)
#
#
# Indices 1 2 3 4 5 6 
#
# 1 116.7821 41.7059 4.1468 0.0000 8.8564 0.0000
# 2 41.7059 105.8819 6.4377 0.0000 10.5425 0.0000
# 3 4.1468 6.4377 41.2049 0.0000 10.4649 0.0000
# 4 0.0000 0.0000 0.0000 -3.3058 0.0000 10.6846
# 5 8.8564 10.5425 10.4649 0.0000 35.7315 0.0000
# 6 0.0000 0.0000 0.0000 10.6846 0.0000 25.1695
#
#
#
# Elastic Compliance Matrix: (Units=1/GPa)
#
#
# Indices 1 2 3 4 5 6 
#
# 1 0.010029 -0.003812 -0.000073 0.000000 -0.001339 0.000000
# 2 -0.003812 0.011208 -0.000829 0.000000 -0.002119 0.000000
# 3 -0.000073 -0.000829 0.026295 0.000000 -0.007438 0.000000
# 4 0.000000 0.000000 0.000000 -0.127527 0.000000 0.054136
# 5 -0.001339 -0.002119 -0.007438 0.000000 0.031122 0.000000
# 6 0.000000 0.000000 0.000000 0.054136 0.000000 0.016749
#
#
# Mechanical properties :
#
#
# Convention : Reuss Voigt Hill
#
# Bulk Modulus (GPa) = 26.24592 40.93885 33.59239
# Shear Modulus (GPa) = -500.31406 25.62427 -237.34489
#
# Velocity S-wave (km/s) = -15.09169 3.41540 -10.39457
# Velocity P-wave (km/s) = 17.08012 5.84722 11.34770
#
# Compressibility (1/GPa) = 0.03810115
#
# Stress axis : x y z
#
# Youngs Moduli (GPa) = 99.71452 89.22564 38.02999
#
# Poissons Ratio (x) = 0.34016 0.00279
# Poissons Ratio (y) = 0.38015 0.03153
# Poissons Ratio (z) = 0.00733 0.07398
#
# Static dielectric constant tensor:
#      x y z
#    x 1.859070 0.000000 -0.011500 
#    y 0.000000 1.786060 0.000000 
#    z -0.011500 0.000000 1.853390 
# 
# From -- ./inp_files/52175.got.cif
#   From: 2010.05.17/outbox.cif.g08.bks.cpg/sg5_27_cif.got.tgz:52175.got - 2010.06.03 18:56:24.
