data_PCOD9124024
_publ_section_title
;
Structure prediction by ZEFSAII (Michael W. Deem and Ramdas Pophale) SiO2 
 PCOD9124024
Probable space group: C 2
;
_chemical_formula_sum "Si O2"
_cell_formula_units_Z 32
_cell_length_a 9.201886
_cell_length_b 26.480923
_cell_length_c 14.152836
_cell_angle_alpha 90.000000
_cell_angle_beta 152.745183
_cell_angle_gamma 90.000000
_cell_volume 1579.320343
_symmetry_space_group_name_H-M "C 2"
_symmetry_group_IT_number 5
_symmetry_cell_setting 'monoclinic'
loop_
_space_group_symop_operation_xyz
x,y,z
-x,y,-z
1/2+x,1/2+y,z
1/2-x,1/2+y,-z
loop_
_atom_site_type_symbol
_atom_site_label
_atom_site_fract_x
_atom_site_fract_y
_atom_site_fract_z
Si Si1 0.754192 0.740780 0.770208
Si Si2 0.256201 0.057710 0.081764
Si Si3 0.743853 0.795513 0.064579
Si Si4 0.209225 0.625410 0.215801
Si Si5 0.127728 0.987976 0.285671
Si Si6 0.363928 0.532922 0.520294
Si Si7 0.338298 0.817636 0.645458
Si Si8 0.785452 0.874923 0.601551
O O1 0.683050 0.682601 0.706650
O O2 0.465380 0.774811 0.644524
O O3 0.961776 0.762262 0.803316
O O4 0.000000 0.740044 0.000000
O O5 0.474791 0.098077 0.154681
O O6 0.490942 0.028880 0.288927
O O7 0.000000 0.084010 0.000000
O O8 0.083581 0.017680 0.912725
O O9 0.901186 0.841772 0.210496
O O10 0.500000 0.771450 0.000000
O O11 0.576519 0.815954 0.872229
O O12 0.517479 0.589819 0.392592
O O13 0.000000 0.623604 0.000000
O O14 0.500000 0.004805 0.500000
O O15 0.142236 0.927577 0.303092
O O16 0.998581 0.003062 0.313423
O O17 0.500000 0.514952 0.500000
O O18 0.320656 0.868401 0.569763
O O19 0.000000 0.807669 0.500000
O O20 0.500000 0.853091 0.500000
#
# Coordination Sequence:
#
# PCOD9124024 Si02
#       8
#     4   4   4   4   4   4   4   4
#     4   9  21  40  66  95 130 178 218 273 330 384
#     4  11  22  40  63  91 130 164 211 275 317 392
#     4  11  22  42  64  95 135 168 215 275 328 392
#     4  10  20  41  66  91 129 174 220 262 330 389
#     4  11  23  42  66  91 127 171 217 271 330 380
#     4  10  22  40  60  92 126 167 210 266 322 385
#     4  11  22  42  65  92 136 171 218 277 318 392
#     4  11  24  42  65  94 122 177 221 264 336 384
#
# _framework density 20.261880000000001
#
# number of rings (size 3 to 8) (size 9 to 14) (size 15 to 20)
#    0.000    1.500    5.000    0.000    0.000    2.000 
#   11.250    4.375    0.000    0.000    0.000    0.000 
#    0.000    0.000    0.000    0.000    0.000    0.000 
#
# Total GULP energy -89069.769163 kJ/mol
# GULP energy per Si atom -5566.860573 kJ/mol
# Density = 2.021576 g / cm^3
# Si number density = 20.261880 Si / 1000 Ang^3
#
#
#
# Elastic Constant Matrix: (Units=GPa)
#
#
# Indices 1 2 3 4 5 6 
#
# 1 103.1478 14.5884 21.1763 0.0000 -5.4514 0.0000
# 2 14.5884 39.7530 10.2784 0.0000 1.8721 0.0000
# 3 21.1763 10.2784 81.7701 -0.0001 -11.5417 0.0001
# 4 0.0000 0.0000 -0.0001 7.0070 0.0000 14.4475
# 5 -5.4514 1.8721 -11.5417 0.0000 39.8929 0.0000
# 6 0.0000 0.0000 0.0001 14.4475 0.0000 6.1528
#
#
#
# Elastic Compliance Matrix: (Units=1/GPa)
#
#
# Indices 1 2 3 4 5 6 
#
# 1 0.010679 -0.003396 -0.002200 0.000000 0.000982 0.000000
# 2 -0.003396 0.027277 -0.002914 0.000000 -0.002587 0.000000
# 3 -0.002200 -0.002914 0.013702 0.000000 0.003800 0.000000
# 4 0.000000 0.000000 0.000000 -0.037150 0.000000 0.087234
# 5 0.000982 -0.002587 0.003800 0.000000 0.026422 0.000000
# 6 0.000000 0.000000 0.000000 0.087234 0.000000 -0.042308
#
#
# Mechanical properties :
#
#
# Convention : Reuss Voigt Hill
#
# Bulk Modulus (GPa) = 28.87129 35.19524 32.03326
# Shear Modulus (GPa) = 183.90212 22.51904 103.21058
#
# Velocity S-wave (km/s) = 9.53728 3.33738 7.14485
# Velocity P-wave (km/s) = 11.64300 5.67968 9.16019
#
# Compressibility (1/GPa) = 0.03463649
#
# Stress axis : x y z
#
# Youngs Moduli (GPa) = 93.64403 36.66081 72.98269
#
# Poissons Ratio (x) = 0.12451 0.16056
# Poissons Ratio (y) = 0.31804 0.21270
# Poissons Ratio (z) = 0.20601 0.10684
#
# Static dielectric constant tensor:
#      x y z
#    x 1.792150 0.000000 0.022240 
#    y 0.000000 1.754980 0.000000 
#    z 0.022240 0.000000 1.789870 
# 
# From -- ./inp_files/51752.got.cif
#   From: 2010.05.17/outbox.cif.g08.bks.cpg/sg5_26_cif.got.tgz:51752.got - 2010.06.03 18:56:24.
