data_PCOD9124749
_publ_section_title
;
Structure prediction by ZEFSAII (Michael W. Deem and Ramdas Pophale) SiO2 
 PCOD9124749
Probable space group: C 2
;
_chemical_formula_sum "Si O2"
_cell_formula_units_Z 28
_cell_length_a 9.045448
_cell_length_b 5.212296
_cell_length_c 31.360565
_cell_angle_alpha 90.000000
_cell_angle_beta 125.832716
_cell_angle_gamma 90.000000
_cell_volume 1198.723723
_symmetry_space_group_name_H-M "C 2"
_symmetry_group_IT_number 5
_symmetry_cell_setting 'monoclinic'
loop_
_space_group_symop_operation_xyz
x,y,z
-x,y,-z
1/2+x,1/2+y,z
1/2-x,1/2+y,-z
loop_
_atom_site_type_symbol
_atom_site_label
_atom_site_fract_x
_atom_site_fract_y
_atom_site_fract_z
Si Si1 0.791996 0.760990 0.480172
Si Si2 0.945903 0.097325 0.641317
Si Si3 0.854994 0.748727 0.197614
Si Si4 0.061710 0.251283 0.841810
Si Si5 0.638286 0.099500 0.319131
Si Si6 0.916407 0.068868 0.063179
Si Si7 0.957539 0.570184 0.040346
O O1 0.775393 0.529494 0.511384
O O2 0.669008 0.677839 0.419472
O O3 0.000000 0.789610 0.500000
O O4 0.874939 0.828381 0.648431
O O5 0.157245 0.074694 0.664098
O O6 0.920943 0.327933 0.670874
O O7 0.654210 0.754006 0.184242
O O8 0.875172 0.521867 0.166271
O O9 0.001788 0.680983 0.258568
O O10 0.896958 0.023021 0.183872
O O11 0.146719 0.176806 0.902198
O O12 0.040131 0.294259 0.065144
O O13 0.998212 0.786802 0.081438
O O14 0.760243 0.019163 0.001237
O O15 0.000000 0.650908 0.000000
#
# Coordination Sequence:
#
# PCOD9124749 Si02
#       7
#     4   4   4   4   4   4   4
#     4  12  24  42  64  97 137 173 219 268 324 383
#     4  12  24  42  69  96 130 178 217 270 322 385
#     4  12  26  45  68  98 130 171 212 278 320 387
#     4  12  26  44  69  96 132 168 215 260 338 379
#     4  12  24  44  67  96 130 168 227 266 326 381
#     4  10  23  37  58  89 114 161 200 254 302 387
#     4  10  21  38  60  83 119 152 205 247 308 359
#
# _framework density 23.358176
#
# number of rings (size 3 to 8) (size 9 to 14) (size 15 to 20)
#    0.000    0.571    0.000    8.571    4.000    0.000 
#    0.000    0.000    0.000    0.000    0.000    0.000 
#    0.000    0.000    0.000    0.000    0.000    0.000 
#
# Total GULP energy -78424.441565 kJ/mol
# GULP energy per Si atom -5601.745826 kJ/mol
# Density = 2.330501 g / cm^3
# Si number density = 23.358176 Si / 1000 Ang^3
#
#
#
# Elastic Constant Matrix: (Units=GPa)
#
#
# Indices 1 2 3 4 5 6 
#
# 1 147.7461 48.0667 -7.9785 0.0000 10.4026 0.0000
# 2 48.0667 103.6530 -40.1304 0.0000 -12.2508 0.0000
# 3 -7.9785 -40.1304 67.4066 0.0000 4.7580 0.0000
# 4 0.0000 0.0000 0.0000 27.9333 0.0000 24.5821
# 5 10.4026 -12.2508 4.7580 0.0000 32.1736 0.0000
# 6 0.0000 0.0000 0.0000 24.5821 0.0000 -69.3040
#
#
#
# Elastic Compliance Matrix: (Units=1/GPa)
#
#
# Indices 1 2 3 4 5 6 
#
# 1 0.008706 -0.005266 -0.001783 0.000000 -0.004556 0.000000
# 2 -0.005266 0.016177 0.008542 0.000000 0.006599 0.000000
# 3 -0.001783 0.008542 0.019644 0.000000 0.000924 0.000000
# 4 0.000000 0.000000 0.000000 0.027283 0.000000 0.009677
# 5 -0.004556 0.006599 0.000924 0.000000 0.034931 0.000000
# 6 0.000000 0.000000 0.000000 0.009677 0.000000 -0.010997
#
#
# Mechanical properties :
#
#
# Convention : Reuss Voigt Hill
#
# Bulk Modulus (GPa) = 21.04748 35.41347 28.23048
# Shear Modulus (GPa) = 46.04189 19.41712 32.72951
#
# Velocity S-wave (km/s) = 4.44455 2.88632 3.74732
# Velocity P-wave (km/s) = 5.94719 5.12852 5.55296
#
# Compressibility (1/GPa) = 0.04751162
#
# Stress axis : x y z
#
# Youngs Moduli (GPa) = 114.86149 61.81796 50.90542
#
# Poissons Ratio (x) = 0.32554 0.09077
# Poissons Ratio (y) = 0.60488 -0.43481
# Poissons Ratio (z) = 0.20481 -0.52802
#
# Static dielectric constant tensor:
#      x y z
#    x 1.906580 0.000000 0.049390 
#    y 0.000000 1.914410 0.000000 
#    z 0.049390 0.000000 1.883490 
# 
# From -- ./inp_files/71523.got.cif
#   From: 2010.05.17/outbox.cif.g08.bks.cpg/sg5_36_cif.got.tgz:71523.got - 2010.06.03 18:56:24.
