data_PCOD9124065
_publ_section_title
;
Structure prediction by ZEFSAII (Michael W. Deem and Ramdas Pophale) SiO2 
 PCOD9124065
Probable space group: C 2
;
_chemical_formula_sum "Si O2"
_cell_formula_units_Z 20
_cell_length_a 12.455554
_cell_length_b 7.842312
_cell_length_c 8.403281
_cell_angle_alpha 90.000000
_cell_angle_beta 102.340953
_cell_angle_gamma 90.000000
_cell_volume 801.868356
_symmetry_space_group_name_H-M "C 2"
_symmetry_group_IT_number 5
_symmetry_cell_setting 'monoclinic'
loop_
_space_group_symop_operation_xyz
x,y,z
-x,y,-z
1/2+x,1/2+y,z
1/2-x,1/2+y,-z
loop_
_atom_site_type_symbol
_atom_site_label
_atom_site_fract_x
_atom_site_fract_y
_atom_site_fract_z
Si Si1 0.637784 0.464340 0.457942
Si Si2 0.688979 0.018420 0.733953
Si Si3 0.000000 0.367344 0.000000
Si Si4 0.932395 0.094878 0.238135
Si Si5 0.761798 0.363045 0.942146
Si Si6 0.000000 0.645652 0.500000
O O1 0.755119 0.483630 0.417748
O O2 0.548065 0.499329 0.295020
O O3 0.614125 0.596460 0.594702
O O4 0.601070 0.276387 0.500069
O O5 0.736831 0.187892 0.838940
O O6 0.557931 0.038228 0.658684
O O7 0.726361 0.864584 0.862334
O O8 0.879645 0.447130 0.927109
O O9 0.030938 0.247176 0.862404
O O10 0.841929 0.979811 0.125643
#
# Coordination Sequence:
#
# PCOD9124065 Si02
#       6
#     4   4   2   4   4   2
#     4  10  21  41  75 100 138 198 239 300 357 436
#     4  12  25  47  74 108 150 189 252 295 374 431
#     4  12  24  44  68 104 148 186 242 300 362 440
#     4  10  20  41  70 102 137 187 242 289 366 424
#     4  12  24  44  71 105 144 192 240 301 358 441
#     4  10  24  48  70 108 144 186 248 306 360 432
#
# _framework density 24.941751
#
# number of rings (size 3 to 8) (size 9 to 14) (size 15 to 20)
#    0.000    1.200    8.000    0.000    0.000    3.200 
#    3.600    2.000    0.000    0.000    0.000    0.000 
#    0.000    0.000    0.000    0.000    0.000    0.000 
#
# Total GULP energy -55736.427727 kJ/mol
# GULP energy per Si atom -5573.642773 kJ/mol
# Density = 2.488498 g / cm^3
# Si number density = 24.941751 Si / 1000 Ang^3
#
#
#
# Elastic Constant Matrix: (Units=GPa)
#
#
# Indices 1 2 3 4 5 6 
#
# 1 90.7735 20.4212 35.3679 0.0000 -0.8766 0.0000
# 2 20.4212 70.5297 37.8491 0.0000 -6.2325 0.0000
# 3 35.3679 37.8491 116.2083 0.0000 15.9164 0.0000
# 4 0.0000 0.0000 0.0000 31.0417 0.0000 4.0265
# 5 -0.8766 -6.2325 15.9164 0.0000 55.2301 0.0000
# 6 0.0000 0.0000 0.0000 4.0265 0.0000 31.4711
#
#
#
# Elastic Compliance Matrix: (Units=1/GPa)
#
#
# Indices 1 2 3 4 5 6 
#
# 1 0.012765 -0.001757 -0.003450 0.000000 0.000999 0.000000
# 2 -0.001757 0.018180 -0.005897 0.000000 0.003723 0.000000
# 3 -0.003450 -0.005897 0.012154 0.000000 -0.004223 0.000000
# 4 0.000000 0.000000 0.000000 0.032758 0.000000 -0.004191
# 5 0.000999 0.003723 -0.004223 0.000000 0.019759 0.000000
# 6 0.000000 0.000000 0.000000 -0.004191 0.000000 0.032311
#
#
# Mechanical properties :
#
#
# Convention : Reuss Voigt Hill
#
# Bulk Modulus (GPa) = 47.86101 51.64310 49.75205
# Shear Modulus (GPa) = 31.82699 35.80680 33.81690
#
# Velocity S-wave (km/s) = 3.57606 3.79306 3.68616
# Velocity P-wave (km/s) = 6.02343 6.31930 6.17314
#
# Compressibility (1/GPa) = 0.02089383
#
# Stress axis : x y z
#
# Youngs Moduli (GPa) = 78.33693 55.00419 82.27668
#
# Poissons Ratio (x) = 0.09662 0.28384
# Poissons Ratio (y) = 0.13760 0.48516
# Poissons Ratio (z) = 0.27025 0.32434
#
# Static dielectric constant tensor:
#      x y z
#    x 1.983260 0.000000 0.010330 
#    y 0.000000 2.061190 0.000000 
#    z 0.010330 0.000000 2.073960 
# 
# From -- ./inp_files/18374.got.cif
#   From: 2010.05.17/outbox.cif.g08.bks.cpg/sg5_10_cif.got.tgz:18374.got - 2010.06.03 18:56:24.
