data_PCOD9124906
_publ_section_title
;
Structure prediction by ZEFSAII (Michael W. Deem and Ramdas Pophale) SiO2 
 PCOD9124906
Probable space group: C 2
;
_chemical_formula_sum "Si O2"
_cell_formula_units_Z 20
_cell_length_a 22.390448
_cell_length_b 9.869555
_cell_length_c 13.317947
_cell_angle_alpha 90.000000
_cell_angle_beta 160.346618
_cell_angle_gamma 90.000000
_cell_volume 989.833442
_symmetry_space_group_name_H-M "C 2"
_symmetry_group_IT_number 5
_symmetry_cell_setting 'monoclinic'
loop_
_space_group_symop_operation_xyz
x,y,z
-x,y,-z
1/2+x,1/2+y,z
1/2-x,1/2+y,-z
loop_
_atom_site_type_symbol
_atom_site_label
_atom_site_fract_x
_atom_site_fract_y
_atom_site_fract_z
Si Si1 0.862125 0.996780 0.983486
Si Si2 0.516751 0.057917 0.303899
Si Si3 0.078988 0.261048 0.371326
Si Si4 0.900907 0.765487 0.742253
Si Si5 0.796493 0.244175 0.206882
O O1 0.785304 0.892239 0.944199
O O2 0.688394 0.044840 0.647023
O O3 0.006944 0.905158 0.150790
O O4 0.959761 0.129373 0.175122
O O5 0.581759 0.150076 0.313761
O O6 0.473244 0.901556 0.212844
O O7 0.336963 0.134904 0.050503
O O8 0.201251 0.280812 0.466646
O O9 0.195302 0.241370 0.657515
O O10 0.000000 0.721101 0.000000
O O11 0.000000 0.230903 0.500000
#
# Coordination Sequence:
#
# PCOD9124906 Si02
#       5
#     4   4   4   4   4
#     4  10  23  40  61  89 120 155 193 240 292 348
#     4  10  21  39  59  87 120 150 199 240 289 349
#     4  11  22  37  61  89 119 155 195 239 287 350
#     4  11  19  39  59  86 126 155 184 232 294 349
#     4  10  23  43  62  81 117 158 197 247 296 339
#
# _framework density 20.20542
#
# number of rings (size 3 to 8) (size 9 to 14) (size 15 to 20)
#    0.000    1.600    6.000    1.200    0.000    6.400 
#    3.600    1.000    0.000    0.000    0.000    0.000 
#    0.000    0.000    0.000    0.000    0.000    0.000 
#
# Total GULP energy -55727.821964 kJ/mol
# GULP energy per Si atom -5572.782196 kJ/mol
# Density = 2.015943 g / cm^3
# Si number density = 20.205420 Si / 1000 Ang^3
#
#
#
# Elastic Constant Matrix: (Units=GPa)
#
#
# Indices 1 2 3 4 5 6 
#
# 1 23.3707 11.4522 9.8197 0.0000 14.4815 0.0000
# 2 11.4522 170.7584 88.7514 0.0000 -1.9796 0.0000
# 3 9.8197 88.7514 97.0334 0.0000 18.6300 0.0000
# 4 0.0000 0.0000 0.0000 51.3197 0.0000 -3.9839
# 5 14.4815 -1.9796 18.6300 0.0000 29.5662 0.0000
# 6 0.0000 0.0000 0.0000 -3.9839 0.0000 10.9866
#
#
#
# Elastic Compliance Matrix: (Units=1/GPa)
#
#
# Indices 1 2 3 4 5 6 
#
# 1 0.069126 -0.010679 0.010705 0.000000 -0.041318 0.000000
# 2 -0.010679 0.014866 -0.015599 0.000000 0.016055 0.000000
# 3 0.010705 -0.015599 0.028096 0.000000 -0.023992 0.000000
# 4 0.000000 0.000000 0.000000 0.020050 0.000000 0.007271
# 5 -0.041318 0.016055 -0.023992 0.000000 0.070252 0.000000
# 6 0.000000 0.000000 0.000000 0.007271 0.000000 0.093656
#
#
# Mechanical properties :
#
#
# Convention : Reuss Voigt Hill
#
# Bulk Modulus (GPa) = 12.35450 56.80102 34.57776
# Shear Modulus (GPa) = 14.11735 30.45045 22.28390
#
# Velocity S-wave (km/s) = 2.64614 3.88628 3.32455
# Velocity P-wave (km/s) = 3.93241 6.95056 5.64686
#
# Compressibility (1/GPa) = 0.08094218
#
# Stress axis : x y z
#
# Youngs Moduli (GPa) = 14.46634 67.26681 35.59176
#
# Poissons Ratio (x) = 0.71833 -0.38100
# Poissons Ratio (y) = 0.15448 0.55520
# Poissons Ratio (z) = -0.15486 1.04930
#
# Static dielectric constant tensor:
#      x y z
#    x 1.780430 0.000000 0.048330 
#    y 0.000000 1.712080 0.000000 
#    z 0.048330 0.000000 1.749750 
# 
# From -- ./inp_files/34738.got.cif
#   From: 2010.05.17/outbox.cif.g08.bks.cpg/sg5_18_cif.got.tgz:34738.got - 2010.06.03 18:56:24.
