data_PCOD9124281
_publ_section_title
;
Structure prediction by ZEFSAII (Michael W. Deem and Ramdas Pophale) SiO2 
 PCOD9124281
Probable space group: C 2
;
_chemical_formula_sum "Si O2"
_cell_formula_units_Z 30
_cell_length_a 16.360665
_cell_length_b 8.413210
_cell_length_c 10.932172
_cell_angle_alpha 90.000000
_cell_angle_beta 75.853364
_cell_angle_gamma 90.000000
_cell_volume 1459.132132
_symmetry_space_group_name_H-M "C 2"
_symmetry_group_IT_number 5
_symmetry_cell_setting 'monoclinic'
loop_
_space_group_symop_operation_xyz
x,y,z
-x,y,-z
1/2+x,1/2+y,z
1/2-x,1/2+y,-z
loop_
_atom_site_type_symbol
_atom_site_label
_atom_site_fract_x
_atom_site_fract_y
_atom_site_fract_z
Si Si1 0.624323 0.497050 0.871010
Si Si2 0.445949 0.353384 0.864843
Si Si3 0.892591 0.351477 0.211333
Si Si4 0.462972 0.794473 0.642942
Si Si5 0.751118 0.522035 0.426052
Si Si6 0.923463 0.924157 0.606465
Si Si7 0.500000 0.063282 0.000000
Si Si8 0.779409 0.375015 0.666898
O O1 0.539994 0.430095 0.834664
O O2 0.632451 0.681671 0.835189
O O3 0.705528 0.409133 0.788839
O O4 0.608151 0.458588 0.019768
O O5 0.411148 0.343824 0.741697
O O6 0.457030 0.180354 0.918262
O O7 0.818674 0.437333 0.313456
O O8 0.969962 0.325224 0.276676
O O9 0.929174 0.459463 0.090499
O O10 0.500000 0.852926 0.500000
O O11 0.449591 0.605079 0.632371
O O12 0.371026 0.868407 0.694691
O O13 0.661026 0.436601 0.440626
O O14 0.777254 0.501696 0.557181
O O15 0.737242 0.703848 0.390839
O O16 0.000000 0.853757 0.500000
#
# Coordination Sequence:
#
# PCOD9124281 Si02
#       8
#     4   4   4   4   4   4   2   4
#     4  10  21  38  71  87 124 173 215 256 323 388
#     4  10  20  43  64  96 127 165 219 262 326 380
#     4  12  22  43  63  96 126 174 217 265 325 383
#     4  10  21  40  66  95 130 162 217 262 320 381
#     4  11  23  38  65  94 133 161 225 264 327 378
#     4  10  21  39  68  97 124 170 213 265 318 392
#     4  10  24  40  66  90 132 172 212 274 316 392
#     4  11  22  41  64  97 126 176 207 275 321 383
#
# _framework density 20.560165999999999
#
# number of rings (size 3 to 8) (size 9 to 14) (size 15 to 20)
#    0.000    1.600    2.667    4.000    1.867    0.000 
#    7.200    0.667    0.000    0.000    0.000    0.000 
#    0.000    0.000    0.000    0.000    0.000    0.000 
#
# Total GULP energy -83880.220490 kJ/mol
# GULP energy per Si atom -5592.014699 kJ/mol
# Density = 2.051337 g / cm^3
# Si number density = 20.560166 Si / 1000 Ang^3
#
#
#
# Elastic Constant Matrix: (Units=GPa)
#
#
# Indices 1 2 3 4 5 6 
#
# 1 67.7503 15.3772 26.9600 0.0000 -18.6285 0.0000
# 2 15.3772 51.0701 6.4933 0.0000 -4.4211 0.0000
# 3 26.9600 6.4933 76.4223 0.0000 -21.4418 0.0000
# 4 0.0000 0.0000 0.0000 26.0693 0.0000 -2.0306
# 5 -18.6285 -4.4211 -21.4418 0.0000 41.5940 0.0000
# 6 0.0000 0.0000 0.0000 -2.0306 0.0000 18.7105
#
#
#
# Elastic Compliance Matrix: (Units=1/GPa)
#
#
# Indices 1 2 3 4 5 6 
#
# 1 0.019304 -0.004709 -0.004822 0.000000 0.005659 0.000000
# 2 -0.004709 0.021018 -0.000105 0.000000 0.000071 0.000000
# 3 -0.004822 -0.000105 0.016585 0.000000 0.006379 0.000000
# 4 0.000000 0.000000 0.000000 0.038686 0.000000 0.004199
# 5 0.005659 0.000071 0.006379 0.000000 0.029872 0.000000
# 6 0.000000 0.000000 0.000000 0.004199 0.000000 0.053902
#
#
# Mechanical properties :
#
#
# Convention : Reuss Voigt Hill
#
# Bulk Modulus (GPa) = 26.57092 32.54486 29.55789
# Shear Modulus (GPa) = 23.67601 27.03557 25.35579
#
# Velocity S-wave (km/s) = 3.39713 3.63016 3.51557
# Velocity P-wave (km/s) = 5.32342 5.78223 5.55756
#
# Compressibility (1/GPa) = 0.03763513
#
# Stress axis : x y z
#
# Youngs Moduli (GPa) = 51.80321 47.57746 60.29602
#
# Poissons Ratio (x) = 0.22406 0.29075
# Poissons Ratio (y) = 0.24396 0.00631
# Poissons Ratio (z) = 0.24979 0.00498
#
# Static dielectric constant tensor:
#      x y z
#    x 1.713700 0.000000 0.001620 
#    y 0.000000 1.740540 0.000000 
#    z 0.001620 0.000000 1.727220 
# 
# From -- ./inp_files/41933.got.cif
#   From: 2010.05.17/outbox.cif.g08.bks.cpg/sg5_21_cif.got.tgz:41933.got - 2010.06.03 18:56:24.
