data_PCOD9124755
_publ_section_title
;
Structure prediction by ZEFSAII (Michael W. Deem and Ramdas Pophale) SiO2 
 PCOD9124755
Probable space group: C 2
;
_chemical_formula_sum "Si O2"
_cell_formula_units_Z 24
_cell_length_a 8.353607
_cell_length_b 8.881742
_cell_length_c 15.192507
_cell_angle_alpha 90.000000
_cell_angle_beta 109.619354
_cell_angle_gamma 90.000000
_cell_volume 1061.760984
_symmetry_space_group_name_H-M "C 2"
_symmetry_group_IT_number 5
_symmetry_cell_setting 'monoclinic'
loop_
_space_group_symop_operation_xyz
x,y,z
-x,y,-z
1/2+x,1/2+y,z
1/2-x,1/2+y,-z
loop_
_atom_site_type_symbol
_atom_site_label
_atom_site_fract_x
_atom_site_fract_y
_atom_site_fract_z
Si Si1 0.902370 0.107340 0.606666
Si Si2 0.127836 0.755994 0.446895
Si Si3 0.790285 0.681638 0.722739
Si Si4 0.753199 0.028510 0.111697
Si Si5 0.300789 0.684866 0.947853
Si Si6 0.340207 0.526565 0.781670
O O1 0.810935 0.214076 0.520370
O O2 0.810657 0.114830 0.685138
O O3 0.098218 0.145656 0.658023
O O4 0.887971 0.934286 0.572628
O O5 0.103398 0.676179 0.347917
O O6 0.000000 0.708332 0.500000
O O7 0.834563 0.575456 0.813144
O O8 0.797306 0.852267 0.759391
O O9 0.955708 0.038202 0.166982
O O10 0.717246 0.859546 0.076118
O O11 0.710642 0.135268 0.021165
O O12 0.251382 0.593539 0.851270
O O13 0.500000 0.652459 0.000000
#
# Coordination Sequence:
#
# PCOD9124755 Si02
#       6
#     4   4   4   4   4   4
#     4  10  23  41  61  87 121 158 201 250 300 357
#     4  11  23  40  61  88 121 159 202 252 302 354
#     4  10  21  41  62  86 123 160 200 250 300 354
#     4  10  21  38  60  89 122 157 199 247 295 353
#     4  10  21  38  60  88 121 156 197 242 294 356
#     4   9  21  38  58  86 119 156 199 247 296 354
#
# _framework density 22.603957999999999
#
# number of rings (size 3 to 8) (size 9 to 14) (size 15 to 20)
#    0.000    2.000    0.000    2.500    0.000    9.333 
#    0.000    8.333    0.000    0.000    0.000    0.000 
#    0.000    0.000    0.000    0.000    0.000    0.000 
#
# Total GULP energy -67103.265633 kJ/mol
# GULP energy per Si atom -5591.938803 kJ/mol
# Density = 2.255251 g / cm^3
# Si number density = 22.603958 Si / 1000 Ang^3
#
#
#
# Elastic Constant Matrix: (Units=GPa)
#
#
# Indices 1 2 3 4 5 6 
#
# 1 71.0366 15.2406 52.7191 0.0000 -26.0776 0.0000
# 2 15.2406 82.9831 79.1068 0.0000 -23.7235 0.0000
# 3 52.7191 79.1068 205.9866 0.0000 -42.1923 0.0000
# 4 0.0000 0.0000 0.0000 54.7890 0.0000 8.0796
# 5 -26.0776 -23.7235 -42.1923 0.0000 25.7559 0.0000
# 6 0.0000 0.0000 0.0000 8.0796 0.0000 22.3071
#
#
#
# Elastic Compliance Matrix: (Units=1/GPa)
#
#
# Indices 1 2 3 4 5 6 
#
# 1 0.024321 0.005782 -0.003477 0.000000 0.024255 0.000000
# 2 0.005782 0.021659 -0.006791 0.000000 0.014679 0.000000
# 3 -0.003477 -0.006791 0.009557 0.000000 0.005881 0.000000
# 4 0.000000 0.000000 0.000000 0.019282 0.000000 -0.006984
# 5 0.024255 0.014679 0.005881 0.000000 0.086538 0.000000
# 6 0.000000 0.000000 0.000000 -0.006984 0.000000 0.047358
#
#
# Mechanical properties :
#
#
# Convention : Reuss Voigt Hill
#
# Bulk Modulus (GPa) = 21.47542 72.68216 47.07879
# Shear Modulus (GPa) = 21.44003 34.76640 28.10322
#
# Velocity S-wave (km/s) = 3.08313 3.92607 3.52985
# Velocity P-wave (km/s) = 4.71122 7.26474 6.12258
#
# Compressibility (1/GPa) = 0.04656485
#
# Stress axis : x y z
#
# Youngs Moduli (GPa) = 41.11667 46.17017 104.63502
#
# Poissons Ratio (x) = -0.26694 0.36381
# Poissons Ratio (y) = -0.23772 0.71056
# Poissons Ratio (z) = 0.14296 0.31354
#
# Static dielectric constant tensor:
#      x y z
#    x 1.856510 0.000000 -0.024240 
#    y 0.000000 1.762370 0.000000 
#    z -0.024240 0.000000 1.870310 
# 
# From -- ./inp_files/49929.got.cif
#   From: 2010.05.17/outbox.cif.g08.bks.cpg/sg5_25_cif.got.tgz:49929.got - 2010.06.03 18:56:24.
