data_PCOD9124491
_publ_section_title
;
Structure prediction by ZEFSAII (Michael W. Deem and Ramdas Pophale) SiO2 
 PCOD9124491
Probable space group: C 2
;
_chemical_formula_sum "Si O2"
_cell_formula_units_Z 20
_cell_length_a 18.086152
_cell_length_b 5.171270
_cell_length_c 18.619115
_cell_angle_alpha 90.000000
_cell_angle_beta 30.946607
_cell_angle_gamma 90.000000
_cell_volume 895.503928
_symmetry_space_group_name_H-M "C 2"
_symmetry_group_IT_number 5
_symmetry_cell_setting 'monoclinic'
loop_
_space_group_symop_operation_xyz
x,y,z
-x,y,-z
1/2+x,1/2+y,z
1/2-x,1/2+y,-z
loop_
_atom_site_type_symbol
_atom_site_label
_atom_site_fract_x
_atom_site_fract_y
_atom_site_fract_z
Si Si1 0.566071 0.958010 0.662264
Si Si2 0.822006 0.964886 0.350706
Si Si3 0.235956 0.227831 0.055343
Si Si4 0.661000 0.429223 0.832631
Si Si5 0.162455 0.439149 0.893480
O O1 0.656168 0.936739 0.513917
O O2 0.635781 0.746586 0.656659
O O3 0.404420 0.855707 0.792488
O O4 0.591358 0.237327 0.678879
O O5 0.846228 0.966322 0.245833
O O6 0.330628 0.064131 0.033434
O O7 0.306144 0.489156 0.963226
O O8 0.735975 0.156867 0.784034
O O9 0.729310 0.661860 0.821348
O O10 0.500000 0.397601 0.000000
O O11 0.000000 0.402255 0.000000
#
# Coordination Sequence:
#
# PCOD9124491 Si02
#       5
#     4   4   4   4   4
#     4  10  23  39  65  94 136 169 228 267 342 376
#     4  10  21  41  65  97 127 180 217 279 319 413
#     4  12  26  40  65  99 139 173 222 286 325 390
#     4  10  21  35  64  91 127 165 222 258 326 391
#     4  10  23  39  58  95 131 169 215 260 339 394
#
# _framework density 22.333791999999999
#
# number of rings (size 3 to 8) (size 9 to 14) (size 15 to 20)
#    0.000    1.600    0.000    3.600   16.800    0.000 
#    0.000    1.000    0.000    2.400    0.000    0.000 
#    0.000    0.000    0.000    0.000    0.000    0.000 
#
# Total GULP energy -55743.101566 kJ/mol
# GULP energy per Si atom -5574.310157 kJ/mol
# Density = 2.228296 g / cm^3
# Si number density = 22.333792 Si / 1000 Ang^3
#
#
#
# Elastic Constant Matrix: (Units=GPa)
#
#
# Indices 1 2 3 4 5 6 
#
# 1 72.0118 2.3454 38.0524 0.0011 18.2728 -0.0016
# 2 2.3454 130.9571 15.7612 -0.0098 -0.3473 0.0058
# 3 38.0524 15.7612 126.7929 -0.0020 15.2106 0.0001
# 4 0.0011 -0.0098 -0.0020 29.6162 -0.0146 7.8539
# 5 18.2728 -0.3473 15.2106 -0.0146 36.9714 0.0044
# 6 -0.0016 0.0058 0.0001 7.8539 0.0044 42.5621
#
#
#
# Elastic Compliance Matrix: (Units=1/GPa)
#
#
# Indices 1 2 3 4 5 6 
#
# 1 0.018107 0.000212 -0.004615 -0.000005 -0.007049 0.000002
# 2 0.000212 0.007763 -0.001078 0.000003 0.000411 -0.000002
# 3 -0.004615 -0.001078 0.009608 0.000000 -0.001682 0.000000
# 4 -0.000005 0.000003 0.000000 0.035503 0.000017 -0.006551
# 5 -0.007049 0.000411 -0.001682 0.000017 0.031227 -0.000007
# 6 0.000002 -0.000002 0.000000 -0.006551 -0.000007 0.024704
#
#
# Mechanical properties :
#
#
# Convention : Reuss Voigt Hill
#
# Bulk Modulus (GPa) = 40.78907 49.12000 44.95453
# Shear Modulus (GPa) = 34.23596 40.07012 37.15304
#
# Velocity S-wave (km/s) = 3.91950 4.24033 4.08307
# Velocity P-wave (km/s) = 6.22787 6.78345 6.51159
#
# Compressibility (1/GPa) = 0.02451637
#
# Stress axis : x y z
#
# Youngs Moduli (GPa) = 55.22763 128.81400 104.08322
#
# Poissons Ratio (x) = -0.02737 0.48034
# Poissons Ratio (y) = -0.01173 0.11222
# Poissons Ratio (z) = 0.25487 0.13888
#
# Static dielectric constant tensor:
#      x y z
#    x 1.826070 -0.000030 0.061750 
#    y -0.000030 1.928040 0.000040 
#    z 0.061750 0.000040 1.792420 
# 
# From -- ./inp_files/25961.got.cif
#   From: 2010.05.17/outbox.cif.g08.bks.cpg/sg5_13_cif.got.tgz:25961.got - 2010.06.03 18:56:24.
