data_PCOD9124372
_publ_section_title
;
Structure prediction by ZEFSAII (Michael W. Deem and Ramdas Pophale) SiO2 
 PCOD9124372
Probable space group: C 2
;
_chemical_formula_sum "Si O2"
_cell_formula_units_Z 22
_cell_length_a 13.590559
_cell_length_b 7.460328
_cell_length_c 22.604473
_cell_angle_alpha 90.000000
_cell_angle_beta 23.724563
_cell_angle_gamma 90.000000
_cell_volume 922.110893
_symmetry_space_group_name_H-M "C 2"
_symmetry_group_IT_number 5
_symmetry_cell_setting 'monoclinic'
loop_
_space_group_symop_operation_xyz
x,y,z
-x,y,-z
1/2+x,1/2+y,z
1/2-x,1/2+y,-z
loop_
_atom_site_type_symbol
_atom_site_label
_atom_site_fract_x
_atom_site_fract_y
_atom_site_fract_z
Si Si1 0.042690 0.732140 0.867331
Si Si2 0.652428 0.267060 0.363295
Si Si3 0.500000 0.966799 0.000000
Si Si4 0.958446 0.171083 0.455065
Si Si5 0.395532 0.180640 0.740525
Si Si6 0.132992 0.468610 0.132854
O O1 0.957966 0.644371 0.851925
O O2 0.972949 0.591947 0.957476
O O3 0.332801 0.748554 0.701963
O O4 0.886000 0.905705 0.966583
O O5 0.500000 0.178257 0.500000
O O6 0.510613 0.455575 0.427234
O O7 0.664799 0.165340 0.295067
O O8 0.921591 0.323172 0.236945
O O9 0.730372 0.839993 0.858543
O O10 0.685260 0.214315 0.586491
O O11 0.000000 0.228661 0.500000
O O12 0.343355 0.012230 0.811462
#
# Coordination Sequence:
#
# PCOD9124372 Si02
#       6
#     4   4   2   4   4   4
#     4  11  24  46  71 108 152 195 251 311 370 443
#     4  10  21  45  71 108 149 191 245 310 364 445
#     4  12  26  44  70 110 150 200 252 310 366 442
#     4  10  20  44  74 102 147 194 243 304 370 436
#     4  12  23  44  81 103 146 203 248 306 377 436
#     4  11  23  45  76 104 150 195 251 307 372 443
#
# _framework density 23.8583
#
# number of rings (size 3 to 8) (size 9 to 14) (size 15 to 20)
#    0.000    1.091    9.091    1.091    0.000    2.182 
#    3.273    0.000    0.000    0.000    0.000    0.000 
#    0.000    0.000    0.000    0.000    0.000    0.000 
#
# Total GULP energy -61630.390628 kJ/mol
# GULP energy per Si atom -5602.762784 kJ/mol
# Density = 2.380400 g / cm^3
# Si number density = 23.858300 Si / 1000 Ang^3
#
#
#
# Elastic Constant Matrix: (Units=GPa)
#
#
# Indices 1 2 3 4 5 6 
#
# 1 116.1935 33.6146 35.0469 -0.0022 31.4277 0.0010
# 2 33.6146 52.5552 38.6370 -0.0020 -2.8443 0.0005
# 3 35.0469 38.6370 189.0282 -0.0228 1.9403 0.0007
# 4 -0.0022 -0.0020 -0.0228 13.9911 -0.0005 12.6404
# 5 31.4277 -2.8443 1.9403 -0.0005 48.1680 0.0004
# 6 0.0010 0.0005 0.0007 12.6404 0.0004 35.9919
#
#
#
# Elastic Compliance Matrix: (Units=1/GPa)
#
#
# Indices 1 2 3 4 5 6 
#
# 1 0.014022 -0.009006 -0.000660 0.000000 -0.009654 0.000000
# 2 -0.009006 0.028287 -0.004191 -0.000006 0.007715 0.000002
# 3 -0.000660 -0.004191 0.006270 0.000014 -0.000070 -0.000005
# 4 0.000000 -0.000006 0.000014 0.104693 0.000001 -0.036768
# 5 -0.009654 0.007715 -0.000070 0.000001 0.027518 0.000000
# 6 0.000000 0.000002 -0.000005 -0.036768 0.000000 0.040697
#
#
# Mechanical properties :
#
#
# Convention : Reuss Voigt Hill
#
# Bulk Modulus (GPa) = 47.92803 63.59711 55.76257
# Shear Modulus (GPa) = 19.51943 36.32877 27.92410
#
# Velocity S-wave (km/s) = 2.86342 3.90640 3.42484
# Velocity P-wave (km/s) = 5.57355 6.86008 6.25000
#
# Compressibility (1/GPa) = 0.02086462
#
# Stress axis : x y z
#
# Youngs Moduli (GPa) = 71.31677 35.35244 159.49109
#
# Poissons Ratio (x) = 0.31838 0.10524
# Poissons Ratio (y) = 0.64227 0.66846
# Poissons Ratio (z) = 0.04706 0.14817
#
# Static dielectric constant tensor:
#      x y z
#    x 1.892250 0.000000 0.014070 
#    y 0.000000 1.930130 0.000000 
#    z 0.014070 0.000000 1.883850 
# 
# From -- ./inp_files/44242.got.cif
#   From: 2010.05.17/outbox.cif.g08.bks.cpg/sg5_23_cif.got.tgz:44242.got - 2010.06.03 18:56:24.
