data_PCOD9124370
_publ_section_title
;
Structure prediction by ZEFSAII (Michael W. Deem and Ramdas Pophale) SiO2 
 PCOD9124370
Probable space group: C 2
;
_chemical_formula_sum "Si O2"
_cell_formula_units_Z 20
_cell_length_a 10.058027
_cell_length_b 10.330862
_cell_length_c 8.281827
_cell_angle_alpha 90.000000
_cell_angle_beta 94.871357
_cell_angle_gamma 90.000000
_cell_volume 857.440405
_symmetry_space_group_name_H-M "C 2"
_symmetry_group_IT_number 5
_symmetry_cell_setting 'monoclinic'
loop_
_space_group_symop_operation_xyz
x,y,z
-x,y,-z
1/2+x,1/2+y,z
1/2-x,1/2+y,-z
loop_
_atom_site_type_symbol
_atom_site_label
_atom_site_fract_x
_atom_site_fract_y
_atom_site_fract_z
Si Si1 0.629951 0.227540 0.612160
Si Si2 0.943401 0.462938 0.311279
Si Si3 0.356783 0.579509 0.043825
Si Si4 0.812942 0.358602 0.872934
Si Si5 0.641327 0.700437 0.609088
O O1 0.500000 0.271077 0.500000
O O2 0.704106 0.336429 0.721031
O O3 0.738930 0.170375 0.498922
O O4 0.593859 0.109896 0.728338
O O5 0.838084 0.348047 0.326276
O O6 0.000000 0.476935 0.500000
O O7 0.052688 0.407762 0.199133
O O8 0.245000 0.468645 0.015534
O O9 0.362346 0.614101 0.233415
O O10 0.500000 0.528883 0.000000
O O11 0.334517 0.717230 0.952584
O O12 0.500000 0.694438 0.500000
#
# Coordination Sequence:
#
# PCOD9124370 Si02
#       5
#     4   4   4   4   4
#     4  11  24  44  75 110 137 186 238 300 353 422
#     4  10  20  44  74 100 142 183 233 287 365 409
#     4  12  27  45  70 104 143 192 235 291 356 424
#     4  12  27  48  69 107 146 189 238 292 356 424
#     4  11  22  46  74 102 140 185 238 293 352 422
#
# _framework density 23.325237000000001
#
# number of rings (size 3 to 8) (size 9 to 14) (size 15 to 20)
#    0.000    0.800    6.000    2.400    2.800    4.000 
#    0.000    0.000    0.000    0.000    0.000    0.000 
#    0.000    0.000    0.000    0.000    0.000    0.000 
#
# Total GULP energy -55948.968771 kJ/mol
# GULP energy per Si atom -5594.896877 kJ/mol
# Density = 2.327215 g / cm^3
# Si number density = 23.325237 Si / 1000 Ang^3
#
#
#
# Elastic Constant Matrix: (Units=GPa)
#
#
# Indices 1 2 3 4 5 6 
#
# 1 118.4499 37.1910 32.8662 0.0000 -12.3783 0.0000
# 2 37.1910 93.3503 11.4521 0.0000 -22.5856 0.0000
# 3 32.8662 11.4521 86.3090 0.0000 -1.9540 0.0000
# 4 0.0000 0.0000 0.0000 27.0814 0.0000 -13.9298
# 5 -12.3783 -22.5856 -1.9540 0.0000 33.6574 0.0000
# 6 0.0000 0.0000 0.0000 -13.9298 0.0000 31.9101
#
#
#
# Elastic Compliance Matrix: (Units=1/GPa)
#
#
# Indices 1 2 3 4 5 6 
#
# 1 0.010670 -0.003478 -0.003570 0.000000 0.001383 0.000000
# 2 -0.003478 0.014121 -0.000364 0.000000 0.008175 0.000000
# 3 -0.003570 -0.000364 0.012976 0.000000 -0.000804 0.000000
# 4 0.000000 0.000000 0.000000 0.047618 0.000000 0.020787
# 5 0.001383 0.008175 -0.000804 0.000000 0.035659 0.000000
# 6 0.000000 0.000000 0.000000 0.020787 0.000000 0.040412
#
#
# Mechanical properties :
#
#
# Convention : Reuss Voigt Hill
#
# Bulk Modulus (GPa) = 43.58950 51.23642 47.41296
# Shear Modulus (GPa) = 27.18468 32.96976 30.07722
#
# Velocity S-wave (km/s) = 3.41759 3.76371 3.59482
# Velocity P-wave (km/s) = 5.85675 6.39540 6.13199
#
# Compressibility (1/GPa) = 0.02294131
#
# Stress axis : x y z
#
# Youngs Moduli (GPa) = 93.72429 70.81787 77.06609
#
# Poissons Ratio (x) = 0.24633 0.27514
# Poissons Ratio (y) = 0.32600 0.02805
# Poissons Ratio (z) = 0.33461 0.02578
#
# Static dielectric constant tensor:
#      x y z
#    x 1.852130 0.000000 0.054370 
#    y 0.000000 1.937070 0.000000 
#    z 0.054370 0.000000 1.953950 
# 
# From -- ./inp_files/14282.got.cif
#   From: 2010.05.17/outbox.cif.g08.bks.cpg/sg5_8_cif.got.tgz:14282.got - 2010.06.03 18:56:24.
