data_PCOD9124060
_publ_section_title
;
Structure prediction by ZEFSAII (Michael W. Deem and Ramdas Pophale) SiO2 
 PCOD9124060
Probable space group: C 2
;
_chemical_formula_sum "Si O2"
_cell_formula_units_Z 32
_cell_length_a 11.886441
_cell_length_b 14.511226
_cell_length_c 17.760081
_cell_angle_alpha 90.000000
_cell_angle_beta 151.176785
_cell_angle_gamma 90.000000
_cell_volume 1476.882183
_symmetry_space_group_name_H-M "C 2"
_symmetry_group_IT_number 5
_symmetry_cell_setting 'monoclinic'
loop_
_space_group_symop_operation_xyz
x,y,z
-x,y,-z
1/2+x,1/2+y,z
1/2-x,1/2+y,-z
loop_
_atom_site_type_symbol
_atom_site_label
_atom_site_fract_x
_atom_site_fract_y
_atom_site_fract_z
Si Si1 0.933752 0.054760 0.546490
Si Si2 0.222894 0.944191 0.007497
Si Si3 0.408109 0.059187 0.248014
Si Si4 0.662984 0.731617 0.736000
Si Si5 0.659299 0.936118 0.153254
Si Si6 0.812218 0.747104 0.981316
Si Si7 0.294657 0.933292 0.317399
Si Si8 0.743242 0.741727 0.119579
O O1 0.984520 0.161396 0.594205
O O2 0.000000 0.039702 0.500000
O O3 0.671151 0.023188 0.402425
O O4 0.113715 0.992938 0.697300
O O5 0.469414 0.926638 0.109080
O O6 0.174291 0.855546 0.030692
O O7 0.273703 0.028462 0.093200
O O8 0.979946 0.941882 0.816666
O O9 0.429080 0.169586 0.258604
O O10 0.299833 0.013572 0.258020
O O11 0.643908 0.716135 0.815393
O O12 0.652658 0.834600 0.693546
O O13 0.931784 0.703409 0.875415
O O14 0.734446 0.838994 0.158488
O O15 0.500000 0.989051 0.000000
O O16 0.751247 0.746354 0.033837
O O17 0.500000 0.945021 0.500000
O O18 0.500000 0.695487 0.000000
#
# Coordination Sequence:
#
# PCOD9124060 Si02
#       8
#     4   4   4   4   4   4   4   4
#     4  12  26  44  66 106 143 187 241 296 361 424
#     4  11  21  46  72  97 138 185 241 290 351 429
#     4  12  26  45  70 101 147 191 237 294 361 430
#     4  10  23  41  68 100 138 180 239 299 354 414
#     4  11  25  43  71 102 139 186 235 290 358 424
#     4  10  20  41  69 101 130 179 241 293 347 420
#     4  11  25  44  70 103 138 183 238 302 356 422
#     4  11  23  44  69 103 140 186 236 289 362 431
#
# _framework density 21.667266000000001
#
# number of rings (size 3 to 8) (size 9 to 14) (size 15 to 20)
#    0.000    1.000    5.000    2.250    3.500    2.000 
#    2.250    0.625    0.000    0.000    0.000    0.000 
#    0.000    0.000    0.000    0.000    0.000    0.000 
#
# Total GULP energy -89138.799765 kJ/mol
# GULP energy per Si atom -5571.174985 kJ/mol
# Density = 2.161795 g / cm^3
# Si number density = 21.667266 Si / 1000 Ang^3
#
#
#
# Elastic Constant Matrix: (Units=GPa)
#
#
# Indices 1 2 3 4 5 6 
#
# 1 108.0779 25.9295 22.1560 0.0025 -1.6247 -0.0004
# 2 25.9295 81.4097 28.8152 0.0041 -5.2323 0.0004
# 3 22.1560 28.8152 126.0670 0.0094 6.8631 0.0021
# 4 0.0025 0.0041 0.0094 31.5665 0.0032 -6.2132
# 5 -1.6247 -5.2323 6.8631 0.0032 31.7437 -0.0001
# 6 -0.0004 0.0004 0.0021 -6.2132 -0.0001 18.2439
#
#
#
# Elastic Compliance Matrix: (Units=1/GPa)
#
#
# Indices 1 2 3 4 5 6 
#
# 1 0.010169 -0.002808 -0.001162 0.000000 0.000309 0.000000
# 2 -0.002808 0.014409 -0.002956 -0.000001 0.002870 0.000000
# 3 -0.001162 -0.002956 0.008947 -0.000002 -0.002481 -0.000002
# 4 0.000000 -0.000001 -0.000002 0.033955 -0.000003 0.011564
# 5 0.000309 0.002870 -0.002481 -0.000003 0.032528 -0.000001
# 6 0.000000 0.000000 -0.000002 0.011564 -0.000001 0.058751
#
#
# Mechanical properties :
#
#
# Convention : Reuss Voigt Hill
#
# Bulk Modulus (GPa) = 50.83167 52.15068 51.49117
# Shear Modulus (GPa) = 27.90663 32.22108 30.06385
#
# Velocity S-wave (km/s) = 3.59271 3.86046 3.72899
# Velocity P-wave (km/s) = 6.38131 6.63265 6.50819
#
# Compressibility (1/GPa) = 0.01967277
#
# Stress axis : x y z
#
# Youngs Moduli (GPa) = 98.33715 69.40273 111.76511
#
# Poissons Ratio (x) = 0.19486 0.12990
# Poissons Ratio (y) = 0.27610 0.33040
# Poissons Ratio (z) = 0.11429 0.20517
#
# Static dielectric constant tensor:
#      x y z
#    x 1.899600 0.000000 0.031370 
#    y 0.000000 1.818990 0.000000 
#    z 0.031370 0.000000 1.811570 
# 
# From -- ./inp_files/60716.got.cif
#   From: 2010.05.17/outbox.cif.g08.bks.cpg/sg5_31_cif.got.tgz:60716.got - 2010.06.03 18:56:24.
