data_PCOD9124198
_publ_section_title
;
Structure prediction by ZEFSAII (Michael W. Deem and Ramdas Pophale) SiO2 
 PCOD9124198
Probable space group: C 2
;
_chemical_formula_sum "Si O2"
_cell_formula_units_Z 30
_cell_length_a 24.344302
_cell_length_b 8.228062
_cell_length_c 7.810441
_cell_angle_alpha 90.000000
_cell_angle_beta 115.699427
_cell_angle_gamma 90.000000
_cell_volume 1409.725136
_symmetry_space_group_name_H-M "C 2"
_symmetry_group_IT_number 5
_symmetry_cell_setting 'monoclinic'
loop_
_space_group_symop_operation_xyz
x,y,z
-x,y,-z
1/2+x,1/2+y,z
1/2-x,1/2+y,-z
loop_
_atom_site_type_symbol
_atom_site_label
_atom_site_fract_x
_atom_site_fract_y
_atom_site_fract_z
Si Si1 0.310513 0.401430 0.219818
Si Si2 0.000000 0.167552 0.000000
Si Si3 0.068982 0.593422 0.900235
Si Si4 0.186408 0.389695 0.546686
Si Si5 0.193060 0.526057 0.907094
Si Si6 0.944024 0.462032 0.734944
Si Si7 0.690916 0.523073 0.422662
Si Si8 0.107455 0.963076 0.979359
O O1 0.304058 0.211792 0.158583
O O2 0.331130 0.419664 0.443383
O O3 0.245005 0.488775 0.114868
O O4 0.354893 0.492915 0.144748
O O5 0.035618 0.281092 0.183409
O O6 0.050015 0.069975 0.959379
O O7 0.125726 0.503341 0.890945
O O8 0.003443 0.546017 0.735223
O O9 0.067360 0.544802 0.096832
O O10 0.082081 0.782974 0.915304
O O11 0.205410 0.401367 0.769769
O O12 0.118948 0.465093 0.448874
O O13 0.237979 0.487958 0.515350
O O14 0.183254 0.210964 0.462644
O O15 0.654325 0.476280 0.201880
#
# Coordination Sequence:
#
# PCOD9124198 Si02
#       8
#     4   2   4   4   4   4   4   4
#     4  11  25  42  66 100 135 175 226 278 345 390
#     4  10  20  42  68  90 134 176 222 278 328 394
#     4   9  22  40  65  94 126 180 219 269 333 398
#     4  12  25  43  66 101 138 173 230 276 344 399
#     4  11  23  42  66  95 139 176 222 284 331 409
#     4  10  22  40  66  96 127 181 224 268 338 399
#     4  12  26  42  70 102 133 179 222 286 335 408
#     4  11  23  45  68  99 132 176 227 274 340 397
#
# _framework density 21.280746000000001
#
# number of rings (size 3 to 8) (size 9 to 14) (size 15 to 20)
#    0.000    1.333    2.667    3.200    5.600    4.800 
#    0.000    0.667    0.000    0.000    0.000    0.000 
#    0.000    0.000    0.000    0.000    0.000    0.000 
#
# Total GULP energy -83835.308149 kJ/mol
# GULP energy per Si atom -5589.020543 kJ/mol
# Density = 2.123231 g / cm^3
# Si number density = 21.280746 Si / 1000 Ang^3
#
#
#
# Elastic Constant Matrix: (Units=GPa)
#
#
# Indices 1 2 3 4 5 6 
#
# 1 154.8936 32.5008 30.9989 0.0000 5.0140 0.0000
# 2 32.5008 44.7887 -5.7272 0.0000 12.0644 0.0000
# 3 30.9989 -5.7272 52.9174 0.0000 -2.5573 0.0000
# 4 0.0000 0.0000 0.0000 -23.9991 0.0000 -10.6462
# 5 5.0140 12.0644 -2.5573 0.0000 33.5515 0.0000
# 6 0.0000 0.0000 0.0000 -10.6462 0.0000 24.3757
#
#
#
# Elastic Compliance Matrix: (Units=1/GPa)
#
#
# Indices 1 2 3 4 5 6 
#
# 1 0.009318 -0.007815 -0.006259 0.000000 0.000941 0.000000
# 2 -0.007815 0.031547 0.007529 0.000000 -0.009602 0.000000
# 3 -0.006259 0.007529 0.023379 0.000000 0.000010 0.000000
# 4 0.000000 0.000000 0.000000 -0.034905 0.000000 -0.015245
# 5 0.000941 -0.009602 0.000010 0.000000 0.033118 0.000000
# 6 0.000000 0.000000 0.000000 -0.015245 0.000000 0.034366
#
#
# Mechanical properties :
#
#
# Convention : Reuss Voigt Hill
#
# Bulk Modulus (GPa) = 19.54914 40.90496 30.22705
# Shear Modulus (GPa) = 39.38079 19.77409 29.57744
#
# Velocity S-wave (km/s) = 4.30645 3.05159 3.73214
# Velocity P-wave (km/s) = 5.82526 5.62846 5.72770
#
# Compressibility (1/GPa) = 0.05115316
#
# Stress axis : x y z
#
# Youngs Moduli (GPa) = 107.31848 31.69842 42.77315
#
# Poissons Ratio (x) = 0.24773 0.26771
# Poissons Ratio (y) = 0.83873 -0.32202
# Poissons Ratio (z) = 0.67170 -0.23864
#
# Static dielectric constant tensor:
#      x y z
#    x 1.796860 0.000000 0.012430 
#    y 0.000000 1.782980 0.000000 
#    z 0.012430 0.000000 1.763170 
# 
# From -- ./inp_files/30692.got.cif
#   From: 2010.05.17/outbox.cif.g08.bks.cpg/sg5_16_cif.got.tgz:30692.got - 2010.06.03 18:56:24.
