data_PCOD9124571
_publ_section_title
;
Structure prediction by ZEFSAII (Michael W. Deem and Ramdas Pophale) SiO2 
 PCOD9124571
Probable space group: C 2
;
_chemical_formula_sum "Si O2"
_cell_formula_units_Z 32
_cell_length_a 8.934976
_cell_length_b 23.273863
_cell_length_c 14.781230
_cell_angle_alpha 90.000000
_cell_angle_beta 28.509738
_cell_angle_gamma 90.000000
_cell_volume 1467.138990
_symmetry_space_group_name_H-M "C 2"
_symmetry_group_IT_number 5
_symmetry_cell_setting 'monoclinic'
loop_
_space_group_symop_operation_xyz
x,y,z
-x,y,-z
1/2+x,1/2+y,z
1/2-x,1/2+y,-z
loop_
_atom_site_type_symbol
_atom_site_label
_atom_site_fract_x
_atom_site_fract_y
_atom_site_fract_z
Si Si1 0.153690 0.633000 0.320660
Si Si2 0.146638 0.877065 0.196634
Si Si3 0.062612 0.731195 0.072360
Si Si4 0.800062 0.763928 0.701244
Si Si5 0.389707 0.107502 0.956070
Si Si6 0.241041 0.417701 0.562305
Si Si7 0.799846 0.340613 0.697246
Si Si8 0.622908 0.032566 0.198502
O O1 0.109257 0.699465 0.313451
O O2 0.046064 0.585179 0.307019
O O3 0.000000 0.627844 0.500000
O O4 0.517985 0.618856 0.145682
O O5 0.138274 0.815826 0.259168
O O6 0.936195 0.920228 0.365814
O O7 0.015796 0.872694 0.164473
O O8 0.500000 0.895182 0.000000
O O9 0.996679 0.668187 0.146062
O O10 0.802858 0.775861 0.239919
O O11 0.418666 0.756140 0.894136
O O12 0.000000 0.723794 0.000000
O O13 0.000000 0.772129 0.500000
O O14 0.472613 0.054011 0.850015
O O15 0.500000 0.099947 0.000000
O O16 0.500000 0.404994 0.500000
O O17 0.986695 0.367199 0.681070
O O18 0.057258 0.475461 0.679557
O O19 0.000000 0.347020 0.500000
O O20 0.000000 0.023852 0.000000
#
# Coordination Sequence:
#
# PCOD9124571 Si02
#       8
#     4   4   4   4   4   4   4   4
#     4   9  20  38  66 100 139 180 225 277 345 410
#     4  11  23  41  67  98 134 176 223 284 344 410
#     4  10  21  36  63 101 141 178 213 273 347 416
#     4  10  21  37  64 102 141 183 217 272 344 422
#     4   9  20  41  65 101 140 172 227 284 346 414
#     4  11  27  47  65  91 133 181 244 283 339 404
#     4  10  24  42  63  96 134 176 226 280 339 409
#     4  10  23  45  73  97 130 186 233 290 346 413
#
# _framework density 21.811157999999999
#
# number of rings (size 3 to 8) (size 9 to 14) (size 15 to 20)
#    0.000    2.000    1.250    0.375    7.000    4.500 
#    0.000    6.250    0.000    0.000    0.000    0.000 
#    0.000    0.000    0.000    0.000    0.000    0.000 
#
# Total GULP energy -89283.785562 kJ/mol
# GULP energy per Si atom -5580.236598 kJ/mol
# Density = 2.176151 g / cm^3
# Si number density = 21.811158 Si / 1000 Ang^3
#
#
#
# Elastic Constant Matrix: (Units=GPa)
#
#
# Indices 1 2 3 4 5 6 
#
# 1 110.2348 53.4070 16.1490 -0.0031 -9.3491 -0.0015
# 2 53.4070 129.8477 62.6769 -0.0036 -3.6870 -0.0016
# 3 16.1490 62.6769 60.3686 0.0118 -2.7479 0.0038
# 4 -0.0031 -0.0036 0.0118 87.5331 -0.0056 32.1252
# 5 -9.3491 -3.6870 -2.7479 -0.0056 24.1374 -0.0018
# 6 -0.0015 -0.0016 0.0038 32.1252 -0.0018 25.2483
#
#
#
# Elastic Compliance Matrix: (Units=1/GPa)
#
#
# Indices 1 2 3 4 5 6 
#
# 1 0.012132 -0.006810 0.004012 0.000000 0.004116 0.000000
# 2 -0.006810 0.019267 -0.018263 0.000003 -0.001774 -0.000001
# 3 0.004012 -0.018263 0.034576 -0.000006 0.002701 0.000001
# 4 0.000000 0.000003 -0.000006 0.021433 0.000003 -0.027270
# 5 0.004116 -0.001774 0.002701 0.000003 0.043060 -0.000001
# 6 0.000000 -0.000001 0.000001 -0.027270 -0.000001 0.074305
#
#
# Mechanical properties :
#
#
# Convention : Reuss Voigt Hill
#
# Bulk Modulus (GPa) = 41.92210 62.76857 52.34533
# Shear Modulus (GPa) = 19.61968 38.59830 29.10899
#
# Velocity S-wave (km/s) = 3.00246 4.21129 3.65717
# Velocity P-wave (km/s) = 5.59302 7.24481 6.47183
#
# Compressibility (1/GPa) = 0.02385377
#
# Stress axis : x y z
#
# Youngs Moduli (GPa) = 82.42643 51.90113 28.92165
#
# Poissons Ratio (x) = 0.35343 -0.11603
# Poissons Ratio (y) = 0.56130 0.52820
# Poissons Ratio (z) = -0.33069 0.94788
#
# Static dielectric constant tensor:
#      x y z
#    x 1.824820 0.000000 -0.057810 
#    y 0.000000 1.853800 0.000000 
#    z -0.057810 0.000000 1.808880 
# 
# From -- ./inp_files/51668.got.cif
#   From: 2010.05.17/outbox.cif.g08.bks.cpg/sg5_26_cif.got.tgz:51668.got - 2010.06.03 18:56:24.
