data_PCOD9124389
_publ_section_title
;
Structure prediction by ZEFSAII (Michael W. Deem and Ramdas Pophale) SiO2 
 PCOD9124389
Probable space group: C 2
;
_chemical_formula_sum "Si O2"
_cell_formula_units_Z 24
_cell_length_a 13.104058
_cell_length_b 6.624227
_cell_length_c 14.818900
_cell_angle_alpha 90.000000
_cell_angle_beta 63.220945
_cell_angle_gamma 90.000000
_cell_volume 1148.383971
_symmetry_space_group_name_H-M "C 2"
_symmetry_group_IT_number 5
_symmetry_cell_setting 'monoclinic'
loop_
_space_group_symop_operation_xyz
x,y,z
-x,y,-z
1/2+x,1/2+y,z
1/2-x,1/2+y,-z
loop_
_atom_site_type_symbol
_atom_site_label
_atom_site_fract_x
_atom_site_fract_y
_atom_site_fract_z
Si Si1 0.138891 0.230800 0.726768
Si Si2 0.260136 0.621760 0.628491
Si Si3 0.434588 0.024527 0.849590
Si Si4 0.541214 0.344432 0.669055
Si Si5 0.500000 0.231427 0.000000
Si Si6 0.000000 0.006727 0.500000
Si Si7 0.724459 0.393939 0.817923
O O1 0.221654 0.388992 0.645179
O O2 0.040328 0.370285 0.807652
O O3 0.071487 0.065147 0.695048
O O4 0.211787 0.102258 0.768506
O O5 0.163825 0.737276 0.611004
O O6 0.386100 0.639234 0.539117
O O7 0.253878 0.720738 0.731876
O O8 0.470310 0.208531 0.767942
O O9 0.321818 0.920129 0.854304
O O10 0.430276 0.106000 0.952718
O O11 0.485079 0.372848 0.594946
O O12 0.401084 0.351886 0.091696
#
# Coordination Sequence:
#
# PCOD9124389 Si02
#       7
#     4   4   4   4   2   2   4
#     4  10  20  45  71  88 142 177 218 297 328 390
#     4  10  23  45  65 102 136 176 234 283 333 409
#     4  11  24  45  69  97 138 179 229 284 336 408
#     4  10  23  45  65 102 136 176 234 283 333 409
#     4  12  24  46  62 110 138 174 236 274 348 412
#     4  12  24  40  74  98 136 190 220 272 362 392
#     4  11  24  45  69  97 138 179 229 284 336 408
#
# _framework density 20.898935000000002
#
# number of rings (size 3 to 8) (size 9 to 14) (size 15 to 20)
#    0.000    1.333    5.000    2.000    2.333    3.333 
#    3.000    6.667    0.000    0.000    0.000    0.000 
#    0.000    0.000    0.000    0.000    0.000    0.000 
#
# Total GULP energy -67027.622654 kJ/mol
# GULP energy per Si atom -5585.635221 kJ/mol
# Density = 2.085137 g / cm^3
# Si number density = 20.898935 Si / 1000 Ang^3
#
#
#
# Elastic Constant Matrix: (Units=GPa)
#
#
# Indices 1 2 3 4 5 6 
#
# 1 62.5192 -10.4452 -4.5182 0.0000 8.5820 0.0000
# 2 -10.4452 84.1683 11.9146 0.0000 1.5736 0.0000
# 3 -4.5182 11.9146 51.3986 0.0000 0.3932 0.0000
# 4 0.0000 0.0000 0.0000 1.3340 0.0000 -3.2677
# 5 8.5820 1.5736 0.3932 0.0000 46.8998 0.0000
# 6 0.0000 0.0000 0.0000 -3.2677 0.0000 14.1834
#
#
#
# Elastic Compliance Matrix: (Units=1/GPa)
#
#
# Indices 1 2 3 4 5 6 
#
# 1 0.016838 0.002001 0.001040 0.000000 -0.003157 0.000000
# 2 0.002001 0.012529 -0.002723 0.000000 -0.000764 0.000000
# 3 0.001040 -0.002723 0.020180 0.000000 -0.000268 0.000000
# 4 0.000000 0.000000 0.000000 1.720829 0.000000 0.396463
# 5 -0.003157 -0.000764 -0.000268 0.000000 0.021928 0.000000
# 6 0.000000 0.000000 0.000000 0.396463 0.000000 0.161847
#
#
# Mechanical properties :
#
#
# Convention : Reuss Voigt Hill
#
# Bulk Modulus (GPa) = 19.92599 21.33205 20.62902
# Shear Modulus (GPa) = 2.53776 25.89242 14.21509
#
# Velocity S-wave (km/s) = 1.10315 3.52367 2.61086
# Velocity P-wave (km/s) = 3.34331 5.17536 4.35673
#
# Compressibility (1/GPa) = 0.05018571
#
# Stress axis : x y z
#
# Youngs Moduli (GPa) = 59.38946 79.81491 49.55303
#
# Poissons Ratio (x) = -0.15974 -0.05155
# Poissons Ratio (y) = -0.11886 0.13491
# Poissons Ratio (z) = -0.06179 0.21730
#
# Static dielectric constant tensor:
#      x y z
#    x 1.746540 0.000000 0.002500 
#    y 0.000000 1.735880 0.000000 
#    z 0.002500 0.000000 1.778550 
# 
# From -- ./inp_files/49006.got.cif
#   From: 2010.05.17/outbox.cif.g08.bks.cpg/sg5_25_cif.got.tgz:49006.got - 2010.06.03 18:56:24.
