data_PCOD9124841
_publ_section_title
;
Structure prediction by ZEFSAII (Michael W. Deem and Ramdas Pophale) SiO2 
 PCOD9124841
Probable space group: C 2
;
_chemical_formula_sum "Si O2"
_cell_formula_units_Z 20
_cell_length_a 14.547565
_cell_length_b 9.808769
_cell_length_c 7.489405
_cell_angle_alpha 90.000000
_cell_angle_beta 122.560634
_cell_angle_gamma 90.000000
_cell_volume 900.716634
_symmetry_space_group_name_H-M "C 2"
_symmetry_group_IT_number 5
_symmetry_cell_setting 'monoclinic'
loop_
_space_group_symop_operation_xyz
x,y,z
-x,y,-z
1/2+x,1/2+y,z
1/2-x,1/2+y,-z
loop_
_atom_site_type_symbol
_atom_site_label
_atom_site_fract_x
_atom_site_fract_y
_atom_site_fract_z
Si Si1 0.260796 0.247060 0.097179
Si Si2 0.646550 0.849323 0.309036
Si Si3 0.333797 0.154017 0.539020
Si Si4 0.018250 0.863828 0.735053
Si Si5 0.466575 0.665408 0.259639
O O1 0.195567 0.349936 0.160349
O O2 0.321265 0.153046 0.308956
O O3 0.357936 0.320327 0.095730
O O4 0.164226 0.174283 0.892083
O O5 0.727121 0.738674 0.487134
O O6 0.528924 0.784208 0.219225
O O7 0.656661 0.000847 0.389508
O O8 0.434940 0.247111 0.704991
O O9 0.000000 0.871733 0.500000
O O10 0.996710 0.017393 0.775473
O O11 0.500000 0.677849 0.500000
#
# Coordination Sequence:
#
# PCOD9124841 Si02
#       5
#     4   4   4   4   4
#     4   9  22  39  65  86 125 159 203 251 303 357
#     4  10  21  38  65  88 124 161 202 250 308 356
#     4   9  20  37  66  88 123 156 202 247 310 359
#     4   9  19  38  62  90 121 160 194 254 308 361
#     4  11  23  38  64  90 124 162 208 247 303 361
#
# _framework density 22.204542
#
# number of rings (size 3 to 8) (size 9 to 14) (size 15 to 20)
#    1.200    1.200    0.000    1.800    2.800    5.600 
#    0.000    0.000    8.800    0.000    0.000    0.000 
#    0.000    0.000    0.000    0.000    0.000    0.000 
#
# Total GULP energy -55757.236351 kJ/mol
# GULP energy per Si atom -5575.723635 kJ/mol
# Density = 2.215400 g / cm^3
# Si number density = 22.204542 Si / 1000 Ang^3
#
#
#
# Elastic Constant Matrix: (Units=GPa)
#
#
# Indices 1 2 3 4 5 6 
#
# 1 65.2710 24.7075 34.1883 0.0000 28.7664 0.0000
# 2 24.7075 154.9828 43.8935 0.0000 18.5916 0.0000
# 3 34.1883 43.8935 92.6760 0.0000 23.2991 0.0000
# 4 0.0000 0.0000 0.0000 4.2210 0.0000 9.8150
# 5 28.7664 18.5916 23.2991 0.0000 41.5317 0.0000
# 6 0.0000 0.0000 0.0000 9.8150 0.0000 29.3178
#
#
#
# Elastic Compliance Matrix: (Units=1/GPa)
#
#
# Indices 1 2 3 4 5 6 
#
# 1 0.024320 -0.000778 -0.005188 0.000000 -0.013587 0.000000
# 2 -0.000778 0.007567 -0.003004 0.000000 -0.001163 0.000000
# 3 -0.005188 -0.003004 0.015001 0.000000 -0.003478 0.000000
# 4 0.000000 0.000000 0.000000 1.069348 0.000000 -0.357997
# 5 -0.013587 -0.001163 -0.003478 0.000000 0.035960 0.000000
# 6 0.000000 0.000000 0.000000 -0.357997 0.000000 0.153960
#
#
# Mechanical properties :
#
#
# Convention : Reuss Voigt Hill
#
# Bulk Modulus (GPa) = 34.54442 57.61205 46.07823
# Shear Modulus (GPa) = 3.74884 29.02347 16.38616
#
# Velocity S-wave (km/s) = 1.30076 3.61930 2.71950
# Velocity P-wave (km/s) = 4.22459 6.59304 5.53693
#
# Compressibility (1/GPa) = 0.02894824
#
# Stress axis : x y z
#
# Youngs Moduli (GPa) = 41.11770 132.15692 66.66130
#
# Poissons Ratio (x) = 0.10284 0.34581
# Poissons Ratio (y) = 0.03200 0.20028
# Poissons Ratio (z) = 0.21330 0.39705
#
# Static dielectric constant tensor:
#      x y z
#    x 1.832330 0.000000 -0.017450 
#    y 0.000000 1.776710 0.000000 
#    z -0.017450 0.000000 1.880470 
# 
# From -- ./inp_files/26832.got.cif
#   From: 2010.05.17/outbox.cif.g08.bks.cpg/sg5_14_cif.got.tgz:26832.got - 2010.06.03 18:56:24.
