data_PCOD9124549
_publ_section_title
;
Structure prediction by ZEFSAII (Michael W. Deem and Ramdas Pophale) SiO2 
 PCOD9124549
Probable space group: C 2
;
_chemical_formula_sum "Si O2"
_cell_formula_units_Z 28
_cell_length_a 13.436783
_cell_length_b 5.051190
_cell_length_c 22.026713
_cell_angle_alpha 90.000000
_cell_angle_beta 76.422705
_cell_angle_gamma 90.000000
_cell_volume 1453.212552
_symmetry_space_group_name_H-M "C 2"
_symmetry_group_IT_number 5
_symmetry_cell_setting 'monoclinic'
loop_
_space_group_symop_operation_xyz
x,y,z
-x,y,-z
1/2+x,1/2+y,z
1/2-x,1/2+y,-z
loop_
_atom_site_type_symbol
_atom_site_label
_atom_site_fract_x
_atom_site_fract_y
_atom_site_fract_z
Si Si1 0.759864 0.598450 0.457881
Si Si2 0.476952 0.266829 0.373808
Si Si3 0.524912 0.777733 0.926687
Si Si4 0.994387 0.703119 0.772043
Si Si5 0.056177 0.282204 0.427347
Si Si6 0.618986 0.705751 0.162519
Si Si7 0.139182 0.775057 0.860618
O O1 0.749815 0.300944 0.483914
O O2 0.667923 0.672468 0.426453
O O3 0.867707 0.656525 0.411346
O O4 0.484974 0.267099 0.300515
O O5 0.496644 0.555229 0.398969
O O6 0.556349 0.056138 0.391055
O O7 0.423579 0.758080 0.899293
O O8 0.602569 0.561711 0.888062
O O9 0.578207 0.060945 0.909795
O O10 0.500000 0.727146 0.000000
O O11 0.943623 0.416046 0.787711
O O12 0.096142 0.725559 0.798818
O O13 0.915754 0.915137 0.811849
O O14 0.000000 0.326029 0.500000
O O15 0.739746 0.742503 0.151370
#
# Coordination Sequence:
#
# PCOD9124549 Si02
#       7
#     4   4   4   4   4   4   4
#     4  12  23  39  61  85 113 149 184 230 296 360
#     4  12  24  40  60  88 115 149 195 246 292 359
#     4  10  21  36  59  95 125 156 200 241 288 346
#     4  10  23  39  58  84 116 151 203 247 288 346
#     4  12  23  40  63  84 116 150 185 235 304 358
#     4  10  21  40  61  84 120 162 197 244 293 337
#     4  10  21  39  61  83 122 163 194 246 291 337
#
# _framework density 19.267657
#
# number of rings (size 3 to 8) (size 9 to 14) (size 15 to 20)
#    0.000    1.143    2.857    3.429    0.000    3.429 
#    0.000    0.000    0.000    0.000    0.000    0.000 
#    0.000    0.000    0.000    0.000    0.000    0.000 
#
# Total GULP energy -78283.536727 kJ/mol
# GULP energy per Si atom -5591.681195 kJ/mol
# Density = 1.922380 g / cm^3
# Si number density = 19.267657 Si / 1000 Ang^3
#
#
#
# Elastic Constant Matrix: (Units=GPa)
#
#
# Indices 1 2 3 4 5 6 
#
# 1 128.1076 -11.9609 28.1549 0.0000 7.2041 0.0000
# 2 -11.9609 55.8231 -13.2575 0.0000 8.6052 -0.0001
# 3 28.1549 -13.2575 89.0299 0.0000 19.9885 0.0000
# 4 0.0000 0.0000 0.0000 14.1856 0.0000 5.8547
# 5 7.2041 8.6052 19.9885 0.0000 9.4732 0.0000
# 6 0.0000 -0.0001 0.0000 5.8547 0.0000 18.4416
#
#
#
# Elastic Compliance Matrix: (Units=1/GPa)
#
#
# Indices 1 2 3 4 5 6 
#
# 1 0.008660 0.003156 -0.000278 0.000000 -0.008866 0.000000
# 2 0.003156 0.038265 0.024783 0.000000 -0.089452 0.000000
# 3 -0.000278 0.024783 0.038037 0.000000 -0.102558 0.000000
# 4 0.000000 0.000000 0.000000 0.081124 -0.000001 -0.025755
# 5 -0.008866 -0.089452 -0.102558 -0.000001 0.409958 -0.000001
# 6 0.000000 0.000000 0.000000 -0.025755 -0.000001 0.062402
#
#
# Mechanical properties :
#
#
# Convention : Reuss Voigt Hill
#
# Bulk Modulus (GPa) = 7.12839 30.98151 19.05495
# Shear Modulus (GPa) = 7.93796 26.42168 17.17982
#
# Velocity S-wave (km/s) = 2.03194 3.70712 2.98927
# Velocity P-wave (km/s) = 3.03525 5.86840 4.67177
#
# Compressibility (1/GPa) = 0.14028414
#
# Stress axis : x y z
#
# Youngs Moduli (GPa) = 115.46896 26.13361 26.29048
#
# Poissons Ratio (x) = -0.08248 0.00732
# Poissons Ratio (y) = -0.36444 -0.65156
# Poissons Ratio (z) = 0.03213 -0.64768
#
# Static dielectric constant tensor:
#      x y z
#    x 1.672910 0.000000 0.013350 
#    y 0.000000 1.654690 0.000000 
#    z 0.013350 0.000000 1.637310 
# 
# From -- ./inp_files/64965.got.cif
#   From: 2010.05.17/outbox.cif.g08.bks.cpg/sg5_33_cif.got.tgz:64965.got - 2010.06.03 18:56:24.
