data_PCOD9124740
_publ_section_title
;
Structure prediction by ZEFSAII (Michael W. Deem and Ramdas Pophale) SiO2 
 PCOD9124740
Probable space group: C 2
;
_chemical_formula_sum "Si O2"
_cell_formula_units_Z 30
_cell_length_a 11.979767
_cell_length_b 8.101890
_cell_length_c 21.535583
_cell_angle_alpha 90.000000
_cell_angle_beta 37.618619
_cell_angle_gamma 90.000000
_cell_volume 1275.873800
_symmetry_space_group_name_H-M "C 2"
_symmetry_group_IT_number 5
_symmetry_cell_setting 'monoclinic'
loop_
_space_group_symop_operation_xyz
x,y,z
-x,y,-z
1/2+x,1/2+y,z
1/2-x,1/2+y,-z
loop_
_atom_site_type_symbol
_atom_site_label
_atom_site_fract_x
_atom_site_fract_y
_atom_site_fract_z
Si Si1 0.544451 0.681440 0.076306
Si Si2 0.796720 0.902166 0.175308
Si Si3 0.110238 0.718759 0.692580
Si Si4 0.000000 0.116104 0.500000
Si Si5 0.804206 0.812286 0.537173
Si Si6 0.966270 0.364685 0.232355
Si Si7 0.482283 0.026566 0.392263
Si Si8 0.115991 0.864841 0.113921
O O1 0.390992 0.571481 0.110615
O O2 0.458092 0.797586 0.166994
O O3 0.649222 0.546734 0.072960
O O4 0.694236 0.771573 0.969850
O O5 0.656934 0.833496 0.185957
O O6 0.967498 0.800651 0.127351
O O7 0.681179 0.958555 0.287285
O O8 0.329198 0.725467 0.595744
O O9 0.053720 0.652200 0.650088
O O10 0.056474 0.561448 0.758463
O O11 0.989868 0.863562 0.773923
O O12 0.927840 0.978990 0.482370
O O13 0.695660 0.803953 0.650455
O O14 0.914221 0.646170 0.476182
O O15 0.647898 0.865730 0.556932
#
# Coordination Sequence:
#
# PCOD9124740 Si02
#       8
#     4   4   4   2   4   4   4   4
#     4  10  21  38  62  85 114 154 198 253 299 364
#     4   8  21  36  60  82 115 152 197 242 301 349
#     4   9  19  36  55  82 117 157 185 248 292 359
#     4   8  18  30  54  84 110 156 196 224 304 352
#     4   9  19  33  55  83 116 151 192 241 287 362
#     4   9  19  39  60  82 119 157 197 237 308 354
#     4   9  19  37  54  82 118 155 193 238 300 355
#     4  10  21  38  59  83 114 150 204 244 308 356
#
# _framework density 23.513297000000001
#
# number of rings (size 3 to 8) (size 9 to 14) (size 15 to 20)
#    0.800    2.667    0.000    0.800    3.733    5.867 
#    2.400    0.000    8.800    0.000    0.000    0.000 
#    0.000    0.000    0.000    0.000    0.000    0.000 
#
# Total GULP energy -83539.792179 kJ/mol
# GULP energy per Si atom -5569.319479 kJ/mol
# Density = 2.345978 g / cm^3
# Si number density = 23.513297 Si / 1000 Ang^3
#
#
#
# Elastic Constant Matrix: (Units=GPa)
#
#
# Indices 1 2 3 4 5 6 
#
# 1 34.8597 -6.3944 5.6661 0.0000 9.3334 0.0000
# 2 -6.3944 21.0066 17.0962 0.0000 5.1343 0.0000
# 3 5.6661 17.0962 83.2626 0.0000 1.4214 0.0000
# 4 0.0000 0.0000 0.0000 32.6936 0.0000 5.0493
# 5 9.3334 5.1343 1.4214 0.0000 20.2746 0.0000
# 6 0.0000 0.0000 0.0000 5.0493 0.0000 11.1110
#
#
#
# Elastic Compliance Matrix: (Units=1/GPa)
#
#
# Indices 1 2 3 4 5 6 
#
# 1 0.040945 0.024476 -0.007393 0.000000 -0.024529 0.000000
# 2 0.024476 0.075837 -0.016737 0.000000 -0.029299 0.000000
# 3 -0.007393 -0.016737 0.015838 0.000000 0.006531 0.000000
# 4 0.000000 0.000000 0.000000 0.032896 0.000000 -0.014949
# 5 -0.024529 -0.029299 0.006531 0.000000 0.067576 0.000000
# 6 0.000000 0.000000 0.000000 -0.014949 0.000000 0.096794
#
#
# Mechanical properties :
#
#
# Convention : Reuss Voigt Hill
#
# Bulk Modulus (GPa) = 7.50124 19.09610 13.29867
# Shear Modulus (GPa) = 13.38215 20.99991 17.19103
#
# Velocity S-wave (km/s) = 2.38824 2.99173 2.70686
# Velocity P-wave (km/s) = 3.28664 4.48029 3.92906
#
# Compressibility (1/GPa) = 0.13331129
#
# Stress axis : x y z
#
# Youngs Moduli (GPa) = 24.42291 13.18626 63.13780
#
# Poissons Ratio (x) = -0.32274 0.46679
# Poissons Ratio (y) = -0.59777 1.05673
# Poissons Ratio (z) = 0.18056 0.22070
#
# Static dielectric constant tensor:
#      x y z
#    x 1.979820 0.000000 0.000030 
#    y 0.000000 1.889050 0.000000 
#    z 0.000030 0.000000 1.956310 
# 
# From -- ./inp_files/70567.got.cif
#   From: 2010.05.17/outbox.cif.g08.bks.cpg/sg5_36_cif.got.tgz:70567.got - 2010.06.03 18:56:24.
