data_PCOD9124339
_publ_section_title
;
Structure prediction by ZEFSAII (Michael W. Deem and Ramdas Pophale) SiO2 
 PCOD9124339
Probable space group: C 2
;
_chemical_formula_sum "Si O2"
_cell_formula_units_Z 26
_cell_length_a 23.969197
_cell_length_b 7.991278
_cell_length_c 9.690502
_cell_angle_alpha 90.000000
_cell_angle_beta 137.777941
_cell_angle_gamma 90.000000
_cell_volume 1247.351889
_symmetry_space_group_name_H-M "C 2"
_symmetry_group_IT_number 5
_symmetry_cell_setting 'monoclinic'
loop_
_space_group_symop_operation_xyz
x,y,z
-x,y,-z
1/2+x,1/2+y,z
1/2-x,1/2+y,-z
loop_
_atom_site_type_symbol
_atom_site_label
_atom_site_fract_x
_atom_site_fract_y
_atom_site_fract_z
Si Si1 0.647678 0.555230 0.748447
Si Si2 0.500000 0.932250 0.000000
Si Si3 0.828043 0.313578 0.758869
Si Si4 0.256761 0.672019 0.339437
Si Si5 0.944605 0.553722 0.615705
Si Si6 0.250785 0.527660 0.804762
Si Si7 0.500000 0.301140 0.500000
Si Si8 0.500000 0.793764 0.500000
O O1 0.675690 0.601437 0.645849
O O2 0.586305 0.398987 0.648210
O O3 0.584522 0.696270 0.684886
O O4 0.726128 0.534267 0.991687
O O5 0.426784 0.821379 0.928323
O O6 0.460489 0.042129 0.806024
O O7 0.798722 0.506408 0.732262
O O8 0.793038 0.242303 0.549515
O O9 0.796805 0.181765 0.814830
O O10 0.223232 0.843596 0.205791
O O11 0.846666 0.555614 0.403329
O O12 0.996322 0.696660 0.633760
O O13 0.979398 0.393819 0.599704
#
# Coordination Sequence:
#
# PCOD9124339 Si02
#       8
#     4   2   4   4   4   4   2   2
#     4  11  25  43  70 101 140 177 238 280 358 403
#     4  12  24  44  68 100 134 190 226 298 348 418
#     4  12  26  47  72  99 146 183 240 285 357 414
#     4  12  25  46  72 103 141 185 235 288 344 425
#     4  11  23  42  68  97 141 176 237 277 356 403
#     4  12  26  46  71 109 136 190 229 296 343 429
#     4  10  26  44  66 104 138 182 224 300 342 418
#     4  10  20  44  66  98 136 182 216 294 338 418
#
# _framework density 20.844156999999999
#
# number of rings (size 3 to 8) (size 9 to 14) (size 15 to 20)
#    0.000    0.615    4.615    1.846    6.462    2.462 
#    0.000    0.769    0.000    0.000    0.000    0.000 
#    0.000    0.000    0.000    0.000    0.000    0.000 
#
# Total GULP energy -72570.050047 kJ/mol
# GULP energy per Si atom -5582.311542 kJ/mol
# Density = 2.079671 g / cm^3
# Si number density = 20.844157 Si / 1000 Ang^3
#
#
#
# Elastic Constant Matrix: (Units=GPa)
#
#
# Indices 1 2 3 4 5 6 
#
# 1 105.0379 40.5526 15.5069 0.0000 10.7401 0.0000
# 2 40.5526 114.0171 12.7316 0.0000 5.8757 0.0000
# 3 15.5069 12.7316 65.2891 0.0000 -7.7102 0.0000
# 4 0.0000 0.0000 0.0000 44.1848 0.0000 -5.1035
# 5 10.7401 5.8757 -7.7102 0.0000 39.2418 0.0000
# 6 0.0000 0.0000 0.0000 -5.1035 0.0000 58.2046
#
#
#
# Elastic Compliance Matrix: (Units=1/GPa)
#
#
# Indices 1 2 3 4 5 6 
#
# 1 0.011623 -0.003706 -0.002404 0.000000 -0.003098 0.000000
# 2 -0.003706 0.010263 -0.001211 0.000000 -0.000760 0.000000
# 3 -0.002404 -0.001211 0.016608 0.000000 0.004102 0.000000
# 4 0.000000 0.000000 0.000000 0.022864 0.000000 0.002005
# 5 -0.003098 -0.000760 0.004102 0.000000 0.027251 0.000000
# 6 0.000000 0.000000 0.000000 0.002005 0.000000 0.017357
#
#
# Mechanical properties :
#
#
# Convention : Reuss Voigt Hill
#
# Bulk Modulus (GPa) = 41.92389 46.88069 44.40229
# Shear Modulus (GPa) = 38.89320 42.69644 40.79482
#
# Velocity S-wave (km/s) = 4.32430 4.53080 4.42875
# Velocity P-wave (km/s) = 6.71487 7.06475 6.89203
#
# Compressibility (1/GPa) = 0.02385275
#
# Stress axis : x y z
#
# Youngs Moduli (GPa) = 86.03785 97.43675 60.21185
#
# Poissons Ratio (x) = 0.36108 0.14474
# Poissons Ratio (y) = 0.31884 0.07291
# Poissons Ratio (z) = 0.20682 0.11799
#
# Static dielectric constant tensor:
#      x y z
#    x 1.719470 0.000000 -0.003960 
#    y 0.000000 1.828970 0.000000 
#    z -0.003960 0.000000 1.732190 
# 
# From -- ./inp_files/26737.got.cif
#   From: 2010.05.17/outbox.cif.g08.bks.cpg/sg5_14_cif.got.tgz:26737.got - 2010.06.03 18:56:24.
