data_PCOD9124992
_publ_section_title
;
Structure prediction by ZEFSAII (Michael W. Deem and Ramdas Pophale) SiO2 
 PCOD9124992
Probable space group: C 2
;
_chemical_formula_sum "Si O2"
_cell_formula_units_Z 26
_cell_length_a 7.998546
_cell_length_b 22.680454
_cell_length_c 8.588920
_cell_angle_alpha 90.000000
_cell_angle_beta 127.041934
_cell_angle_gamma 90.000000
_cell_volume 1243.684615
_symmetry_space_group_name_H-M "C 2"
_symmetry_group_IT_number 5
_symmetry_cell_setting 'monoclinic'
loop_
_space_group_symop_operation_xyz
x,y,z
-x,y,-z
1/2+x,1/2+y,z
1/2-x,1/2+y,-z
loop_
_atom_site_type_symbol
_atom_site_label
_atom_site_fract_x
_atom_site_fract_y
_atom_site_fract_z
Si Si1 0.500000 0.513330 0.000000
Si Si2 0.046291 0.325204 0.705173
Si Si3 0.103950 0.197696 0.419957
Si Si4 0.223499 0.419927 0.026165
Si Si5 0.208813 0.614945 0.721200
Si Si6 0.541287 0.210456 0.839991
Si Si7 0.335763 0.318433 0.277584
O O1 0.351377 0.475045 0.031239
O O2 0.661103 0.556234 0.179768
O O3 0.049517 0.253468 0.692199
O O4 0.870743 0.327059 0.739350
O O5 0.000000 0.342912 0.500000
O O6 0.196199 0.374505 0.863681
O O7 0.147945 0.161613 0.291322
O O8 0.328957 0.215770 0.617382
O O9 0.000000 0.160094 0.500000
O O10 0.374051 0.381345 0.221765
O O11 0.000000 0.430951 0.000000
O O12 0.143122 0.649131 0.841742
O O13 0.000000 0.605586 0.500000
O O14 0.673008 0.267059 0.855167
O O15 0.500000 0.212255 0.000000
O O16 0.500000 0.301975 0.500000
#
# Coordination Sequence:
#
# PCOD9124992 Si02
#       7
#     2   4   4   4   4   4   4
#     4  12  28  48  76  94 136 200 248 294 348 400
#     4  10  21  39  68  99 140 171 212 287 353 426
#     4  10  21  39  64 104 133 174 218 274 368 424
#     4  10  27  46  64 101 139 182 248 289 342 423
#     4  10  24  49  69 100 140 179 238 292 344 425
#     4  11  23  38  67 106 144 173 219 288 355 436
#     4  11  21  40  64  99 138 173 217 282 356 421
#
# _framework density 20.905622999999999
#
# number of rings (size 3 to 8) (size 9 to 14) (size 15 to 20)
#    0.000    1.538    3.077    0.462    9.692    1.231 
#    5.538    0.000    0.000    0.000    0.000    0.000 
#    0.000    0.000    0.000    0.000    0.000    0.000 
#
# Total GULP energy -72390.074800 kJ/mol
# GULP energy per Si atom -5568.467292 kJ/mol
# Density = 2.085804 g / cm^3
# Si number density = 20.905623 Si / 1000 Ang^3
#
#
#
# Elastic Constant Matrix: (Units=GPa)
#
#
# Indices 1 2 3 4 5 6 
#
# 1 111.3973 64.4445 49.9452 0.0000 -26.3780 0.0000
# 2 64.4445 126.2849 58.9684 0.0000 -12.4024 0.0000
# 3 49.9452 58.9684 97.0179 0.0000 -21.6089 0.0000
# 4 0.0000 0.0000 0.0000 32.4564 0.0000 14.2304
# 5 -26.3780 -12.4024 -21.6089 0.0000 38.8054 0.0000
# 6 0.0000 0.0000 0.0000 14.2304 0.0000 40.1376
#
#
#
# Elastic Compliance Matrix: (Units=1/GPa)
#
#
# Indices 1 2 3 4 5 6 
#
# 1 0.015211 -0.005789 -0.002764 0.000000 0.006950 0.000000
# 2 -0.005789 0.013262 -0.005723 0.000000 -0.002883 0.000000
# 3 -0.002764 -0.005723 0.016419 0.000000 0.005435 0.000000
# 4 0.000000 0.000000 0.000000 0.036482 0.000000 -0.012934
# 5 0.006950 -0.002883 0.005435 0.000000 0.032599 0.000000
# 6 0.000000 0.000000 0.000000 -0.012934 0.000000 0.029500
#
#
# Mechanical properties :
#
#
# Convention : Reuss Voigt Hill
#
# Bulk Modulus (GPa) = 61.19716 75.71290 68.45503
# Shear Modulus (GPa) = 28.17365 33.03602 30.60483
#
# Velocity S-wave (km/s) = 3.67503 3.97954 3.83031
# Velocity P-wave (km/s) = 6.88073 7.57699 7.23724
#
# Compressibility (1/GPa) = 0.01634063
#
# Stress axis : x y z
#
# Youngs Moduli (GPa) = 65.74221 75.40439 60.90460
#
# Poissons Ratio (x) = 0.43652 0.16834
# Poissons Ratio (y) = 0.38059 0.34853
# Poissons Ratio (z) = 0.18171 0.43151
#
# Static dielectric constant tensor:
#      x y z
#    x 1.766760 0.000000 -0.038960 
#    y 0.000000 1.752950 0.000000 
#    z -0.038960 0.000000 1.798520 
# 
# From -- ./inp_files/17094.got.cif
#   From: 2010.05.17/outbox.cif.g08.bks.cpg/sg5_9_cif.got.tgz:17094.got - 2010.06.03 18:56:24.
