data_PCOD9124096
_publ_section_title
;
Structure prediction by ZEFSAII (Michael W. Deem and Ramdas Pophale) SiO2 
 PCOD9124096
Probable space group: C 2
;
_chemical_formula_sum "Si O2"
_cell_formula_units_Z 28
_cell_length_a 12.723719
_cell_length_b 5.656779
_cell_length_c 18.362843
_cell_angle_alpha 90.000000
_cell_angle_beta 69.287056
_cell_angle_gamma 90.000000
_cell_volume 1236.243222
_symmetry_space_group_name_H-M "C 2"
_symmetry_group_IT_number 5
_symmetry_cell_setting 'monoclinic'
loop_
_space_group_symop_operation_xyz
x,y,z
-x,y,-z
1/2+x,1/2+y,z
1/2-x,1/2+y,-z
loop_
_atom_site_type_symbol
_atom_site_label
_atom_site_fract_x
_atom_site_fract_y
_atom_site_fract_z
Si Si1 0.236991 0.822040 0.095666
Si Si2 0.571748 0.931901 0.168770
Si Si3 0.072375 0.140622 0.041051
Si Si4 0.338548 0.555062 0.743695
Si Si5 0.120608 0.583540 0.433258
Si Si6 0.759972 0.090236 0.601682
Si Si7 0.506313 0.180528 0.676294
O O1 0.169582 0.577484 0.105797
O O2 0.162612 0.997106 0.065316
O O3 0.225806 0.883636 0.183897
O O4 0.358911 0.807257 0.031124
O O5 0.511112 0.781716 0.121166
O O6 0.634976 0.773496 0.212170
O O7 0.497005 0.094315 0.239219
O O8 0.000000 0.994461 0.000000
O O9 0.272713 0.596077 0.686173
O O10 0.461191 0.448609 0.691490
O O11 0.176130 0.330501 0.440262
O O12 0.000000 0.612387 0.500000
O O13 0.087254 0.572068 0.355367
O O14 0.191302 0.827542 0.429949
O O15 0.629119 0.126024 0.615615
#
# Coordination Sequence:
#
# PCOD9124096 Si02
#       7
#     4   4   4   4   4   4   4
#     4  10  21  41  56  85 125 163 214 277 325 392
#     4  10  20  42  61  84 129 163 210 280 321 384
#     4  11  23  38  59  85 119 168 217 266 332 385
#     4   9  21  41  61  91 127 167 215 277 323 390
#     4  11  25  45  68 103 140 173 218 270 324 394
#     4  11  24  42  72  99 130 181 215 265 335 389
#     4  10  23  41  66  96 133 168 224 268 323 398
#
# _framework density 22.649263999999999
#
# number of rings (size 3 to 8) (size 9 to 14) (size 15 to 20)
#    0.000    1.714    2.857    0.429    4.000    1.714 
#    7.714    0.000    0.000    0.000    0.000    0.000 
#    0.000    0.000    0.000    0.000    0.000    0.000 
#
# Total GULP energy -78006.028043 kJ/mol
# GULP energy per Si atom -5571.859146 kJ/mol
# Density = 2.259771 g / cm^3
# Si number density = 22.649264 Si / 1000 Ang^3
#
#
#
# Elastic Constant Matrix: (Units=GPa)
#
#
# Indices 1 2 3 4 5 6 
#
# 1 76.1230 24.2659 20.8340 0.0000 0.3949 -0.0002
# 2 24.2659 85.0888 12.4621 0.0000 -6.3463 -0.0003
# 3 20.8340 12.4621 77.7863 0.0000 8.2418 -0.0001
# 4 0.0000 0.0000 0.0000 6.6627 0.0000 3.2100
# 5 0.3949 -6.3463 8.2418 0.0000 41.6262 0.0000
# 6 -0.0002 -0.0003 -0.0001 3.2100 0.0000 -1.7546
#
#
#
# Elastic Compliance Matrix: (Units=1/GPa)
#
#
# Indices 1 2 3 4 5 6 
#
# 1 0.015321 -0.003863 -0.003480 0.000000 -0.000045 0.000000
# 2 -0.003863 0.013221 -0.001329 0.000000 0.002315 -0.000001
# 3 -0.003480 -0.001329 0.014319 0.000000 -0.003005 0.000000
# 4 0.000000 0.000000 0.000000 0.079775 0.000000 0.145946
# 5 -0.000045 0.002315 -0.003005 0.000000 0.024972 0.000000
# 6 0.000000 -0.000001 0.000000 0.145946 0.000000 -0.302928
#
#
# Mechanical properties :
#
#
# Convention : Reuss Voigt Hill
#
# Bulk Modulus (GPa) = 39.18818 39.34690 39.26754
# Shear Modulus (GPa) = -38.61877 21.40259 -8.60809
#
# Velocity S-wave (km/s) = -4.13374 3.07735 -1.95163
# Velocity P-wave (km/s) = 2.33324 5.48058 3.50662
#
# Compressibility (1/GPa) = 0.02551790
#
# Stress axis : x y z
#
# Youngs Moduli (GPa) = 65.27148 75.63501 69.83731
#
# Poissons Ratio (x) = 0.29217 0.24302
# Poissons Ratio (y) = 0.25214 0.09281
# Poissons Ratio (z) = 0.22713 0.10051
#
# Static dielectric constant tensor:
#      x y z
#    x 1.852650 0.000000 0.001370 
#    y 0.000000 1.928500 0.000000 
#    z 0.001370 0.000000 1.870410 
# 
# From -- ./inp_files/64940.got.cif
#   From: 2010.05.17/outbox.cif.g08.bks.cpg/sg5_33_cif.got.tgz:64940.got - 2010.06.03 18:56:24.
