data_PCOD9124952
_publ_section_title
;
Structure prediction by ZEFSAII (Michael W. Deem and Ramdas Pophale) SiO2 
 PCOD9124952
Probable space group: C 2
;
_chemical_formula_sum "Si O2"
_cell_formula_units_Z 22
_cell_length_a 26.946100
_cell_length_b 7.166683
_cell_length_c 4.944187
_cell_angle_alpha 90.000000
_cell_angle_beta 114.625005
_cell_angle_gamma 90.000000
_cell_volume 867.958278
_symmetry_space_group_name_H-M "C 2"
_symmetry_group_IT_number 5
_symmetry_cell_setting 'monoclinic'
loop_
_space_group_symop_operation_xyz
x,y,z
-x,y,-z
1/2+x,1/2+y,z
1/2-x,1/2+y,-z
loop_
_atom_site_type_symbol
_atom_site_label
_atom_site_fract_x
_atom_site_fract_y
_atom_site_fract_z
Si Si1 0.873635 0.782360 0.069761
Si Si2 0.270879 0.505096 0.724198
Si Si3 0.810411 0.226078 0.314586
Si Si4 0.037267 0.503645 0.820773
Si Si5 0.909873 0.996515 0.653066
Si Si6 0.000000 0.140389 0.500000
O O1 0.811180 0.827996 0.861907
O O2 0.905651 0.930263 0.949741
O O3 0.902976 0.591586 0.056883
O O4 0.882551 0.836623 0.401682
O O5 0.280473 0.579325 0.447296
O O6 0.211302 0.430430 0.662940
O O7 0.292906 0.665039 0.975100
O O8 0.873511 0.181516 0.516734
O O9 0.039023 0.286422 0.747112
O O10 0.000000 0.593962 0.500000
O O11 0.000000 0.526681 0.000000
O O12 0.967856 0.027968 0.651302
#
# Coordination Sequence:
#
# PCOD9124952 Si02
#       6
#     4   4   4   4   4   2
#     4  10  22  40  60  86 115 161 199 234 289 360
#     4  10  21  39  62  88 120 152 196 242 294 349
#     4  10  21  40  59  92 116 156 195 243 290 353
#     4  10  23  39  55  86 119 147 201 240 286 349
#     4  10  23  38  62  84 121 154 202 236 293 347
#     4  10  26  38  58  88 120 154 192 254 290 334
#
# _framework density 25.346841000000001
#
# number of rings (size 3 to 8) (size 9 to 14) (size 15 to 20)
#    0.545    1.455    0.000    2.182    6.364    1.455 
#    3.273    0.000    0.000    0.000    0.000    0.000 
#    0.000    0.000    0.000    0.000    0.000    0.000 
#
# Total GULP energy -61552.672927 kJ/mol
# GULP energy per Si atom -5595.697539 kJ/mol
# Density = 2.528915 g / cm^3
# Si number density = 25.346841 Si / 1000 Ang^3
#
#
#
# Elastic Constant Matrix: (Units=GPa)
#
#
# Indices 1 2 3 4 5 6 
#
# 1 76.7795 0.4083 17.4967 0.0000 -12.8038 0.0000
# 2 0.4083 33.0907 8.2688 0.0000 5.9691 0.0000
# 3 17.4967 8.2688 66.2000 0.0000 -23.0619 0.0000
# 4 0.0000 0.0000 0.0000 8.5229 0.0000 3.1999
# 5 -12.8038 5.9691 -23.0619 0.0000 37.9807 0.0000
# 6 0.0000 0.0000 0.0000 3.1999 0.0000 40.4860
#
#
#
# Elastic Compliance Matrix: (Units=1/GPa)
#
#
# Indices 1 2 3 4 5 6 
#
# 1 0.014154 -0.000099 -0.002614 0.000000 0.003200 0.000000
# 2 -0.000099 0.033965 -0.007721 0.000000 -0.010059 0.000000
# 3 -0.002614 -0.007721 0.021404 0.000000 0.013329 0.000000
# 4 0.000000 0.000000 0.000000 0.120919 0.000000 -0.009557
# 5 0.003200 -0.010059 0.013329 0.000000 0.037082 0.000000
# 6 0.000000 0.000000 0.000000 -0.009557 0.000000 0.025455
#
#
# Mechanical properties :
#
#
# Convention : Reuss Voigt Hill
#
# Bulk Modulus (GPa) = 20.55206 25.37976 22.96591
# Shear Modulus (GPa) = 17.23751 27.39101 22.31426
#
# Velocity S-wave (km/s) = 2.61064 3.29089 2.97030
# Velocity P-wave (km/s) = 4.14887 4.94719 4.56551
#
# Compressibility (1/GPa) = 0.04865692
#
# Stress axis : x y z
#
# Youngs Moduli (GPa) = 70.65087 29.44206 46.71954
#
# Poissons Ratio (x) = 0.00291 0.12212
# Poissons Ratio (y) = 0.00697 0.36071
# Poissons Ratio (z) = 0.18467 0.22731
#
# Static dielectric constant tensor:
#      x y z
#    x 1.998510 0.000000 0.073280 
#    y 0.000000 2.000810 0.000000 
#    z 0.073280 0.000000 1.999510 
# 
# From -- ./inp_files/10193.got.cif
#   From: 2010.05.17/outbox.cif.g08.bks.cpg/sg5_6_cif.got.tgz:10193.got - 2010.06.03 18:56:24.
