data_PCOD9124556
_publ_section_title
;
Structure prediction by ZEFSAII (Michael W. Deem and Ramdas Pophale) SiO2 
 PCOD9124556
Probable space group: C 2
;
_chemical_formula_sum "Si O2"
_cell_formula_units_Z 32
_cell_length_a 32.442053
_cell_length_b 8.076540
_cell_length_c 12.325200
_cell_angle_alpha 90.000000
_cell_angle_beta 149.379840
_cell_angle_gamma 90.000000
_cell_volume 1644.898313
_symmetry_space_group_name_H-M "C 2"
_symmetry_group_IT_number 5
_symmetry_cell_setting 'monoclinic'
loop_
_space_group_symop_operation_xyz
x,y,z
-x,y,-z
1/2+x,1/2+y,z
1/2-x,1/2+y,-z
loop_
_atom_site_type_symbol
_atom_site_label
_atom_site_fract_x
_atom_site_fract_y
_atom_site_fract_z
Si Si1 0.409145 0.052930 0.513293
Si Si2 0.385591 0.532135 0.974212
Si Si3 0.544434 0.821953 0.719295
Si Si4 0.592935 0.661595 0.212753
Si Si5 0.171275 0.434093 0.863018
Si Si6 0.178528 0.108961 0.737687
Si Si7 0.220495 0.339806 0.651048
Si Si8 0.943763 0.910187 0.680182
O O1 0.420598 0.223288 0.601624
O O2 0.485388 0.929259 0.664059
O O3 0.372094 0.072496 0.308941
O O4 0.339455 0.959562 0.420014
O O5 0.419990 0.657679 0.143660
O O6 0.460489 0.412565 0.118796
O O7 0.378864 0.628483 0.845232
O O8 0.303368 0.434353 0.813355
O O9 0.500000 0.797531 0.500000
O O10 0.623980 0.925943 0.868031
O O11 0.663207 0.771736 0.425442
O O12 0.581695 0.496089 0.263197
O O13 0.500000 0.731973 0.000000
O O14 0.161033 0.256042 0.781497
O O15 0.265362 0.471137 0.082924
O O16 0.230864 0.188047 0.758229
O O17 0.098976 0.030440 0.504943
#
# Coordination Sequence:
#
# PCOD9124556 Si02
#       8
#     4   4   4   4   4   4   4   4
#     4  10  21  40  60  89 126 164 214 256 315 372
#     4  11  23  41  64  93 126 165 211 259 320 377
#     4  10  22  41  62  91 130 171 209 255 311 381
#     4   9  20  44  65  85 124 168 207 264 321 378
#     4  10  21  36  60  89 125 170 208 261 303 375
#     4  10  21  37  60  87 127 163 211 254 316 368
#     4  10  23  40  62  92 123 163 210 261 318 377
#     4  10  21  39  64  88 122 165 205 265 314 377
#
# _framework density 19.454090000000001
#
# number of rings (size 3 to 8) (size 9 to 14) (size 15 to 20)
#    0.000    2.000    0.000    4.500    7.000    1.000 
#    4.500    6.875    0.000    0.000    0.000    0.000 
#    0.000    0.000    0.000    0.000    0.000    0.000 
#
# Total GULP energy -89119.269947 kJ/mol
# GULP energy per Si atom -5569.954372 kJ/mol
# Density = 1.940981 g / cm^3
# Si number density = 19.454090 Si / 1000 Ang^3
#
#
#
# Elastic Constant Matrix: (Units=GPa)
#
#
# Indices 1 2 3 4 5 6 
#
# 1 77.8220 25.5669 38.3885 0.0000 21.7294 0.0000
# 2 25.5669 69.6502 37.7792 0.0000 3.2876 0.0000
# 3 38.3885 37.7792 80.6770 0.0000 15.6535 0.0000
# 4 0.0000 0.0000 0.0000 37.8028 0.0000 5.6217
# 5 21.7294 3.2876 15.6535 0.0000 30.6662 0.0000
# 6 0.0000 0.0000 0.0000 5.6217 0.0000 11.3479
#
#
#
# Elastic Compliance Matrix: (Units=1/GPa)
#
#
# Indices 1 2 3 4 5 6 
#
# 1 0.019861 -0.003743 -0.005600 0.000000 -0.010814 0.000000
# 2 -0.003743 0.020173 -0.008614 0.000000 0.004886 0.000000
# 3 -0.005600 -0.008614 0.020139 0.000000 -0.005388 0.000000
# 4 0.000000 0.000000 0.000000 0.028557 0.000000 -0.014147
# 5 -0.010814 0.004886 -0.005388 0.000000 0.042498 0.000000
# 6 0.000000 0.000000 0.000000 -0.014147 0.000000 0.095131
#
#
# Mechanical properties :
#
#
# Convention : Reuss Voigt Hill
#
# Bulk Modulus (GPa) = 41.21945 47.95762 44.58853
# Shear Modulus (GPa) = 18.49405 24.39101 21.44253
#
# Velocity S-wave (km/s) = 3.08661 3.54471 3.32356
# Velocity P-wave (km/s) = 5.82554 6.43883 6.13985
#
# Compressibility (1/GPa) = 0.02426039
#
# Stress axis : x y z
#
# Youngs Moduli (GPa) = 50.34981 49.57162 49.65568
#
# Poissons Ratio (x) = 0.18553 0.27806
# Poissons Ratio (y) = 0.18845 0.42772
# Poissons Ratio (z) = 0.28195 0.42699
#
# Static dielectric constant tensor:
#      x y z
#    x 1.711140 0.000000 -0.044030 
#    y 0.000000 1.712050 0.000000 
#    z -0.044030 0.000000 1.738730 
# 
# From -- ./inp_files/48422.got.cif
#   From: 2010.05.17/outbox.cif.g08.bks.cpg/sg5_25_cif.got.tgz:48422.got - 2010.06.03 18:56:24.
