data_PCOD9124647
_publ_section_title
;
Structure prediction by ZEFSAII (Michael W. Deem and Ramdas Pophale) SiO2 
 PCOD9124647
Probable space group: C 2
;
_chemical_formula_sum "Si O2"
_cell_formula_units_Z 32
_cell_length_a 12.504446
_cell_length_b 13.920012
_cell_length_c 8.703420
_cell_angle_alpha 90.000000
_cell_angle_beta 86.758981
_cell_angle_gamma 90.000000
_cell_volume 1512.511955
_symmetry_space_group_name_H-M "C 2"
_symmetry_group_IT_number 5
_symmetry_cell_setting 'monoclinic'
loop_
_space_group_symop_operation_xyz
x,y,z
-x,y,-z
1/2+x,1/2+y,z
1/2-x,1/2+y,-z
loop_
_atom_site_type_symbol
_atom_site_label
_atom_site_fract_x
_atom_site_fract_y
_atom_site_fract_z
Si Si1 0.070103 0.738300 0.146630
Si Si2 0.459827 0.405521 0.330936
Si Si3 0.250669 0.953266 0.505735
Si Si4 0.430393 0.063625 0.642395
Si Si5 0.228974 0.367700 0.958216
Si Si6 0.068743 0.371903 0.690500
Si Si7 0.077724 0.237831 0.144233
Si Si8 0.359246 0.523564 0.807027
O O1 0.081760 0.633263 0.214430
O O2 0.183425 0.790117 0.107335
O O3 0.003952 0.804353 0.270242
O O4 0.000000 0.736652 0.000000
O O5 0.500000 0.422983 0.500000
O O6 0.333933 0.414075 0.364956
O O7 0.519898 0.481930 0.217150
O O8 0.339991 0.875752 0.446736
O O9 0.197599 0.991473 0.349929
O O10 0.316624 0.037572 0.580102
O O11 0.500000 0.110534 0.500000
O O12 0.494762 0.966004 0.677535
O O13 0.134687 0.381511 0.842436
O O14 0.295557 0.467132 0.947126
O O15 0.166666 0.320162 0.104645
O O16 0.997566 0.277340 0.713552
O O17 0.133794 0.136750 0.172102
O O18 0.000000 0.227023 0.000000
#
# Coordination Sequence:
#
# PCOD9124647 Si02
#       8
#     4   4   4   4   4   4   4   4
#     4  11  24  39  60  92 123 157 204 252 305 372
#     4   9  19  40  64  87 119 161 205 255 306 359
#     4   9  19  39  64  86 117 159 203 259 313 357
#     4  10  22  40  60  87 122 161 201 252 307 365
#     4   9  21  39  58  82 121 166 199 243 305 363
#     4   9  20  39  58  85 118 153 205 253 298 359
#     4  10  21  37  60  90 125 166 203 252 314 367
#     4   9  19  37  60  91 122 155 212 262 300 366
#
# _framework density 21.156856999999999
#
# number of rings (size 3 to 8) (size 9 to 14) (size 15 to 20)
#    0.000    2.500    0.000    1.125    0.000   10.500 
#    0.000   14.375    0.000    0.000    0.000    0.000 
#    0.000    0.000    0.000    0.000    0.000    0.000 
#
# Total GULP energy -89265.951815 kJ/mol
# GULP energy per Si atom -5579.121988 kJ/mol
# Density = 2.110870 g / cm^3
# Si number density = 21.156857 Si / 1000 Ang^3
#
#
#
# Elastic Constant Matrix: (Units=GPa)
#
#
# Indices 1 2 3 4 5 6 
#
# 1 110.3459 44.7656 27.8496 0.0000 -25.3023 0.0000
# 2 44.7656 67.1595 17.6638 0.0000 -9.8943 0.0000
# 3 27.8496 17.6638 23.3482 0.0000 -8.5766 0.0000
# 4 0.0000 0.0000 0.0000 -693.7923 0.0000 -627.2381
# 5 -25.3023 -9.8943 -8.5766 0.0000 29.1635 0.0000
# 6 0.0000 0.0000 0.0000 -627.2381 0.0000 -537.5595
#
#
#
# Elastic Compliance Matrix: (Units=1/GPa)
#
#
# Indices 1 2 3 4 5 6 
#
# 1 0.016793 -0.006838 -0.011612 0.000000 0.008835 0.000000
# 2 -0.006838 0.021528 -0.008551 0.000000 -0.001143 0.000000
# 3 -0.011612 -0.008551 0.065454 0.000000 0.006273 0.000000
# 4 0.000000 0.000000 0.000000 0.026257 0.000000 -0.030637
# 5 0.008835 -0.001143 0.006273 0.000000 0.043412 0.000000
# 6 0.000000 0.000000 0.000000 -0.030637 0.000000 0.033888
#
#
# Mechanical properties :
#
#
# Convention : Reuss Voigt Hill
#
# Bulk Modulus (GPa) = 20.09087 42.37907 31.23497
# Shear Modulus (GPa) = 17.99047 -233.06602 -107.53777
#
# Velocity S-wave (km/s) = 2.91922 -10.50715 -7.13717
# Velocity P-wave (km/s) = 4.56938 11.27501 7.28857
#
# Compressibility (1/GPa) = 0.04977385
#
# Stress axis : x y z
#
# Youngs Moduli (GPa) = 59.54913 46.45069 15.27784
#
# Poissons Ratio (x) = 0.31761 0.17741
# Poissons Ratio (y) = 0.40718 0.13064
# Poissons Ratio (z) = 0.69149 0.39720
#
# Static dielectric constant tensor:
#      x y z
#    x 1.896960 0.000000 -0.122710 
#    y 0.000000 1.729720 0.000000 
#    z -0.122710 0.000000 1.954770 
# 
# From -- ./inp_files/20657.got.cif
#   From: 2010.05.17/outbox.cif.g08.bks.cpg/sg5_11_cif.got.tgz:20657.got - 2010.06.03 18:56:24.
