data_PCOD9124612
_publ_section_title
;
Structure prediction by ZEFSAII (Michael W. Deem and Ramdas Pophale) SiO2 
 PCOD9124612
Probable space group: C 2
;
_chemical_formula_sum "Si O2"
_cell_formula_units_Z 18
_cell_length_a 5.418149
_cell_length_b 20.841190
_cell_length_c 7.905849
_cell_angle_alpha 90.000000
_cell_angle_beta 118.931171
_cell_angle_gamma 90.000000
_cell_volume 781.321927
_symmetry_space_group_name_H-M "C 2"
_symmetry_group_IT_number 5
_symmetry_cell_setting 'monoclinic'
loop_
_space_group_symop_operation_xyz
x,y,z
-x,y,-z
1/2+x,1/2+y,z
1/2-x,1/2+y,-z
loop_
_atom_site_type_symbol
_atom_site_label
_atom_site_fract_x
_atom_site_fract_y
_atom_site_fract_z
Si Si1 0.500000 0.751740 0.000000
Si Si2 0.415052 0.080855 0.227044
Si Si3 0.849860 0.430695 0.271010
Si Si4 0.095982 0.135443 0.796402
Si Si5 0.656742 0.360125 0.735555
O O1 0.412947 0.707169 0.131112
O O2 0.766945 0.793688 0.148029
O O3 0.712509 0.116283 0.297737
O O4 0.221994 0.110442 0.309655
O O5 0.401539 0.004760 0.243232
O O6 0.248035 0.096758 0.998914
O O7 0.534229 0.405982 0.207709
O O8 0.000000 0.421111 0.500000
O O9 0.036694 0.389811 0.204074
O O10 0.500000 0.352277 0.500000
#
# Coordination Sequence:
#
# PCOD9124612 Si02
#       5
#     2   4   4   4   4
#     4  10  22  40  64  88 122 166 202 242 300 354
#     4   9  17  34  54  76 112 145 185 250 294 333
#     4  10  21  37  57  86 122 156 197 249 304 360
#     4   9  20  33  53  83 111 146 201 242 280 358
#     4  10  23  39  59  90 123 157 200 247 294 359
#
# _framework density 23.037880000000001
#
# number of rings (size 3 to 8) (size 9 to 14) (size 15 to 20)
#    0.000    2.667    0.000    1.333    0.000   13.333 
#    0.000    4.444    0.000    5.333    0.000    0.000 
#    0.000    0.000    0.000    0.000    0.000    0.000 
#
# Total GULP energy -50220.042688 kJ/mol
# GULP energy per Si atom -5580.004743 kJ/mol
# Density = 2.298544 g / cm^3
# Si number density = 23.037880 Si / 1000 Ang^3
#
#
#
# Elastic Constant Matrix: (Units=GPa)
#
#
# Indices 1 2 3 4 5 6 
#
# 1 214.7968 80.3959 40.3704 0.0000 8.9130 0.0000
# 2 80.3959 136.0898 10.9896 0.0000 -6.2965 0.0000
# 3 40.3704 10.9896 71.4107 0.0000 -13.8817 0.0000
# 4 0.0000 0.0000 0.0000 -103.7643 0.0000 17.5169
# 5 8.9130 -6.2965 -13.8817 0.0000 30.4441 0.0000
# 6 0.0000 0.0000 0.0000 17.5169 0.0000 41.5494
#
#
#
# Elastic Compliance Matrix: (Units=1/GPa)
#
#
# Indices 1 2 3 4 5 6 
#
# 1 0.007253 -0.004158 -0.004433 0.000000 -0.005005 0.000000
# 2 -0.004158 0.009859 0.001609 0.000000 0.003990 0.000000
# 3 -0.004433 0.001609 0.018191 0.000000 0.009926 0.000000
# 4 0.000000 0.000000 0.000000 -0.008997 0.000000 0.003793
# 5 -0.005005 0.003990 0.009926 0.000000 0.039663 0.000000
# 6 0.000000 0.000000 0.000000 0.003793 0.000000 0.022469
#
#
# Mechanical properties :
#
#
# Convention : Reuss Voigt Hill
#
# Bulk Modulus (GPa) = 46.86243 76.20101 61.53172
# Shear Modulus (GPa) = 45.65539 13.01527 29.33533
#
# Velocity S-wave (km/s) = 4.45652 2.37945 3.57228
# Velocity P-wave (km/s) = 6.84590 6.37944 6.61678
#
# Compressibility (1/GPa) = 0.02133906
#
# Stress axis : x y z
#
# Youngs Moduli (GPa) = 137.87775 101.42764 54.97076
#
# Poissons Ratio (x) = 0.42176 0.24369
# Poissons Ratio (y) = 0.57332 -0.08846
# Poissons Ratio (z) = 0.61124 -0.16321
#
# Static dielectric constant tensor:
#      x y z
#    x 2.308100 0.000000 -0.018310 
#    y 0.000000 1.845920 0.000000 
#    z -0.018310 0.000000 1.828000 
# 
# From -- ./inp_files/12090.got.cif
#   From: 2010.05.17/outbox.cif.g08.bks.cpg/sg5_7_cif.got.tgz:12090.got - 2010.06.03 18:56:24.
