data_PCOD9124941
_publ_section_title
;
Structure prediction by ZEFSAII (Michael W. Deem and Ramdas Pophale) SiO2 
 PCOD9124941
Probable space group: C 2
;
_chemical_formula_sum "Si O2"
_cell_formula_units_Z 28
_cell_length_a 22.738105
_cell_length_b 4.982716
_cell_length_c 20.417811
_cell_angle_alpha 90.000000
_cell_angle_beta 29.370735
_cell_angle_gamma 90.000000
_cell_volume 1134.571901
_symmetry_space_group_name_H-M "C 2"
_symmetry_group_IT_number 5
_symmetry_cell_setting 'monoclinic'
loop_
_space_group_symop_operation_xyz
x,y,z
-x,y,-z
1/2+x,1/2+y,z
1/2-x,1/2+y,-z
loop_
_atom_site_type_symbol
_atom_site_label
_atom_site_fract_x
_atom_site_fract_y
_atom_site_fract_z
Si Si1 0.858855 0.599860 0.150239
Si Si2 0.727253 0.600433 0.688426
Si Si3 0.810516 0.149973 0.972288
Si Si4 0.295276 0.894925 0.804314
Si Si5 0.996946 0.708280 0.569781
Si Si6 0.483415 0.570671 0.702534
Si Si7 0.258388 0.401429 0.530962
O O1 0.816818 0.307164 0.213392
O O2 0.786721 0.688101 0.155316
O O3 0.823807 0.812169 0.241828
O O4 0.000000 0.607757 0.000000
O O5 0.871899 0.595074 0.543282
O O6 0.692293 0.749207 0.654190
O O7 0.789028 0.080044 0.068688
O O8 0.725811 0.954704 0.009341
O O9 0.940610 0.065065 0.818805
O O10 0.395640 0.790637 0.757713
O O11 0.386497 0.013502 0.662109
O O12 0.000000 0.885236 0.500000
O O13 0.955570 0.839156 0.677476
O O14 0.625810 0.576873 0.559612
O O15 0.190449 0.643787 0.559794
#
# Coordination Sequence:
#
# PCOD9124941 Si02
#       7
#     4   4   4   4   4   4   4
#     4  12  27  49  71 105 149 197 246 299 370 453
#     4  11  26  46  73 102 147 188 248 304 372 435
#     4  10  21  39  61  96 135 177 232 288 347 418
#     4  11  24  40  71 105 141 192 244 300 370 423
#     4  11  21  38  70 104 140 178 235 303 362 423
#     4  10  24  41  67  99 145 178 244 295 361 425
#     4  11  26  44  71 102 143 190 242 297 373 437
#
# _framework density 24.678909000000001
#
# number of rings (size 3 to 8) (size 9 to 14) (size 15 to 20)
#    0.000    1.143    2.857    2.143    8.000    2.857 
#    0.000    2.857    0.000    0.000    0.000    0.000 
#    0.000    0.000    0.000    0.000    0.000    0.000 
#
# Total GULP energy -78092.978763 kJ/mol
# GULP energy per Si atom -5578.069912 kJ/mol
# Density = 2.462274 g / cm^3
# Si number density = 24.678909 Si / 1000 Ang^3
#
#
#
# Elastic Constant Matrix: (Units=GPa)
#
#
# Indices 1 2 3 4 5 6 
#
# 1 67.6964 8.5148 16.8951 0.0454 3.8105 -0.0322
# 2 8.5148 88.8914 18.8464 0.0352 0.9633 -0.0204
# 3 16.8951 18.8464 107.2167 0.0841 5.7358 -0.0406
# 4 0.0454 0.0352 0.0841 31.4628 0.0322 10.6583
# 5 3.8105 0.9633 5.7358 0.0322 22.9270 -0.0454
# 6 -0.0322 -0.0204 -0.0406 10.6583 -0.0454 33.9573
#
#
#
# Elastic Compliance Matrix: (Units=1/GPa)
#
#
# Indices 1 2 3 4 5 6 
#
# 1 0.015552 -0.001009 -0.002166 -0.000018 -0.002000 0.000015
# 2 -0.001009 0.011751 -0.001915 -0.000009 0.000153 0.000007
# 3 -0.002166 -0.001915 0.010117 -0.000024 -0.002090 0.000014
# 4 -0.000018 -0.000009 -0.000024 0.035565 -0.000063 -0.011163
# 5 -0.002000 0.000153 -0.002090 -0.000063 0.044466 0.000075
# 6 0.000015 0.000007 0.000014 -0.011163 0.000075 0.032953
#
#
# Mechanical properties :
#
#
# Convention : Reuss Voigt Hill
#
# Bulk Modulus (GPa) = 36.71106 39.14634 37.92870
# Shear Modulus (GPa) = 29.47025 32.30598 30.88811
#
# Velocity S-wave (km/s) = 3.45939 3.62201 3.54163
# Velocity P-wave (km/s) = 5.55556 5.77829 5.66802
#
# Compressibility (1/GPa) = 0.02723974
#
# Stress axis : x y z
#
# Youngs Moduli (GPa) = 64.30045 85.10203 98.84653
#
# Poissons Ratio (x) = 0.08584 0.21413
# Poissons Ratio (y) = 0.06486 0.18926
# Poissons Ratio (z) = 0.13930 0.16295
#
# Static dielectric constant tensor:
#      x y z
#    x 2.089850 -0.000050 0.115860 
#    y -0.000050 2.069080 0.000060 
#    z 0.115860 0.000060 1.980130 
# 
# From -- ./inp_files/67238.got.cif
#   From: 2010.05.17/outbox.cif.g08.bks.cpg/sg5_34_cif.got.tgz:67238.got - 2010.06.03 18:56:24.
