data_PCOD9124428
_publ_section_title
;
Structure prediction by ZEFSAII (Michael W. Deem and Ramdas Pophale) SiO2 
 PCOD9124428
Probable space group: C 2
;
_chemical_formula_sum "Si O2"
_cell_formula_units_Z 24
_cell_length_a 22.979407
_cell_length_b 5.048850
_cell_length_c 17.915246
_cell_angle_alpha 90.000000
_cell_angle_beta 27.591790
_cell_angle_gamma 90.000000
_cell_volume 962.705799
_symmetry_space_group_name_H-M "C 2"
_symmetry_group_IT_number 5
_symmetry_cell_setting 'monoclinic'
loop_
_space_group_symop_operation_xyz
x,y,z
-x,y,-z
1/2+x,1/2+y,z
1/2-x,1/2+y,-z
loop_
_atom_site_type_symbol
_atom_site_label
_atom_site_fract_x
_atom_site_fract_y
_atom_site_fract_z
Si Si1 0.536177 0.052150 0.114035
Si Si2 0.500000 0.347486 0.000000
Si Si3 0.718411 0.383361 0.987069
Si Si4 0.317402 0.769957 0.447888
Si Si5 0.219334 0.388523 0.337510
Si Si6 0.000000 0.692377 0.500000
Si Si7 0.202095 0.039988 0.225586
O O1 0.495227 0.173231 0.081338
O O2 0.440173 0.867177 0.264988
O O3 0.580229 0.294479 0.117278
O O4 0.668291 0.906258 0.946795
O O5 0.363252 0.492488 0.159629
O O6 0.799037 0.310768 0.821532
O O7 0.738379 0.659992 0.002952
O O8 0.288441 0.462227 0.468323
O O9 0.311797 0.843515 0.541158
O O10 0.105717 0.541361 0.426692
O O11 0.218019 0.112272 0.293719
O O12 0.077663 0.878854 0.355506
#
# Coordination Sequence:
#
# PCOD9124428 Si02
#       7
#     4   2   4   4   4   2   4
#     4   9  23  44  75 105 151 208 259 314 392 469
#     4  10  20  52  76 108 152 210 266 310 388 484
#     4  10  24  43  74 107 148 196 253 319 391 462
#     4  12  28  48  76 117 157 208 265 335 395 468
#     4  11  26  46  80 108 159 202 269 325 395 470
#     4  12  26  42  76 118 148 210 258 340 390 474
#     4   9  25  45  70 108 155 200 264 311 401 468
#
# _framework density 24.929736999999999
#
# number of rings (size 3 to 8) (size 9 to 14) (size 15 to 20)
#    1.000    0.667    1.667    0.500    7.000    4.000 
#    0.000    0.833    0.000    0.000    0.000    0.000 
#    0.000    0.000    0.000    0.000    0.000    0.000 
#
# Total GULP energy -67069.462560 kJ/mol
# GULP energy per Si atom -5589.121880 kJ/mol
# Density = 2.487300 g / cm^3
# Si number density = 24.929737 Si / 1000 Ang^3
#
#
#
# Elastic Constant Matrix: (Units=GPa)
#
#
# Indices 1 2 3 4 5 6 
#
# 1 129.4077 16.8548 42.8346 0.0068 5.7939 0.0397
# 2 16.8548 47.9663 19.5652 -0.0853 -9.2445 0.0935
# 3 42.8346 19.5652 185.2781 -0.1030 -20.5065 0.0679
# 4 0.0068 -0.0853 -0.1030 41.7630 0.0206 -2.2160
# 5 5.7939 -9.2445 -20.5065 0.0206 52.2131 -0.0081
# 6 0.0397 0.0935 0.0679 -2.2160 -0.0081 36.4167
#
#
#
# Elastic Compliance Matrix: (Units=1/GPa)
#
#
# Indices 1 2 3 4 5 6 
#
# 1 0.008848 -0.002724 -0.002007 -0.000011 -0.002252 0.000000
# 2 -0.002724 0.023112 -0.001385 0.000040 0.003851 -0.000051
# 3 -0.002007 -0.001385 0.006278 0.000012 0.002443 -0.000005
# 4 -0.000011 0.000040 0.000012 0.024022 0.000003 0.001462
# 5 -0.002252 0.003851 0.002443 0.000003 0.021044 -0.000007
# 6 0.000000 -0.000051 -0.000005 0.001462 -0.000007 0.027549
#
#
# Mechanical properties :
#
#
# Convention : Reuss Voigt Hill
#
# Bulk Modulus (GPa) = 38.45300 57.90681 48.17990
# Shear Modulus (GPa) = 37.94973 44.97175 41.46074
#
# Velocity S-wave (km/s) = 3.90586 4.25189 4.08254
# Velocity P-wave (km/s) = 5.98323 6.88354 6.44912
#
# Compressibility (1/GPa) = 0.02600577
#
# Stress axis : x y z
#
# Youngs Moduli (GPa) = 113.02567 43.26696 159.28789
#
# Poissons Ratio (x) = 0.11788 0.31970
# Poissons Ratio (y) = 0.30792 0.22055
# Poissons Ratio (z) = 0.22685 0.05991
#
# Static dielectric constant tensor:
#      x y z
#    x 1.977650 -0.000010 -0.062860 
#    y -0.000010 2.041850 0.000040 
#    z -0.062860 0.000040 1.900590 
# 
# From -- ./inp_files/63143.got.cif
#   From: 2010.05.17/outbox.cif.g08.bks.cpg/sg5_32_cif.got.tgz:63143.got - 2010.06.03 18:56:24.
