data_PCOD9124138
_publ_section_title
;
Structure prediction by ZEFSAII (Michael W. Deem and Ramdas Pophale) SiO2 
 PCOD9124138
Probable space group: C 2
;
_chemical_formula_sum "Si O2"
_cell_formula_units_Z 22
_cell_length_a 5.694632
_cell_length_b 23.643720
_cell_length_c 8.316043
_cell_angle_alpha 90.000000
_cell_angle_beta 56.433465
_cell_angle_gamma 90.000000
_cell_volume 932.976189
_symmetry_space_group_name_H-M "C 2"
_symmetry_group_IT_number 5
_symmetry_cell_setting 'monoclinic'
loop_
_space_group_symop_operation_xyz
x,y,z
-x,y,-z
1/2+x,1/2+y,z
1/2-x,1/2+y,-z
loop_
_atom_site_type_symbol
_atom_site_label
_atom_site_fract_x
_atom_site_fract_y
_atom_site_fract_z
Si Si1 0.000000 0.778121 0.000000
Si Si2 0.500000 0.711593 0.000000
Si Si3 0.500000 0.922882 0.500000
Si Si4 0.718498 0.610669 0.710508
Si Si5 0.391125 0.000582 0.796637
Si Si6 0.000000 0.044827 0.500000
Si Si7 0.984899 0.839518 0.336993
Si Si8 0.500000 0.910268 0.000000
O O1 0.738061 0.745160 0.012745
O O2 0.892527 0.812301 0.199333
O O3 0.357410 0.669349 0.181519
O O4 0.737132 0.882352 0.480940
O O5 0.306443 0.965131 0.674672
O O6 0.514252 0.584339 0.653526
O O7 0.000000 0.615664 0.500000
O O8 0.772909 0.563335 0.828012
O O9 0.725852 0.007840 0.641544
O O10 0.331814 0.956107 0.957078
O O11 0.000000 0.803777 0.500000
O O12 0.277518 0.870398 0.175688
#
# Coordination Sequence:
#
# PCOD9124138 Si02
#       8
#     2   2   2   4   4   2   4   2
#     4  12  32  57  81 116 155 203 292 348 406 458
#     4  12  31  54  81 114 149 208 275 344 406 460
#     4  12  22  44  75 108 154 201 250 304 412 474
#     4  10  25  45  72 109 155 202 256 322 389 485
#     4  11  22  38  68 113 155 203 243 308 382 497
#     4  10  20  42  65 100 162 195 258 296 388 464
#     4  12  28  52  79 112 159 208 266 345 397 483
#     4  12  25  43  76 116 160 207 259 310 406 490
#
# _framework density 23.580451
#
# number of rings (size 3 to 8) (size 9 to 14) (size 15 to 20)
#    0.000    0.727    4.545    2.727   10.182    0.727 
#    0.000    0.000    0.000    0.000    0.000    0.000 
#    0.000    0.000    0.000    0.000    0.000    0.000 
#
# Total GULP energy -61296.711094 kJ/mol
# GULP energy per Si atom -5572.428281 kJ/mol
# Density = 2.352678 g / cm^3
# Si number density = 23.580451 Si / 1000 Ang^3
#
#
#
# Elastic Constant Matrix: (Units=GPa)
#
#
# Indices 1 2 3 4 5 6 
#
# 1 113.1084 48.2607 54.5233 0.0000 -1.2749 0.0000
# 2 48.2607 94.2954 46.5372 0.0000 8.6115 0.0000
# 3 54.5233 46.5372 137.8274 0.0000 8.4782 0.0000
# 4 0.0000 0.0000 0.0000 7.5887 0.0000 56.0630
# 5 -1.2749 8.6115 8.4782 0.0000 49.6800 0.0000
# 6 0.0000 0.0000 0.0000 56.0630 0.0000 -1.4828
#
#
#
# Elastic Compliance Matrix: (Units=1/GPa)
#
#
# Indices 1 2 3 4 5 6 
#
# 1 0.012619 -0.004922 -0.003438 0.000000 0.001764 0.000000
# 2 -0.004922 0.014756 -0.002900 0.000000 -0.002189 0.000000
# 3 -0.003438 -0.002900 0.009671 0.000000 -0.001236 0.000000
# 4 0.000000 0.000000 0.000000 0.000470 0.000000 0.017773
# 5 0.001764 -0.002189 -0.001236 0.000000 0.020764 0.000000
# 6 0.000000 0.000000 0.000000 0.017773 0.000000 -0.002406
#
#
# Mechanical properties :
#
#
# Convention : Reuss Voigt Hill
#
# Bulk Modulus (GPa) = 68.85562 71.54150 70.19856
# Shear Modulus (GPa) = 60.06950 24.21783 42.14367
#
# Velocity S-wave (km/s) = 5.05268 3.20821 4.23215
# Velocity P-wave (km/s) = 7.95633 6.64294 7.32911
#
# Compressibility (1/GPa) = 0.01452314
#
# Stress axis : x y z
#
# Youngs Moduli (GPa) = 79.24766 67.77096 103.40316
#
# Poissons Ratio (x) = 0.33360 0.35553
# Poissons Ratio (y) = 0.39010 0.29989
# Poissons Ratio (z) = 0.27247 0.19655
#
# Static dielectric constant tensor:
#      x y z
#    x 1.997060 0.000000 0.085950 
#    y 0.000000 1.856360 0.000000 
#    z 0.085950 0.000000 2.077370 
# 
# From -- ./inp_files/12478.got.cif
#   From: 2010.05.17/outbox.cif.g08.bks.cpg/sg5_7_cif.got.tgz:12478.got - 2010.06.03 18:56:24.
