data_PCOD9124543
_publ_section_title
;
Structure prediction by ZEFSAII (Michael W. Deem and Ramdas Pophale) SiO2 
 PCOD9124543
Probable space group: C 2
;
_chemical_formula_sum "Si O2"
_cell_formula_units_Z 32
_cell_length_a 19.285207
_cell_length_b 19.849542
_cell_length_c 5.114948
_cell_angle_alpha 90.000000
_cell_angle_beta 59.898878
_cell_angle_gamma 90.000000
_cell_volume 1693.960243
_symmetry_space_group_name_H-M "C 2"
_symmetry_group_IT_number 5
_symmetry_cell_setting 'monoclinic'
loop_
_space_group_symop_operation_xyz
x,y,z
-x,y,-z
1/2+x,1/2+y,z
1/2-x,1/2+y,-z
loop_
_atom_site_type_symbol
_atom_site_label
_atom_site_fract_x
_atom_site_fract_y
_atom_site_fract_z
Si Si1 0.672063 0.955560 0.061396
Si Si2 0.412723 0.330030 0.253232
Si Si3 0.190768 0.854566 0.053652
Si Si4 0.373521 0.179442 0.239414
Si Si5 0.447292 0.752577 0.337695
Si Si6 0.414923 0.906735 0.275731
Si Si7 0.657346 0.110971 0.200528
Si Si8 0.226519 0.214121 0.203796
O O1 0.605098 0.932549 0.398169
O O2 0.674284 0.035741 0.080794
O O3 0.752508 0.917734 0.998954
O O4 0.649800 0.931100 0.813351
O O5 0.379325 0.350159 0.598715
O O6 0.414745 0.248375 0.243123
O O7 0.500000 0.354772 0.000000
O O8 0.349074 0.353751 0.155818
O O9 0.244984 0.786324 0.964725
O O10 0.378824 0.122319 0.446879
O O11 0.281056 0.201910 0.358494
O O12 0.396820 0.149076 0.914395
O O13 0.500000 0.761134 0.500000
O O14 0.418264 0.825885 0.291065
O O15 0.366689 0.713324 0.562171
O O16 0.500000 0.723408 0.000000
O O17 0.500000 0.929814 0.000000
O O18 0.739803 0.154029 0.038161
#
# Coordination Sequence:
#
# PCOD9124543 Si02
#       8
#     4   4   4   4   4   4   4   4
#     4  12  23  38  62  86 116 157 203 232 282 354
#     4  11  21  38  60  90 119 143 188 248 298 341
#     4  11  22  36  63  88 109 153 199 238 287 335
#     4   9  19  36  57  83 112 147 192 232 285 337
#     4  11  23  34  58  92 121 152 190 243 306 338
#     4  11  23  38  56  84 126 155 189 236 290 343
#     4  10  21  36  59  81 116 147 200 232 281 330
#     4   9  21  36  61  82 118 149 196 248 269 345
#
# _framework density 18.890644999999999
#
# number of rings (size 3 to 8) (size 9 to 14) (size 15 to 20)
#    0.750    0.750    2.500    3.750    3.500    0.000 
#    0.000    3.750    0.000    2.250    0.000    0.000 
#    0.000    0.000    0.000    0.000    0.000    0.000 
#
# Total GULP energy -89233.388207 kJ/mol
# GULP energy per Si atom -5577.086763 kJ/mol
# Density = 1.884765 g / cm^3
# Si number density = 18.890645 Si / 1000 Ang^3
#
#
#
# Elastic Constant Matrix: (Units=GPa)
#
#
# Indices 1 2 3 4 5 6 
#
# 1 37.2314 -4.3405 3.1920 0.0000 5.2831 0.0000
# 2 -4.3405 24.6348 -13.2673 0.0000 4.2712 0.0000
# 3 3.1920 -13.2673 76.4758 0.0000 5.8269 0.0000
# 4 0.0000 0.0000 0.0000 11.5276 0.0000 -1.7140
# 5 5.2831 4.2712 5.8269 0.0000 37.1518 0.0000
# 6 0.0000 0.0000 0.0000 -1.7140 0.0000 9.1003
#
#
#
# Elastic Compliance Matrix: (Units=1/GPa)
#
#
# Indices 1 2 3 4 5 6 
#
# 1 0.028199 0.005898 0.000206 0.000000 -0.004720 0.000000
# 2 0.005898 0.047588 0.008593 0.000000 -0.007657 0.000000
# 3 0.000206 0.008593 0.014813 0.000000 -0.003340 0.000000
# 4 0.000000 0.000000 0.000000 0.089247 0.000000 0.016809
# 5 -0.004720 -0.007657 -0.003340 0.000000 0.028992 0.000000
# 6 0.000000 0.000000 0.000000 0.016809 0.000000 0.113052
#
#
# Mechanical properties :
#
#
# Convention : Reuss Voigt Hill
#
# Bulk Modulus (GPa) = 8.33390 12.16783 10.25087
# Shear Modulus (GPa) = 15.03782 21.73980 18.38881
#
# Velocity S-wave (km/s) = 2.82449 3.39606 3.12338
# Velocity P-wave (km/s) = 3.88049 4.67256 4.29482
#
# Compressibility (1/GPa) = 0.11999179
#
# Stress axis : x y z
#
# Youngs Moduli (GPa) = 35.46252 21.01392 67.50973
#
# Poissons Ratio (x) = -0.12393 -0.01389
# Poissons Ratio (y) = -0.20915 -0.58011
# Poissons Ratio (z) = -0.00730 -0.18057
#
# Static dielectric constant tensor:
#      x y z
#    x 1.671620 0.000000 -0.008160 
#    y 0.000000 1.635380 0.000000 
#    z -0.008160 0.000000 1.676210 
# 
# From -- ./inp_files/8930.got.cif
#   From: 2010.05.17/outbox.cif.g08.bks.cpg/sg5_5_cif.got.tgz:8930.got - 2010.06.03 18:56:24.
