data_PCOD9124710
_publ_section_title
;
Structure prediction by ZEFSAII (Michael W. Deem and Ramdas Pophale) SiO2 
 PCOD9124710
Probable space group: C 2
;
_chemical_formula_sum "Si O2"
_cell_formula_units_Z 32
_cell_length_a 8.948426
_cell_length_b 22.666821
_cell_length_c 15.319443
_cell_angle_alpha 90.000000
_cell_angle_beta 28.031698
_cell_angle_gamma 90.000000
_cell_volume 1460.296709
_symmetry_space_group_name_H-M "C 2"
_symmetry_group_IT_number 5
_symmetry_cell_setting 'monoclinic'
loop_
_space_group_symop_operation_xyz
x,y,z
-x,y,-z
1/2+x,1/2+y,z
1/2-x,1/2+y,-z
loop_
_atom_site_type_symbol
_atom_site_label
_atom_site_fract_x
_atom_site_fract_y
_atom_site_fract_z
Si Si1 0.373983 0.025480 0.663092
Si Si2 0.369924 0.152213 0.470733
Si Si3 0.119836 0.439099 0.686373
Si Si4 0.624632 0.224028 0.179298
Si Si5 0.114528 0.855507 0.199587
Si Si6 0.732152 0.815156 0.568038
Si Si7 0.743821 0.206653 0.795892
Si Si8 0.744522 0.974451 0.951244
O O1 0.500000 0.014838 0.500000
O O2 0.499172 0.089382 0.626802
O O3 0.491460 0.977761 0.672433
O O4 0.994280 0.023762 0.849858
O O5 0.500000 0.163589 0.500000
O O6 0.474597 0.201175 0.346474
O O7 0.992899 0.153629 0.675764
O O8 0.500000 0.445978 0.500000
O O9 0.051886 0.370237 0.704328
O O10 0.955671 0.456712 0.861130
O O11 0.547247 0.291905 0.192966
O O12 0.460425 0.191902 0.184299
O O13 0.000000 0.218388 0.000000
O O14 0.044079 0.917501 0.189917
O O15 0.932098 0.845488 0.385266
O O16 0.500000 0.857690 0.000000
O O17 0.477048 0.764690 0.675568
O O18 0.000000 0.794758 0.500000
O O19 0.500000 0.213434 0.000000
O O20 0.500000 0.989867 0.000000
#
# Coordination Sequence:
#
# PCOD9124710 Si02
#       8
#     4   4   4   4   4   4   4   4
#     4  11  25  46  74 101 141 190 243 308 362 423
#     4  11  25  50  72 101 142 187 246 308 362 421
#     4  11  24  42  68 107 146 194 240 294 360 434
#     4  11  25  43  68 102 142 186 244 291 359 426
#     4  10  21  37  67 101 148 194 228 288 359 418
#     4  11  23  40  67 101 151 194 235 294 362 432
#     4  12  27  42  71 104 142 190 243 298 363 432
#     4  11  23  44  71 106 152 186 243 291 364 431
#
# _framework density 21.913354000000002
#
# number of rings (size 3 to 8) (size 9 to 14) (size 15 to 20)
#    0.000    1.000    1.250    6.375    7.000    2.000 
#    0.000    7.500    0.000    0.000    0.000    0.000 
#    0.000    0.000    0.000    0.000    0.000    0.000 
#
# Total GULP energy -89365.785803 kJ/mol
# GULP energy per Si atom -5585.361613 kJ/mol
# Density = 2.186348 g / cm^3
# Si number density = 21.913354 Si / 1000 Ang^3
#
#
#
# Elastic Constant Matrix: (Units=GPa)
#
#
# Indices 1 2 3 4 5 6 
#
# 1 132.3045 25.5691 44.1312 -0.0009 -16.4583 -0.0114
# 2 25.5691 85.7820 25.6153 -0.0051 -23.2530 -0.0016
# 3 44.1312 25.6153 142.1306 -0.0094 -0.3861 0.0108
# 4 -0.0009 -0.0051 -0.0094 29.5122 -0.0030 -3.2601
# 5 -16.4583 -23.2530 -0.3861 -0.0030 31.9356 0.0061
# 6 -0.0114 -0.0016 0.0108 -3.2601 0.0061 22.0594
#
#
#
# Elastic Compliance Matrix: (Units=1/GPa)
#
#
# Indices 1 2 3 4 5 6 
#
# 1 0.009113 -0.000815 -0.002672 0.000000 0.004071 0.000005
# 2 -0.000815 0.015617 -0.002532 0.000003 0.010920 -0.000001
# 3 -0.002672 -0.002532 0.008313 0.000001 -0.003120 -0.000005
# 4 0.000000 0.000003 0.000001 0.034447 0.000004 0.005091
# 5 0.004071 0.010920 -0.003120 0.000004 0.041324 -0.000006
# 6 0.000005 -0.000001 -0.000005 0.005091 -0.000006 0.046085
#
#
# Mechanical properties :
#
#
# Convention : Reuss Voigt Hill
#
# Bulk Modulus (GPa) = 47.60562 61.20536 54.40549
# Shear Modulus (GPa) = 28.74590 34.36152 31.55371
#
# Velocity S-wave (km/s) = 3.62580 3.96417 3.79876
# Velocity P-wave (km/s) = 6.26899 6.99601 6.64245
#
# Compressibility (1/GPa) = 0.02100593
#
# Stress axis : x y z
#
# Youngs Moduli (GPa) = 109.72807 64.03480 120.29138
#
# Poissons Ratio (x) = 0.05220 0.32139
# Poissons Ratio (y) = 0.08945 0.30454
# Poissons Ratio (z) = 0.29316 0.16212
#
# Static dielectric constant tensor:
#      x y z
#    x 1.796390 0.000000 0.015590 
#    y 0.000000 1.876470 0.000020 
#    z 0.015590 0.000020 1.802070 
# 
# From -- ./inp_files/51698.got.cif
#   From: 2010.05.17/outbox.cif.g08.bks.cpg/sg5_26_cif.got.tgz:51698.got - 2010.06.03 18:56:24.
