data_PCOD9124172
_publ_section_title
;
Structure prediction by ZEFSAII (Michael W. Deem and Ramdas Pophale) SiO2 
 PCOD9124172
Probable space group: C 2
;
_chemical_formula_sum "Si O2"
_cell_formula_units_Z 24
_cell_length_a 23.817569
_cell_length_b 5.598203
_cell_length_c 13.340750
_cell_angle_alpha 90.000000
_cell_angle_beta 32.142638
_cell_angle_gamma 90.000000
_cell_volume 946.371153
_symmetry_space_group_name_H-M "C 2"
_symmetry_group_IT_number 5
_symmetry_cell_setting 'monoclinic'
loop_
_space_group_symop_operation_xyz
x,y,z
-x,y,-z
1/2+x,1/2+y,z
1/2-x,1/2+y,-z
loop_
_atom_site_type_symbol
_atom_site_label
_atom_site_fract_x
_atom_site_fract_y
_atom_site_fract_z
Si Si1 0.229816 0.276890 0.158034
Si Si2 0.187397 0.594938 0.481305
Si Si3 0.176848 0.385069 0.866455
Si Si4 0.884219 0.117694 0.854258
Si Si5 0.000000 0.282906 0.500000
Si Si6 0.628803 0.593263 0.633802
Si Si7 0.500000 0.811287 0.000000
O O1 0.213373 0.149694 0.075302
O O2 0.114571 0.410114 0.339639
O O3 0.239052 0.082843 0.231000
O O4 0.344856 0.393296 0.976228
O O5 0.261875 0.658476 0.274230
O O6 0.262959 0.583817 0.465179
O O7 0.133531 0.337058 0.561938
O O8 0.117218 0.834192 0.601029
O O9 0.095304 0.461008 0.903326
O O10 0.117799 0.321648 0.058883
O O11 0.979011 0.127696 0.632259
O O12 0.540191 0.644735 0.850165
#
# Coordination Sequence:
#
# PCOD9124172 Si02
#       7
#     4   4   4   4   2   4   2
#     4  10  20  42  66  97 140 176 235 297 360 438
#     4   9  20  37  64  88 127 179 227 291 346 422
#     4  11  23  42  65  97 140 183 233 301 356 440
#     4  10  20  42  67 100 137 181 232 298 364 435
#     4   8  20  42  70 102 136 182 230 302 384 426
#     4   9  19  41  59  90 128 176 237 276 349 428
#     4  10  24  44  62  98 142 186 230 296 364 430
#
# _framework density 25.360032
#
# number of rings (size 3 to 8) (size 9 to 14) (size 15 to 20)
#    1.000    1.333    1.667    0.000    2.333    2.000 
#    9.000    5.833    0.000    0.000    0.000    0.000 
#    0.000    0.000    0.000    0.000    0.000    0.000 
#
# Total GULP energy -66853.738555 kJ/mol
# GULP energy per Si atom -5571.144880 kJ/mol
# Density = 2.530231 g / cm^3
# Si number density = 25.360032 Si / 1000 Ang^3
#
#
#
# Elastic Constant Matrix: (Units=GPa)
#
#
# Indices 1 2 3 4 5 6 
#
# 1 105.8537 24.4188 40.0138 -0.0024 -6.8077 -0.0016
# 2 24.4188 87.4736 42.3806 -0.0084 18.4747 0.0116
# 3 40.0138 42.3806 156.7578 -0.0101 32.1334 0.0039
# 4 -0.0024 -0.0084 -0.0101 25.8272 0.0050 10.1298
# 5 -6.8077 18.4747 32.1334 0.0050 45.3829 -0.0015
# 6 -0.0016 0.0116 0.0039 10.1298 -0.0015 21.5403
#
#
#
# Elastic Compliance Matrix: (Units=1/GPa)
#
#
# Indices 1 2 3 4 5 6 
#
# 1 0.011666 -0.002758 -0.003300 -0.000004 0.005209 0.000005
# 2 -0.002758 0.014249 -0.002193 0.000009 -0.004662 -0.000012
# 3 -0.003300 -0.002193 0.009046 0.000005 -0.006007 -0.000004
# 4 -0.000004 0.000009 0.000005 0.047476 -0.000014 -0.022327
# 5 0.005209 -0.004662 -0.006007 -0.000014 0.028967 0.000013
# 6 0.000005 -0.000012 -0.000004 -0.022327 0.000013 0.056924
#
#
# Mechanical properties :
#
#
# Convention : Reuss Voigt Hill
#
# Bulk Modulus (GPa) = 54.17365 62.63462 58.40413
# Shear Modulus (GPa) = 26.18052 34.76821 30.47437
#
# Velocity S-wave (km/s) = 3.21651 3.70670 3.47027
# Velocity P-wave (km/s) = 5.93319 6.56287 6.25596
#
# Compressibility (1/GPa) = 0.01845916
#
# Stress axis : x y z
#
# Youngs Moduli (GPa) = 85.72179 70.18129 110.54787
#
# Poissons Ratio (x) = 0.19355 0.36480
# Poissons Ratio (y) = 0.23641 0.24240
# Poissons Ratio (z) = 0.28288 0.15389
#
# Static dielectric constant tensor:
#      x y z
#    x 2.001420 0.000000 -0.014000 
#    y 0.000000 2.064530 0.000000 
#    z -0.014000 0.000000 2.041890 
# 
# From -- ./inp_files/57980.got.cif
#   From: 2010.05.17/outbox.cif.g08.bks.cpg/sg5_29_cif.got.tgz:57980.got - 2010.06.03 18:56:24.
