data_PCOD9124528
_publ_section_title
;
Structure prediction by ZEFSAII (Michael W. Deem and Ramdas Pophale) SiO2 
 PCOD9124528
Probable space group: C 2
;
_chemical_formula_sum "Si O2"
_cell_formula_units_Z 32
_cell_length_a 5.486991
_cell_length_b 26.281699
_cell_length_c 11.079848
_cell_angle_alpha 90.000000
_cell_angle_beta 74.963312
_cell_angle_gamma 90.000000
_cell_volume 1543.087865
_symmetry_space_group_name_H-M "C 2"
_symmetry_group_IT_number 5
_symmetry_cell_setting 'monoclinic'
loop_
_space_group_symop_operation_xyz
x,y,z
-x,y,-z
1/2+x,1/2+y,z
1/2-x,1/2+y,-z
loop_
_atom_site_type_symbol
_atom_site_label
_atom_site_fract_x
_atom_site_fract_y
_atom_site_fract_z
Si Si1 0.753439 0.121830 0.392090
Si Si2 0.396036 0.532221 0.669749
Si Si3 0.569558 0.943267 0.634454
Si Si4 0.848702 0.224800 0.284994
Si Si5 0.163770 0.994358 0.869951
Si Si6 0.708932 0.832057 0.579052
Si Si7 0.083396 0.702813 0.860252
Si Si8 0.943205 0.592483 0.824665
O O1 0.500000 0.122471 0.500000
O O2 0.848159 0.179934 0.387141
O O3 0.750337 0.115768 0.247048
O O4 0.887049 0.068820 0.407969
O O5 0.304331 0.481158 0.619143
O O6 0.472686 0.515636 0.794575
O O7 0.154634 0.568065 0.712513
O O8 0.500000 0.946325 0.500000
O O9 0.359816 0.962349 0.760022
O O10 0.641655 0.885220 0.652533
O O11 0.815238 0.280678 0.342721
O O12 0.615503 0.217602 0.219987
O O13 0.129934 0.219502 0.196455
O O14 0.310987 0.044309 0.904147
O O15 0.000000 0.970448 0.000000
O O16 0.500000 0.828155 0.500000
O O17 0.000000 0.836263 0.500000
O O18 0.068887 0.640952 0.869681
O O19 0.000000 0.723706 0.000000
#
# Coordination Sequence:
#
# PCOD9124528 Si02
#       8
#     4   4   4   4   4   4   4   4
#     4  10  21  36  57  93 131 172 217 272 346 409
#     4  10  21  40  61  87 139 174 219 279 340 411
#     4  10  25  43  68 100 129 177 236 290 348 416
#     4  11  23  44  66 100 133 172 232 283 341 418
#     4  10  23  39  65  97 135 181 234 281 340 412
#     4  11  25  47  76  99 129 179 228 285 350 416
#     4  11  23  40  69  95 137 178 228 279 338 408
#     4   9  21  35  54  93 128 183 221 261 325 415
#
# _framework density 20.737642000000001
#
# number of rings (size 3 to 8) (size 9 to 14) (size 15 to 20)
#    0.000    1.750    1.250    1.500    5.250    8.500 
#    0.000    0.625    2.750    0.000    0.000    0.000 
#    0.000    0.000    0.000    0.000    0.000    0.000 
#
# Total GULP energy -89138.985338 kJ/mol
# GULP energy per Si atom -5571.186584 kJ/mol
# Density = 2.069044 g / cm^3
# Si number density = 20.737642 Si / 1000 Ang^3
#
#
#
# Elastic Constant Matrix: (Units=GPa)
#
#
# Indices 1 2 3 4 5 6 
#
# 1 65.2058 23.7894 25.3824 0.0000 -23.2465 0.0000
# 2 23.7894 162.0686 47.1341 0.0000 -14.8331 0.0000
# 3 25.3824 47.1341 99.7320 0.0000 -30.1552 0.0000
# 4 0.0000 0.0000 0.0000 -1.7470 0.0000 -15.1675
# 5 -23.2465 -14.8331 -30.1552 0.0000 34.6647 0.0000
# 6 0.0000 0.0000 0.0000 -15.1675 0.0000 -6.5545
#
#
#
# Elastic Compliance Matrix: (Units=1/GPa)
#
#
# Indices 1 2 3 4 5 6 
#
# 1 0.020696 -0.001694 -0.000664 0.000000 0.012577 0.000000
# 2 -0.001694 0.007293 -0.003277 0.000000 -0.000866 0.000000
# 3 -0.000664 -0.003277 0.015179 0.000000 0.011356 0.000000
# 4 0.000000 0.000000 0.000000 0.029984 0.000000 -0.069384
# 5 0.012577 -0.000866 0.011356 0.000000 0.046790 0.000000
# 6 0.000000 0.000000 0.000000 -0.069384 0.000000 0.007992
#
#
# Mechanical properties :
#
#
# Convention : Reuss Voigt Hill
#
# Bulk Modulus (GPa) = 31.35116 57.73535 44.54326
# Shear Modulus (GPa) = 33.36983 20.65267 27.01125
#
# Velocity S-wave (km/s) = 4.01576 3.15922 3.61296
# Velocity P-wave (km/s) = 6.05414 6.41941 6.23945
#
# Compressibility (1/GPa) = 0.03189675
#
# Stress axis : x y z
#
# Youngs Moduli (GPa) = 48.31800 137.12284 65.88252
#
# Poissons Ratio (x) = 0.23224 0.04376
# Poissons Ratio (y) = 0.08184 0.21593
# Poissons Ratio (z) = 0.03209 0.44942
#
# Static dielectric constant tensor:
#      x y z
#    x 2.075370 0.000000 0.206360 
#    y 0.000000 1.746160 0.000000 
#    z 0.206360 0.000000 1.919030 
# 
# From -- ./inp_files/34292.got.cif
#   From: 2010.05.17/outbox.cif.g08.bks.cpg/sg5_18_cif.got.tgz:34292.got - 2010.06.03 18:56:24.
