data_PCOD9124417
_publ_section_title
;
Structure prediction by ZEFSAII (Michael W. Deem and Ramdas Pophale) SiO2 
 PCOD9124417
Probable space group: C 2
;
_chemical_formula_sum "Si O2"
_cell_formula_units_Z 18
_cell_length_a 7.873554
_cell_length_b 19.799219
_cell_length_c 5.240392
_cell_angle_alpha 90.000000
_cell_angle_beta 89.532883
_cell_angle_gamma 90.000000
_cell_volume 816.898712
_symmetry_space_group_name_H-M "C 2"
_symmetry_group_IT_number 5
_symmetry_cell_setting 'monoclinic'
loop_
_space_group_symop_operation_xyz
x,y,z
-x,y,-z
1/2+x,1/2+y,z
1/2-x,1/2+y,-z
loop_
_atom_site_type_symbol
_atom_site_label
_atom_site_fract_x
_atom_site_fract_y
_atom_site_fract_z
Si Si1 0.115836 0.643730 0.250158
Si Si2 0.834764 0.024523 0.133187
Si Si3 0.500000 0.955484 0.000000
Si Si4 0.000000 0.899137 0.000000
Si Si5 0.500000 0.863654 0.500000
Si Si6 0.827882 0.793740 0.669216
O O1 0.249654 0.583379 0.295641
O O2 0.195078 0.718457 0.222920
O O3 0.000000 0.644924 0.500000
O O4 0.000000 0.633240 0.000000
O O5 0.918813 0.951871 0.206374
O O6 0.000000 0.057070 0.000000
O O7 0.672702 0.999192 0.971056
O O8 0.485758 0.910936 0.747448
O O9 0.139470 0.850091 0.115617
O O10 0.665777 0.817354 0.515729
O O11 0.000000 0.794319 0.500000
#
# Coordination Sequence:
#
# PCOD9124417 Si02
#       6
#     4   4   2   2   2   4
#     4  11  25  48  74 102 149 196 240 297 369 434
#     4  10  23  45  70 106 144 191 237 300 365 432
#     4  12  24  43  71 106 144 184 236 310 360 429
#     4  10  20  47  71 104 144 184 246 300 366 419
#     4  12  26  42  74 110 136 186 252 294 364 430
#     4  11  24  46  73 103 147 191 242 303 364 429
#
# _framework density 22.034555999999998
#
# number of rings (size 3 to 8) (size 9 to 14) (size 15 to 20)
#    0.667    0.444    4.444    1.333    1.556    0.000 
#   14.000    2.222    0.000    0.000    0.000    0.000 
#    0.000    0.000    0.000    0.000    0.000    0.000 
#
# Total GULP energy -50181.351653 kJ/mol
# GULP energy per Si atom -5575.705739 kJ/mol
# Density = 2.198440 g / cm^3
# Si number density = 22.034556 Si / 1000 Ang^3
#
#
#
# Elastic Constant Matrix: (Units=GPa)
#
#
# Indices 1 2 3 4 5 6 
#
# 1 147.2158 46.2269 24.7740 0.0000 5.9924 0.0000
# 2 46.2269 182.7299 35.3449 0.0000 -3.1336 0.0000
# 3 24.7740 35.3449 89.0555 0.0000 2.5444 0.0000
# 4 0.0000 0.0000 0.0000 33.0959 0.0000 -1.0338
# 5 5.9924 -3.1336 2.5444 0.0000 23.7476 0.0000
# 6 0.0000 0.0000 0.0000 -1.0338 0.0000 31.0239
#
#
#
# Elastic Compliance Matrix: (Units=1/GPa)
#
#
# Indices 1 2 3 4 5 6 
#
# 1 0.007642 -0.001698 -0.001395 0.000000 -0.002003 0.000000
# 2 -0.001698 0.006330 -0.002083 0.000000 0.001487 0.000000
# 3 -0.001395 -0.002083 0.012480 0.000000 -0.001260 0.000000
# 4 0.000000 0.000000 0.000000 0.030247 0.000000 0.001008
# 5 -0.002003 0.001487 -0.001260 0.000000 0.042946 0.000000
# 6 0.000000 0.000000 0.000000 0.001008 0.000000 0.032267
#
#
# Mechanical properties :
#
#
# Convention : Reuss Voigt Hill
#
# Bulk Modulus (GPa) = 62.10618 70.18807 66.14712
# Shear Modulus (GPa) = 33.86856 38.41718 36.14287
#
# Velocity S-wave (km/s) = 3.92480 4.18005 4.05443
# Velocity P-wave (km/s) = 6.98468 7.43101 7.21130
#
# Compressibility (1/GPa) = 0.01610146
#
# Stress axis : x y z
#
# Youngs Moduli (GPa) = 130.85325 157.96755 80.13111
#
# Poissons Ratio (x) = 0.26821 0.11177
# Poissons Ratio (y) = 0.22217 0.16688
# Poissons Ratio (z) = 0.18252 0.32899
#
# Static dielectric constant tensor:
#      x y z
#    x 1.817490 0.000000 -0.009640 
#    y 0.000000 1.832070 0.000000 
#    z -0.009640 0.000000 1.809290 
# 
# From -- ./inp_files/2436.got.cif
#   From: 2010.05.17/outbox.cif.g08.bks.cpg/sg5_2_cif.got.tgz:2436.got - 2010.06.03 18:56:24.
