data_PCOD9124773
_publ_section_title
;
Structure prediction by ZEFSAII (Michael W. Deem and Ramdas Pophale) SiO2 
 PCOD9124773
Probable space group: C 2
;
_chemical_formula_sum "Si O2"
_cell_formula_units_Z 30
_cell_length_a 8.809457
_cell_length_b 11.258965
_cell_length_c 13.505900
_cell_angle_alpha 90.000000
_cell_angle_beta 117.712983
_cell_angle_gamma 90.000000
_cell_volume 1185.921246
_symmetry_space_group_name_H-M "C 2"
_symmetry_group_IT_number 5
_symmetry_cell_setting 'monoclinic'
loop_
_space_group_symop_operation_xyz
x,y,z
-x,y,-z
1/2+x,1/2+y,z
1/2-x,1/2+y,-z
loop_
_atom_site_type_symbol
_atom_site_label
_atom_site_fract_x
_atom_site_fract_y
_atom_site_fract_z
Si Si1 0.500000 0.545871 0.500000
Si Si2 0.290254 0.491588 0.613234
Si Si3 0.436528 0.912827 0.293757
Si Si4 0.151793 0.923800 0.793288
Si Si5 0.316749 0.557725 0.901774
Si Si6 0.817551 0.607198 0.717025
Si Si7 0.575423 0.242326 0.915495
Si Si8 0.699455 0.727850 0.292807
O O1 0.368278 0.471552 0.528545
O O2 0.632566 0.619075 0.608873
O O3 0.144191 0.415059 0.621271
O O4 0.462505 0.475973 0.730486
O O5 0.237037 0.629817 0.609801
O O6 0.539329 0.798083 0.290386
O O7 0.284009 0.945179 0.171826
O O8 0.559660 0.028433 0.316331
O O9 0.176794 0.855266 0.902854
O O10 0.174307 0.829459 0.709673
O O11 0.282645 0.026767 0.803766
O O12 0.197837 0.627966 0.943426
O O13 0.336941 0.652877 0.817939
O O14 0.500000 0.530250 0.000000
O O15 0.923146 0.718590 0.788516
O O16 0.500000 0.255375 0.000000
#
# Coordination Sequence:
#
# PCOD9124773 Si02
#       8
#     2   4   4   4   4   4   4   4
#     4  10  22  40  64  92 130 164 196 260 316 360
#     4  10  21  38  61  91 120 156 205 254 305 368
#     4   9  19  38  64  86 118 164 207 250 306 369
#     4   9  20  40  62  88 125 162 205 259 309 358
#     4   9  19  36  58  89 126 160 204 260 307 357
#     4   9  20  42  65  92 128 163 206 258 310 366
#     4  10  21  39  65  93 124 167 210 252 307 371
#     4   9  19  40  61  82 120 163 202 254 307 362
#
# _framework density 25.296790999999999
#
# number of rings (size 3 to 8) (size 9 to 14) (size 15 to 20)
#    0.000    2.667    0.000    0.800    0.000    8.000 
#    0.000   36.000    0.000    0.000    0.000    0.000 
#    0.000    0.000    0.000    0.000    0.000    0.000 
#
# Total GULP energy -83885.550740 kJ/mol
# GULP energy per Si atom -5592.370049 kJ/mol
# Density = 2.523921 g / cm^3
# Si number density = 25.296791 Si / 1000 Ang^3
#
#
#
# Elastic Constant Matrix: (Units=GPa)
#
#
# Indices 1 2 3 4 5 6 
#
# 1 174.5329 40.4345 51.1543 0.0000 -38.6707 0.0000
# 2 40.4345 87.3990 3.7528 0.0000 -16.2675 0.0000
# 3 51.1543 3.7528 73.1669 0.0000 0.7938 0.0000
# 4 0.0000 0.0000 0.0000 12.0496 0.0000 -5.9457
# 5 -38.6707 -16.2675 0.7938 0.0000 65.9763 0.0000
# 6 0.0000 0.0000 0.0000 -5.9457 0.0000 50.3306
#
#
#
# Elastic Compliance Matrix: (Units=1/GPa)
#
#
# Indices 1 2 3 4 5 6 
#
# 1 0.009439 -0.003190 -0.006488 0.000000 0.004824 0.000000
# 2 -0.003190 0.013101 0.001544 0.000000 0.001342 0.000000
# 3 -0.006488 0.001544 0.018164 0.000000 -0.003641 0.000000
# 4 0.000000 0.000000 0.000000 0.088127 0.000000 0.010411
# 5 0.004824 0.001342 -0.003641 0.000000 0.018359 0.000000
# 6 0.000000 0.000000 0.000000 0.010411 0.000000 0.021099
#
#
# Mechanical properties :
#
#
# Convention : Reuss Voigt Hill
#
# Bulk Modulus (GPa) = 40.92439 58.42021 49.67230
# Shear Modulus (GPa) = 25.94665 41.65510 33.80087
#
# Velocity S-wave (km/s) = 3.20611 4.06230 3.65933
# Velocity P-wave (km/s) = 5.46977 6.71916 6.12640
#
# Compressibility (1/GPa) = 0.02443531
#
# Stress axis : x y z
#
# Youngs Moduli (GPa) = 105.94173 76.32853 55.05470
#
# Poissons Ratio (x) = 0.24353 0.35720
# Poissons Ratio (y) = 0.33801 -0.08501
# Poissons Ratio (z) = 0.68735 -0.11786
#
# Static dielectric constant tensor:
#      x y z
#    x 1.990630 0.000000 -0.031360 
#    y 0.000000 2.015790 0.000000 
#    z -0.031360 0.000000 2.030910 
# 
# From -- ./inp_files/50538.got.cif
#   From: 2010.05.17/outbox.cif.g08.bks.cpg/sg5_26_cif.got.tgz:50538.got - 2010.06.03 18:56:24.
