data_PCOD9124618
_publ_section_title
;
Structure prediction by ZEFSAII (Michael W. Deem and Ramdas Pophale) SiO2 
 PCOD9124618
Probable space group: C 2
;
_chemical_formula_sum "Si O2"
_cell_formula_units_Z 28
_cell_length_a 13.914581
_cell_length_b 7.261647
_cell_length_c 22.349142
_cell_angle_alpha 90.000000
_cell_angle_beta 150.342051
_cell_angle_gamma 90.000000
_cell_volume 1117.414399
_symmetry_space_group_name_H-M "C 2"
_symmetry_group_IT_number 5
_symmetry_cell_setting 'monoclinic'
loop_
_space_group_symop_operation_xyz
x,y,z
-x,y,-z
1/2+x,1/2+y,z
1/2-x,1/2+y,-z
loop_
_atom_site_type_symbol
_atom_site_label
_atom_site_fract_x
_atom_site_fract_y
_atom_site_fract_z
Si Si1 0.106650 0.273670 0.976012
Si Si2 0.889320 0.319069 0.518079
Si Si3 0.271696 0.165837 0.767162
Si Si4 0.000000 0.604974 0.000000
Si Si5 0.868821 0.497862 0.624381
Si Si6 0.156777 0.764754 0.708692
Si Si7 0.000000 0.629330 0.500000
Si Si8 0.907887 0.477070 0.144461
O O1 0.174275 0.327869 0.945804
O O2 0.117754 0.457224 0.022615
O O3 0.881913 0.219661 0.845152
O O4 0.238220 0.113181 0.072134
O O5 0.803620 0.360807 0.537271
O O6 0.803739 0.129900 0.447392
O O7 0.854821 0.489370 0.455875
O O8 0.119954 0.303271 0.655536
O O9 0.434504 0.095873 0.808702
O O10 0.374519 0.220216 0.884892
O O11 0.148369 0.982511 0.717064
O O12 0.021324 0.637810 0.675902
O O13 0.975948 0.399992 0.736549
O O14 0.102198 0.737624 0.609193
#
# Coordination Sequence:
#
# PCOD9124618 Si02
#       8
#     4   4   4   2   4   4   2   4
#     4  10  21  37  58  84 112 147 188 232 283 338
#     4  11  24  39  59  87 117 152 194 237 286 342
#     4  10  21  39  60  84 115 151 189 236 287 339
#     4   8  18  38  60  80 112 152 186 228 286 338
#     4  11  23  38  58  86 115 150 192 237 286 339
#     4   9  21  40  59  81 114 154 191 233 286 339
#     4  10  22  40  60  84 116 156 194 234 286 340
#     4  10  22  37  58  85 113 147 188 233 284 337
#
# _framework density 25.057849000000001
#
# number of rings (size 3 to 8) (size 9 to 14) (size 15 to 20)
#    0.000    2.286    0.000    3.429    0.000   13.143 
#    0.000    0.000    0.000    0.000    0.000    0.000 
#    0.000    0.000    0.000    0.000    0.000    0.000 
#
# Total GULP energy -78333.020627 kJ/mol
# GULP energy per Si atom -5595.215759 kJ/mol
# Density = 2.500082 g / cm^3
# Si number density = 25.057849 Si / 1000 Ang^3
#
#
#
# Elastic Constant Matrix: (Units=GPa)
#
#
# Indices 1 2 3 4 5 6 
#
# 1 56.0691 4.2279 34.2601 0.0000 -15.5322 0.0000
# 2 4.2279 36.8615 13.6252 0.0000 0.8783 0.0000
# 3 34.2601 13.6252 109.9109 0.0006 -25.8312 0.0002
# 4 0.0000 0.0000 0.0006 34.5797 0.0001 7.4880
# 5 -15.5322 0.8783 -25.8312 0.0001 52.9482 0.0000
# 6 0.0000 0.0000 0.0002 7.4880 0.0000 37.4165
#
#
#
# Elastic Compliance Matrix: (Units=1/GPa)
#
#
# Indices 1 2 3 4 5 6 
#
# 1 0.022632 -0.000411 -0.006147 0.000000 0.003647 0.000000
# 2 -0.000411 0.028729 -0.004036 0.000000 -0.002566 0.000000
# 3 -0.006147 -0.004036 0.012545 0.000000 0.004384 0.000000
# 4 0.000000 0.000000 0.000000 0.030229 0.000000 -0.006050
# 5 0.003647 -0.002566 0.004384 0.000000 0.022138 0.000000
# 6 0.000000 0.000000 0.000000 -0.006050 0.000000 0.027937
#
#
# Mechanical properties :
#
#
# Convention : Reuss Voigt Hill
#
# Bulk Modulus (GPa) = 23.40914 34.11865 28.76389
# Shear Modulus (GPa) = 27.83401 35.03741 31.43571
#
# Velocity S-wave (km/s) = 3.33647 3.74339 3.54577
# Velocity P-wave (km/s) = 4.91986 5.68590 5.31669
#
# Compressibility (1/GPa) = 0.04271837
#
# Stress axis : x y z
#
# Youngs Moduli (GPa) = 44.18477 34.80822 79.71348
#
# Poissons Ratio (x) = 0.01430 0.48996
# Poissons Ratio (y) = 0.01815 0.32176
# Poissons Ratio (z) = 0.27158 0.14050
#
# Static dielectric constant tensor:
#      x y z
#    x 2.047040 0.000000 0.009160 
#    y 0.000000 1.923140 0.000000 
#    z 0.009160 0.000000 1.946300 
# 
# From -- ./inp_files/41715.got.cif
#   From: 2010.05.17/outbox.cif.g08.bks.cpg/sg5_21_cif.got.tgz:41715.got - 2010.06.03 18:56:24.
