data_PCOD9124737
_publ_section_title
;
Structure prediction by ZEFSAII (Michael W. Deem and Ramdas Pophale) SiO2 
 PCOD9124737
Probable space group: C 2
;
_chemical_formula_sum "Si O2"
_cell_formula_units_Z 30
_cell_length_a 5.346333
_cell_length_b 34.505973
_cell_length_c 9.296614
_cell_angle_alpha 90.000000
_cell_angle_beta 69.287844
_cell_angle_gamma 90.000000
_cell_volume 1604.198340
_symmetry_space_group_name_H-M "C 2"
_symmetry_group_IT_number 5
_symmetry_cell_setting 'monoclinic'
loop_
_space_group_symop_operation_xyz
x,y,z
-x,y,-z
1/2+x,1/2+y,z
1/2-x,1/2+y,-z
loop_
_atom_site_type_symbol
_atom_site_label
_atom_site_fract_x
_atom_site_fract_y
_atom_site_fract_z
Si Si1 0.211407 0.272590 0.824571
Si Si2 0.609479 0.630497 0.815494
Si Si3 0.000000 0.798888 0.000000
Si Si4 0.311969 0.009496 0.396735
Si Si5 0.313407 0.922177 0.398522
Si Si6 0.109464 0.582926 0.816453
Si Si7 0.187607 0.205252 0.603187
Si Si8 0.002054 0.353387 0.160492
O O1 0.475109 0.270248 0.867702
O O2 0.165827 0.243717 0.705728
O O3 0.203781 0.317597 0.779863
O O4 0.000000 0.268508 0.000000
O O5 0.402709 0.601503 0.778326
O O6 0.616352 0.669199 0.720198
O O7 0.902439 0.611679 0.777550
O O8 0.500000 0.637910 0.000000
O O9 0.223955 0.828937 0.897490
O O10 0.500000 0.012748 0.500000
O O11 0.384099 0.042930 0.270566
O O12 0.000000 0.014246 0.500000
O O13 0.337716 0.965713 0.330582
O O14 0.500000 0.922806 0.500000
O O15 0.431201 0.887706 0.279558
O O16 0.000000 0.915821 0.500000
O O17 0.000000 0.577115 0.000000
O O18 0.500000 0.201619 0.500000
O O19 0.000000 0.206410 0.500000
O O20 0.000000 0.369831 0.000000
#
# Coordination Sequence:
#
# PCOD9124737 Si02
#       8
#     4   4   2   4   4   4   4   4
#     4   9  21  40  62  83 115 161 199 244 298 365
#     4  10  22  42  61  86 117 158 194 238 296 357
#     4   8  18  38  66  86 110 158 218 236 314 346
#     4  10  21  38  58  86 120 160 193 233 294 358
#     4  10  23  38  58  87 124 160 197 239 297 358
#     4  10  21  38  64  88 115 149 201 245 288 344
#     4  12  27  40  59  92 125 151 199 249 295 349
#     4   9  20  37  62  86 115 153 205 249 292 357
#
# _framework density 18.70093
#
# number of rings (size 3 to 8) (size 9 to 14) (size 15 to 20)
#    0.000    2.400    0.000    2.000    7.467    4.800 
#    3.600    0.000    4.400    0.000    0.000    0.000 
#    0.000    0.000    0.000    0.000    0.000    0.000 
#
# Total GULP energy -83513.447530 kJ/mol
# GULP energy per Si atom -5567.563169 kJ/mol
# Density = 1.865837 g / cm^3
# Si number density = 18.700930 Si / 1000 Ang^3
#
#
#
# Elastic Constant Matrix: (Units=GPa)
#
#
# Indices 1 2 3 4 5 6 
#
# 1 115.9426 33.1461 35.1457 0.0000 22.2942 0.0000
# 2 33.1461 126.5059 75.8069 0.0000 27.8426 0.0000
# 3 35.1457 75.8069 65.7877 0.0000 23.9631 0.0000
# 4 0.0000 0.0000 0.0000 54.8395 0.0000 10.1783
# 5 22.2942 27.8426 23.9631 0.0000 24.1343 0.0000
# 6 0.0000 0.0000 0.0000 10.1783 0.0000 16.4875
#
#
#
# Elastic Compliance Matrix: (Units=1/GPa)
#
#
# Indices 1 2 3 4 5 6 
#
# 1 0.011126 0.002130 -0.005889 0.000000 -0.006887 0.000000
# 2 0.002130 0.025950 -0.030421 0.000000 -0.001700 0.000000
# 3 -0.005889 -0.030421 0.060525 0.000000 -0.019561 0.000000
# 4 0.000000 0.000000 0.000000 0.020595 0.000000 -0.012714
# 5 -0.006887 -0.001700 -0.019561 0.000000 0.069180 0.000000
# 6 0.000000 0.000000 0.000000 -0.012714 0.000000 0.068501
#
#
# Mechanical properties :
#
#
# Convention : Reuss Voigt Hill
#
# Bulk Modulus (GPa) = 34.19903 66.27039 50.23471
# Shear Modulus (GPa) = 14.97083 30.03476 22.50279
#
# Velocity S-wave (km/s) = 2.83245 4.01191 3.47262
# Velocity P-wave (km/s) = 5.38740 7.54814 6.55738
#
# Compressibility (1/GPa) = 0.02924060
#
# Stress axis : x y z
#
# Youngs Moduli (GPa) = 89.88357 38.53557 16.52204
#
# Poissons Ratio (x) = -0.08206 0.09730
# Poissons Ratio (y) = -0.19141 0.50261
# Poissons Ratio (z) = 0.52931 1.17228
#
# Static dielectric constant tensor:
#      x y z
#    x 1.834250 0.000000 0.013280 
#    y 0.000000 1.620240 0.000000 
#    z 0.013280 0.000000 1.618190 
# 
# From -- ./inp_files/13353.got.cif
#   From: 2010.05.17/outbox.cif.g08.bks.cpg/sg5_7_cif.got.tgz:13353.got - 2010.06.03 18:56:24.
