data_PCOD9124580
_publ_section_title
;
Structure prediction by ZEFSAII (Michael W. Deem and Ramdas Pophale) SiO2 
 PCOD9124580
Probable space group: C 2
;
_chemical_formula_sum "Si O2"
_cell_formula_units_Z 26
_cell_length_a 19.823686
_cell_length_b 8.603316
_cell_length_c 7.884318
_cell_angle_alpha 90.000000
_cell_angle_beta 117.164730
_cell_angle_gamma 90.000000
_cell_volume 1196.346074
_symmetry_space_group_name_H-M "C 2"
_symmetry_group_IT_number 5
_symmetry_cell_setting 'monoclinic'
loop_
_space_group_symop_operation_xyz
x,y,z
-x,y,-z
1/2+x,1/2+y,z
1/2-x,1/2+y,-z
loop_
_atom_site_type_symbol
_atom_site_label
_atom_site_fract_x
_atom_site_fract_y
_atom_site_fract_z
Si Si1 0.500000 0.295051 0.000000
Si Si2 0.669306 0.712915 0.088541
Si Si3 0.841064 0.682942 0.747348
Si Si4 0.209477 0.367938 0.485188
Si Si5 0.880313 0.122334 0.435347
Si Si6 0.755481 0.518071 0.924016
Si Si7 0.973637 0.076718 0.199024
O O1 0.430584 0.199424 0.846127
O O2 0.533910 0.408450 0.894670
O O3 0.694394 0.757571 0.304864
O O4 0.697989 0.860193 0.011697
O O5 0.714329 0.572678 0.048085
O O6 0.578727 0.687064 0.978462
O O7 0.815094 0.539248 0.598130
O O8 0.796004 0.836671 0.638590
O O9 0.813530 0.640783 0.906209
O O10 0.157509 0.289116 0.570518
O O11 0.810119 0.011687 0.298748
O O12 0.931637 0.107436 0.327891
O O13 0.937492 0.091489 0.655933
#
# Coordination Sequence:
#
# PCOD9124580 Si02
#       7
#     2   4   4   4   4   4   4
#     4  12  26  40  64  98 138 176 216 274 328 388
#     4  10  21  36  64  98 126 173 214 271 320 391
#     4  10  25  41  63  96 131 174 217 271 326 388
#     4  10  22  41  68  94 130 172 224 267 326 394
#     4   9  20  41  63  91 132 170 215 269 324 388
#     4   9  21  38  63  94 133 169 222 265 320 392
#     4  10  22  37  64  95 131 171 216 265 329 386
#
# _framework density 21.732841000000001
#
# number of rings (size 3 to 8) (size 9 to 14) (size 15 to 20)
#    0.000    2.154    0.000    0.923   12.923    4.923 
#    0.000    0.000    0.000    1.846    0.000    0.000 
#    0.000    0.000    0.000    0.000    0.000    0.000 
#
# Total GULP energy -72465.100006 kJ/mol
# GULP energy per Si atom -5574.238462 kJ/mol
# Density = 2.168338 g / cm^3
# Si number density = 21.732841 Si / 1000 Ang^3
#
#
#
# Elastic Constant Matrix: (Units=GPa)
#
#
# Indices 1 2 3 4 5 6 
#
# 1 90.6095 39.9378 37.8640 0.0000 8.0278 0.0000
# 2 39.9378 80.9853 43.0749 0.0000 17.1850 0.0000
# 3 37.8640 43.0749 105.6987 0.0000 22.0392 0.0000
# 4 0.0000 0.0000 0.0000 35.9339 0.0000 -0.8528
# 5 8.0278 17.1850 22.0392 0.0000 55.5075 0.0000
# 6 0.0000 0.0000 0.0000 -0.8528 0.0000 36.3694
#
#
#
# Elastic Compliance Matrix: (Units=1/GPa)
#
#
# Indices 1 2 3 4 5 6 
#
# 1 0.014839 -0.005850 -0.003120 0.000000 0.000904 0.000000
# 2 -0.005850 0.018407 -0.004790 0.000000 -0.002951 0.000000
# 3 -0.003120 -0.004790 0.013222 0.000000 -0.003315 0.000000
# 4 0.000000 0.000000 0.000000 0.027844 0.000000 0.000653
# 5 0.000904 -0.002951 -0.003315 0.000000 0.020115 0.000000
# 6 0.000000 0.000000 0.000000 0.000653 0.000000 0.027511
#
#
# Mechanical properties :
#
#
# Convention : Reuss Voigt Hill
#
# Bulk Modulus (GPa) = 52.77959 57.67187 55.22573
# Shear Modulus (GPa) = 32.09779 35.98994 34.04386
#
# Velocity S-wave (km/s) = 3.84725 4.07383 3.96216
# Velocity P-wave (km/s) = 6.63878 6.98015 6.81161
#
# Compressibility (1/GPa) = 0.01894672
#
# Stress axis : x y z
#
# Youngs Moduli (GPa) = 67.39197 54.32747 75.63117
#
# Poissons Ratio (x) = 0.31781 0.23597
# Poissons Ratio (y) = 0.39424 0.36231
# Poissons Ratio (z) = 0.21027 0.26025
#
# Static dielectric constant tensor:
#      x y z
#    x 1.865330 0.000000 -0.024760 
#    y 0.000000 1.797700 0.000000 
#    z -0.024760 0.000000 1.869090 
# 
# From -- ./inp_files/29163.got.cif
#   From: 2010.05.17/outbox.cif.g08.bks.cpg/sg5_15_cif.got.tgz:29163.got - 2010.06.03 18:56:24.
