data_PCOD9124866
_publ_section_title
;
Structure prediction by ZEFSAII (Michael W. Deem and Ramdas Pophale) SiO2 
 PCOD9124866
Probable space group: C 2
;
_chemical_formula_sum "Si O2"
_cell_formula_units_Z 30
_cell_length_a 13.024944
_cell_length_b 19.543535
_cell_length_c 5.013186
_cell_angle_alpha 90.000000
_cell_angle_beta 83.545599
_cell_angle_gamma 90.000000
_cell_volume 1268.035247
_symmetry_space_group_name_H-M "C 2"
_symmetry_group_IT_number 5
_symmetry_cell_setting 'monoclinic'
loop_
_space_group_symop_operation_xyz
x,y,z
-x,y,-z
1/2+x,1/2+y,z
1/2-x,1/2+y,-z
loop_
_atom_site_type_symbol
_atom_site_label
_atom_site_fract_x
_atom_site_fract_y
_atom_site_fract_z
Si Si1 0.120986 0.625000 0.437915
Si Si2 0.613749 0.965970 0.586282
Si Si3 0.657862 0.783641 0.031078
Si Si4 0.743643 0.644184 0.126487
Si Si5 0.000000 0.385476 0.000000
Si Si6 0.927176 0.032365 0.782383
Si Si7 0.244663 0.339790 0.497024
Si Si8 0.430912 0.377782 0.776963
O O1 0.127625 0.545214 0.525994
O O2 0.192623 0.663988 0.628170
O O3 0.000000 0.644333 0.500000
O O4 0.172356 0.632886 0.132943
O O5 0.500000 0.948056 0.500000
O O6 0.590640 0.938637 0.890477
O O7 0.708326 0.918456 0.471862
O O8 0.663463 0.703191 0.066116
O O9 0.749319 0.809753 0.201414
O O10 0.562590 0.829830 0.160075
O O11 0.663818 0.802097 0.716574
O O12 0.675098 0.577616 0.206298
O O13 0.000000 0.035812 0.500000
O O14 0.894516 0.954280 0.865517
O O15 0.000000 0.057254 0.000000
O O16 0.342683 0.334316 0.660983
O O17 0.500000 0.391625 0.500000
O O18 0.500000 0.350008 0.000000
#
# Coordination Sequence:
#
# PCOD9124866 Si02
#       8
#     4   4   4   4   2   4   4   4
#     4  11  26  43  70  96 133 179 234 290 338 397
#     4  10  21  38  67 101 134 164 221 286 368 404
#     4  11  25  41  66  93 137 173 226 264 339 417
#     4  12  25  46  64  99 136 186 229 272 338 416
#     4  10  22  42  66 106 136 178 216 292 352 430
#     4  10  22  40  65  99 130 172 217 276 343 405
#     4  11  22  41  64  95 127 172 215 280 337 401
#     4  10  21  39  62  91 128 163 220 273 326 390
#
# _framework density 23.658652
#
# number of rings (size 3 to 8) (size 9 to 14) (size 15 to 20)
#    0.000    1.333    1.333    3.600    4.667    3.200 
#    2.400    6.667    0.000    0.000    0.000    0.000 
#    0.000    0.000    0.000    0.000    0.000    0.000 
#
# Total GULP energy -83647.759699 kJ/mol
# GULP energy per Si atom -5576.517313 kJ/mol
# Density = 2.360480 g / cm^3
# Si number density = 23.658652 Si / 1000 Ang^3
#
#
#
# Elastic Constant Matrix: (Units=GPa)
#
#
# Indices 1 2 3 4 5 6 
#
# 1 70.3931 -16.5758 28.3955 0.0000 15.9459 0.0000
# 2 -16.5758 26.5063 -13.2388 0.0000 -4.5124 0.0000
# 3 28.3955 -13.2388 114.3197 0.0000 6.1134 0.0000
# 4 0.0000 0.0000 0.0000 14.1891 0.0000 3.8530
# 5 15.9459 -4.5124 6.1134 0.0000 46.6355 0.0000
# 6 0.0000 0.0000 0.0000 3.8530 0.0000 22.9927
#
#
#
# Elastic Compliance Matrix: (Units=1/GPa)
#
#
# Indices 1 2 3 4 5 6 
#
# 1 0.018901 0.009276 -0.003347 0.000000 -0.005127 0.000000
# 2 0.009276 0.045103 0.002876 0.000000 0.000815 0.000000
# 3 -0.003347 0.002876 0.009905 0.000000 0.000124 0.000000
# 4 0.000000 0.000000 0.000000 0.073837 0.000000 -0.012373
# 5 -0.005127 0.000815 0.000124 0.000000 0.023258 0.000000
# 6 0.000000 0.000000 0.000000 -0.012373 0.000000 0.045566
#
#
# Mechanical properties :
#
#
# Convention : Reuss Voigt Hill
#
# Bulk Modulus (GPa) = 10.92672 23.15341 17.04007
# Shear Modulus (GPa) = 21.78969 30.93933 26.36451
#
# Velocity S-wave (km/s) = 3.03810 3.62019 3.34184
# Velocity P-wave (km/s) = 4.11524 5.22322 4.70198
#
# Compressibility (1/GPa) = 0.09151875
#
# Stress axis : x y z
#
# Youngs Moduli (GPa) = 52.90600 22.17169 100.95916
#
# Poissons Ratio (x) = -0.20566 0.33786
# Poissons Ratio (y) = -0.49075 -0.29031
# Poissons Ratio (z) = 0.17705 -0.06375
#
# Static dielectric constant tensor:
#      x y z
#    x 2.004910 0.000000 -0.064520 
#    y 0.000000 1.903740 0.000000 
#    z -0.064520 0.000000 2.135600 
# 
# From -- ./inp_files/5655.got.cif
#   From: 2010.05.17/outbox.cif.g08.bks.cpg/sg5_3_cif.got.tgz:5655.got - 2010.06.03 18:56:24.
