data_PCOD9124405
_publ_section_title
;
Structure prediction by ZEFSAII (Michael W. Deem and Ramdas Pophale) SiO2 
 PCOD9124405
Probable space group: C 2
;
_chemical_formula_sum "Si O2"
_cell_formula_units_Z 28
_cell_length_a 15.730006
_cell_length_b 5.419925
_cell_length_c 13.813099
_cell_angle_alpha 90.000000
_cell_angle_beta 117.206979
_cell_angle_gamma 90.000000
_cell_volume 1047.348509
_symmetry_space_group_name_H-M "C 2"
_symmetry_group_IT_number 5
_symmetry_cell_setting 'monoclinic'
loop_
_space_group_symop_operation_xyz
x,y,z
-x,y,-z
1/2+x,1/2+y,z
1/2-x,1/2+y,-z
loop_
_atom_site_type_symbol
_atom_site_label
_atom_site_fract_x
_atom_site_fract_y
_atom_site_fract_z
Si Si1 0.351719 0.680220 0.640795
Si Si2 0.500000 0.937524 0.500000
Si Si3 0.784595 0.606927 0.070399
Si Si4 0.034510 0.306424 0.830327
Si Si5 0.686896 0.367864 0.192680
Si Si6 0.636315 0.318767 0.516409
Si Si7 0.500000 0.483085 0.000000
Si Si8 0.372932 0.585690 0.302578
O O1 0.427978 0.850659 0.735541
O O2 0.330576 0.468323 0.709501
O O3 0.392602 0.544668 0.567164
O O4 0.249359 0.793002 0.561984
O O5 0.569040 0.088625 0.462664
O O6 0.424852 0.792890 0.394459
O O7 0.897056 0.543174 0.132424
O O8 0.739845 0.574649 0.153824
O O9 0.757704 0.867334 0.009452
O O10 0.080974 0.113283 0.777890
O O11 0.031813 0.165302 0.930394
O O12 0.586943 0.323065 0.087083
O O13 0.761237 0.146615 0.234303
O O14 0.617273 0.357397 0.620859
#
# Coordination Sequence:
#
# PCOD9124405 Si02
#       8
#     4   2   4   4   4   4   2   4
#     4  11  24  45  70 110 145 189 240 308 388 437
#     4  12  24  46  72 102 142 190 240 300 354 468
#     4  11  24  48  75 107 146 201 249 313 366 455
#     4  10  23  45  72 101 149 186 250 300 373 457
#     4  10  22  45  69 106 145 184 248 295 371 448
#     4  12  26  46  73 102 150 188 238 317 368 453
#     4  10  20  46  70 104 148 184 240 310 372 432
#     4  11  24  46  69 107 137 193 248 287 369 454
#
# _framework density 26.734173999999999
#
# number of rings (size 3 to 8) (size 9 to 14) (size 15 to 20)
#    0.000    1.143    2.857    3.000    2.000    2.286 
#    7.714    0.000    0.000    0.000    0.000    0.000 
#    0.000    0.000    0.000    0.000    0.000    0.000 
#
# Total GULP energy -78534.681897 kJ/mol
# GULP energy per Si atom -5609.620135 kJ/mol
# Density = 2.667333 g / cm^3
# Si number density = 26.734174 Si / 1000 Ang^3
#
#
#
# Elastic Constant Matrix: (Units=GPa)
#
#
# Indices 1 2 3 4 5 6 
#
# 1 115.7592 17.4545 47.0461 0.0000 13.1821 0.0000
# 2 17.4545 90.3149 46.4277 0.0000 11.0992 0.0000
# 3 47.0461 46.4277 146.6130 0.0000 1.1609 0.0000
# 4 0.0000 0.0000 0.0000 44.8116 0.0000 0.6321
# 5 13.1821 11.0992 1.1609 0.0000 89.7879 0.0000
# 6 0.0000 0.0000 0.0000 0.6321 0.0000 31.0286
#
#
#
# Elastic Compliance Matrix: (Units=1/GPa)
#
#
# Indices 1 2 3 4 5 6 
#
# 1 0.010119 -0.000140 -0.003192 0.000000 -0.001427 0.000000
# 2 -0.000140 0.013455 -0.004204 0.000000 -0.001588 0.000000
# 3 -0.003192 -0.004204 0.009169 0.000000 0.000870 0.000000
# 4 0.000000 0.000000 0.000000 0.022322 0.000000 -0.000455
# 5 -0.001427 -0.001588 0.000870 0.000000 0.011532 0.000000
# 6 0.000000 0.000000 0.000000 -0.000455 0.000000 0.032238
#
#
# Mechanical properties :
#
#
# Convention : Reuss Voigt Hill
#
# Bulk Modulus (GPa) = 56.57936 63.83819 60.20878
# Shear Modulus (GPa) = 41.73742 49.24286 45.49014
#
# Velocity S-wave (km/s) = 3.95549 4.29644 4.12949
# Velocity P-wave (km/s) = 6.48620 6.96730 6.73105
#
# Compressibility (1/GPa) = 0.01767429
#
# Stress axis : x y z
#
# Youngs Moduli (GPa) = 98.82090 74.31923 109.06212
#
# Poissons Ratio (x) = 0.01037 0.34809
# Poissons Ratio (y) = 0.01379 0.45845
# Poissons Ratio (z) = 0.31540 0.31241
#
# Static dielectric constant tensor:
#      x y z
#    x 2.094260 0.000000 0.006530 
#    y 0.000000 2.075170 0.000000 
#    z 0.006530 0.000000 2.056690 
# 
# From -- ./inp_files/55519.got.cif
#   From: 2010.05.17/outbox.cif.g08.bks.cpg/sg5_28_cif.got.tgz:55519.got - 2010.06.03 18:56:24.
