data_PCOD9124946
_publ_section_title
;
Structure prediction by ZEFSAII (Michael W. Deem and Ramdas Pophale) SiO2 
 PCOD9124946
Probable space group: C 2
;
_chemical_formula_sum "Si O2"
_cell_formula_units_Z 28
_cell_length_a 4.951739
_cell_length_b 31.696174
_cell_length_c 9.629118
_cell_angle_alpha 90.000000
_cell_angle_beta 116.323575
_cell_angle_gamma 90.000000
_cell_volume 1354.585600
_symmetry_space_group_name_H-M "C 2"
_symmetry_group_IT_number 5
_symmetry_cell_setting 'monoclinic'
loop_
_space_group_symop_operation_xyz
x,y,z
-x,y,-z
1/2+x,1/2+y,z
1/2-x,1/2+y,-z
loop_
_atom_site_type_symbol
_atom_site_label
_atom_site_fract_x
_atom_site_fract_y
_atom_site_fract_z
Si Si1 0.148707 0.148360 0.185319
Si Si2 0.211505 0.778260 0.174797
Si Si3 0.847564 0.565685 0.111532
Si Si4 0.707635 0.835833 0.175509
Si Si5 0.734686 0.689915 0.674792
Si Si6 0.166182 0.408275 0.393520
Si Si7 0.854195 0.471055 0.113927
O O1 0.317549 0.102800 0.217508
O O2 0.419117 0.180126 0.278480
O O3 0.881584 0.158750 0.230061
O O4 0.000000 0.153994 0.000000
O O5 0.522410 0.795405 0.185793
O O6 0.273806 0.738788 0.285087
O O7 0.028360 0.818022 0.197435
O O8 0.000000 0.763102 0.000000
O O9 0.962983 0.519030 0.174605
O O10 0.500000 0.557676 0.000000
O O11 0.000000 0.579185 0.000000
O O12 0.722629 0.868865 0.303334
O O13 0.500000 0.852470 0.000000
O O14 0.500000 0.682204 0.500000
O O15 0.500000 0.426275 0.500000
O O16 0.000000 0.397298 0.500000
O O17 0.959191 0.440525 0.260021
O O18 0.500000 0.468618 0.000000
O O19 0.000000 0.459428 0.000000
#
# Coordination Sequence:
#
# PCOD9124946 Si02
#       7
#     4   4   4   4   4   4   4
#     4  11  21  39  64  87 117 159 206 250 295 356
#     4  10  21  39  62  87 113 151 204 252 297 354
#     4   9  18  35  62  93 116 152 211 262 296 344
#     4  10  22  40  63  86 113 154 204 251 296 355
#     4  12  25  39  58  90 126 158 194 245 310 367
#     4  12  25  40  60  93 130 161 199 248 311 370
#     4  10  21  40  66  90 120 163 211 254 298 358
#
# _framework density 20.670528000000001
#
# number of rings (size 3 to 8) (size 9 to 14) (size 15 to 20)
#    0.000    1.429    0.000    6.429    0.000    4.571 
#    0.000    2.143    0.000    0.000    0.000    0.000 
#    0.000    0.000    0.000    0.000    0.000    0.000 
#
# Total GULP energy -78150.648896 kJ/mol
# GULP energy per Si atom -5582.189207 kJ/mol
# Density = 2.062348 g / cm^3
# Si number density = 20.670528 Si / 1000 Ang^3
#
#
#
# Elastic Constant Matrix: (Units=GPa)
#
#
# Indices 1 2 3 4 5 6 
#
# 1 91.0342 -9.0010 8.9255 0.0000 -3.2723 0.0000
# 2 -9.0010 57.4321 31.1875 0.0000 -5.3298 0.0000
# 3 8.9255 31.1875 90.0098 0.0000 -1.1675 0.0000
# 4 0.0000 0.0000 0.0000 -338.3214 0.0000 132.7460
# 5 -3.2723 -5.3298 -1.1675 0.0000 34.0242 0.0000
# 6 0.0000 0.0000 0.0000 132.7460 0.0000 -30.7553
#
#
#
# Elastic Compliance Matrix: (Units=1/GPa)
#
#
# Indices 1 2 3 4 5 6 
#
# 1 0.011571 0.003163 -0.002223 0.000000 0.001532 0.000000
# 2 0.003163 0.022645 -0.008114 0.000000 0.003573 0.000000
# 3 -0.002223 -0.008114 0.014129 0.000000 -0.001000 0.000000
# 4 0.000000 0.000000 0.000000 0.004262 0.000000 0.018395
# 5 0.001532 0.003573 -0.001000 0.000000 0.030064 0.000000
# 6 0.000000 0.000000 0.000000 0.018395 0.000000 0.046883
#
#
# Mechanical properties :
#
#
# Convention : Reuss Voigt Hill
#
# Bulk Modulus (GPa) = 29.41490 33.41111 31.41300
# Shear Modulus (GPa) = 32.20963 -53.18623 -10.48830
#
# Velocity S-wave (km/s) = 3.95174 -5.07802 -2.25501
# Velocity P-wave (km/s) = 5.92308 4.26416 2.90688
#
# Compressibility (1/GPa) = 0.03399638
#
# Stress axis : x y z
#
# Youngs Moduli (GPa) = 86.42525 44.15965 70.77798
#
# Poissons Ratio (x) = -0.13968 0.15737
# Poissons Ratio (y) = -0.27336 0.57426
# Poissons Ratio (z) = 0.19216 0.35829
#
# Static dielectric constant tensor:
#      x y z
#    x 1.710810 0.000000 0.080110 
#    y 0.000000 1.781660 0.000000 
#    z 0.080110 0.000000 1.921070 
# 
# From -- ./inp_files/13281.got.cif
#   From: 2010.05.17/outbox.cif.g08.bks.cpg/sg5_7_cif.got.tgz:13281.got - 2010.06.03 18:56:24.
