data_PCOD9124793
_publ_section_title
;
Structure prediction by ZEFSAII (Michael W. Deem and Ramdas Pophale) SiO2 
 PCOD9124793
Probable space group: C 2
;
_chemical_formula_sum "Si O2"
_cell_formula_units_Z 32
_cell_length_a 16.796873
_cell_length_b 7.829279
_cell_length_c 11.511651
_cell_angle_alpha 90.000000
_cell_angle_beta 88.631808
_cell_angle_gamma 90.000000
_cell_volume 1513.435746
_symmetry_space_group_name_H-M "C 2"
_symmetry_group_IT_number 5
_symmetry_cell_setting 'monoclinic'
loop_
_space_group_symop_operation_xyz
x,y,z
-x,y,-z
1/2+x,1/2+y,z
1/2-x,1/2+y,-z
loop_
_atom_site_type_symbol
_atom_site_label
_atom_site_fract_x
_atom_site_fract_y
_atom_site_fract_z
Si Si1 0.592802 0.891560 0.708625
Si Si2 0.457878 0.743025 0.878763
Si Si3 0.345755 0.293992 0.513394
Si Si4 0.495329 0.376125 0.138069
Si Si5 0.244147 0.562266 0.646512
Si Si6 0.677853 0.889871 0.240851
Si Si7 0.962527 0.616492 0.659537
Si Si8 0.347366 0.516212 0.280413
O O1 0.523913 0.845619 0.802676
O O2 0.628208 0.705870 0.680202
O O3 0.670238 0.006695 0.730916
O O4 0.539944 0.005482 0.622979
O O5 0.450732 0.545020 0.839991
O O6 0.372928 0.835564 0.871019
O O7 0.500000 0.733272 0.000000
O O8 0.296396 0.402076 0.608438
O O9 0.294820 0.131950 0.471735
O O10 0.428386 0.250277 0.569907
O O11 0.355270 0.399822 0.394253
O O12 0.517707 0.220933 0.222394
O O13 0.408454 0.443956 0.181751
O O14 0.500000 0.334030 0.000000
O O15 0.294979 0.714563 0.698929
O O16 0.758290 0.000163 0.232414
O O17 0.612185 0.991148 0.316721
#
# Coordination Sequence:
#
# PCOD9124793 Si02
#       8
#     4   4   4   4   4   4   4   4
#     4  10  22  39  59  86 123 162 201 247 301 358
#     4   9  20  41  64  88 119 155 202 257 304 354
#     4  11  22  37  60  90 123 158 201 252 304 358
#     4  10  22  43  65  86 118 158 200 252 306 357
#     4  11  21  38  60  85 124 162 197 247 302 363
#     4  10  21  38  62  91 122 159 203 245 301 362
#     4  11  22  38  61  91 123 159 203 247 302 362
#     4  10  22  42  63  88 122 160 202 251 300 360
#
# _framework density 21.143946
#
# number of rings (size 3 to 8) (size 9 to 14) (size 15 to 20)
#    0.000    1.750    0.000    5.250    0.000    4.000 
#    0.000   12.500    0.000    0.000    0.000    0.000 
#    0.000    0.000    0.000    0.000    0.000    0.000 
#
# Total GULP energy -89247.524187 kJ/mol
# GULP energy per Si atom -5577.970262 kJ/mol
# Density = 2.109582 g / cm^3
# Si number density = 21.143946 Si / 1000 Ang^3
#
#
#
# Elastic Constant Matrix: (Units=GPa)
#
#
# Indices 1 2 3 4 5 6 
#
# 1 156.0248 65.3223 41.9708 0.0000 11.6938 0.0000
# 2 65.3223 107.7804 25.1674 0.0000 13.6895 0.0000
# 3 41.9708 25.1674 52.8293 0.0000 12.9220 0.0000
# 4 0.0000 0.0000 0.0000 20.8639 0.0000 2.5970
# 5 11.6938 13.6895 12.9220 0.0000 27.2508 0.0000
# 6 0.0000 0.0000 0.0000 2.5970 0.0000 47.3004
#
#
#
# Elastic Compliance Matrix: (Units=1/GPa)
#
#
# Indices 1 2 3 4 5 6 
#
# 1 0.009897 -0.004754 -0.005818 0.000000 0.000900 0.000000
# 2 -0.004754 0.012986 -0.001485 0.000000 -0.003779 0.000000
# 3 -0.005818 -0.001485 0.026544 0.000000 -0.009344 0.000000
# 4 0.000000 0.000000 0.000000 0.048259 0.000000 -0.002650
# 5 0.000900 -0.003779 -0.009344 0.000000 0.042639 0.000000
# 6 0.000000 0.000000 0.000000 -0.002650 0.000000 0.021287
#
#
# Mechanical properties :
#
#
# Convention : Reuss Voigt Hill
#
# Bulk Modulus (GPa) = 39.50578 64.61727 52.06152
# Shear Modulus (GPa) = 25.75106 31.36129 28.55617
#
# Velocity S-wave (km/s) = 3.49362 3.85545 3.67898
# Velocity P-wave (km/s) = 5.91596 7.10256 6.53624
#
# Compressibility (1/GPa) = 0.02531275
#
# Stress axis : x y z
#
# Youngs Moduli (GPa) = 101.03734 77.00428 37.67262
#
# Poissons Ratio (x) = 0.36609 0.21919
# Poissons Ratio (y) = 0.48035 0.05595
# Poissons Ratio (z) = 0.58787 0.11436
#
# Static dielectric constant tensor:
#      x y z
#    x 1.772550 0.000000 -0.004720 
#    y 0.000000 1.839850 0.000000 
#    z -0.004720 0.000000 1.797010 
# 
# From -- ./inp_files/41960.got.cif
#   From: 2010.05.17/outbox.cif.g08.bks.cpg/sg5_21_cif.got.tgz:41960.got - 2010.06.03 18:56:24.
