data_PCOD9124438
_publ_section_title
;
Structure prediction by ZEFSAII (Michael W. Deem and Ramdas Pophale) SiO2 
 PCOD9124438
Probable space group: C 2
;
_chemical_formula_sum "Si O2"
_cell_formula_units_Z 20
_cell_length_a 25.367016
_cell_length_b 7.005592
_cell_length_c 5.323141
_cell_angle_alpha 90.000000
_cell_angle_beta 63.656040
_cell_angle_gamma 90.000000
_cell_volume 847.736869
_symmetry_space_group_name_H-M "C 2"
_symmetry_group_IT_number 5
_symmetry_cell_setting 'monoclinic'
loop_
_space_group_symop_operation_xyz
x,y,z
-x,y,-z
1/2+x,1/2+y,z
1/2-x,1/2+y,-z
loop_
_atom_site_type_symbol
_atom_site_label
_atom_site_fract_x
_atom_site_fract_y
_atom_site_fract_z
Si Si1 0.466554 0.939710 0.819773
Si Si2 0.663393 0.934497 0.062433
Si Si3 0.666400 0.534220 0.863776
Si Si4 0.965763 0.977699 0.825033
Si Si5 0.288772 0.876767 0.538901
O O1 0.500000 0.000129 0.500000
O O2 0.399001 0.992753 0.919408
O O3 0.466709 0.709033 0.825142
O O4 0.500000 0.000842 0.000000
O O5 0.676750 0.993446 0.317569
O O6 0.665571 0.700938 0.076602
O O7 0.708897 0.973516 0.742568
O O8 0.678891 0.676526 0.598844
O O9 0.721341 0.393254 0.769106
O O10 0.603486 0.433711 0.005338
O O11 0.000000 0.919983 0.500000
O O12 0.000000 0.914079 0.000000
#
# Coordination Sequence:
#
# PCOD9124438 Si02
#       5
#     4   4   4   4   4
#     4   9  15  25  43  67 100 130 159 210 261 300
#     4   9  20  30  49  75 107 137 172 211 263 315
#     4   9  22  34  55  79 112 136 181 214 272 318
#     4   9  18  28  49  74 103 128 169 223 264 297
#     4  10  21  33  52  75 112 143 171 222 258 324
#
# _framework density 23.592227000000001
#
# number of rings (size 3 to 8) (size 9 to 14) (size 15 to 20)
#    1.200    1.600    0.000    1.200   11.200    0.000 
#    0.000    0.000    0.000    0.000    0.000    8.400 
#    0.000    0.000    0.000    0.000    0.000    0.000 
#
# Total GULP energy -55683.830626 kJ/mol
# GULP energy per Si atom -5568.383063 kJ/mol
# Density = 2.353853 g / cm^3
# Si number density = 23.592227 Si / 1000 Ang^3
#
#
#
# Elastic Constant Matrix: (Units=GPa)
#
#
# Indices 1 2 3 4 5 6 
#
# 1 120.3528 5.5805 88.1472 0.0000 7.6184 0.0000
# 2 5.5805 102.6936 6.1944 0.0000 -2.2428 0.0000
# 3 88.1472 6.1944 144.5223 0.0000 -8.2337 0.0000
# 4 0.0000 0.0000 0.0000 2.3165 0.0000 -18.0211
# 5 7.6184 -2.2428 -8.2337 0.0000 60.8910 0.0000
# 6 0.0000 0.0000 0.0000 -18.0211 0.0000 -15.7731
#
#
#
# Elastic Compliance Matrix: (Units=1/GPa)
#
#
# Indices 1 2 3 4 5 6 
#
# 1 0.015650 -0.000336 -0.009718 0.000000 -0.003284 0.000000
# 2 -0.000336 0.009776 -0.000193 0.000000 0.000376 0.000000
# 3 -0.009718 -0.000193 0.013024 0.000000 0.002970 0.000000
# 4 0.000000 0.000000 0.000000 0.043657 0.000000 -0.049879
# 5 -0.003284 0.000376 0.002970 0.000000 0.017249 0.000000
# 6 0.000000 0.000000 0.000000 -0.049879 0.000000 -0.006412
#
#
# Mechanical properties :
#
#
# Convention : Reuss Voigt Hill
#
# Bulk Modulus (GPa) = 55.69008 63.04590 59.36799
# Shear Modulus (GPa) = 41.86822 27.33000 34.59911
#
# Velocity S-wave (km/s) = 4.21724 3.40727 3.83371
# Velocity P-wave (km/s) = 6.88259 6.50081 6.69442
#
# Compressibility (1/GPa) = 0.01795652
#
# Stress axis : x y z
#
# Youngs Moduli (GPa) = 63.89836 102.29349 76.78157
#
# Poissons Ratio (x) = 0.03437 0.74616
# Poissons Ratio (y) = 0.02147 0.01479
# Poissons Ratio (z) = 0.62096 0.01971
#
# Static dielectric constant tensor:
#      x y z
#    x 1.806740 0.000000 0.036630 
#    y 0.000000 1.964890 0.000000 
#    z 0.036630 0.000000 1.864440 
# 
# From -- ./inp_files/9335.got.cif
#   From: 2010.05.17/outbox.cif.g08.bks.cpg/sg5_5_cif.got.tgz:9335.got - 2010.06.03 18:56:24.
