data_PCOD9124451
_publ_section_title
;
Structure prediction by ZEFSAII (Michael W. Deem and Ramdas Pophale) SiO2 
 PCOD9124451
Probable space group: C 2
;
_chemical_formula_sum "Si O2"
_cell_formula_units_Z 28
_cell_length_a 12.920283
_cell_length_b 8.347093
_cell_length_c 10.858560
_cell_angle_alpha 90.000000
_cell_angle_beta 72.193779
_cell_angle_gamma 90.000000
_cell_volume 1114.962713
_symmetry_space_group_name_H-M "C 2"
_symmetry_group_IT_number 5
_symmetry_cell_setting 'monoclinic'
loop_
_space_group_symop_operation_xyz
x,y,z
-x,y,-z
1/2+x,1/2+y,z
1/2-x,1/2+y,-z
loop_
_atom_site_type_symbol
_atom_site_label
_atom_site_fract_x
_atom_site_fract_y
_atom_site_fract_z
Si Si1 0.155574 0.015810 0.611277
Si Si2 0.942538 0.105867 0.648672
Si Si3 0.771637 0.522700 0.826037
Si Si4 0.171731 0.678843 0.583621
Si Si5 0.007138 0.444794 0.694172
Si Si6 0.782970 0.658339 0.158134
Si Si7 0.881908 0.330865 0.098712
O O1 0.205367 0.139477 0.496089
O O2 0.036350 0.042942 0.706651
O O3 0.239705 0.016120 0.692519
O O4 0.154672 0.851410 0.537378
O O5 0.951458 0.296631 0.648312
O O6 0.827322 0.073930 0.751102
O O7 0.000000 0.054454 0.500000
O O8 0.902705 0.540835 0.784837
O O9 0.739687 0.339577 0.884023
O O10 0.700481 0.680122 0.892814
O O11 0.153854 0.692790 0.736970
O O12 0.084781 0.547923 0.579197
O O13 0.088186 0.369037 0.768700
O O14 0.840350 0.508750 0.068488
O O15 0.000000 0.293076 0.000000
#
# Coordination Sequence:
#
# PCOD9124451 Si02
#       7
#     4   4   4   4   4   4   4
#     4  11  21  35  57  88 130 174 212 256 318 388
#     4  11  20  36  60  92 131 175 205 259 323 390
#     4  10  23  42  64  93 129 168 216 270 330 395
#     4  10  21  34  55  87 124 170 209 258 313 387
#     4  10  23  42  61  92 132 164 219 272 321 403
#     4   9  22  40  61  92 133 163 214 269 326 390
#     4  11  24  47  71  93 123 170 224 289 332 386
#
# _framework density 25.112949
#
# number of rings (size 3 to 8) (size 9 to 14) (size 15 to 20)
#    0.000    1.714    2.857    0.857    8.000    0.571 
#    5.143    0.000    0.000    0.000    0.000    0.000 
#    0.000    0.000    0.000    0.000    0.000    0.000 
#
# Total GULP energy -77988.819122 kJ/mol
# GULP energy per Si atom -5570.629937 kJ/mol
# Density = 2.505579 g / cm^3
# Si number density = 25.112949 Si / 1000 Ang^3
#
#
#
# Elastic Constant Matrix: (Units=GPa)
#
#
# Indices 1 2 3 4 5 6 
#
# 1 84.6834 26.7388 23.2185 0.0000 -35.5886 0.0000
# 2 26.7388 128.8672 29.9703 0.0000 -27.3167 0.0000
# 3 23.2185 29.9703 68.9865 0.0000 -18.7014 0.0000
# 4 0.0000 0.0000 0.0000 32.1644 0.0000 -18.6898
# 5 -35.5886 -27.3167 -18.7014 0.0000 46.5580 0.0000
# 6 0.0000 0.0000 0.0000 -18.6898 0.0000 40.8724
#
#
#
# Elastic Compliance Matrix: (Units=1/GPa)
#
#
# Indices 1 2 3 4 5 6 
#
# 1 0.017827 -0.000517 -0.002428 0.000000 0.012348 0.000000
# 2 -0.000517 0.009363 -0.002819 0.000000 0.003967 0.000000
# 3 -0.002428 -0.002819 0.017490 0.000000 0.003516 0.000000
# 4 0.000000 0.000000 0.000000 0.042340 0.000000 0.019361
# 5 0.012348 0.003967 0.003516 0.000000 0.034657 0.000000
# 6 0.000000 0.000000 0.000000 0.019361 0.000000 0.033320
#
#
# Mechanical properties :
#
#
# Convention : Reuss Voigt Hill
#
# Bulk Modulus (GPa) = 30.16208 49.15473 39.65841
# Shear Modulus (GPa) = 28.15693 37.42626 32.79160
#
# Velocity S-wave (km/s) = 3.35208 3.86465 3.61746
# Velocity P-wave (km/s) = 5.19794 6.28729 5.76839
#
# Compressibility (1/GPa) = 0.03315421
#
# Stress axis : x y z
#
# Youngs Moduli (GPa) = 56.09459 106.79779 57.17428
#
# Poissons Ratio (x) = 0.05519 0.13882
# Poissons Ratio (y) = 0.02899 0.16115
# Poissons Ratio (z) = 0.13620 0.30102
#
# Static dielectric constant tensor:
#      x y z
#    x 2.218030 0.000000 0.115310 
#    y 0.000000 2.044840 0.000000 
#    z 0.115310 0.000000 2.068870 
# 
# From -- ./inp_files/41698.got.cif
#   From: 2010.05.17/outbox.cif.g08.bks.cpg/sg5_21_cif.got.tgz:41698.got - 2010.06.03 18:56:24.
