data_PCOD9124099
_publ_section_title
;
Structure prediction by ZEFSAII (Michael W. Deem and Ramdas Pophale) SiO2 
 PCOD9124099
Probable space group: C 2
;
_chemical_formula_sum "Si O2"
_cell_formula_units_Z 24
_cell_length_a 10.063113
_cell_length_b 16.623754
_cell_length_c 9.806935
_cell_angle_alpha 90.000000
_cell_angle_beta 132.094468
_cell_angle_gamma 90.000000
_cell_volume 1217.369451
_symmetry_space_group_name_H-M "C 2"
_symmetry_group_IT_number 5
_symmetry_cell_setting 'monoclinic'
loop_
_space_group_symop_operation_xyz
x,y,z
-x,y,-z
1/2+x,1/2+y,z
1/2-x,1/2+y,-z
loop_
_atom_site_type_symbol
_atom_site_label
_atom_site_fract_x
_atom_site_fract_y
_atom_site_fract_z
Si Si1 0.296564 0.148160 0.906772
Si Si2 0.000000 0.471898 0.500000
Si Si3 0.696776 0.708439 0.117739
Si Si4 0.000000 0.796524 0.500000
Si Si5 0.000000 0.207434 0.500000
Si Si6 0.741231 0.032139 0.887117
Si Si7 0.724762 0.338412 0.400487
Si Si8 0.500000 0.386966 0.000000
O O1 0.140282 0.158033 0.688290
O O2 0.500000 0.157436 0.000000
O O3 0.253285 0.211498 0.998199
O O4 0.284241 0.062856 0.977212
O O5 0.064188 0.518976 0.676727
O O6 0.160681 0.416864 0.556025
O O7 0.851058 0.744552 0.317388
O O8 0.681684 0.612197 0.134311
O O9 0.500000 0.745198 0.000000
O O10 0.888914 0.842910 0.540020
O O11 0.131820 0.265396 0.502205
O O12 0.854956 0.950578 0.960251
O O13 0.591642 0.333880 0.179658
#
# Coordination Sequence:
#
# PCOD9124099 Si02
#       8
#     4   2   4   2   2   4   4   2
#     4  10  22  38  61  98 119 159 193 266 316 351
#     4   9  19  44  64  82 119 173 208 236 302 383
#     4  10  21  37  63  90 120 155 193 262 313 352
#     4  12  23  40  58 102 121 152 210 260 310 350
#     4  11  22  42  62  92 126 161 208 240 320 379
#     4   9  19  39  63  89 113 156 211 246 303 362
#     4  10  24  38  64  86 126 170 205 249 295 371
#     4  10  20  42  62  82 124 176 208 234 298 382
#
# _framework density 19.714639999999999
#
# number of rings (size 3 to 8) (size 9 to 14) (size 15 to 20)
#    1.000    1.000    0.833    2.500    3.500    0.000 
#   12.000    0.000    0.000    0.000    0.000    0.000 
#    0.000    0.000    0.000    0.000    0.000    0.000 
#
# Total GULP energy -66820.801470 kJ/mol
# GULP energy per Si atom -5568.400123 kJ/mol
# Density = 1.966977 g / cm^3
# Si number density = 19.714640 Si / 1000 Ang^3
#
#
#
# Elastic Constant Matrix: (Units=GPa)
#
#
# Indices 1 2 3 4 5 6 
#
# 1 139.6626 19.9064 59.0797 0.0000 2.2942 0.0000
# 2 19.9064 36.7776 30.7225 0.0000 3.1813 0.0000
# 3 59.0797 30.7225 177.9614 0.0000 15.6178 0.0000
# 4 0.0000 0.0000 0.0000 -335.7837 0.0000 -84.7440
# 5 2.2942 3.1813 15.6178 0.0000 30.0332 0.0000
# 6 0.0000 0.0000 0.0000 -84.7440 0.0000 -24.5731
#
#
#
# Elastic Compliance Matrix: (Units=1/GPa)
#
#
# Indices 1 2 3 4 5 6 
#
# 1 0.008567 -0.002656 -0.002465 0.000000 0.000909 0.000000
# 2 -0.002656 0.032604 -0.004675 0.000000 -0.000820 0.000000
# 3 -0.002465 -0.004675 0.007528 0.000000 -0.003231 0.000000
# 4 0.000000 0.000000 0.000000 -0.022972 0.000000 0.079223
# 5 0.000909 -0.000820 -0.003231 0.000000 0.034994 0.000000
# 6 0.000000 0.000000 0.000000 0.079223 0.000000 -0.313909
#
#
# Mechanical properties :
#
#
# Convention : Reuss Voigt Hill
#
# Bulk Modulus (GPa) = 34.35645 63.75764 49.05705
# Shear Modulus (GPa) = -22.33208 -49.75185 -36.04196
#
# Velocity S-wave (km/s) = -3.36931 -5.02899 -4.28036
# Velocity P-wave (km/s) = 1.52590 1.14481 0.71337
#
# Compressibility (1/GPa) = 0.02910661
#
# Stress axis : x y z
#
# Youngs Moduli (GPa) = 116.73286 30.67085 132.83357
#
# Poissons Ratio (x) = 0.08147 0.32746
# Poissons Ratio (y) = 0.31006 0.62099
# Poissons Ratio (z) = 0.28776 0.14338
#
# Static dielectric constant tensor:
#      x y z
#    x 1.734770 0.000000 0.051250 
#    y 0.000000 1.705030 0.000000 
#    z 0.051250 0.000000 1.816340 
# 
# From -- ./inp_files/16920.got.cif
#   From: 2010.05.17/outbox.cif.g08.bks.cpg/sg5_9_cif.got.tgz:16920.got - 2010.06.03 18:56:24.
