data_PCOD9124320
_publ_section_title
;
Structure prediction by ZEFSAII (Michael W. Deem and Ramdas Pophale) SiO2 
 PCOD9124320
Probable space group: C 2
;
_chemical_formula_sum "Si O2"
_cell_formula_units_Z 20
_cell_length_a 22.732785
_cell_length_b 5.058002
_cell_length_c 8.233957
_cell_angle_alpha 90.000000
_cell_angle_beta 118.250040
_cell_angle_gamma 90.000000
_cell_volume 833.992446
_symmetry_space_group_name_H-M "C 2"
_symmetry_group_IT_number 5
_symmetry_cell_setting 'monoclinic'
loop_
_space_group_symop_operation_xyz
x,y,z
-x,y,-z
1/2+x,1/2+y,z
1/2-x,1/2+y,-z
loop_
_atom_site_type_symbol
_atom_site_label
_atom_site_fract_x
_atom_site_fract_y
_atom_site_fract_z
Si Si1 0.885676 0.017830 0.745805
Si Si2 0.500000 0.817540 0.000000
Si Si3 0.866391 0.494562 0.514065
Si Si4 0.287268 0.934066 0.092148
Si Si5 0.000000 0.626857 0.500000
Si Si6 0.089352 0.715877 0.910278
O O1 0.961610 0.121544 0.830853
O O2 0.849313 0.269992 0.623888
O O3 0.870630 0.768640 0.615334
O O4 0.883264 0.940158 0.932001
O O5 0.547957 0.014522 0.968361
O O6 0.808870 0.481231 0.305225
O O7 0.939117 0.473506 0.515296
O O8 0.348919 0.047541 0.072379
O O9 0.227435 0.128723 0.961890
O O10 0.957422 0.782563 0.306185
#
# Coordination Sequence:
#
# PCOD9124320 Si02
#       6
#     4   2   4   4   2   4
#     4  12  23  43  67 108 146 185 230 299 371 424
#     4  12  22  42  70 110 150 186 224 310 370 440
#     4  11  24  43  73 101 147 187 243 301 356 437
#     4  11  27  51  75 103 145 197 251 295 353 432
#     4  10  20  44  62 116 132 196 226 294 370 416
#     4  11  24  44  76 105 152 186 242 301 362 436
#
# _framework density 23.981034000000001
#
# number of rings (size 3 to 8) (size 9 to 14) (size 15 to 20)
#    0.000    0.800    4.000    3.000    2.800    0.800 
#    3.600    4.000    0.000    0.000    0.000    0.000 
#    0.000    0.000    0.000    0.000    0.000    0.000 
#
# Total GULP energy -55883.523232 kJ/mol
# GULP energy per Si atom -5588.352323 kJ/mol
# Density = 2.392645 g / cm^3
# Si number density = 23.981034 Si / 1000 Ang^3
#
#
#
# Elastic Constant Matrix: (Units=GPa)
#
#
# Indices 1 2 3 4 5 6 
#
# 1 37.0572 -5.9995 -2.1223 0.0000 -7.0308 0.0000
# 2 -5.9995 117.7167 34.9592 0.0000 -17.5010 0.0000
# 3 -2.1223 34.9592 153.1009 0.0000 -8.7007 0.0000
# 4 0.0000 0.0000 0.0000 22.1645 0.0000 -16.4129
# 5 -7.0308 -17.5010 -8.7007 0.0000 22.0587 0.0000
# 6 0.0000 0.0000 0.0000 -16.4129 0.0000 26.9873
#
#
#
# Elastic Compliance Matrix: (Units=1/GPa)
#
#
# Indices 1 2 3 4 5 6 
#
# 1 0.029848 0.003228 0.000371 0.000000 0.012221 0.000000
# 2 0.003228 0.010494 -0.001862 0.000000 0.008620 0.000000
# 3 0.000371 -0.001862 0.007043 0.000000 0.001419 0.000000
# 4 0.000000 0.000000 0.000000 0.082084 0.000000 0.049921
# 5 0.012221 0.008620 0.001419 0.000000 0.056628 0.000000
# 6 0.000000 0.000000 0.000000 0.049921 0.000000 0.067415
#
#
# Mechanical properties :
#
#
# Convention : Reuss Voigt Hill
#
# Bulk Modulus (GPa) = 19.66215 40.17217 29.91716
# Shear Modulus (GPa) = 18.72739 32.97793 25.85266
#
# Velocity S-wave (km/s) = 2.79754 3.71235 3.28692
# Velocity P-wave (km/s) = 4.31877 5.92987 5.18725
#
# Compressibility (1/GPa) = 0.05085913
#
# Stress axis : x y z
#
# Youngs Moduli (GPa) = 33.50336 95.29350 141.99486
#
# Poissons Ratio (x) = -0.30759 -0.05271
# Poissons Ratio (y) = -0.10814 0.26433
# Poissons Ratio (z) = -0.01244 0.17739
#
# Static dielectric constant tensor:
#      x y z
#    x 1.960370 0.000000 0.040650 
#    y 0.000000 1.889500 0.000000 
#    z 0.040650 0.000000 1.996970 
# 
# From -- ./inp_files/30143.got.cif
#   From: 2010.05.17/outbox.cif.g08.bks.cpg/sg5_16_cif.got.tgz:30143.got - 2010.06.03 18:56:24.
