data_PCOD9124213
_publ_section_title
;
Structure prediction by ZEFSAII (Michael W. Deem and Ramdas Pophale) SiO2 
 PCOD9124213
Probable space group: C 2
;
_chemical_formula_sum "Si O2"
_cell_formula_units_Z 20
_cell_length_a 14.382179
_cell_length_b 11.295747
_cell_length_c 11.097274
_cell_angle_alpha 90.000000
_cell_angle_beta 154.268922
_cell_angle_gamma 90.000000
_cell_volume 782.696762
_symmetry_space_group_name_H-M "C 2"
_symmetry_group_IT_number 5
_symmetry_cell_setting 'monoclinic'
loop_
_space_group_symop_operation_xyz
x,y,z
-x,y,-z
1/2+x,1/2+y,z
1/2-x,1/2+y,-z
loop_
_atom_site_type_symbol
_atom_site_label
_atom_site_fract_x
_atom_site_fract_y
_atom_site_fract_z
Si Si1 0.856041 0.866560 0.226008
Si Si2 0.373863 0.182562 0.554928
Si Si3 0.536032 0.610645 0.333752
Si Si4 0.500000 0.801289 0.500000
Si Si5 0.000000 0.340294 0.000000
Si Si6 0.717221 0.519253 0.180113
O O1 0.000000 0.812342 0.500000
O O2 0.920310 0.767498 0.200162
O O3 0.970821 0.988270 0.321791
O O4 0.635144 0.893402 0.041743
O O5 0.275959 0.120201 0.559254
O O6 0.382148 0.077926 0.466979
O O7 0.175938 0.263810 0.277292
O O8 0.526158 0.717834 0.415203
O O9 0.366690 0.604360 0.024623
O O10 0.308512 0.893017 0.251371
O O11 0.500000 0.497334 0.000000
#
# Coordination Sequence:
#
# PCOD9124213 Si02
#       6
#     4   4   4   2   2   4
#     4  10  23  42  70 102 141 188 244 299 364 446
#     4  10  22  42  71 101 139 195 246 300 373 439
#     4  11  24  47  71 110 149 187 251 309 372 449
#     4  12  28  46  70 112 152 190 250 318 368 444
#     4  10  20  42  68  98 134 184 254 284 354 462
#     4  10  25  48  71 103 149 192 250 308 375 448
#
# _framework density 25.552681
#
# number of rings (size 3 to 8) (size 9 to 14) (size 15 to 20)
#    0.000    1.600    4.000    0.000   12.600    0.000 
#    1.800    4.000    0.000    0.000    0.000    0.000 
#    0.000    0.000    0.000    0.000    0.000    0.000 
#
# Total GULP energy -55759.131885 kJ/mol
# GULP energy per Si atom -5575.913189 kJ/mol
# Density = 2.549452 g / cm^3
# Si number density = 25.552681 Si / 1000 Ang^3
#
#
#
# Elastic Constant Matrix: (Units=GPa)
#
#
# Indices 1 2 3 4 5 6 
#
# 1 208.8752 115.4102 41.2516 -0.0010 37.6952 0.0001
# 2 115.4102 175.0735 28.9352 0.0003 27.5843 0.0001
# 3 41.2516 28.9352 75.2586 0.0008 5.2803 0.0002
# 4 -0.0010 0.0003 0.0008 -303.7034 -0.0002 43.7520
# 5 37.6952 27.5843 5.2803 -0.0002 39.9075 0.0002
# 6 0.0001 0.0001 0.0002 43.7520 0.0002 53.8314
#
#
#
# Elastic Compliance Matrix: (Units=1/GPa)
#
#
# Indices 1 2 3 4 5 6 
#
# 1 0.008669 -0.004531 -0.002680 0.000000 -0.004702 0.000000
# 2 -0.004531 0.009151 -0.000900 0.000000 -0.001926 0.000000
# 3 -0.002680 -0.000900 0.015020 0.000000 0.001166 0.000000
# 4 0.000000 0.000000 0.000000 -0.002948 0.000000 0.002396
# 5 -0.004702 -0.001926 0.001166 0.000000 0.030677 0.000000
# 6 0.000000 0.000000 0.000000 0.002396 0.000000 0.016629
#
#
# Mechanical properties :
#
#
# Convention : Reuss Voigt Hill
#
# Bulk Modulus (GPa) = 60.16952 92.26680 76.21816
# Shear Modulus (GPa) = 50.52611 -23.75221 13.38695
#
# Velocity S-wave (km/s) = 4.45154 -3.05214 2.29136
# Velocity P-wave (km/s) = 7.07248 4.87505 6.07397
#
# Compressibility (1/GPa) = 0.01661971
#
# Stress axis : x y z
#
# Youngs Moduli (GPa) = 115.35717 109.27939 66.57577
#
# Poissons Ratio (x) = 0.49512 0.17840
# Poissons Ratio (y) = 0.52266 0.05990
# Poissons Ratio (z) = 0.30913 0.09831
#
# Static dielectric constant tensor:
#      x y z
#    x 2.192710 0.000000 0.038450 
#    y 0.000000 2.023080 0.000000 
#    z 0.038450 0.000000 2.048460 
# 
# From -- ./inp_files/42607.got.cif
#   From: 2010.05.17/outbox.cif.g08.bks.cpg/sg5_22_cif.got.tgz:42607.got - 2010.06.03 18:56:24.
