data_PCOD9124246
_publ_section_title
;
Structure prediction by ZEFSAII (Michael W. Deem and Ramdas Pophale) SiO2 
 PCOD9124246
Probable space group: C 2
;
_chemical_formula_sum "Si O2"
_cell_formula_units_Z 16
_cell_length_a 14.222405
_cell_length_b 5.054644
_cell_length_c 25.532368
_cell_angle_alpha 90.000000
_cell_angle_beta 157.874875
_cell_angle_gamma 90.000000
_cell_volume 691.305836
_symmetry_space_group_name_H-M "C 2"
_symmetry_group_IT_number 5
_symmetry_cell_setting 'monoclinic'
loop_
_space_group_symop_operation_xyz
x,y,z
-x,y,-z
1/2+x,1/2+y,z
1/2-x,1/2+y,-z
loop_
_atom_site_type_symbol
_atom_site_label
_atom_site_fract_x
_atom_site_fract_y
_atom_site_fract_z
Si Si1 0.105316 0.682220 0.410261
Si Si2 0.196478 0.611530 0.037358
Si Si3 0.635984 0.375256 0.208241
Si Si4 0.435701 0.128872 0.204274
O O1 0.330110 0.479577 0.539643
O O2 0.871798 0.556660 0.320456
O O3 0.047917 0.665303 0.319169
O O4 0.221280 0.343953 0.082197
O O5 0.390909 0.561776 0.089541
O O6 0.317938 0.843828 0.133984
O O7 0.934620 0.693111 0.877588
O O8 0.634459 0.203585 0.260800
#
# Coordination Sequence:
#
# PCOD9124246 Si02
#       4
#     4   4   4   4
#     4  12  29  46  65 105 144 192 241 277 335 431
#     4  10  20  42  72 104 132 175 226 295 371 395
#     4  10  23  44  74 101 141 174 230 299 348 426
#     4  10  22  44  68 103 133 184 230 285 364 392
#
# _framework density 23.144606
#
# number of rings (size 3 to 8) (size 9 to 14) (size 15 to 20)
#    1.500    0.000    2.500    1.500    3.500    2.000 
#    0.000    5.000    0.000    0.000    0.000    0.000 
#    0.000    0.000    0.000    0.000    0.000    0.000 
#
# Total GULP energy -44736.277218 kJ/mol
# GULP energy per Si atom -5592.034652 kJ/mol
# Density = 2.309193 g / cm^3
# Si number density = 23.144606 Si / 1000 Ang^3
#
#
#
# Elastic Constant Matrix: (Units=GPa)
#
#
# Indices 1 2 3 4 5 6 
#
# 1 -100.9013 -17.1826 205.1676 0.0205 -173.8207 0.0237
# 2 -17.1826 88.6212 8.7800 -0.0076 -26.4770 0.0159
# 3 205.1676 8.7800 -100.7116 -0.0241 122.4321 -0.0141
# 4 0.0205 -0.0076 -0.0241 51.4543 0.0205 -10.7736
# 5 -173.8207 -26.4770 122.4321 0.0205 -71.2606 0.0157
# 6 0.0237 0.0159 -0.0141 -10.7736 0.0157 -7.2448
#
#
#
# Elastic Compliance Matrix: (Units=1/GPa)
#
#
# Indices 1 2 3 4 5 6 
#
# 1 0.004160 -0.000777 0.003286 0.000001 -0.004212 -0.000004
# 2 -0.000777 0.011751 0.003272 0.000006 0.003151 0.000015
# 3 0.003286 0.003272 0.013018 0.000003 0.013135 0.000016
# 4 0.000001 0.000006 0.000003 0.014820 0.000002 -0.022039
# 5 -0.004212 0.003151 0.013135 0.000002 0.017637 0.000003
# 6 -0.000004 0.000015 0.000016 -0.022039 0.000003 -0.105256
#
#
# Mechanical properties :
#
#
# Convention : Reuss Voigt Hill
#
# Bulk Modulus (GPa) = 24.69771 31.17090 27.93430
# Shear Modulus (GPa) = -119.23277 -26.06066 -72.64671
#
# Velocity S-wave (km/s) = -7.18528 -3.35922 -5.60859
# Velocity P-wave (km/s) = 7.62519 1.24447 5.46316
#
# Compressibility (1/GPa) = 0.04048958
#
# Stress axis : x y z
#
# Youngs Moduli (GPa) = 240.38717 85.10180 76.81620
#
# Poissons Ratio (x) = 0.06616 -0.25244
# Poissons Ratio (y) = 0.18689 -0.25131
# Poissons Ratio (z) = -0.78998 -0.27842
#
# Static dielectric constant tensor:
#      x y z
#    x 1.966380 0.000010 0.030160 
#    y 0.000010 1.916950 0.000010 
#    z 0.030160 0.000010 1.841950 
# 
# From -- ./inp_files/68582.got.cif
#   From: 2010.05.17/outbox.cif.g08.bks.cpg/sg5_35_cif.got.tgz:68582.got - 2010.06.03 18:56:24.
