data_PCOD9124406
_publ_section_title
;
Structure prediction by ZEFSAII (Michael W. Deem and Ramdas Pophale) SiO2 
 PCOD9124406
Probable space group: C 2
;
_chemical_formula_sum "Si O2"
_cell_formula_units_Z 20
_cell_length_a 17.154399
_cell_length_b 7.460890
_cell_length_c 11.795174
_cell_angle_alpha 90.000000
_cell_angle_beta 151.127945
_cell_angle_gamma 90.000000
_cell_volume 728.932861
_symmetry_space_group_name_H-M "C 2"
_symmetry_group_IT_number 5
_symmetry_cell_setting 'monoclinic'
loop_
_space_group_symop_operation_xyz
x,y,z
-x,y,-z
1/2+x,1/2+y,z
1/2-x,1/2+y,-z
loop_
_atom_site_type_symbol
_atom_site_label
_atom_site_fract_x
_atom_site_fract_y
_atom_site_fract_z
Si Si1 0.770918 0.439310 0.348291
Si Si2 0.771718 0.090851 0.488947
Si Si3 0.500000 0.886388 0.000000
Si Si4 0.305954 0.988682 0.954110
Si Si5 0.591818 0.370322 0.887672
Si Si6 0.500000 0.734211 0.500000
O O1 0.745665 0.291470 0.412676
O O2 0.733257 0.606353 0.379747
O O3 0.944799 0.376562 0.525428
O O4 0.654975 0.422765 0.093417
O O5 0.635435 0.994374 0.241765
O O6 0.941615 0.999212 0.671225
O O7 0.613293 0.846154 0.029722
O O8 0.153574 0.103484 0.709477
O O9 0.227575 0.902040 0.965130
O O10 0.427830 0.154309 0.136273
#
# Coordination Sequence:
#
# PCOD9124406 Si02
#       6
#     4   4   2   4   4   2
#     4  11  25  46  77 108 150 196 244 309 372 432
#     4  12  25  48  77 109 153 193 248 315 365 441
#     4  12  24  42  74 110 142 200 242 300 380 432
#     4  11  23  44  76 108 151 197 246 306 373 440
#     4  11  24  47  78 110 150 199 247 309 371 441
#     4  10  20  46  70 104 150 196 236 306 364 436
#
# _framework density 27.437367999999999
#
# number of rings (size 3 to 8) (size 9 to 14) (size 15 to 20)
#    0.000    0.800    6.000    1.800    5.600    0.000 
#    7.200    0.000    4.400    0.000    0.000    0.000 
#    0.000    0.000    0.000    0.000    0.000    0.000 
#
# Total GULP energy -55836.231958 kJ/mol
# GULP energy per Si atom -5583.623196 kJ/mol
# Density = 2.737492 g / cm^3
# Si number density = 27.437368 Si / 1000 Ang^3
#
#
#
# Elastic Constant Matrix: (Units=GPa)
#
#
# Indices 1 2 3 4 5 6 
#
# 1 210.0927 30.9223 21.0865 0.0000 -29.7138 0.0000
# 2 30.9223 99.0297 -7.3586 0.0000 -16.3261 0.0000
# 3 21.0865 -7.3586 104.7578 0.0000 -3.9879 0.0000
# 4 0.0000 0.0000 0.0000 10.5314 0.0000 -14.5065
# 5 -29.7138 -16.3261 -3.9879 0.0000 57.0452 0.0000
# 6 0.0000 0.0000 0.0000 -14.5065 0.0000 61.9227
#
#
#
# Elastic Compliance Matrix: (Units=1/GPa)
#
#
# Indices 1 2 3 4 5 6 
#
# 1 0.005405 -0.001383 -0.001096 0.000000 0.002343 0.000000
# 2 -0.001383 0.011030 0.001149 0.000000 0.002517 0.000000
# 3 -0.001096 0.001149 0.009864 0.000000 0.000448 0.000000
# 4 0.000000 0.000000 0.000000 0.140194 0.000000 0.032843
# 5 0.002343 0.002517 0.000448 0.000000 0.019502 0.000000
# 6 0.000000 0.000000 0.000000 0.032843 0.000000 0.023843
#
#
# Mechanical properties :
#
#
# Convention : Reuss Voigt Hill
#
# Bulk Modulus (GPa) = 42.30213 55.90894 49.10553
# Shear Modulus (GPa) = 22.68839 50.51517 36.60178
#
# Velocity S-wave (km/s) = 2.87873 4.29547 3.65638
# Velocity P-wave (km/s) = 5.14788 6.70989 5.98010
#
# Compressibility (1/GPa) = 0.02363947
#
# Stress axis : x y z
#
# Youngs Moduli (GPa) = 185.02514 90.66129 101.37715
#
# Poissons Ratio (x) = 0.12537 0.11109
# Poissons Ratio (y) = 0.25585 -0.11648
# Poissons Ratio (z) = 0.20276 -0.10416
#
# Static dielectric constant tensor:
#      x y z
#    x 2.319020 0.000000 0.037170 
#    y 0.000000 2.336450 0.000000 
#    z 0.037170 0.000000 2.170520 
# 
# From -- ./inp_files/44367.got.cif
#   From: 2010.05.17/outbox.cif.g08.bks.cpg/sg5_23_cif.got.tgz:44367.got - 2010.06.03 18:56:24.
