data_PCOD9124123
_publ_section_title
;
Structure prediction by ZEFSAII (Michael W. Deem and Ramdas Pophale) SiO2 
 PCOD9124123
Probable space group: C 2
;
_chemical_formula_sum "Si O2"
_cell_formula_units_Z 24
_cell_length_a 14.510940
_cell_length_b 12.472402
_cell_length_c 21.411313
_cell_angle_alpha 90.000000
_cell_angle_beta 160.886652
_cell_angle_gamma 90.000000
_cell_volume 1268.872741
_symmetry_space_group_name_H-M "C 2"
_symmetry_group_IT_number 5
_symmetry_cell_setting 'monoclinic'
loop_
_space_group_symop_operation_xyz
x,y,z
-x,y,-z
1/2+x,1/2+y,z
1/2-x,1/2+y,-z
loop_
_atom_site_type_symbol
_atom_site_label
_atom_site_fract_x
_atom_site_fract_y
_atom_site_fract_z
Si Si1 0.103153 0.442700 0.637329
Si Si2 0.044595 0.686231 0.604255
Si Si3 0.113486 0.609180 0.142878
Si Si4 0.294965 0.889104 0.727280
Si Si5 0.042224 0.270206 0.368887
Si Si6 0.185914 0.817625 0.024862
O O1 0.000000 0.441388 0.500000
O O2 0.119486 0.565377 0.670519
O O3 0.892350 0.368979 0.543497
O O4 0.409037 0.388079 0.837271
O O5 0.776775 0.724022 0.472947
O O6 0.000000 0.681091 0.500000
O O7 0.259551 0.784753 0.748705
O O8 0.150187 0.498563 0.201519
O O9 0.405238 0.674266 0.321135
O O10 0.000000 0.590862 0.000000
O O11 0.904112 0.693182 0.043204
O O12 0.556923 0.860890 0.851017
O O13 0.000000 0.900764 0.500000
O O14 0.799350 0.316306 0.168126
#
# Coordination Sequence:
#
# PCOD9124123 Si02
#       6
#     4   4   4   4   4   4
#     4  10  23  39  65  93 119 160 204 249 305 356
#     4  10  21  38  62  89 119 159 207 241 302 356
#     4   9  22  38  62  87 119 164 199 243 313 356
#     4  11  22  39  64  91 118 157 211 249 295 354
#     4  10  20  42  64  86 122 163 201 245 302 371
#     4  10  21  42  64  85 123 163 200 244 304 371
#
# _framework density 18.914427
#
# number of rings (size 3 to 8) (size 9 to 14) (size 15 to 20)
#    0.000    2.000    3.333    1.500    4.667    4.000 
#    0.000    1.667    0.000    0.000    0.000    0.000 
#    0.000    0.000    0.000    0.000    0.000    0.000 
#
# Total GULP energy -66865.730096 kJ/mol
# GULP energy per Si atom -5572.144175 kJ/mol
# Density = 1.887138 g / cm^3
# Si number density = 18.914427 Si / 1000 Ang^3
#
#
#
# Elastic Constant Matrix: (Units=GPa)
#
#
# Indices 1 2 3 4 5 6 
#
# 1 87.5207 77.0721 40.6786 0.0683 27.8668 -0.0514
# 2 77.0721 204.5811 52.8796 0.0716 4.7023 -0.0324
# 3 40.6786 52.8796 75.1204 0.0376 18.1634 -0.0225
# 4 0.0683 0.0716 0.0376 8.7762 0.0350 2.2845
# 5 27.8668 4.7023 18.1634 0.0350 30.8997 -0.0435
# 6 -0.0514 -0.0324 -0.0225 2.2845 -0.0435 31.9126
#
#
#
# Elastic Compliance Matrix: (Units=1/GPa)
#
#
# Indices 1 2 3 4 5 6 
#
# 1 0.028101 -0.009192 -0.003447 -0.000043 -0.021918 0.000007
# 2 -0.009192 0.009071 -0.003589 -0.000025 0.009019 0.000006
# 3 -0.003447 -0.003589 0.019608 0.000005 -0.007871 -0.000006
# 4 -0.000043 -0.000025 0.000005 0.116110 -0.000103 -0.008312
# 5 -0.021918 0.009019 -0.007871 -0.000103 0.055384 0.000051
# 6 0.000007 0.000006 -0.000006 -0.008312 0.000051 0.031931
#
#
# Mechanical properties :
#
#
# Convention : Reuss Voigt Hill
#
# Bulk Modulus (GPa) = 41.10991 78.72034 59.91512
# Shear Modulus (GPa) = 16.62412 27.42383 22.02398
#
# Velocity S-wave (km/s) = 2.96786 3.81187 3.41603
# Velocity P-wave (km/s) = 5.79018 7.81559 6.87785
#
# Compressibility (1/GPa) = 0.02432504
#
# Stress axis : x y z
#
# Youngs Moduli (GPa) = 35.58558 110.23950 50.99977
#
# Poissons Ratio (x) = 1.01330 0.17581
# Poissons Ratio (y) = 0.32710 0.18302
# Poissons Ratio (z) = 0.12267 0.39561
#
# Static dielectric constant tensor:
#      x y z
#    x 1.692720 0.000030 0.019230 
#    y 0.000030 1.674450 0.000010 
#    z 0.019230 0.000010 1.675810 
# 
# From -- ./inp_files/68816.got.cif
#   From: 2010.05.17/outbox.cif.g08.bks.cpg/sg5_35_cif.got.tgz:68816.got - 2010.06.03 18:56:24.
