data_PCOD9124677
_publ_section_title
;
Structure prediction by ZEFSAII (Michael W. Deem and Ramdas Pophale) SiO2 
 PCOD9124677
Probable space group: C 2
;
_chemical_formula_sum "Si O2"
_cell_formula_units_Z 28
_cell_length_a 5.297632
_cell_length_b 13.911566
_cell_length_c 19.524934
_cell_angle_alpha 90.000000
_cell_angle_beta 119.945405
_cell_angle_gamma 90.000000
_cell_volume 1246.857068
_symmetry_space_group_name_H-M "C 2"
_symmetry_group_IT_number 5
_symmetry_cell_setting 'monoclinic'
loop_
_space_group_symop_operation_xyz
x,y,z
-x,y,-z
1/2+x,1/2+y,z
1/2-x,1/2+y,-z
loop_
_atom_site_type_symbol
_atom_site_label
_atom_site_fract_x
_atom_site_fract_y
_atom_site_fract_z
Si Si1 0.710781 0.381370 0.096528
Si Si2 0.340505 0.592177 0.702295
Si Si3 0.361650 0.275090 0.406370
Si Si4 0.142225 0.679727 0.093124
Si Si5 0.994416 0.678998 0.781443
Si Si6 0.211616 0.861476 0.327531
Si Si7 0.795367 0.469333 0.905534
O O1 0.829935 0.275083 0.125609
O O2 0.491471 0.408753 0.126013
O O3 0.986361 0.448387 0.126059
O O4 0.500000 0.387904 0.000000
O O5 0.186997 0.665202 0.627081
O O6 0.675649 0.628221 0.744632
O O7 0.322111 0.476732 0.688525
O O8 0.182705 0.620994 0.752070
O O9 0.500000 0.273607 0.500000
O O10 0.571371 0.330872 0.381472
O O11 0.050285 0.329843 0.367523
O O12 0.916245 0.680278 0.125922
O O13 0.293197 0.578754 0.107437
O O14 0.000000 0.691428 0.000000
O O15 0.948517 0.786359 0.745741
O O16 0.000000 0.452659 0.000000
#
# Coordination Sequence:
#
# PCOD9124677 Si02
#       7
#     4   4   4   4   4   4   4
#     4   9  19  35  53  76 105 136 175 228 296 366
#     4  10  22  42  62  86 123 166 202 239 296 359
#     4  10  21  37  62  98 129 155 200 247 284 347
#     4  10  22  39  60  86 116 152 201 267 327 361
#     4  10  23  39  59  86 116 159 214 255 295 369
#     4  10  21  40  62  88 127 170 203 239 295 355
#     4   9  19  34  51  74 104 136 175 229 296 365
#
# _framework density 22.456462999999999
#
# number of rings (size 3 to 8) (size 9 to 14) (size 15 to 20)
#    0.000    2.286    0.000    1.286    0.000    6.857 
#    0.000    9.286    0.000    0.000    0.000    0.000 
#    0.000    0.000    0.000    0.000    0.000    0.000 
#
# Total GULP energy -78156.390248 kJ/mol
# GULP energy per Si atom -5582.599303 kJ/mol
# Density = 2.240535 g / cm^3
# Si number density = 22.456463 Si / 1000 Ang^3
#
#
#
# Elastic Constant Matrix: (Units=GPa)
#
#
# Indices 1 2 3 4 5 6 
#
# 1 136.6701 45.7711 60.8072 0.0000 -19.4342 0.0000
# 2 45.7711 165.6693 51.2990 0.0000 -0.4227 0.0000
# 3 60.8072 51.2990 121.6585 0.0000 -37.2614 0.0000
# 4 0.0000 0.0000 0.0000 20.2307 0.0000 -6.3086
# 5 -19.4342 -0.4227 -37.2614 0.0000 27.4741 0.0000
# 6 0.0000 0.0000 0.0000 -6.3086 0.0000 25.7590
#
#
#
# Elastic Compliance Matrix: (Units=1/GPa)
#
#
# Indices 1 2 3 4 5 6 
#
# 1 0.009722 -0.001569 -0.003590 0.000000 0.001984 0.000000
# 2 -0.001569 0.007976 -0.004929 0.000000 -0.007672 0.000000
# 3 -0.003590 -0.004929 0.019314 0.000000 0.023579 0.000000
# 4 0.000000 0.000000 0.000000 0.053517 0.000000 0.013107
# 5 0.001984 -0.007672 0.023579 0.000000 0.069663 0.000000
# 6 0.000000 0.000000 0.000000 0.013107 0.000000 0.042031
#
#
# Mechanical properties :
#
#
# Convention : Reuss Voigt Hill
#
# Bulk Modulus (GPa) = 59.39371 82.19471 70.79421
# Shear Modulus (GPa) = 21.92882 32.43413 27.18148
#
# Velocity S-wave (km/s) = 3.12830 3.80453 3.48287
# Velocity P-wave (km/s) = 6.28921 7.48202 6.91139
#
# Compressibility (1/GPa) = 0.01683680
#
# Stress axis : x y z
#
# Youngs Moduli (GPa) = 102.86247 125.37223 51.77590
#
# Poissons Ratio (x) = 0.19675 0.18586
# Poissons Ratio (y) = 0.16142 0.25518
# Poissons Ratio (z) = 0.36924 0.61791
#
# Static dielectric constant tensor:
#      x y z
#    x 1.793220 0.000000 -0.010600 
#    y 0.000000 1.820120 0.000000 
#    z -0.010600 0.000000 1.911450 
# 
# From -- ./inp_files/58787.got.cif
#   From: 2010.05.17/outbox.cif.g08.bks.cpg/sg5_30_cif.got.tgz:58787.got - 2010.06.03 18:56:24.
