data_PCOD9124322
_publ_section_title
;
Structure prediction by ZEFSAII (Michael W. Deem and Ramdas Pophale) SiO2 
 PCOD9124322
Probable space group: C 2
;
_chemical_formula_sum "Si O2"
_cell_formula_units_Z 32
_cell_length_a 15.351809
_cell_length_b 10.905936
_cell_length_c 17.272929
_cell_angle_alpha 90.000000
_cell_angle_beta 146.300873
_cell_angle_gamma 90.000000
_cell_volume 1604.537226
_symmetry_space_group_name_H-M "C 2"
_symmetry_group_IT_number 5
_symmetry_cell_setting 'monoclinic'
loop_
_space_group_symop_operation_xyz
x,y,z
-x,y,-z
1/2+x,1/2+y,z
1/2-x,1/2+y,-z
loop_
_atom_site_type_symbol
_atom_site_label
_atom_site_fract_x
_atom_site_fract_y
_atom_site_fract_z
Si Si1 0.521266 0.581730 0.100797
Si Si2 0.826022 0.522128 0.399932
Si Si3 0.963192 0.318866 0.136339
Si Si4 0.256485 0.476840 0.327497
Si Si5 0.987828 0.949621 0.359700
Si Si6 0.602890 0.373205 0.877611
Si Si7 0.843003 0.168421 0.593032
Si Si8 0.204450 0.751086 0.335331
O O1 0.706145 0.587101 0.253055
O O2 0.453179 0.716859 0.061519
O O3 0.449643 0.494993 0.114487
O O4 0.500000 0.529995 0.000000
O O5 0.772917 0.579790 0.443054
O O6 0.788761 0.376578 0.371268
O O7 0.000000 0.545312 0.500000
O O8 0.079264 0.428532 0.199102
O O9 0.055356 0.251794 0.274524
O O10 0.786354 0.354070 0.026130
O O11 0.345286 0.444996 0.314341
O O12 0.358756 0.417675 0.474075
O O13 0.260392 0.623997 0.339868
O O14 0.034219 0.084370 0.363064
O O15 0.938216 0.883657 0.243886
O O16 0.480960 0.270028 0.816394
O O17 0.743772 0.239427 0.455471
#
# Coordination Sequence:
#
# PCOD9124322 Si02
#       8
#     4   4   4   4   4   4   4   4
#     4  10  24  46  58  90 127 163 209 254 306 365
#     4  10  22  41  64  94 121 160 206 258 308 362
#     4  11  24  40  64  92 125 167 208 250 310 370
#     4  10  24  38  64  98 120 162 204 254 311 374
#     4  10  20  44  62  89 128 155 203 258 308 363
#     4  11  23  43  65  87 127 169 201 260 304 371
#     4  10  21  42  63  93 125 160 207 256 307 376
#     4  10  22  40  65  93 125 159 207 254 312 368
#
# _framework density 19.943445000000001
#
# number of rings (size 3 to 8) (size 9 to 14) (size 15 to 20)
#    0.000    1.750    3.750    0.750    8.750    2.000 
#   13.500    0.000    0.000    0.000    0.000    0.000 
#    0.000    0.000    0.000    0.000    0.000    0.000 
#
# Total GULP energy -89236.012805 kJ/mol
# GULP energy per Si atom -5577.250800 kJ/mol
# Density = 1.989805 g / cm^3
# Si number density = 19.943445 Si / 1000 Ang^3
#
#
#
# Elastic Constant Matrix: (Units=GPa)
#
#
# Indices 1 2 3 4 5 6 
#
# 1 73.1474 -1.3029 37.0008 0.0000 3.1221 0.0000
# 2 -1.3029 24.6568 7.9301 0.0000 7.9197 -0.0001
# 3 37.0008 7.9301 83.9107 0.0000 34.4587 -0.0001
# 4 0.0000 0.0000 0.0000 17.7709 0.0000 3.3265
# 5 3.1221 7.9197 34.4587 0.0000 42.3139 0.0000
# 6 0.0000 -0.0001 -0.0001 3.3265 0.0000 13.2201
#
#
#
# Elastic Compliance Matrix: (Units=1/GPa)
#
#
# Indices 1 2 3 4 5 6 
#
# 1 0.019487 0.002359 -0.012086 0.000000 0.007963 0.000000
# 2 0.002359 0.043510 -0.002609 0.000000 -0.006193 0.000000
# 3 -0.012086 -0.002609 0.025431 0.000000 -0.019330 0.000000
# 4 0.000000 0.000000 0.000000 0.059053 0.000000 -0.014859
# 5 0.007963 -0.006193 -0.019330 0.000000 0.039946 0.000000
# 6 0.000000 0.000000 0.000000 -0.014859 0.000000 0.079381
#
#
# Mechanical properties :
#
#
# Convention : Reuss Voigt Hill
#
# Bulk Modulus (GPa) = 15.68469 29.88566 22.78518
# Shear Modulus (GPa) = 15.98818 23.86680 19.92749
#
# Velocity S-wave (km/s) = 2.83446 3.46312 3.16444
# Velocity P-wave (km/s) = 4.31206 5.56855 4.98009
#
# Compressibility (1/GPa) = 0.06375643
#
# Stress axis : x y z
#
# Youngs Moduli (GPa) = 51.31758 22.98339 39.32167
#
# Poissons Ratio (x) = -0.05422 0.47522
# Poissons Ratio (y) = -0.12106 0.10259
# Poissons Ratio (z) = 0.62020 0.05997
#
# Static dielectric constant tensor:
#      x y z
#    x 1.697780 0.000000 0.001290 
#    y 0.000000 1.716970 0.000000 
#    z 0.001290 0.000000 1.675890 
# 
# From -- ./inp_files/61708.got.cif
#   From: 2010.05.17/outbox.cif.g08.bks.cpg/sg5_31_cif.got.tgz:61708.got - 2010.06.03 18:56:24.
