data_PCOD9124352
_publ_section_title
;
Structure prediction by ZEFSAII (Michael W. Deem and Ramdas Pophale) SiO2 
 PCOD9124352
Probable space group: C 2
;
_chemical_formula_sum "Si O2"
_cell_formula_units_Z 20
_cell_length_a 29.695124
_cell_length_b 5.118307
_cell_length_c 12.102183
_cell_angle_alpha 90.000000
_cell_angle_beta 150.916737
_cell_angle_gamma 90.000000
_cell_volume 894.093726
_symmetry_space_group_name_H-M "C 2"
_symmetry_group_IT_number 5
_symmetry_cell_setting 'monoclinic'
loop_
_space_group_symop_operation_xyz
x,y,z
-x,y,-z
1/2+x,1/2+y,z
1/2-x,1/2+y,-z
loop_
_atom_site_type_symbol
_atom_site_label
_atom_site_fract_x
_atom_site_fract_y
_atom_site_fract_z
Si Si1 0.339585 0.354390 0.634796
Si Si2 0.828659 0.478233 0.279656
Si Si3 0.700551 0.982260 0.027740
Si Si4 0.570114 0.853780 0.287651
Si Si5 0.864853 0.498068 0.868814
O O1 0.379875 0.098307 0.662240
O O2 0.229394 0.373270 0.381441
O O3 0.362626 0.292194 0.812548
O O4 0.613964 0.595023 0.329128
O O5 0.749282 0.263014 0.128434
O O6 0.906930 0.397813 0.533970
O O7 0.780765 0.758894 0.200296
O O8 0.853988 0.456980 0.204707
O O9 0.643679 0.975957 0.018248
O O10 0.460493 0.869242 0.037399
#
# Coordination Sequence:
#
# PCOD9124352 Si02
#       5
#     4   4   4   4   4
#     4  12  28  46  66 104 145 184 235 293 340 416
#     4  10  20  44  70 104 140 176 229 297 351 405
#     4  10  22  41  74 101 139 183 226 291 355 414
#     4  12  26  47  72 102 143 184 235 294 345 418
#     4  12  27  46  74 101 140 195 234 282 356 421
#
# _framework density 22.369021
#
# number of rings (size 3 to 8) (size 9 to 14) (size 15 to 20)
#    0.000    0.800    4.000    1.800    0.000   12.000 
#    0.000    0.000    0.000    9.600    0.000    0.000 
#    0.000    0.000    0.000    0.000    0.000    0.000 
#
# Total GULP energy -55955.885914 kJ/mol
# GULP energy per Si atom -5595.588591 kJ/mol
# Density = 2.231811 g / cm^3
# Si number density = 22.369021 Si / 1000 Ang^3
#
#
#
# Elastic Constant Matrix: (Units=GPa)
#
#
# Indices 1 2 3 4 5 6 
#
# 1 164.1633 46.4912 78.4388 0.0000 -7.1382 -0.0001
# 2 46.4912 117.9582 29.4176 0.0001 7.0246 0.0000
# 3 78.4388 29.4176 147.2388 0.0000 1.0829 0.0000
# 4 0.0000 0.0001 0.0000 17.0160 -0.0001 -7.0390
# 5 -7.1382 7.0246 1.0829 -0.0001 50.5309 0.0000
# 6 -0.0001 0.0000 0.0000 -7.0390 0.0000 33.8774
#
#
#
# Elastic Compliance Matrix: (Units=1/GPa)
#
#
# Indices 1 2 3 4 5 6 
#
# 1 0.008923 -0.002557 -0.004255 0.000000 0.001707 0.000000
# 2 -0.002557 0.009729 -0.000569 0.000000 -0.001702 0.000000
# 3 -0.004255 -0.000569 0.009178 0.000000 -0.000719 0.000000
# 4 0.000000 0.000000 0.000000 0.064294 0.000000 0.013359
# 5 0.001707 -0.001702 -0.000719 0.000000 0.020283 0.000000
# 6 0.000000 0.000000 0.000000 0.013359 0.000000 0.032294
#
#
# Mechanical properties :
#
#
# Convention : Reuss Voigt Hill
#
# Bulk Modulus (GPa) = 76.53170 82.00615 79.26893
# Shear Modulus (GPa) = 30.52149 38.61906 34.57028
#
# Velocity S-wave (km/s) = 3.69786 4.15957 3.93549
# Velocity P-wave (km/s) = 7.24705 7.73366 7.49431
#
# Compressibility (1/GPa) = 0.01306648
#
# Stress axis : x y z
#
# Youngs Moduli (GPa) = 112.06759 102.78852 108.96160
#
# Poissons Ratio (x) = 0.26287 0.46366
# Poissons Ratio (y) = 0.28660 0.06198
# Poissons Ratio (z) = 0.47688 0.05847
#
# Static dielectric constant tensor:
#      x y z
#    x 1.856450 0.000000 -0.084690 
#    y 0.000000 1.835960 0.000000 
#    z -0.084690 0.000000 1.851500 
# 
# From -- ./inp_files/48185.got.cif
#   From: 2010.05.17/outbox.cif.g08.bks.cpg/sg5_25_cif.got.tgz:48185.got - 2010.06.03 18:56:24.
