data_PCOD9124323
_publ_section_title
;
Structure prediction by ZEFSAII (Michael W. Deem and Ramdas Pophale) SiO2 
 PCOD9124323
Probable space group: C 2
;
_chemical_formula_sum "Si O2"
_cell_formula_units_Z 22
_cell_length_a 13.016874
_cell_length_b 14.079270
_cell_length_c 11.007192
_cell_angle_alpha 90.000000
_cell_angle_beta 150.786362
_cell_angle_gamma 90.000000
_cell_volume 984.562303
_symmetry_space_group_name_H-M "C 2"
_symmetry_group_IT_number 5
_symmetry_cell_setting 'monoclinic'
loop_
_space_group_symop_operation_xyz
x,y,z
-x,y,-z
1/2+x,1/2+y,z
1/2-x,1/2+y,-z
loop_
_atom_site_type_symbol
_atom_site_label
_atom_site_fract_x
_atom_site_fract_y
_atom_site_fract_z
Si Si1 0.277510 0.057720 0.149507
Si Si2 0.048354 0.250426 0.921404
Si Si3 0.000000 0.917887 0.000000
Si Si4 0.661260 0.123233 0.428146
Si Si5 0.028964 0.992003 0.388626
Si Si6 0.075483 0.808413 0.836314
O O1 0.523528 0.061885 0.379216
O O2 0.190430 0.986046 0.159607
O O3 0.203668 0.162556 0.113097
O O4 0.153211 0.027663 0.895231
O O5 0.844559 0.194845 0.661848
O O6 0.179162 0.308344 0.954507
O O7 0.000000 0.300937 0.000000
O O8 0.008081 0.854443 0.126624
O O9 0.486154 0.199250 0.207978
O O10 0.767224 0.049350 0.446509
O O11 0.000000 0.013500 0.500000
O O12 0.035241 0.877650 0.376827
#
# Coordination Sequence:
#
# PCOD9124323 Si02
#       6
#     4   4   2   4   4   4
#     4   9  20  41  65  92 126 173 221 274 322 387
#     4  10  21  40  63  93 128 165 226 274 326 390
#     4  10  20  44  62  96 140 164 222 274 322 394
#     4  10  23  42  66  96 125 180 223 265 340 380
#     4  10  23  42  61  97 139 172 221 266 331 396
#     4  10  24  40  64  96 130 176 217 274 329 390
#
# _framework density 22.344954999999999
#
# number of rings (size 3 to 8) (size 9 to 14) (size 15 to 20)
#    0.000    2.182    0.909    0.000    2.545   10.182 
#    0.000    5.455    0.000    0.000    0.000    0.000 
#    0.000    0.000    0.000    0.000    0.000    0.000 
#
# Total GULP energy -61257.741389 kJ/mol
# GULP energy per Si atom -5568.885581 kJ/mol
# Density = 2.229410 g / cm^3
# Si number density = 22.344955 Si / 1000 Ang^3
#
#
#
# Elastic Constant Matrix: (Units=GPa)
#
#
# Indices 1 2 3 4 5 6 
#
# 1 195.2471 39.0999 57.8065 0.0000 30.9446 0.0000
# 2 39.0999 79.6030 14.0412 0.0000 15.8065 0.0000
# 3 57.8065 14.0412 53.4571 0.0000 16.5589 0.0001
# 4 0.0000 0.0000 0.0000 72.0924 0.0000 295.8880
# 5 30.9446 15.8065 16.5589 0.0000 35.3381 0.0001
# 6 0.0000 0.0000 0.0001 295.8880 0.0001 1555.6322
#
#
#
# Elastic Compliance Matrix: (Units=1/GPa)
#
#
# Indices 1 2 3 4 5 6 
#
# 1 0.008191 -0.002171 -0.007447 0.000000 -0.002712 0.000000
# 2 -0.002171 0.014548 -0.000054 0.000000 -0.004580 0.000000
# 3 -0.007447 -0.000054 0.028948 0.000000 -0.007019 0.000000
# 4 0.000000 0.000000 0.000000 0.063238 0.000000 -0.012028
# 5 -0.002712 -0.004580 -0.007019 0.000000 0.036011 0.000000
# 6 0.000000 0.000000 0.000000 -0.012028 0.000000 0.002931
#
#
# Mechanical properties :
#
#
# Convention : Reuss Voigt Hill
#
# Bulk Modulus (GPa) = 30.92008 61.13358 46.02683
# Shear Modulus (GPa) = 27.17482 347.10318 187.13900
#
# Velocity S-wave (km/s) = 3.49112 12.47701 9.16143
# Velocity P-wave (km/s) = 5.48800 15.32925 11.51313
#
# Compressibility (1/GPa) = 0.03234144
#
# Stress axis : x y z
#
# Youngs Moduli (GPa) = 122.08091 68.73822 34.54419
#
# Poissons Ratio (x) = 0.14925 0.25726
# Poissons Ratio (y) = 0.26507 0.00188
# Poissons Ratio (z) = 0.90918 0.00374
#
# Static dielectric constant tensor:
#      x y z
#    x -7.524050 0.000000 4.331540 
#    y 0.000000 1.866970 0.000000 
#    z 4.331540 0.000000 -0.127340 
# 
# From -- ./inp_files/5058.got.cif
#   From: 2010.05.17/outbox.cif.g08.bks.cpg/sg5_3_cif.got.tgz:5058.got - 2010.06.03 18:56:24.
