data_PCOD9124381
_publ_section_title
;
Structure prediction by ZEFSAII (Michael W. Deem and Ramdas Pophale) SiO2 
 PCOD9124381
Probable space group: C 2
;
_chemical_formula_sum "Si O2"
_cell_formula_units_Z 18
_cell_length_a 7.142688
_cell_length_b 6.950593
_cell_length_c 13.189338
_cell_angle_alpha 90.000000
_cell_angle_beta 116.059016
_cell_angle_gamma 90.000000
_cell_volume 588.231475
_symmetry_space_group_name_H-M "C 2"
_symmetry_group_IT_number 5
_symmetry_cell_setting 'monoclinic'
loop_
_space_group_symop_operation_xyz
x,y,z
-x,y,-z
1/2+x,1/2+y,z
1/2-x,1/2+y,-z
loop_
_atom_site_type_symbol
_atom_site_label
_atom_site_fract_x
_atom_site_fract_y
_atom_site_fract_z
Si Si1 0.488296 0.533100 0.607055
Si Si2 0.378634 0.115231 0.836368
Si Si3 0.500000 0.922003 0.500000
Si Si4 0.124175 0.626953 0.701785
Si Si5 0.465784 0.682420 0.103885
O O1 0.500000 0.661333 0.500000
O O2 0.670260 0.618369 0.717635
O O3 0.244650 0.509258 0.569847
O O4 0.567626 0.313472 0.620674
O O5 0.546732 0.194251 0.796881
O O6 0.273214 0.179162 0.916744
O O7 0.460372 0.901335 0.873948
O O8 0.484033 0.954314 0.624513
O O9 0.363895 0.579168 0.783960
O O10 0.500000 0.604331 0.000000
#
# Coordination Sequence:
#
# PCOD9124381 Si02
#       5
#     4   4   2   4   4
#     4   9  22  43  69 120 158 200 274 322 406 500
#     4  11  26  49  79 117 155 217 272 341 418 495
#     4  10  20  44  78 118 168 212 262 336 414 496
#     4  11  24  47  83 112 168 218 266 341 420 495
#     4  11  29  52  79 119 160 210 287 348 414 501
#
# _framework density 30.600200999999998
#
# number of rings (size 3 to 8) (size 9 to 14) (size 15 to 20)
#    0.667    0.889    1.111    1.333    3.111   10.667 
#    0.000    0.000    0.000    0.000    0.000    0.000 
#    0.000    0.000    0.000    0.000    0.000    0.000 
#
# Total GULP energy -50288.488895 kJ/mol
# GULP energy per Si atom -5587.609877 kJ/mol
# Density = 3.053055 g / cm^3
# Si number density = 30.600201 Si / 1000 Ang^3
#
#
#
# Elastic Constant Matrix: (Units=GPa)
#
#
# Indices 1 2 3 4 5 6 
#
# 1 200.9069 3.3559 -10.8744 0.0000 -5.3088 0.0000
# 2 3.3559 138.8085 10.4385 0.0000 -3.5981 0.0000
# 3 -10.8744 10.4385 103.6257 0.0000 1.3487 0.0000
# 4 0.0000 0.0000 0.0000 29.3495 0.0000 9.2976
# 5 -5.3088 -3.5981 1.3487 0.0000 63.6428 0.0000
# 6 0.0000 0.0000 0.0000 9.2976 0.0000 40.1840
#
#
#
# Elastic Compliance Matrix: (Units=1/GPa)
#
#
# Indices 1 2 3 4 5 6 
#
# 1 0.005020 -0.000151 0.000537 0.000000 0.000399 0.000000
# 2 -0.000151 0.007275 -0.000754 0.000000 0.000415 0.000000
# 3 0.000537 -0.000754 0.009785 0.000000 -0.000205 0.000000
# 4 0.000000 0.000000 0.000000 0.036767 0.000000 -0.008507
# 5 0.000399 0.000415 -0.000205 0.000000 0.015774 0.000000
# 6 0.000000 0.000000 0.000000 -0.008507 0.000000 0.026854
#
#
# Mechanical properties :
#
#
# Convention : Reuss Voigt Hill
#
# Bulk Modulus (GPa) = 46.85489 49.90899 48.38194
# Shear Modulus (GPa) = 45.73468 55.99667 50.86567
#
# Velocity S-wave (km/s) = 3.87018 4.28243 4.08151
# Velocity P-wave (km/s) = 5.94275 6.38730 6.16903
#
# Compressibility (1/GPa) = 0.02134249
#
# Stress axis : x y z
#
# Youngs Moduli (GPa) = 199.22094 137.45159 102.19634
#
# Poissons Ratio (x) = 0.02081 -0.05486
# Poissons Ratio (y) = 0.03016 0.07707
# Poissons Ratio (z) = -0.10694 0.10366
#
# Static dielectric constant tensor:
#      x y z
#    x 2.508950 0.000000 -0.514840 
#    y 0.000000 2.461570 0.000000 
#    z -0.514840 0.000000 2.935140 
# 
# From -- ./inp_files/32940.got.cif
#   From: 2010.05.17/outbox.cif.g08.bks.cpg/sg5_17_cif.got.tgz:32940.got - 2010.06.03 18:56:24.
