data_PCOD9124843
_publ_section_title
;
Structure prediction by ZEFSAII (Michael W. Deem and Ramdas Pophale) SiO2 
 PCOD9124843
Probable space group: C 2
;
_chemical_formula_sum "Si O2"
_cell_formula_units_Z 26
_cell_length_a 22.321161
_cell_length_b 8.200525
_cell_length_c 18.477675
_cell_angle_alpha 90.000000
_cell_angle_beta 17.133944
_cell_angle_gamma 90.000000
_cell_volume 996.433024
_symmetry_space_group_name_H-M "C 2"
_symmetry_group_IT_number 5
_symmetry_cell_setting 'monoclinic'
loop_
_space_group_symop_operation_xyz
x,y,z
-x,y,-z
1/2+x,1/2+y,z
1/2-x,1/2+y,-z
loop_
_atom_site_type_symbol
_atom_site_label
_atom_site_fract_x
_atom_site_fract_y
_atom_site_fract_z
Si Si1 0.563804 0.464900 0.616872
Si Si2 0.552273 0.974971 0.074706
Si Si3 0.985356 0.836015 0.172859
Si Si4 0.613179 0.933847 0.443017
Si Si5 0.680484 0.275536 0.344209
Si Si6 0.498273 0.825589 0.717239
Si Si7 0.500000 0.447436 0.000000
O O1 0.468936 0.379852 0.796599
O O2 0.565353 0.369177 0.540028
O O3 0.462577 0.642049 0.732834
O O4 0.808782 0.470253 0.346084
O O5 0.603891 0.886662 0.091396
O O6 0.596406 0.165845 0.029042
O O7 0.661215 0.881414 0.883101
O O8 0.739383 0.824265 0.458126
O O9 0.031629 0.966005 0.056468
O O10 0.500000 0.901196 0.500000
O O11 0.477319 0.939053 0.670553
O O12 0.801904 0.816734 0.236727
O O13 0.766039 0.098635 0.272544
O O14 0.500000 0.218483 0.500000
#
# Coordination Sequence:
#
# PCOD9124843 Si02
#       7
#     4   4   4   4   4   4   2
#     4  10  21  39  65  93 125 164 213 265 316 387
#     4  10  21  38  65  90 123 172 207 262 320 374
#     4   9  20  37  63  94 127 157 217 261 310 389
#     4  10  23  42  64  92 132 168 215 269 320 379
#     4  11  25  41  58  93 129 167 216 262 316 387
#     4   9  20  39  63  93 127 161 213 265 321 380
#     4  10  22  38  68  98 122 168 212 260 322 386
#
# _framework density 26.093073
#
# number of rings (size 3 to 8) (size 9 to 14) (size 15 to 20)
#    0.000    2.154    0.000    1.385   10.769    3.077 
#    2.769    0.000    0.000    0.000    0.000    0.000 
#    0.000    0.000    0.000    0.000    0.000    0.000 
#
# Total GULP energy -72500.591921 kJ/mol
# GULP energy per Si atom -5576.968609 kJ/mol
# Density = 2.603368 g / cm^3
# Si number density = 26.093073 Si / 1000 Ang^3
#
#
#
# Elastic Constant Matrix: (Units=GPa)
#
#
# Indices 1 2 3 4 5 6 
#
# 1 136.9318 32.9960 47.0797 -0.0010 41.3226 0.0006
# 2 32.9960 135.9164 56.7874 -0.0011 46.5957 0.0010
# 3 47.0797 56.7874 146.7201 -0.0012 29.2994 0.0014
# 4 -0.0010 -0.0011 -0.0012 30.5148 0.0008 14.8755
# 5 41.3226 46.5957 29.2994 0.0008 66.9398 -0.0007
# 6 0.0006 0.0010 0.0014 14.8755 -0.0007 17.5455
#
#
#
# Elastic Compliance Matrix: (Units=1/GPa)
#
#
# Indices 1 2 3 4 5 6 
#
# 1 0.009524 0.000371 -0.002163 0.000001 -0.005191 -0.000001
# 2 0.000371 0.010699 -0.002988 0.000001 -0.006369 -0.000002
# 3 -0.002163 -0.002988 0.008749 0.000001 -0.000414 -0.000001
# 4 0.000001 0.000001 0.000001 0.055856 -0.000003 -0.047356
# 5 -0.005191 -0.006369 -0.000414 -0.000003 0.022757 0.000004
# 6 -0.000001 -0.000002 -0.000001 -0.047356 0.000004 0.097144
#
#
# Mechanical properties :
#
#
# Convention : Reuss Voigt Hill
#
# Bulk Modulus (GPa) = 51.51598 77.03273 64.27435
# Shear Modulus (GPa) = 22.64892 41.84704 32.24798
#
# Velocity S-wave (km/s) = 2.94939 4.00904 3.51933
# Velocity P-wave (km/s) = 5.60219 7.14257 6.41875
#
# Compressibility (1/GPa) = 0.01941145
#
# Stress axis : x y z
#
# Youngs Moduli (GPa) = 105.00277 93.46395 114.29722
#
# Poissons Ratio (x) = -0.03470 0.24723
# Poissons Ratio (y) = -0.03898 0.34157
# Poissons Ratio (z) = 0.22713 0.27931
#
# Static dielectric constant tensor:
#      x y z
#    x 2.172550 0.000000 -0.036070 
#    y 0.000000 2.138640 0.000000 
#    z -0.036070 0.000000 2.218590 
# 
# From -- ./inp_files/26785.got.cif
#   From: 2010.05.17/outbox.cif.g08.bks.cpg/sg5_14_cif.got.tgz:26785.got - 2010.06.03 18:56:24.
