data_PCOD9124777
_publ_section_title
;
Structure prediction by ZEFSAII (Michael W. Deem and Ramdas Pophale) SiO2 
 PCOD9124777
Probable space group: C 2
;
_chemical_formula_sum "Si O2"
_cell_formula_units_Z 28
_cell_length_a 18.884735
_cell_length_b 10.866824
_cell_length_c 16.072550
_cell_angle_alpha 90.000000
_cell_angle_beta 23.154060
_cell_angle_gamma 90.000000
_cell_volume 1296.931811
_symmetry_space_group_name_H-M "C 2"
_symmetry_group_IT_number 5
_symmetry_cell_setting 'monoclinic'
loop_
_space_group_symop_operation_xyz
x,y,z
-x,y,-z
1/2+x,1/2+y,z
1/2-x,1/2+y,-z
loop_
_atom_site_type_symbol
_atom_site_label
_atom_site_fract_x
_atom_site_fract_y
_atom_site_fract_z
Si Si1 0.750610 0.504220 0.925991
Si Si2 0.500000 0.663719 0.500000
Si Si3 0.926902 0.334197 0.425381
Si Si4 0.674779 0.651649 0.762039
Si Si5 0.450228 0.380517 0.140608
Si Si6 0.000000 0.774410 0.500000
Si Si7 0.297910 0.465382 0.825046
Si Si8 0.946293 0.252721 0.882457
O O1 0.622401 0.413204 0.010434
O O2 0.699510 0.496955 0.079479
O O3 0.695343 0.640152 0.953935
O O4 0.957385 0.460972 0.689608
O O5 0.427969 0.753898 0.506981
O O6 0.348122 0.579295 0.710440
O O7 0.717354 0.331929 0.625599
O O8 0.038342 0.270516 0.232139
O O9 0.645526 0.506602 0.788153
O O10 0.846979 0.692633 0.624542
O O11 0.636619 0.707835 0.713080
O O12 0.500000 0.700916 0.000000
O O13 0.500000 0.313866 0.000000
O O14 0.940517 0.864126 0.639506
O O15 0.115230 0.384123 0.013612
#
# Coordination Sequence:
#
# PCOD9124777 Si02
#       8
#     4   2   4   4   4   2   4   4
#     4  10  22  43  66  97 130 169 228 281 321 394
#     4  11  22  43  64 100 131 176 217 268 328 407
#     4  11  23  40  71  90 136 180 216 266 346 386
#     4  10  21  38  61  94 126 158 217 282 323 386
#     4  10  23  39  63  97 126 168 224 280 324 389
#     4  11  22  35  66  88 125 170 209 270 344 385
#     4  10  22  39  66  91 130 173 212 271 332 386
#     4  10  21  42  65  96 135 171 224 278 325 396
#
# _framework density 21.589417000000001
#
# number of rings (size 3 to 8) (size 9 to 14) (size 15 to 20)
#    0.000    1.714    2.857    0.857    4.000    0.571 
#    0.000    0.000   25.143    0.000    0.000    0.000 
#    0.000    0.000    0.000    0.000    0.000    0.000 
#
# Total GULP energy -77975.374341 kJ/mol
# GULP energy per Si atom -5569.669596 kJ/mol
# Density = 2.154028 g / cm^3
# Si number density = 21.589417 Si / 1000 Ang^3
#
#
#
# Elastic Constant Matrix: (Units=GPa)
#
#
# Indices 1 2 3 4 5 6 
#
# 1 75.2129 17.6306 19.7285 0.0000 11.7856 -0.0001
# 2 17.6306 39.0171 5.6242 -0.0003 11.0086 0.0007
# 3 19.7285 5.6242 82.0392 -0.0002 6.6368 0.0008
# 4 0.0000 -0.0003 -0.0002 20.6061 0.0002 6.3012
# 5 11.7856 11.0086 6.6368 0.0002 38.9522 -0.0005
# 6 -0.0001 0.0007 0.0008 6.3012 -0.0005 21.7946
#
#
#
# Elastic Compliance Matrix: (Units=1/GPa)
#
#
# Indices 1 2 3 4 5 6 
#
# 1 0.015954 -0.006018 -0.003215 0.000000 -0.002578 0.000000
# 2 -0.006018 0.030256 -0.000084 0.000001 -0.006716 -0.000001
# 3 -0.003215 -0.000084 0.013068 0.000000 -0.001230 -0.000001
# 4 0.000000 0.000001 0.000000 0.053236 -0.000001 -0.015392
# 5 -0.002578 -0.006716 -0.001230 -0.000001 0.028560 0.000001
# 6 0.000000 -0.000001 -0.000001 -0.015392 0.000001 0.050333
#
#
# Mechanical properties :
#
#
# Convention : Reuss Voigt Hill
#
# Bulk Modulus (GPa) = 24.60425 31.35954 27.98189
# Shear Modulus (GPa) = 22.36252 26.48965 24.42608
#
# Velocity S-wave (km/s) = 3.22189 3.50662 3.36727
# Velocity P-wave (km/s) = 5.02613 5.56346 5.30161
#
# Compressibility (1/GPa) = 0.04064339
#
# Stress axis : x y z
#
# Youngs Moduli (GPa) = 62.68148 33.05125 76.52419
#
# Poissons Ratio (x) = 0.19890 0.24605
# Poissons Ratio (y) = 0.37722 0.00641
# Poissons Ratio (z) = 0.20154 0.00277
#
# Static dielectric constant tensor:
#      x y z
#    x 1.847030 0.000000 0.077630 
#    y 0.000000 1.814300 0.000000 
#    z 0.077630 0.000000 1.889860 
# 
# From -- ./inp_files/62893.got.cif
#   From: 2010.05.17/outbox.cif.g08.bks.cpg/sg5_32_cif.got.tgz:62893.got - 2010.06.03 18:56:24.
