data_PCOD9124988
_publ_section_title
;
Structure prediction by ZEFSAII (Michael W. Deem and Ramdas Pophale) SiO2 
 PCOD9124988
Probable space group: C 2
;
_chemical_formula_sum "Si O2"
_cell_formula_units_Z 32
_cell_length_a 11.488381
_cell_length_b 10.753580
_cell_length_c 16.153521
_cell_angle_alpha 90.000000
_cell_angle_beta 138.058890
_cell_angle_gamma 90.000000
_cell_volume 1333.809265
_symmetry_space_group_name_H-M "C 2"
_symmetry_group_IT_number 5
_symmetry_cell_setting 'monoclinic'
loop_
_space_group_symop_operation_xyz
x,y,z
-x,y,-z
1/2+x,1/2+y,z
1/2-x,1/2+y,-z
loop_
_atom_site_type_symbol
_atom_site_label
_atom_site_fract_x
_atom_site_fract_y
_atom_site_fract_z
Si Si1 0.549308 0.877280 0.851962
Si Si2 0.840730 0.582826 0.523647
Si Si3 0.074483 0.611117 0.127377
Si Si4 0.109468 0.226134 0.630951
Si Si5 0.671885 0.267840 0.884746
Si Si6 0.712112 0.048961 0.791508
Si Si7 0.627348 0.443340 0.272832
Si Si8 0.687877 0.835308 0.411821
O O1 0.387531 0.815700 0.719367
O O2 0.472906 0.970167 0.879674
O O3 0.654685 0.955724 0.836071
O O4 0.680688 0.790562 0.969659
O O5 0.718831 0.538328 0.383785
O O6 0.823852 0.732136 0.513909
O O7 0.773017 0.482358 0.556945
O O8 0.046914 0.560802 0.641541
O O9 0.275929 0.639741 0.249719
O O10 0.972914 0.685441 0.145011
O O11 0.000000 0.651420 0.000000
O O12 0.238656 0.326729 0.658303
O O13 0.000000 0.163353 0.500000
O O14 0.973750 0.301113 0.614317
O O15 0.739985 0.183881 0.846012
O O16 0.564428 0.393148 0.805872
O O17 0.867719 0.995879 0.818267
#
# Coordination Sequence:
#
# PCOD9124988 Si02
#       8
#     4   4   4   4   4   4   4   4
#     4  10  22  42  61  92 132 170 220 280 339 401
#     4  11  22  39  65 101 131 175 215 274 345 413
#     4  10  23  40  66  91 129 173 228 274 335 415
#     4  11  20  37  69  98 123 172 227 270 330 418
#     4  10  23  38  66  95 127 173 228 279 338 405
#     4  10  21  39  63  95 132 166 224 285 329 408
#     4  11  20  39  67  97 129 173 222 276 341 411
#     4  11  23  39  69  93 137 168 218 278 338 408
#
# _framework density 23.991436
#
# number of rings (size 3 to 8) (size 9 to 14) (size 15 to 20)
#    0.000    1.500    3.750    1.875    7.000    3.000 
#    2.250    0.000    2.750    0.000    0.000    0.000 
#    0.000    0.000    0.000    0.000    0.000    0.000 
#
# Total GULP energy -89345.397308 kJ/mol
# GULP energy per Si atom -5584.087332 kJ/mol
# Density = 2.393683 g / cm^3
# Si number density = 23.991436 Si / 1000 Ang^3
#
#
#
# Elastic Constant Matrix: (Units=GPa)
#
#
# Indices 1 2 3 4 5 6 
#
# 1 24.9062 11.0103 21.9354 0.0000 -7.8413 0.0000
# 2 11.0103 65.4649 24.7872 0.0000 4.2811 0.0000
# 3 21.9354 24.7872 95.6271 0.0000 -18.6394 0.0000
# 4 0.0000 0.0000 0.0000 38.9094 0.0000 -2.3437
# 5 -7.8413 4.2811 -18.6394 0.0000 21.7566 0.0000
# 6 0.0000 0.0000 0.0000 -2.3437 0.0000 10.4307
#
#
#
# Elastic Compliance Matrix: (Units=1/GPa)
#
#
# Indices 1 2 3 4 5 6 
#
# 1 0.054816 -0.007164 -0.007913 0.000000 0.014387 0.000000
# 2 -0.007164 0.019299 -0.005525 0.000000 -0.011113 0.000000
# 3 -0.007913 -0.005525 0.016039 0.000000 0.011976 0.000000
# 4 0.000000 0.000000 0.000000 0.026053 0.000000 0.005854
# 5 0.014387 -0.011113 0.011976 0.000000 0.063595 0.000000
# 6 0.000000 0.000000 0.000000 0.005854 0.000000 0.097186
#
#
# Mechanical properties :
#
#
# Convention : Reuss Voigt Hill
#
# Bulk Modulus (GPa) = 20.42904 33.49600 26.96252
# Shear Modulus (GPa) = 14.94724 22.77037 18.85880
#
# Velocity S-wave (km/s) = 2.49875 3.08410 2.80672
# Velocity P-wave (km/s) = 4.10593 5.16470 4.66545
#
# Compressibility (1/GPa) = 0.04894992
#
# Stress axis : x y z
#
# Youngs Moduli (GPa) = 18.24278 51.81594 62.34836
#
# Poissons Ratio (x) = 0.37122 0.49334
# Poissons Ratio (y) = 0.13070 0.34449
# Poissons Ratio (z) = 0.14435 0.28630
#
# Static dielectric constant tensor:
#      x y z
#    x 1.940750 0.000000 -0.009410 
#    y 0.000000 1.991210 0.000000 
#    z -0.009410 0.000000 1.948120 
# 
# From -- ./inp_files/61725.got.cif
#   From: 2010.05.17/outbox.cif.g08.bks.cpg/sg5_31_cif.got.tgz:61725.got - 2010.06.03 18:56:24.
