data_PCOD9124985
_publ_section_title
;
Structure prediction by ZEFSAII (Michael W. Deem and Ramdas Pophale) SiO2 
 PCOD9124985
Probable space group: C 2
;
_chemical_formula_sum "Si O2"
_cell_formula_units_Z 32
_cell_length_a 11.273584
_cell_length_b 14.519977
_cell_length_c 12.793346
_cell_angle_alpha 90.000000
_cell_angle_beta 47.024488
_cell_angle_gamma 90.000000
_cell_volume 1532.189770
_symmetry_space_group_name_H-M "C 2"
_symmetry_group_IT_number 5
_symmetry_cell_setting 'monoclinic'
loop_
_space_group_symop_operation_xyz
x,y,z
-x,y,-z
1/2+x,1/2+y,z
1/2-x,1/2+y,-z
loop_
_atom_site_type_symbol
_atom_site_label
_atom_site_fract_x
_atom_site_fract_y
_atom_site_fract_z
Si Si1 0.102332 0.861670 0.044320
Si Si2 0.322024 0.389623 0.657230
Si Si3 0.742649 0.030711 0.159196
Si Si4 0.106206 0.241440 0.185993
Si Si5 0.558932 0.568455 0.345144
Si Si6 0.640879 0.726936 0.849553
Si Si7 0.153941 0.953790 0.681008
Si Si8 0.560844 0.916757 0.631973
O O1 0.185749 0.962350 0.972286
O O2 0.240635 0.783851 0.968308
O O3 0.000000 0.841000 0.000000
O O4 0.979738 0.875243 0.214574
O O5 0.500000 0.384677 0.500000
O O6 0.319107 0.482498 0.725404
O O7 0.283491 0.296683 0.740289
O O8 0.187745 0.403471 0.649468
O O9 0.819502 0.998140 0.222417
O O10 0.552574 0.006073 0.283471
O O11 0.798164 0.136634 0.125251
O O12 0.136794 0.155375 0.242148
O O13 0.957416 0.210831 0.199944
O O14 0.052439 0.327480 0.290590
O O15 0.500000 0.587407 0.500000
O O16 0.411822 0.527038 0.363876
O O17 0.500000 0.775860 0.000000
O O18 0.327205 0.919668 0.536772
#
# Coordination Sequence:
#
# PCOD9124985 Si02
#       8
#     4   4   4   4   4   4   4   4
#     4   9  21  39  65  93 127 163 213 264 318 381
#     4  10  22  42  61  88 132 167 209 261 321 387
#     4  10  21  39  63  95 126 158 211 268 318 375
#     4  10  23  41  64  92 128 169 213 259 326 382
#     4  11  22  40  64  89 133 171 210 256 330 378
#     4  11  23  40  63  95 127 166 215 268 321 384
#     4  11  19  37  67  92 122 168 204 267 323 368
#     4  10  21  40  65  94 123 164 214 264 318 383
#
# _framework density 20.885141999999998
#
# number of rings (size 3 to 8) (size 9 to 14) (size 15 to 20)
#    0.000    1.750    3.750    1.500    1.750    4.000 
#    0.000    1.875    2.750    0.000    0.000    0.000 
#    0.000    0.000    0.000    0.000    0.000    0.000 
#
# Total GULP energy -89259.912647 kJ/mol
# GULP energy per Si atom -5578.744540 kJ/mol
# Density = 2.083761 g / cm^3
# Si number density = 20.885142 Si / 1000 Ang^3
#
#
#
# Elastic Constant Matrix: (Units=GPa)
#
#
# Indices 1 2 3 4 5 6 
#
# 1 58.4687 23.1268 10.8942 0.0000 -9.5075 0.0000
# 2 23.1268 96.4821 32.8225 0.0000 -19.1115 0.0000
# 3 10.8942 32.8225 112.5395 0.0000 -21.9590 0.0000
# 4 0.0000 0.0000 0.0000 20.0842 0.0000 -1.8365
# 5 -9.5075 -19.1115 -21.9590 0.0000 29.9647 0.0000
# 6 0.0000 0.0000 0.0000 -1.8365 0.0000 25.1185
#
#
#
# Elastic Compliance Matrix: (Units=1/GPa)
#
#
# Indices 1 2 3 4 5 6 
#
# 1 0.019232 -0.003887 -0.000025 0.000000 0.003605 0.000000
# 2 -0.003887 0.013189 -0.002415 0.000000 0.005409 0.000000
# 3 -0.000025 -0.002415 0.010841 0.000000 0.006396 0.000000
# 4 0.000000 0.000000 0.000000 0.050126 0.000000 0.003665
# 5 0.003605 0.005409 0.006396 0.000000 0.042653 0.000000
# 6 0.000000 0.000000 0.000000 0.003665 0.000000 0.040079
#
#
# Mechanical properties :
#
#
# Convention : Reuss Voigt Hill
#
# Bulk Modulus (GPa) = 32.67178 44.57528 38.62353
# Shear Modulus (GPa) = 25.12862 28.40993 26.76928
#
# Velocity S-wave (km/s) = 3.47245 3.69222 3.58402
# Velocity P-wave (km/s) = 5.63514 6.29015 5.97163
#
# Compressibility (1/GPa) = 0.03060746
#
# Stress axis : x y z
#
# Youngs Moduli (GPa) = 51.99790 75.81828 92.24646
#
# Poissons Ratio (x) = 0.29474 0.00227
# Poissons Ratio (y) = 0.20214 0.22278
# Poissons Ratio (z) = 0.00128 0.18310
#
# Static dielectric constant tensor:
#      x y z
#    x 1.813560 0.000000 0.027570 
#    y 0.000000 1.751110 0.000000 
#    z 0.027570 0.000000 1.797760 
# 
# From -- ./inp_files/53193.got.cif
#   From: 2010.05.17/outbox.cif.g08.bks.cpg/sg5_27_cif.got.tgz:53193.got - 2010.06.03 18:56:24.
