data_PCOD9124953
_publ_section_title
;
Structure prediction by ZEFSAII (Michael W. Deem and Ramdas Pophale) SiO2 
 PCOD9124953
Probable space group: C 2
;
_chemical_formula_sum "Si O2"
_cell_formula_units_Z 28
_cell_length_a 9.402623
_cell_length_b 32.598920
_cell_length_c 5.061788
_cell_angle_alpha 90.000000
_cell_angle_beta 61.276046
_cell_angle_gamma 90.000000
_cell_volume 1360.594467
_symmetry_space_group_name_H-M "C 2"
_symmetry_group_IT_number 5
_symmetry_cell_setting 'monoclinic'
loop_
_space_group_symop_operation_xyz
x,y,z
-x,y,-z
1/2+x,1/2+y,z
1/2-x,1/2+y,-z
loop_
_atom_site_type_symbol
_atom_site_label
_atom_site_fract_x
_atom_site_fract_y
_atom_site_fract_z
Si Si1 0.176187 0.030410 0.216831
Si Si2 0.306762 0.890233 0.683923
Si Si3 0.391076 0.312016 0.342326
Si Si4 0.885815 0.152541 0.356318
Si Si5 0.385309 0.746206 0.357000
Si Si6 0.315113 0.073524 0.579506
Si Si7 0.693631 0.942358 0.816976
O O1 0.298287 0.047543 0.328159
O O2 0.000000 0.038444 0.500000
O O3 0.208848 0.981944 0.175917
O O4 0.209723 0.052607 0.908687
O O5 0.500000 0.881296 0.500000
O O6 0.204544 0.851589 0.680969
O O7 0.271905 0.927210 0.509809
O O8 0.271564 0.905442 0.010568
O O9 0.500000 0.321795 0.500000
O O10 0.261708 0.277400 0.534763
O O11 0.500000 0.297045 0.000000
O O12 0.826919 0.199205 0.450262
O O13 0.750494 0.118709 0.428038
O O14 0.000000 0.140983 0.500000
O O15 0.000000 0.152951 0.000000
O O16 0.500000 0.757401 0.500000
O O17 0.500000 0.747605 0.000000
O O18 0.500000 0.074504 0.500000
O O19 0.500000 0.951072 0.000000
#
# Coordination Sequence:
#
# PCOD9124953 Si02
#       7
#     4   4   4   4   4   4   4
#     4  12  25  41  63  91 124 163 205 254 306 362
#     4  10  22  40  63  86 119 164 205 245 302 371
#     4  12  25  40  62  95 130 160 199 258 307 354
#     4  10  21  40  65  91 122 159 205 253 301 360
#     4  10  22  42  67  91 121 166 207 245 300 372
#     4  12  24  40  63  91 125 164 204 252 304 363
#     4  10  21  39  62  89 118 156 206 257 303 358
#
# _framework density 20.579239999999999
#
# number of rings (size 3 to 8) (size 9 to 14) (size 15 to 20)
#    0.000    1.143    0.000    6.857    0.000    5.143 
#    0.000    1.429    0.000    0.000    0.000    0.000 
#    0.000    0.000    0.000    0.000    0.000    0.000 
#
# Total GULP energy -78340.618786 kJ/mol
# GULP energy per Si atom -5595.758485 kJ/mol
# Density = 2.053240 g / cm^3
# Si number density = 20.579240 Si / 1000 Ang^3
#
#
#
# Elastic Constant Matrix: (Units=GPa)
#
#
# Indices 1 2 3 4 5 6 
#
# 1 111.3785 48.4988 22.7305 0.0000 14.0520 0.0000
# 2 48.4988 90.9453 7.5455 0.0000 -16.9864 0.0000
# 3 22.7305 7.5455 74.5726 0.0000 14.0519 0.0000
# 4 0.0000 0.0000 0.0000 26.8861 0.0000 8.5017
# 5 14.0520 -16.9864 14.0519 0.0000 35.2023 0.0000
# 6 0.0000 0.0000 0.0000 8.5017 0.0000 20.2932
#
#
#
# Elastic Compliance Matrix: (Units=1/GPa)
#
#
# Indices 1 2 3 4 5 6 
#
# 1 0.014710 -0.009537 -0.001671 0.000000 -0.009807 0.000000
# 2 -0.009537 0.018719 -0.001521 0.000000 0.013447 0.000000
# 3 -0.001671 -0.001521 0.015231 0.000000 -0.006147 0.000000
# 4 0.000000 0.000000 0.000000 0.042874 0.000000 -0.017962
# 5 -0.009807 0.013447 -0.006147 0.000000 0.041264 0.000000
# 6 0.000000 0.000000 0.000000 -0.017962 0.000000 0.056802
#
#
# Mechanical properties :
#
#
# Convention : Reuss Voigt Hill
#
# Bulk Modulus (GPa) = 43.09898 48.27178 45.68538
# Shear Modulus (GPa) = 22.44243 29.68443 26.06343
#
# Velocity S-wave (km/s) = 3.30591 3.80207 3.56264
# Velocity P-wave (km/s) = 5.96326 6.54078 6.25869
#
# Compressibility (1/GPa) = 0.02320240
#
# Stress axis : x y z
#
# Youngs Moduli (GPa) = 67.98294 53.42059 65.65486
#
# Poissons Ratio (x) = 0.50949 0.10969
# Poissons Ratio (y) = 0.64838 0.09985
# Poissons Ratio (z) = 0.11358 0.08125
#
# Static dielectric constant tensor:
#      x y z
#    x 1.705840 0.000000 -0.006880 
#    y 0.000000 1.732570 0.000000 
#    z -0.006880 0.000000 1.707340 
# 
# From -- ./inp_files/3872.got.cif
#   From: 2010.05.17/outbox.cif.g08.bks.cpg/sg5_2_cif.got.tgz:3872.got - 2010.06.03 18:56:24.
