data_PCOD9124331
_publ_section_title
;
Structure prediction by ZEFSAII (Michael W. Deem and Ramdas Pophale) SiO2 
 PCOD9124331
Probable space group: C 2
;
_chemical_formula_sum "Si O2"
_cell_formula_units_Z 30
_cell_length_a 8.565630
_cell_length_b 11.459099
_cell_length_c 15.639810
_cell_angle_alpha 90.000000
_cell_angle_beta 114.284277
_cell_angle_gamma 90.000000
_cell_volume 1399.283239
_symmetry_space_group_name_H-M "C 2"
_symmetry_group_IT_number 5
_symmetry_cell_setting 'monoclinic'
loop_
_space_group_symop_operation_xyz
x,y,z
-x,y,-z
1/2+x,1/2+y,z
1/2-x,1/2+y,-z
loop_
_atom_site_type_symbol
_atom_site_label
_atom_site_fract_x
_atom_site_fract_y
_atom_site_fract_z
Si Si1 0.319399 0.242420 0.336735
Si Si2 0.882096 0.863746 0.130487
Si Si3 0.685159 0.623040 0.639872
Si Si4 0.500000 0.504994 0.000000
Si Si5 0.879016 0.438419 0.791500
Si Si6 0.279676 0.581325 0.542204
Si Si7 0.182187 0.606081 0.837842
Si Si8 0.144484 0.865892 0.335475
O O1 0.161315 0.328898 0.279610
O O2 0.307581 0.185027 0.425685
O O3 0.320055 0.143620 0.262429
O O4 0.489926 0.317927 0.360460
O O5 0.890930 0.722979 0.132953
O O6 0.039856 0.905120 0.227447
O O7 0.705168 0.898544 0.138106
O O8 0.899675 0.923297 0.043862
O O9 0.765126 0.545973 0.731951
O O10 0.483053 0.605680 0.592488
O O11 0.763492 0.578313 0.567138
O O12 0.736563 0.757115 0.659933
O O13 0.369355 0.582572 0.916275
O O14 0.067555 0.492000 0.830358
O O15 0.254532 0.463432 0.589807
#
# Coordination Sequence:
#
# PCOD9124331 Si02
#       8
#     4   4   4   2   4   4   4   4
#     4  10  22  40  67  91 120 174 206 254 318 363
#     4  10  23  42  67  92 120 170 201 256 323 372
#     4  11  22  39  61  91 125 170 211 251 307 366
#     4  12  26  40  68  98 120 152 214 266 306 382
#     4  10  20  44  65  84 129 169 202 249 319 371
#     4  11  24  36  61  95 127 164 215 265 297 355
#     4  10  23  44  62  95 124 158 210 255 319 379
#     4  10  21  44  62  86 133 164 209 253 318 371
#
# _framework density 21.439547999999998
#
# number of rings (size 3 to 8) (size 9 to 14) (size 15 to 20)
#    0.000    1.867    5.333    0.800    1.867    6.400 
#    0.000    0.000    0.000    0.000    0.000    0.000 
#    0.000    0.000    0.000    0.000    0.000    0.000 
#
# Total GULP energy -83828.627782 kJ/mol
# GULP energy per Si atom -5588.575185 kJ/mol
# Density = 2.139075 g / cm^3
# Si number density = 21.439548 Si / 1000 Ang^3
#
#
#
# Elastic Constant Matrix: (Units=GPa)
#
#
# Indices 1 2 3 4 5 6 
#
# 1 29.6558 26.5891 15.3577 0.0000 -0.5740 0.0000
# 2 26.5891 83.0472 16.8231 0.0000 -8.8925 0.0000
# 3 15.3577 16.8231 34.3587 0.0000 -0.4844 0.0000
# 4 0.0000 0.0000 0.0000 10.0858 0.0000 9.1024
# 5 -0.5740 -8.8925 -0.4844 0.0000 33.6914 0.0000
# 6 0.0000 0.0000 0.0000 9.1024 0.0000 37.4316
#
#
#
# Elastic Compliance Matrix: (Units=1/GPa)
#
#
# Indices 1 2 3 4 5 6 
#
# 1 0.056099 -0.014667 -0.017938 0.000000 -0.003173 0.000000
# 2 -0.014667 0.017611 -0.002006 0.000000 0.004370 0.000000
# 3 -0.017938 -0.002006 0.038101 0.000000 -0.000287 0.000000
# 4 0.000000 0.000000 0.000000 0.127028 0.000000 -0.030890
# 5 -0.003173 0.004370 -0.000287 0.000000 0.030776 0.000000
# 6 0.000000 0.000000 0.000000 -0.030890 0.000000 0.034227
#
#
# Mechanical properties :
#
#
# Convention : Reuss Voigt Hill
#
# Bulk Modulus (GPa) = 23.48027 29.40017 26.44022
# Shear Modulus (GPa) = 12.91120 22.12786 17.51953
#
# Velocity S-wave (km/s) = 2.45667 3.21612 2.86170
# Velocity P-wave (km/s) = 4.36149 5.24729 4.82476
#
# Compressibility (1/GPa) = 0.04258894
#
# Stress axis : x y z
#
# Youngs Moduli (GPa) = 17.82570 56.78125 26.24613
#
# Poissons Ratio (x) = 0.83281 0.47081
# Poissons Ratio (y) = 0.26145 0.05264
# Poissons Ratio (z) = 0.31976 0.11388
#
# Static dielectric constant tensor:
#      x y z
#    x 1.798250 0.000000 0.012590 
#    y 0.000000 1.784450 0.000000 
#    z 0.012590 0.000000 1.771780 
# 
# From -- ./inp_files/59586.got.cif
#   From: 2010.05.17/outbox.cif.g08.bks.cpg/sg5_30_cif.got.tgz:59586.got - 2010.06.03 18:56:24.
