data_PCOD9124104
_publ_section_title
;
Structure prediction by ZEFSAII (Michael W. Deem and Ramdas Pophale) SiO2 
 PCOD9124104
Probable space group: C 2
;
_chemical_formula_sum "Si O2"
_cell_formula_units_Z 22
_cell_length_a 11.250758
_cell_length_b 7.133048
_cell_length_c 12.068948
_cell_angle_alpha 90.000000
_cell_angle_beta 114.693179
_cell_angle_gamma 90.000000
_cell_volume 879.992485
_symmetry_space_group_name_H-M "C 2"
_symmetry_group_IT_number 5
_symmetry_cell_setting 'monoclinic'
loop_
_space_group_symop_operation_xyz
x,y,z
-x,y,-z
1/2+x,1/2+y,z
1/2-x,1/2+y,-z
loop_
_atom_site_type_symbol
_atom_site_label
_atom_site_fract_x
_atom_site_fract_y
_atom_site_fract_z
Si Si1 0.500000 0.394900 0.000000
Si Si2 0.816849 0.094509 0.682153
Si Si3 0.761727 0.951450 0.261449
Si Si4 0.611253 0.637494 0.887963
Si Si5 0.523217 0.019905 0.884766
Si Si6 0.855496 0.253548 0.452804
O O1 0.387420 0.546034 0.989635
O O2 0.466817 0.240202 0.084214
O O3 0.727563 0.229669 0.723336
O O4 0.963989 0.087242 0.787076
O O5 0.822343 0.195618 0.564620
O O6 0.750887 0.894379 0.638979
O O7 0.854816 0.065172 0.379172
O O8 0.785518 0.037142 0.150281
O O9 0.611650 0.996206 0.234320
O O10 0.620995 0.861780 0.877929
O O11 0.500000 0.939965 0.000000
O O12 0.000000 0.339578 0.500000
#
# Coordination Sequence:
#
# PCOD9124104 Si02
#       6
#     2   4   4   4   4   4
#     4  10  20  42  62  94 132 172 212 276 324 382
#     4  11  25  43  66  97 135 172 221 276 324 390
#     4  11  24  42  68 100 131 176 221 272 331 390
#     4  11  22  42  67  94 137 170 223 275 326 388
#     4   9  22  42  62  95 133 171 219 267 326 390
#     4  12  24  43  68  98 132 175 222 271 329 393
#
# _framework density 25.000215000000001
#
# number of rings (size 3 to 8) (size 9 to 14) (size 15 to 20)
#    0.545    0.727    4.545    1.091    0.000    5.091 
#    0.000    0.000    0.000    0.000    0.000    0.000 
#    0.000    0.000    0.000    0.000    0.000    0.000 
#
# Total GULP energy -61351.782976 kJ/mol
# GULP energy per Si atom -5577.434816 kJ/mol
# Density = 2.494331 g / cm^3
# Si number density = 25.000215 Si / 1000 Ang^3
#
#
#
# Elastic Constant Matrix: (Units=GPa)
#
#
# Indices 1 2 3 4 5 6 
#
# 1 79.4952 37.9275 15.5486 0.0000 7.9939 0.0000
# 2 37.9275 169.4279 29.4240 0.0000 -4.6379 0.0000
# 3 15.5486 29.4240 64.5221 0.0000 3.2179 0.0000
# 4 0.0000 0.0000 0.0000 43.0469 0.0000 -15.6689
# 5 7.9939 -4.6379 3.2179 0.0000 48.7557 0.0000
# 6 0.0000 0.0000 0.0000 -15.6689 0.0000 17.2965
#
#
#
# Elastic Compliance Matrix: (Units=1/GPa)
#
#
# Indices 1 2 3 4 5 6 
#
# 1 0.014666 -0.002999 -0.002039 0.000000 -0.002555 0.000000
# 2 -0.002999 0.007055 -0.002561 0.000000 0.001332 0.000000
# 3 -0.002039 -0.002561 0.017210 0.000000 -0.001045 0.000000
# 4 0.000000 0.000000 0.000000 0.034659 0.000000 0.031397
# 5 -0.002555 0.001332 -0.001045 0.000000 0.021125 0.000000
# 6 0.000000 0.000000 0.000000 0.031397 0.000000 0.086258
#
#
# Mechanical properties :
#
#
# Convention : Reuss Voigt Hill
#
# Bulk Modulus (GPa) = 42.13603 53.24948 47.69275
# Shear Modulus (GPa) = 24.50002 37.18951 30.84477
#
# Velocity S-wave (km/s) = 3.13388 3.86108 3.51633
# Velocity P-wave (km/s) = 5.47593 6.42053 5.96695
#
# Compressibility (1/GPa) = 0.02373266
#
# Stress axis : x y z
#
# Youngs Moduli (GPa) = 68.18514 141.74874 58.10594
#
# Poissons Ratio (x) = 0.42509 0.11849
# Poissons Ratio (y) = 0.20448 0.14880
# Poissons Ratio (z) = 0.13904 0.36301
#
# Static dielectric constant tensor:
#      x y z
#    x 1.975320 0.000000 -0.021400 
#    y 0.000000 1.956450 0.000000 
#    z -0.021400 0.000000 2.085790 
# 
# From -- ./inp_files/51894.got.cif
#   From: 2010.05.17/outbox.cif.g08.bks.cpg/sg5_26_cif.got.tgz:51894.got - 2010.06.03 18:56:24.
