data_PCOD9124264
_publ_section_title
;
Structure prediction by ZEFSAII (Michael W. Deem and Ramdas Pophale) SiO2 
 PCOD9124264
Probable space group: C 2
;
_chemical_formula_sum "Si O2"
_cell_formula_units_Z 18
_cell_length_a 14.440290
_cell_length_b 8.245729
_cell_length_c 7.281236
_cell_angle_alpha 90.000000
_cell_angle_beta 130.202673
_cell_angle_gamma 90.000000
_cell_volume 662.171300
_symmetry_space_group_name_H-M "C 2"
_symmetry_group_IT_number 5
_symmetry_cell_setting 'monoclinic'
loop_
_space_group_symop_operation_xyz
x,y,z
-x,y,-z
1/2+x,1/2+y,z
1/2-x,1/2+y,-z
loop_
_atom_site_type_symbol
_atom_site_label
_atom_site_fract_x
_atom_site_fract_y
_atom_site_fract_z
Si Si1 0.500000 0.025141 0.000000
Si Si2 0.156692 0.065432 0.060370
Si Si3 0.987934 0.783976 0.701752
Si Si4 0.236987 0.618114 0.428599
Si Si5 0.637129 0.815294 0.730896
O O1 0.451711 0.138184 0.105626
O O2 0.632367 0.978916 0.254867
O O3 0.281999 0.974722 0.173472
O O4 0.166263 0.084433 0.289541
O O5 0.054928 0.943791 0.855907
O O6 0.141246 0.233445 0.935411
O O7 0.850465 0.757261 0.593488
O O8 0.000000 0.772523 0.500000
O O9 0.305994 0.684579 0.339066
O O10 0.500000 0.849229 0.500000
#
# Coordination Sequence:
#
# PCOD9124264 Si02
#       5
#     2   4   4   4   4
#     4   8  20  40  74 100 132 190 246 282 368 414
#     4  12  26  48  76 107 148 194 244 305 369 434
#     4  10  20  42  77 101 136 192 243 293 358 428
#     4  10  24  44  74 102 146 190 244 293 364 436
#     4  12  29  47  71 113 146 192 247 301 368 436
#
# _framework density 27.183299999999999
#
# number of rings (size 3 to 8) (size 9 to 14) (size 15 to 20)
#    1.333    0.000    2.222    2.000    0.000   16.000 
#    0.000    0.000    0.000    0.000    0.000    0.000 
#    0.000    0.000    0.000    0.000    0.000    0.000 
#
# Total GULP energy -50379.581239 kJ/mol
# GULP energy per Si atom -5597.731249 kJ/mol
# Density = 2.712143 g / cm^3
# Si number density = 27.183300 Si / 1000 Ang^3
#
#
#
# Elastic Constant Matrix: (Units=GPa)
#
#
# Indices 1 2 3 4 5 6 
#
# 1 121.7662 10.6988 70.5532 0.0000 15.8746 0.0000
# 2 10.6988 56.9808 35.3893 0.0000 8.9708 0.0000
# 3 70.5532 35.3893 191.1169 0.0000 -7.0829 0.0000
# 4 0.0000 0.0000 0.0000 39.7415 0.0000 6.7710
# 5 15.8746 8.9708 -7.0829 0.0000 60.7532 0.0000
# 6 0.0000 0.0000 0.0000 6.7710 0.0000 36.8638
#
#
#
# Elastic Compliance Matrix: (Units=1/GPa)
#
#
# Indices 1 2 3 4 5 6 
#
# 1 0.011180 0.001265 -0.004496 0.000000 -0.003632 0.000000
# 2 0.001265 0.020685 -0.004442 0.000000 -0.003903 0.000000
# 3 -0.004496 -0.004442 0.007816 0.000000 0.002742 0.000000
# 4 0.000000 0.000000 0.000000 0.025975 0.000000 -0.004771
# 5 -0.003632 -0.003903 0.002742 0.000000 0.018305 0.000000
# 6 0.000000 0.000000 0.000000 -0.004771 0.000000 0.028003
#
#
# Mechanical properties :
#
#
# Convention : Reuss Voigt Hill
#
# Bulk Modulus (GPa) = 41.09183 67.01626 54.05405
# Shear Modulus (GPa) = 36.92121 44.35321 40.63721
#
# Velocity S-wave (km/s) = 3.68942 4.04373 3.87063
# Velocity P-wave (km/s) = 5.77048 6.81978 6.31695
#
# Compressibility (1/GPa) = 0.02433574
#
# Stress axis : x y z
#
# Youngs Moduli (GPa) = 89.44593 48.34306 127.93722
#
# Poissons Ratio (x) = -0.06116 0.57522
# Poissons Ratio (y) = -0.11316 0.56830
# Poissons Ratio (z) = 0.40216 0.21474
#
# Static dielectric constant tensor:
#      x y z
#    x 2.128940 0.000000 0.001820 
#    y 0.000000 2.165490 0.000000 
#    z 0.001820 0.000000 2.086390 
# 
# From -- ./inp_files/26368.got.cif
#   From: 2010.05.17/outbox.cif.g08.bks.cpg/sg5_14_cif.got.tgz:26368.got - 2010.06.03 18:56:24.
