data_PCOD9124926
_publ_section_title
;
Structure prediction by ZEFSAII (Michael W. Deem and Ramdas Pophale) SiO2 
 PCOD9124926
Probable space group: C 2
;
_chemical_formula_sum "Si O2"
_cell_formula_units_Z 28
_cell_length_a 13.488549
_cell_length_b 11.576933
_cell_length_c 8.976244
_cell_angle_alpha 90.000000
_cell_angle_beta 61.398805
_cell_angle_gamma 90.000000
_cell_volume 1230.650009
_symmetry_space_group_name_H-M "C 2"
_symmetry_group_IT_number 5
_symmetry_cell_setting 'monoclinic'
loop_
_space_group_symop_operation_xyz
x,y,z
-x,y,-z
1/2+x,1/2+y,z
1/2-x,1/2+y,-z
loop_
_atom_site_type_symbol
_atom_site_label
_atom_site_fract_x
_atom_site_fract_y
_atom_site_fract_z
Si Si1 0.755946 0.502910 0.748551
Si Si2 0.519540 0.547784 0.809037
Si Si3 0.000000 0.418128 0.000000
Si Si4 0.732093 0.241010 0.680063
Si Si5 0.513545 0.294476 0.170220
Si Si6 0.181414 0.597768 0.996861
Si Si7 0.439374 0.780673 0.315716
Si Si8 0.000000 0.472720 0.500000
O O1 0.656809 0.541622 0.710109
O O2 0.745668 0.364032 0.755144
O O3 0.741577 0.548584 0.926869
O O4 0.880713 0.536202 0.600878
O O5 0.474629 0.425367 0.782484
O O6 0.486760 0.664816 0.750250
O O7 0.500000 0.557217 0.000000
O O8 0.087174 0.502427 0.021887
O O9 0.928437 0.334408 0.159621
O O10 0.607116 0.241566 0.697096
O O11 0.828002 0.247552 0.487102
O O12 0.734753 0.141743 0.803413
O O13 0.615587 0.207183 0.116340
O O14 0.500000 0.303533 0.000000
O O15 0.494741 0.885247 0.365516
#
# Coordination Sequence:
#
# PCOD9124926 Si02
#       8
#     4   4   2   4   4   4   4   2
#     4  10  22  37  64  94 130 170 219 274 335 391
#     4  10  21  39  61  87 127 173 216 264 330 402
#     4  12  22  38  66  98 132 174 224 278 328 402
#     4   9  20  37  58  94 126 170 213 265 336 392
#     4   8  16  35  58  83 119 168 208 257 331 389
#     4  11  20  38  67  94 130 174 224 275 327 404
#     4  11  23  38  62  96 131 171 219 277 333 388
#     4  10  22  42  62  96 134 170 220 278 340 390
#
# _framework density 22.752203999999999
#
# number of rings (size 3 to 8) (size 9 to 14) (size 15 to 20)
#    0.000    2.000    4.286    0.857    0.000    8.000 
#    0.000    0.000    0.000    7.714    0.000    0.000 
#    0.000    0.000    0.000    0.000    0.000    0.000 
#
# Total GULP energy -78156.095432 kJ/mol
# GULP energy per Si atom -5582.578245 kJ/mol
# Density = 2.270042 g / cm^3
# Si number density = 22.752204 Si / 1000 Ang^3
#
#
#
# Elastic Constant Matrix: (Units=GPa)
#
#
# Indices 1 2 3 4 5 6 
#
# 1 41.6076 3.4354 23.1376 0.0000 -20.6392 0.0000
# 2 3.4354 105.6735 58.5018 0.0000 7.0703 0.0000
# 3 23.1376 58.5018 104.0223 0.0000 -14.8622 0.0000
# 4 0.0000 0.0000 0.0000 33.2360 0.0000 1.6443
# 5 -20.6392 7.0703 -14.8622 0.0000 31.1154 0.0000
# 6 0.0000 0.0000 0.0000 1.6443 0.0000 11.4907
#
#
#
# Elastic Compliance Matrix: (Units=1/GPa)
#
#
# Indices 1 2 3 4 5 6 
#
# 1 0.038320 0.000209 -0.005384 0.000000 0.022799 0.000000
# 2 0.000209 0.015490 -0.009918 0.000000 -0.008118 0.000000
# 3 -0.005384 -0.009918 0.017387 0.000000 0.006987 0.000000
# 4 0.000000 0.000000 0.000000 0.030302 0.000000 -0.004336
# 5 0.022799 -0.008118 0.006987 0.000000 0.052443 0.000000
# 6 0.000000 0.000000 0.000000 -0.004336 0.000000 0.087648
#
#
# Mechanical properties :
#
#
# Convention : Reuss Voigt Hill
#
# Bulk Modulus (GPa) = 24.38306 46.82810 35.60558
# Shear Modulus (GPa) = 17.51641 26.25033 21.88337
#
# Velocity S-wave (km/s) = 2.77768 3.40037 3.10468
# Velocity P-wave (km/s) = 4.58556 6.00360 5.34184
#
# Compressibility (1/GPa) = 0.04101208
#
# Stress axis : x y z
#
# Youngs Moduli (GPa) = 26.09609 64.55667 57.51384
#
# Poissons Ratio (x) = -0.01352 0.30965
# Poissons Ratio (y) = -0.00546 0.57043
# Poissons Ratio (z) = 0.14050 0.64028
#
# Static dielectric constant tensor:
#      x y z
#    x 1.948450 0.000000 -0.057760 
#    y 0.000000 1.858250 0.000000 
#    z -0.057760 0.000000 1.902250 
# 
# From -- ./inp_files/23808.got.cif
#   From: 2010.05.17/outbox.cif.g08.bks.cpg/sg5_12_cif.got.tgz:23808.got - 2010.06.03 18:56:24.
