data_PCOD9124470
_publ_section_title
;
Structure prediction by ZEFSAII (Michael W. Deem and Ramdas Pophale) SiO2 
 PCOD9124470
Probable space group: C 2
;
_chemical_formula_sum "Si O2"
_cell_formula_units_Z 32
_cell_length_a 12.558881
_cell_length_b 24.013287
_cell_length_c 5.139253
_cell_angle_alpha 90.000000
_cell_angle_beta 102.113351
_cell_angle_gamma 90.000000
_cell_volume 1515.386573
_symmetry_space_group_name_H-M "C 2"
_symmetry_group_IT_number 5
_symmetry_cell_setting 'monoclinic'
loop_
_space_group_symop_operation_xyz
x,y,z
-x,y,-z
1/2+x,1/2+y,z
1/2-x,1/2+y,-z
loop_
_atom_site_type_symbol
_atom_site_label
_atom_site_fract_x
_atom_site_fract_y
_atom_site_fract_z
Si Si1 0.384795 0.489820 0.867906
Si Si2 0.613502 0.851369 0.902543
Si Si3 0.204081 0.297895 0.444726
Si Si4 0.424071 0.686932 0.712175
Si Si5 0.880550 0.879970 0.570973
Si Si6 0.287007 0.956440 0.835861
Si Si7 0.624574 0.070533 0.091389
Si Si8 0.238960 0.087724 0.361881
O O1 0.398874 0.425011 0.806072
O O2 0.324283 0.528848 0.631701
O O3 0.500000 0.514448 0.000000
O O4 0.308195 0.489976 0.074333
O O5 0.690728 0.816656 0.137069
O O6 0.651552 0.915391 0.931917
O O7 0.500000 0.847811 0.000000
O O8 0.625538 0.828298 0.617758
O O9 0.161618 0.235035 0.413882
O O10 0.323972 0.320266 0.591533
O O11 0.500000 0.676632 0.500000
O O12 0.352847 0.633095 0.744451
O O13 0.500000 0.703039 0.000000
O O14 0.780324 0.913935 0.379831
O O15 0.000000 0.874968 0.500000
O O16 0.370019 0.005525 0.805437
O O17 0.693288 0.102224 0.346672
O O18 0.500000 0.087330 0.000000
O O19 0.680487 0.079566 0.840169
#
# Coordination Sequence:
#
# PCOD9124470 Si02
#       8
#     4   4   4   4   4   4   4   4
#     4  11  20  36  60  91 132 171 216 269 336 393
#     4  11  21  36  59  88 123 166 209 262 324 393
#     4  11  24  40  62  92 127 166 219 270 328 392
#     4  12  25  46  72  98 132 175 226 289 342 390
#     4  11  21  37  60  90 133 173 216 270 331 392
#     4  10  21  35  55  90 130 170 216 262 320 397
#     4  11  23  42  65  95 136 181 216 274 331 401
#     4  11  25  42  67 100 131 174 229 277 333 405
#
# _framework density 21.116724999999999
#
# number of rings (size 3 to 8) (size 9 to 14) (size 15 to 20)
#    0.000    1.000    3.750    4.125    0.000    1.500 
#    0.000    3.750    0.000    0.750    0.000    0.000 
#    0.000    0.000    0.000    0.000    0.000    0.000 
#
# Total GULP energy -89128.511798 kJ/mol
# GULP energy per Si atom -5570.531987 kJ/mol
# Density = 2.106866 g / cm^3
# Si number density = 21.116725 Si / 1000 Ang^3
#
#
#
# Elastic Constant Matrix: (Units=GPa)
#
#
# Indices 1 2 3 4 5 6 
#
# 1 106.5841 22.9466 22.0491 0.0000 1.1254 0.0000
# 2 22.9466 63.9863 4.7434 0.0000 2.6861 0.0000
# 3 22.0491 4.7434 82.8264 0.0000 3.9719 0.0000
# 4 0.0000 0.0000 0.0000 22.3835 0.0000 7.9661
# 5 1.1254 2.6861 3.9719 0.0000 31.5445 0.0000
# 6 0.0000 0.0000 0.0000 7.9661 0.0000 19.0263
#
#
#
# Elastic Compliance Matrix: (Units=1/GPa)
#
#
# Indices 1 2 3 4 5 6 
#
# 1 0.010716 -0.003657 -0.002656 0.000000 0.000264 0.000000
# 2 -0.003657 0.016991 0.000064 0.000000 -0.001324 0.000000
# 3 -0.002656 0.000064 0.012850 0.000000 -0.001529 0.000000
# 4 0.000000 0.000000 0.000000 0.052498 0.000000 -0.021980
# 5 0.000264 -0.001324 -0.001529 0.000000 0.031997 0.000000
# 6 0.000000 0.000000 0.000000 -0.021980 0.000000 0.061762
#
#
# Mechanical properties :
#
#
# Convention : Reuss Voigt Hill
#
# Bulk Modulus (GPa) = 35.63936 39.20836 37.42386
# Shear Modulus (GPa) = 23.96177 28.16803 26.06490
#
# Velocity S-wave (km/s) = 3.37223 3.65625 3.51711
# Velocity P-wave (km/s) = 5.66361 6.03589 5.85271
#
# Compressibility (1/GPa) = 0.02805886
#
# Stress axis : x y z
#
# Youngs Moduli (GPa) = 93.31592 58.85564 77.82025
#
# Poissons Ratio (x) = 0.21525 0.20669
# Poissons Ratio (y) = 0.34128 -0.00498
# Poissons Ratio (z) = 0.24784 -0.00377
#
# Static dielectric constant tensor:
#      x y z
#    x 1.798640 0.000000 0.050180 
#    y 0.000000 1.839910 0.000000 
#    z 0.050180 0.000000 1.817150 
# 
# From -- ./inp_files/6038.got.cif
#   From: 2010.05.17/outbox.cif.g08.bks.cpg/sg5_4_cif.got.tgz:6038.got - 2010.06.03 18:56:24.
