data_PCOD9124875
_publ_section_title
;
Structure prediction by ZEFSAII (Michael W. Deem and Ramdas Pophale) SiO2 
 PCOD9124875
Probable space group: C 2
;
_chemical_formula_sum "Si O2"
_cell_formula_units_Z 28
_cell_length_a 9.889261
_cell_length_b 14.615012
_cell_length_c 15.171200
_cell_angle_alpha 90.000000
_cell_angle_beta 35.526167
_cell_angle_gamma 90.000000
_cell_volume 1274.133449
_symmetry_space_group_name_H-M "C 2"
_symmetry_group_IT_number 5
_symmetry_cell_setting 'monoclinic'
loop_
_space_group_symop_operation_xyz
x,y,z
-x,y,-z
1/2+x,1/2+y,z
1/2-x,1/2+y,-z
loop_
_atom_site_type_symbol
_atom_site_label
_atom_site_fract_x
_atom_site_fract_y
_atom_site_fract_z
Si Si1 0.262284 0.811000 0.368636
Si Si2 0.879399 0.108852 0.653161
Si Si3 0.086042 0.104999 0.722553
Si Si4 0.640333 0.848244 0.017706
Si Si5 0.095725 0.678123 0.046942
Si Si6 0.047614 0.962820 0.874758
Si Si7 0.557492 0.829052 0.371802
O O1 0.276719 0.699794 0.360145
O O2 0.441943 0.841225 0.197873
O O3 0.353179 0.847544 0.412930
O O4 0.000000 0.840864 0.500000
O O5 0.015873 0.067450 0.663888
O O6 0.598706 0.109188 0.810375
O O7 0.914521 0.219340 0.640434
O O8 0.000000 0.076840 0.500000
O O9 0.837033 0.130038 0.896849
O O10 0.184806 0.034862 0.740898
O O11 0.500000 0.851519 0.000000
O O12 0.815519 0.760371 0.936632
O O13 0.812008 0.931803 0.949897
O O14 0.000000 0.707493 0.000000
O O15 0.214248 0.874875 0.788948
O O16 0.000000 0.993903 0.000000
O O17 0.500000 0.860613 0.500000
#
# Coordination Sequence:
#
# PCOD9124875 Si02
#       7
#     4   4   4   4   4   4   4
#     4  10  22  42  66  97 130 162 221 276 324 378
#     4   9  17  34  65  95 122 168 222 259 315 387
#     4   9  22  36  61  96 127 169 211 273 323 380
#     4  11  23  35  63  97 126 169 220 277 316 372
#     4   9  17  37  62  88 126 166 222 267 311 390
#     4  12  23  43  65  92 135 174 223 263 334 396
#     4  10  21  38  67  96 120 174 216 265 320 393
#
# _framework density 21.975719999999999
#
# number of rings (size 3 to 8) (size 9 to 14) (size 15 to 20)
#    0.000    2.000    2.857    1.286    2.000    5.714 
#    0.000    1.429    3.143    0.000    0.000    0.000 
#    0.000    0.000    0.000    0.000    0.000    0.000 
#
# Total GULP energy -78122.118667 kJ/mol
# GULP energy per Si atom -5580.151333 kJ/mol
# Density = 2.192570 g / cm^3
# Si number density = 21.975720 Si / 1000 Ang^3
#
#
#
# Elastic Constant Matrix: (Units=GPa)
#
#
# Indices 1 2 3 4 5 6 
#
# 1 138.7752 26.7203 31.1815 -0.0019 7.8475 0.0001
# 2 26.7203 40.9896 -2.9178 -0.0062 7.9575 0.0011
# 3 31.1815 -2.9178 78.8402 -0.0122 3.8369 0.0034
# 4 -0.0019 -0.0062 -0.0122 -0.1842 0.0043 -6.2882
# 5 7.8475 7.9575 3.8369 0.0043 48.6064 -0.0002
# 6 0.0001 0.0011 0.0034 -6.2882 -0.0002 -7.7175
#
#
#
# Elastic Compliance Matrix: (Units=1/GPa)
#
#
# Indices 1 2 3 4 5 6 
#
# 1 0.009309 -0.006315 -0.003908 -0.000017 -0.000161 0.000011
# 2 -0.006315 0.029584 0.003793 0.000055 -0.004123 -0.000039
# 3 -0.003908 0.003793 0.014425 0.000048 -0.001129 -0.000033
# 4 -0.000017 0.000055 0.000048 0.202449 -0.000029 -0.164956
# 5 -0.000161 -0.004123 -0.001129 -0.000029 0.021363 0.000022
# 6 0.000011 -0.000039 -0.000033 -0.164956 0.000022 0.004831
#
#
# Mechanical properties :
#
#
# Convention : Reuss Voigt Hill
#
# Bulk Modulus (GPa) = 24.71702 40.95257 32.83479
# Shear Modulus (GPa) = 16.21764 21.71568 18.96666
#
# Velocity S-wave (km/s) = 2.71953 3.14692 2.94100
# Velocity P-wave (km/s) = 4.59706 5.64624 5.14844
#
# Compressibility (1/GPa) = 0.04045796
#
# Stress axis : x y z
#
# Youngs Moduli (GPa) = 107.42337 33.80239 69.32556
#
# Poissons Ratio (x) = 0.21347 0.27090
# Poissons Ratio (y) = 0.67841 -0.26297
# Poissons Ratio (z) = 0.41977 -0.12822
#
# Static dielectric constant tensor:
#      x y z
#    x 1.826340 0.000000 -0.015800 
#    y 0.000000 1.884350 0.000000 
#    z -0.015800 0.000000 1.813160 
# 
# From -- ./inp_files/51339.got.cif
#   From: 2010.05.17/outbox.cif.g08.bks.cpg/sg5_26_cif.got.tgz:51339.got - 2010.06.03 18:56:24.
