data_PCOD9124010
_publ_section_title
;
Structure prediction by ZEFSAII (Michael W. Deem and Ramdas Pophale) SiO2 
 PCOD9124010
Probable space group: C 2
;
_chemical_formula_sum "Si O2"
_cell_formula_units_Z 22
_cell_length_a 20.899943
_cell_length_b 7.586523
_cell_length_c 10.152674
_cell_angle_alpha 90.000000
_cell_angle_beta 144.565502
_cell_angle_gamma 90.000000
_cell_volume 933.308999
_symmetry_space_group_name_H-M "C 2"
_symmetry_group_IT_number 5
_symmetry_cell_setting 'monoclinic'
loop_
_space_group_symop_operation_xyz
x,y,z
-x,y,-z
1/2+x,1/2+y,z
1/2-x,1/2+y,-z
loop_
_atom_site_type_symbol
_atom_site_label
_atom_site_fract_x
_atom_site_fract_y
_atom_site_fract_z
Si Si1 0.500000 0.092450 0.000000
Si Si2 0.269962 0.230521 0.969653
Si Si3 0.213158 0.348094 0.354166
Si Si4 0.768102 0.474704 0.333463
Si Si5 0.645999 0.436523 0.649550
Si Si6 0.497982 0.167692 0.709223
O O1 0.504372 0.204583 0.139403
O O2 0.603092 0.961806 0.162749
O O3 0.276669 0.387136 0.873777
O O4 0.161559 0.120343 0.750139
O O5 0.284974 0.302918 0.140871
O O6 0.379768 0.111913 0.127413
O O7 0.242350 0.345826 0.557920
O O8 0.209790 0.152693 0.287721
O O9 0.298171 0.446714 0.400224
O O10 0.896738 0.530598 0.522973
O O11 0.531704 0.342201 0.422692
#
# Coordination Sequence:
#
# PCOD9124010 Si02
#       6
#     2   4   4   4   4   4
#     4  10  20  42  70 100 136 178 218 274 342 382
#     4  12  24  46  67  94 137 180 218 281 332 397
#     4  10  20  41  64  98 132 171 220 275 325 396
#     4  10  23  42  68  97 134 173 224 274 336 390
#     4  11  23  40  69  95 132 176 225 268 334 392
#     4  10  23  43  67  97 133 175 216 275 330 398
#
# _framework density 23.572044000000002
#
# number of rings (size 3 to 8) (size 9 to 14) (size 15 to 20)
#    0.000    1.455    1.818    3.818    5.091    0.000 
#   13.091    1.818    0.000    0.000    0.000    0.000 
#    0.000    0.000    0.000    0.000    0.000    0.000 
#
# Total GULP energy -61452.615823 kJ/mol
# GULP energy per Si atom -5586.601438 kJ/mol
# Density = 2.351839 g / cm^3
# Si number density = 23.572044 Si / 1000 Ang^3
#
#
#
# Elastic Constant Matrix: (Units=GPa)
#
#
# Indices 1 2 3 4 5 6 
#
# 1 87.7618 6.4126 29.3027 0.0000 -11.5251 0.0000
# 2 6.4126 88.1831 31.2716 0.0000 -19.8823 0.0000
# 3 29.3027 31.2716 108.1371 0.0000 -21.0029 0.0000
# 4 0.0000 0.0000 0.0000 39.8881 0.0000 -12.3169
# 5 -11.5251 -19.8823 -21.0029 0.0000 40.4235 0.0000
# 6 0.0000 0.0000 0.0000 -12.3169 0.0000 30.6780
#
#
#
# Elastic Compliance Matrix: (Units=1/GPa)
#
#
# Indices 1 2 3 4 5 6 
#
# 1 0.012717 0.000736 -0.003208 0.000000 0.002321 0.000000
# 2 0.000736 0.013576 -0.003101 0.000000 0.005276 0.000000
# 3 -0.003208 -0.003101 0.011723 0.000000 0.003651 0.000000
# 4 0.000000 0.000000 0.000000 0.028618 0.000000 0.011490
# 5 0.002321 0.005276 0.003651 0.000000 0.029892 0.000000
# 6 0.000000 0.000000 0.000000 0.011490 0.000000 0.037210
#
#
# Mechanical properties :
#
#
# Convention : Reuss Voigt Hill
#
# Bulk Modulus (GPa) = 37.21631 46.45063 41.83347
# Shear Modulus (GPa) = 32.50214 36.67092 34.58653
#
# Velocity S-wave (km/s) = 3.71731 3.94851 3.83465
# Velocity P-wave (km/s) = 5.85210 6.36681 6.11487
#
# Compressibility (1/GPa) = 0.02686994
#
# Stress axis : x y z
#
# Youngs Moduli (GPa) = 78.63734 73.66146 85.30535
#
# Poissons Ratio (x) = -0.05423 0.27366
# Poissons Ratio (y) = -0.05789 0.26450
# Poissons Ratio (z) = 0.25227 0.22839
#
# Static dielectric constant tensor:
#      x y z
#    x 1.871040 0.000000 0.010360 
#    y 0.000000 1.927760 0.000000 
#    z 0.010360 0.000000 1.888970 
# 
# From -- ./inp_files/22796.got.cif
#   From: 2010.05.17/outbox.cif.g08.bks.cpg/sg5_12_cif.got.tgz:22796.got - 2010.06.03 18:56:24.
