data_PCOD9124083
_publ_section_title
;
Structure prediction by ZEFSAII (Michael W. Deem and Ramdas Pophale) SiO2 
 PCOD9124083
Probable space group: C 2
;
_chemical_formula_sum "Si O2"
_cell_formula_units_Z 28
_cell_length_a 11.035243
_cell_length_b 19.423384
_cell_length_c 10.021656
_cell_angle_alpha 90.000000
_cell_angle_beta 137.598525
_cell_angle_gamma 90.000000
_cell_volume 1448.482423
_symmetry_space_group_name_H-M "C 2"
_symmetry_group_IT_number 5
_symmetry_cell_setting 'monoclinic'
loop_
_space_group_symop_operation_xyz
x,y,z
-x,y,-z
1/2+x,1/2+y,z
1/2-x,1/2+y,-z
loop_
_atom_site_type_symbol
_atom_site_label
_atom_site_fract_x
_atom_site_fract_y
_atom_site_fract_z
Si Si1 0.392933 0.510560 0.777703
Si Si2 0.608350 0.402201 0.449147
Si Si3 0.500000 0.064761 0.500000
Si Si4 0.617067 0.287189 0.229323
Si Si5 0.481030 0.138274 0.210529
Si Si6 0.000000 0.229065 0.500000
Si Si7 0.675969 0.014071 0.229306
Si Si8 0.097536 0.108598 0.769812
O O1 0.453514 0.454631 0.717956
O O2 0.463238 0.581454 0.772004
O O3 0.178808 0.518024 0.625239
O O4 0.500000 0.497057 0.000000
O O5 0.500000 0.388828 0.500000
O O6 0.622797 0.335106 0.366716
O O7 0.773550 0.447681 0.642838
O O8 0.464451 0.115903 0.348770
O O9 0.546826 0.213122 0.222611
O O10 0.822565 0.274987 0.353469
O O11 0.500000 0.307391 0.000000
O O12 0.616271 0.080591 0.264228
O O13 0.288214 0.128854 0.986208
O O14 0.012450 0.174870 0.631395
O O15 0.842254 0.045739 0.280077
O O16 0.500000 0.996812 0.000000
#
# Coordination Sequence:
#
# PCOD9124083 Si02
#       8
#     4   4   2   4   4   2   4   4
#     4  12  24  41  66 104 138 173 223 282 337 403
#     4  12  26  46  67  96 136 187 226 274 348 409
#     4  12  24  37  66 105 138 170 216 290 340 383
#     4  12  26  48  68  99 140 183 227 281 342 406
#     4  11  21  42  72 101 140 170 222 293 339 393
#     4  12  22  43  74  95 132 184 230 270 338 419
#     4  10  20  41  73 103 130 172 231 285 338 408
#     4  11  20  40  74 103 128 171 232 278 342 404
#
# _framework density 19.330577000000002
#
# number of rings (size 3 to 8) (size 9 to 14) (size 15 to 20)
#    0.000    0.571    7.143    2.571    1.000    0.571 
#    2.571    0.000    0.000    0.000    0.000    0.000 
#    0.000    0.000    0.000    0.000    0.000    0.000 
#
# Total GULP energy -78022.060193 kJ/mol
# GULP energy per Si atom -5573.004300 kJ/mol
# Density = 1.928658 g / cm^3
# Si number density = 19.330577 Si / 1000 Ang^3
#
#
#
# Elastic Constant Matrix: (Units=GPa)
#
#
# Indices 1 2 3 4 5 6 
#
# 1 103.2939 46.7403 50.2645 0.0000 -6.4741 0.0000
# 2 46.7403 102.5428 54.0695 0.0000 -7.9149 0.0000
# 3 50.2645 54.0695 134.0852 0.0000 -11.9150 0.0000
# 4 0.0000 0.0000 0.0000 -97.9822 0.0000 6.8163
# 5 -6.4741 -7.9149 -11.9150 0.0000 45.1273 0.0000
# 6 0.0000 0.0000 0.0000 6.8163 0.0000 11.8866
#
#
#
# Elastic Compliance Matrix: (Units=1/GPa)
#
#
# Indices 1 2 3 4 5 6 
#
# 1 0.013201 -0.004317 -0.003182 0.000000 0.000297 0.000000
# 2 -0.004317 0.013831 -0.003890 0.000000 0.000779 0.000000
# 3 -0.003182 -0.003890 0.010361 0.000000 0.001597 0.000000
# 4 0.000000 0.000000 0.000000 -0.009814 0.000000 0.005628
# 5 0.000297 0.000779 0.001597 0.000000 0.022760 0.000000
# 6 0.000000 0.000000 0.000000 0.005628 0.000000 0.080901
#
#
# Mechanical properties :
#
#
# Convention : Reuss Voigt Hill
#
# Bulk Modulus (GPa) = 68.41420 71.34116 69.87768
# Shear Modulus (GPa) = 31.46847 4.39616 17.93232
#
# Velocity S-wave (km/s) = 4.03912 1.50968 3.04906
# Velocity P-wave (km/s) = 7.56447 6.32652 6.97302
#
# Compressibility (1/GPa) = 0.01461685
#
# Stress axis : x y z
#
# Youngs Moduli (GPa) = 75.75011 72.30217 96.51482
#
# Poissons Ratio (x) = 0.31211 0.30708
# Poissons Ratio (y) = 0.32700 0.37542
# Poissons Ratio (z) = 0.24101 0.28124
#
# Static dielectric constant tensor:
#      x y z
#    x 2.373620 0.000000 0.177130 
#    y 0.000000 1.685860 0.000000 
#    z 0.177130 0.000000 1.776720 
# 
# From -- ./inp_files/40401.got.cif
#   From: 2010.05.17/outbox.cif.g08.bks.cpg/sg5_21_cif.got.tgz:40401.got - 2010.06.03 18:56:24.
