data_PCOD9124748
_publ_section_title
;
Structure prediction by ZEFSAII (Michael W. Deem and Ramdas Pophale) SiO2 
 PCOD9124748
Probable space group: C 2
;
_chemical_formula_sum "Si O2"
_cell_formula_units_Z 28
_cell_length_a 5.030632
_cell_length_b 33.207308
_cell_length_c 8.611334
_cell_angle_alpha 90.000000
_cell_angle_beta 116.930897
_cell_angle_gamma 90.000000
_cell_volume 1282.549173
_symmetry_space_group_name_H-M "C 2"
_symmetry_group_IT_number 5
_symmetry_cell_setting 'monoclinic'
loop_
_space_group_symop_operation_xyz
x,y,z
-x,y,-z
1/2+x,1/2+y,z
1/2-x,1/2+y,-z
loop_
_atom_site_type_symbol
_atom_site_label
_atom_site_fract_x
_atom_site_fract_y
_atom_site_fract_z
Si Si1 0.351265 0.576940 0.126726
Si Si2 0.837389 0.745497 0.792422
Si Si3 0.241262 0.291238 0.308014
Si Si4 0.168015 0.879788 0.714198
Si Si5 0.170776 0.427175 0.712408
Si Si6 0.152163 0.166555 0.873400
Si Si7 0.154589 0.005683 0.380769
O O1 0.450427 0.622166 0.204420
O O2 0.462407 0.543298 0.274005
O O3 0.500000 0.569794 0.000000
O O4 0.000000 0.574768 0.000000
O O5 0.576566 0.778297 0.709255
O O6 0.663507 0.702737 0.751954
O O7 0.111195 0.755082 0.751730
O O8 0.000000 0.748982 0.000000
O O9 0.500000 0.297382 0.500000
O O10 0.215444 0.334921 0.222550
O O11 0.427517 0.913081 0.770949
O O12 0.000000 0.880209 0.500000
O O13 0.923756 0.893580 0.771717
O O14 0.322558 0.470900 0.744702
O O15 0.000000 0.426616 0.500000
O O16 0.500000 0.160886 0.000000
O O17 0.000000 0.176840 0.000000
O O18 0.500000 0.017589 0.500000
O O19 0.000000 0.990093 0.500000
#
# Coordination Sequence:
#
# PCOD9124748 Si02
#       7
#     4   4   4   4   4   4   4
#     4  10  21  38  60  82 111 152 193 229 276 340
#     4  11  21  37  59  81 109 148 189 227 275 336
#     4  11  22  36  56  85 114 141 182 236 285 327
#     4   9  17  30  50  75 103 140 183 221 262 322
#     4   9  16  29  50  76 104 140 182 222 262 320
#     4   9  18  35  58  81 105 147 199 230 259 334
#     4  11  21  35  57  88 117 142 185 241 288 327
#
# _framework density 21.831522
#
# number of rings (size 3 to 8) (size 9 to 14) (size 15 to 20)
#    0.000    2.000    0.000    6.429    0.000    2.286 
#    0.000    2.143    0.000    8.571    0.000    0.000 
#    0.000    0.000    0.000    0.000    0.000    0.000 
#
# Total GULP energy -78054.913396 kJ/mol
# GULP energy per Si atom -5575.350957 kJ/mol
# Density = 2.178183 g / cm^3
# Si number density = 21.831522 Si / 1000 Ang^3
#
#
#
# Elastic Constant Matrix: (Units=GPa)
#
#
# Indices 1 2 3 4 5 6 
#
# 1 119.0973 9.0914 4.9853 0.0000 2.2538 0.0000
# 2 9.0914 126.3494 11.2966 0.0000 5.0884 0.0000
# 3 4.9853 11.2966 24.1562 0.0000 5.2870 0.0000
# 4 0.0000 0.0000 0.0000 24.6829 0.0000 10.6857
# 5 2.2538 5.0884 5.2870 0.0000 22.0476 0.0000
# 6 0.0000 0.0000 0.0000 10.6857 0.0000 66.2862
#
#
#
# Elastic Compliance Matrix: (Units=1/GPa)
#
#
# Indices 1 2 3 4 5 6 
#
# 1 0.008500 -0.000466 -0.001446 0.000000 -0.000415 0.000000
# 2 -0.000466 0.008308 -0.003567 0.000000 -0.001014 0.000000
# 3 -0.001446 -0.003567 0.045541 0.000000 -0.009950 0.000000
# 4 0.000000 0.000000 0.000000 0.043554 0.000000 -0.007021
# 5 -0.000415 -0.001014 -0.009950 0.000000 0.048019 0.000000
# 6 0.000000 0.000000 0.000000 -0.007021 0.000000 0.016218
#
#
# Mechanical properties :
#
#
# Convention : Reuss Voigt Hill
#
# Bulk Modulus (GPa) = 19.45797 35.59436 27.52617
# Shear Modulus (GPa) = 25.22351 38.88532 32.05441
#
# Velocity S-wave (km/s) = 3.40276 4.22495 3.83595
# Velocity P-wave (km/s) = 4.93665 6.33560 5.67936
#
# Compressibility (1/GPa) = 0.05139282
#
# Stress axis : x y z
#
# Youngs Moduli (GPa) = 117.64134 120.36824 21.95804
#
# Poissons Ratio (x) = 0.05605 0.03175
# Poissons Ratio (y) = 0.05478 0.07832
# Poissons Ratio (z) = 0.17008 0.42935
#
# Static dielectric constant tensor:
#      x y z
#    x 1.672040 0.000000 0.069690 
#    y 0.000000 1.905190 0.000000 
#    z 0.069690 0.000000 1.725310 
# 
# From -- ./inp_files/13388.got.cif
#   From: 2010.05.17/outbox.cif.g08.bks.cpg/sg5_7_cif.got.tgz:13388.got - 2010.06.03 18:56:24.
