data_PCOD9124110
_publ_section_title
;
Structure prediction by ZEFSAII (Michael W. Deem and Ramdas Pophale) SiO2 
 PCOD9124110
Probable space group: C 2
;
_chemical_formula_sum "Si O2"
_cell_formula_units_Z 32
_cell_length_a 23.450505
_cell_length_b 9.006393
_cell_length_c 23.647211
_cell_angle_alpha 90.000000
_cell_angle_beta 161.396615
_cell_angle_gamma 90.000000
_cell_volume 1593.288918
_symmetry_space_group_name_H-M "C 2"
_symmetry_group_IT_number 5
_symmetry_cell_setting 'monoclinic'
loop_
_space_group_symop_operation_xyz
x,y,z
-x,y,-z
1/2+x,1/2+y,z
1/2-x,1/2+y,-z
loop_
_atom_site_type_symbol
_atom_site_label
_atom_site_fract_x
_atom_site_fract_y
_atom_site_fract_z
Si Si1 0.451822 0.000000 0.222892
Si Si2 0.103403 0.076226 0.539510
Si Si3 0.139342 0.081257 0.397751
Si Si4 0.667398 0.825128 0.197157
Si Si5 0.595693 0.305748 0.689081
Si Si6 0.324357 0.334867 0.115102
Si Si7 0.392842 0.835181 0.538587
Si Si8 0.775772 0.133430 0.644014
O O1 0.665259 0.005645 0.413648
O O2 0.386174 0.169866 0.155289
O O3 0.445163 0.928752 0.280162
O O4 0.335659 0.900207 0.072132
O O5 0.098186 0.237316 0.508685
O O6 0.000000 0.084658 0.500000
O O7 0.277236 0.976480 0.717845
O O8 0.989108 0.969079 0.392294
O O9 0.139625 0.208570 0.445067
O O10 0.132223 0.163991 0.329865
O O11 0.986587 0.955384 0.260623
O O12 0.818831 0.779876 0.292503
O O13 0.641727 0.700146 0.221279
O O14 0.500000 0.850718 0.000000
O O15 0.722483 0.310903 0.862624
O O16 0.425928 0.200884 0.542604
O O17 0.245258 0.956845 0.382803
#
# Coordination Sequence:
#
# PCOD9124110 Si02
#       8
#     4   4   4   4   4   4   4   4
#     4  11  25  38  62  99 128 177 215 270 328 393
#     4   9  20  38  64  87 116 166 214 265 322 384
#     4  11  23  42  67  95 137 176 218 268 335 399
#     4  10  23  41  65  93 123 170 226 273 331 389
#     4  10  20  42  63  88 126 170 218 269 315 399
#     4  12  23  42  64  97 139 171 227 268 325 402
#     4  11  21  38  65  93 126 169 214 264 336 387
#     4  10  22  39  63  92 123 171 211 268 326 392
#
# _framework density 20.084240999999999
#
# number of rings (size 3 to 8) (size 9 to 14) (size 15 to 20)
#    0.000    1.500    3.750    3.375    0.000    4.000 
#    0.000    0.625    0.000    0.000    0.000    0.000 
#    0.000    0.000    0.000    0.000    0.000    0.000 
#
# Total GULP energy -89089.069552 kJ/mol
# GULP energy per Si atom -5568.066847 kJ/mol
# Density = 2.003853 g / cm^3
# Si number density = 20.084241 Si / 1000 Ang^3
#
#
#
# Elastic Constant Matrix: (Units=GPa)
#
#
# Indices 1 2 3 4 5 6 
#
# 1 69.0025 25.7008 33.3466 0.0005 -12.6149 0.0011
# 2 25.7008 120.5631 39.4714 -0.0029 -1.7279 -0.0020
# 3 33.3466 39.4714 96.1995 -0.0027 -22.8374 -0.0026
# 4 0.0005 -0.0029 -0.0027 30.3271 -0.0004 -9.4536
# 5 -12.6149 -1.7279 -22.8374 -0.0004 31.3820 -0.0002
# 6 0.0011 -0.0020 -0.0026 -9.4536 -0.0002 40.7484
#
#
#
# Elastic Compliance Matrix: (Units=1/GPa)
#
#
# Indices 1 2 3 4 5 6 
#
# 1 0.018237 -0.002393 -0.004389 -0.000001 0.004005 -0.000001
# 2 -0.002393 0.010107 -0.004126 0.000001 -0.003408 0.000000
# 3 -0.004389 -0.004126 0.015880 0.000002 0.009565 0.000001
# 4 -0.000001 0.000001 0.000002 0.035544 0.000001 0.008246
# 5 0.004005 -0.003408 0.009565 0.000001 0.040248 0.000001
# 6 -0.000001 0.000000 0.000001 0.008246 0.000001 0.026454
#
#
# Mechanical properties :
#
#
# Convention : Reuss Voigt Hill
#
# Bulk Modulus (GPa) = 44.62956 53.64476 49.13716
# Shear Modulus (GPa) = 28.44851 32.97460 30.71156
#
# Velocity S-wave (km/s) = 3.76767 4.05633 3.91466
# Velocity P-wave (km/s) = 6.41845 6.97899 6.70458
#
# Compressibility (1/GPa) = 0.02240667
#
# Stress axis : x y z
#
# Youngs Moduli (GPa) = 54.83409 98.94418 62.97173
#
# Poissons Ratio (x) = 0.23681 0.27637
# Poissons Ratio (y) = 0.13124 0.25985
# Poissons Ratio (z) = 0.24065 0.40828
#
# Static dielectric constant tensor:
#      x y z
#    x 1.970990 0.000000 -0.087310 
#    y 0.000000 1.756690 0.000000 
#    z -0.087310 0.000000 1.794930 
# 
# From -- ./inp_files/69674.got.cif
#   From: 2010.05.17/outbox.cif.g08.bks.cpg/sg5_35_cif.got.tgz:69674.got - 2010.06.03 18:56:24.
