data_PCOD9124933
_publ_section_title
;
Structure prediction by ZEFSAII (Michael W. Deem and Ramdas Pophale) SiO2 
 PCOD9124933
Probable space group: C 2
;
_chemical_formula_sum "Si O2"
_cell_formula_units_Z 32
_cell_length_a 16.731420
_cell_length_b 16.616348
_cell_length_c 12.236224
_cell_angle_alpha 90.000000
_cell_angle_beta 27.401500
_cell_angle_gamma 90.000000
_cell_volume 1565.612010
_symmetry_space_group_name_H-M "C 2"
_symmetry_group_IT_number 5
_symmetry_cell_setting 'monoclinic'
loop_
_space_group_symop_operation_xyz
x,y,z
-x,y,-z
1/2+x,1/2+y,z
1/2-x,1/2+y,-z
loop_
_atom_site_type_symbol
_atom_site_label
_atom_site_fract_x
_atom_site_fract_y
_atom_site_fract_z
Si Si1 0.122528 0.372620 0.956301
Si Si2 0.987270 0.107886 0.885132
Si Si3 0.837583 0.362221 0.614851
Si Si4 0.896801 0.648568 0.732387
Si Si5 0.609613 0.437192 0.058797
Si Si6 0.427275 0.318156 0.439453
Si Si7 0.952099 0.491420 0.764550
Si Si8 0.142966 0.257176 0.612499
O O1 0.312476 0.348894 0.681470
O O2 0.102699 0.451300 0.055041
O O3 0.000000 0.382607 0.000000
O O4 0.036403 0.300691 0.131199
O O5 0.803174 0.136961 0.058125
O O6 0.002000 0.013065 0.844728
O O7 0.000000 0.123805 0.000000
O O8 0.125224 0.162853 0.655101
O O9 0.664764 0.378879 0.893512
O O10 0.822273 0.288135 0.550852
O O11 0.000000 0.348387 0.500000
O O12 0.886930 0.441227 0.481613
O O13 0.959580 0.587635 0.751068
O O14 0.000000 0.620322 0.500000
O O15 0.954349 0.739926 0.683843
O O16 0.794069 0.471970 0.874234
O O17 0.530458 0.389665 0.256243
O O18 0.286757 0.290595 0.519967
#
# Coordination Sequence:
#
# PCOD9124933 Si02
#       8
#     4   4   4   4   4   4   4   4
#     4   9  19  38  61  88 125 166 202 248 315 374
#     4  11  23  40  63  91 125 161 209 260 311 368
#     4   9  19  36  64  88 123 166 205 248 312 377
#     4  11  22  37  64  94 122 156 214 264 302 360
#     4  10  23  38  61  92 123 165 205 257 310 366
#     4  11  24  38  62  96 123 162 210 260 307 366
#     4   9  19  38  60  91 120 160 207 251 313 365
#     4  10  21  39  61  91 122 160 208 255 314 363
#
# _framework density 20.439291000000001
#
# number of rings (size 3 to 8) (size 9 to 14) (size 15 to 20)
#    0.000    2.000    0.000    4.500    8.750    0.000 
#    6.750    1.250    0.000    0.000    0.000    0.000 
#    0.000    0.000    0.000    0.000    0.000    0.000 
#
# Total GULP energy -89360.253113 kJ/mol
# GULP energy per Si atom -5585.015820 kJ/mol
# Density = 2.039277 g / cm^3
# Si number density = 20.439291 Si / 1000 Ang^3
#
#
#
# Elastic Constant Matrix: (Units=GPa)
#
#
# Indices 1 2 3 4 5 6 
#
# 1 60.1906 40.5994 14.2711 -0.0046 17.4562 0.0030
# 2 40.5994 115.7621 34.0459 -0.0037 22.5304 0.0027
# 3 14.2711 34.0459 62.9645 -0.0057 17.5542 0.0045
# 4 -0.0046 -0.0037 -0.0057 24.0264 0.0036 7.8873
# 5 17.4562 22.5304 17.5542 0.0036 32.6000 -0.0027
# 6 0.0030 0.0027 0.0045 7.8873 -0.0027 24.9324
#
#
#
# Elastic Compliance Matrix: (Units=1/GPa)
#
#
# Indices 1 2 3 4 5 6 
#
# 1 0.023431 -0.006818 0.000659 0.000007 -0.008190 -0.000005
# 2 -0.006818 0.012946 -0.004681 0.000000 -0.002776 0.000000
# 3 0.000659 -0.004681 0.020544 0.000008 -0.008180 -0.000007
# 4 0.000007 0.000000 0.000008 0.046444 -0.000014 -0.014693
# 5 -0.008190 -0.002776 -0.008180 -0.000014 0.041384 0.000012
# 6 -0.000005 0.000000 -0.000007 -0.014693 0.000012 0.044756
#
#
# Mechanical properties :
#
#
# Convention : Reuss Voigt Hill
#
# Bulk Modulus (GPa) = 28.37475 46.30555 37.34015
# Shear Modulus (GPa) = 22.42818 26.31181 24.36999
#
# Velocity S-wave (km/s) = 3.31616 3.59181 3.45673
# Velocity P-wave (km/s) = 5.34557 6.31710 5.85153
#
# Compressibility (1/GPa) = 0.03524261
#
# Stress axis : x y z
#
# Youngs Moduli (GPa) = 42.67779 77.24101 48.67510
#
# Poissons Ratio (x) = 0.52659 -0.03207
# Poissons Ratio (y) = 0.29096 0.22785
# Poissons Ratio (z) = -0.02812 0.36158
#
# Static dielectric constant tensor:
#      x y z
#    x 1.766830 0.000000 -0.048160 
#    y 0.000000 1.752120 0.000000 
#    z -0.048160 0.000000 1.751410 
# 
# From -- ./inp_files/44971.got.cif
#   From: 2010.05.17/outbox.cif.g08.bks.cpg/sg5_23_cif.got.tgz:44971.got - 2010.06.03 18:56:24.
