data_PCOD9124416
_publ_section_title
;
Structure prediction by ZEFSAII (Michael W. Deem and Ramdas Pophale) SiO2 
 PCOD9124416
Probable space group: C 2
;
_chemical_formula_sum "Si O2"
_cell_formula_units_Z 28
_cell_length_a 32.604406
_cell_length_b 4.981580
_cell_length_c 11.392382
_cell_angle_alpha 90.000000
_cell_angle_beta 146.815796
_cell_angle_gamma 90.000000
_cell_volume 1012.766175
_symmetry_space_group_name_H-M "C 2"
_symmetry_group_IT_number 5
_symmetry_cell_setting 'monoclinic'
loop_
_space_group_symop_operation_xyz
x,y,z
-x,y,-z
1/2+x,1/2+y,z
1/2-x,1/2+y,-z
loop_
_atom_site_type_symbol
_atom_site_label
_atom_site_fract_x
_atom_site_fract_y
_atom_site_fract_z
Si Si1 0.000000 0.037020 0.000000
Si Si2 0.314761 0.272025 0.317248
Si Si3 0.127644 0.557065 0.989946
Si Si4 0.337469 0.478084 0.114848
Si Si5 0.520447 0.218908 0.296728
Si Si6 0.210978 0.058510 0.296420
Si Si7 0.661497 0.715393 0.427480
Si Si8 0.500000 0.532726 0.500000
O O1 0.074691 0.215094 0.187770
O O2 0.001987 0.867612 0.128053
O O3 0.321214 0.433173 0.210261
O O4 0.394784 0.114619 0.511327
O O5 0.239231 0.100268 0.118587
O O6 0.321659 0.516411 0.426240
O O7 0.175081 0.310627 0.147366
O O8 0.296414 0.999313 0.462346
O O9 0.143126 0.690303 0.899727
O O10 0.042968 0.501350 0.828171
O O11 0.415123 0.647908 0.281973
O O12 0.342059 0.310560 0.862745
O O13 0.512027 0.384867 0.400927
O O14 0.204383 0.096712 0.418002
#
# Coordination Sequence:
#
# PCOD9124416 Si02
#       8
#     2   4   4   4   4   4   4   2
#     4  10  20  46  82 120 172 216 274 366 428 506
#     4  10  24  46  84 127 170 215 277 354 430 498
#     4  11  26  49  83 114 161 216 282 333 410 500
#     4  10  23  45  81 121 166 218 275 349 419 496
#     4   9  19  45  78 120 163 217 277 346 423 497
#     4  12  27  48  82 118 161 220 276 341 397 507
#     4  11  26  49  83 121 167 221 288 340 430 501
#     4   8  18  40  74 118 160 214 280 328 410 502
#
# _framework density 27.647051999999999
#
# number of rings (size 3 to 8) (size 9 to 14) (size 15 to 20)
#    0.000    1.714    1.429    0.857    6.000    0.000 
#    0.000    6.429    3.143   14.571    0.000    0.000 
#    0.000    0.000    0.000    0.000    0.000    0.000 
#
# Total GULP energy -78397.374306 kJ/mol
# GULP energy per Si atom -5599.812450 kJ/mol
# Density = 2.758413 g / cm^3
# Si number density = 27.647052 Si / 1000 Ang^3
#
#
#
# Elastic Constant Matrix: (Units=GPa)
#
#
# Indices 1 2 3 4 5 6 
#
# 1 196.4054 50.4676 108.0302 0.0000 30.6984 0.0000
# 2 50.4676 126.5304 66.3080 0.0000 28.1780 0.0000
# 3 108.0302 66.3080 225.6729 0.0000 35.8912 0.0000
# 4 0.0000 0.0000 0.0000 39.7824 0.0000 16.1925
# 5 30.6984 28.1780 35.8912 0.0000 91.4870 0.0000
# 6 0.0000 0.0000 0.0000 16.1925 0.0000 23.4670
#
#
#
# Elastic Compliance Matrix: (Units=1/GPa)
#
#
# Indices 1 2 3 4 5 6 
#
# 1 0.007138 -0.001101 -0.002951 0.000000 -0.000899 0.000000
# 2 -0.001101 0.009839 -0.002070 0.000000 -0.001849 0.000000
# 3 -0.002951 -0.002070 0.006605 0.000000 -0.000964 0.000000
# 4 0.000000 0.000000 0.000000 0.034953 0.000000 -0.024118
# 5 -0.000899 -0.001849 -0.000964 0.000000 0.012180 0.000000
# 6 0.000000 0.000000 0.000000 -0.024118 0.000000 0.059255
#
#
# Mechanical properties :
#
#
# Convention : Reuss Voigt Hill
#
# Bulk Modulus (GPa) = 88.18847 110.91335 99.55091
# Shear Modulus (GPa) = 34.24866 52.53416 43.39141
#
# Velocity S-wave (km/s) = 3.52345 4.36383 3.96596
# Velocity P-wave (km/s) = 6.96564 8.09909 7.55366
#
# Compressibility (1/GPa) = 0.01133935
#
# Stress axis : x y z
#
# Youngs Moduli (GPa) = 140.10201 101.63921 151.39873
#
# Poissons Ratio (x) = 0.11186 0.44671
# Poissons Ratio (y) = 0.15419 0.31339
# Poissons Ratio (z) = 0.41338 0.21039
#
# Static dielectric constant tensor:
#      x y z
#    x 2.258920 0.000000 -0.002280 
#    y 0.000000 2.188160 0.000000 
#    z -0.002280 0.000000 2.241140 
# 
# From -- ./inp_files/31700.got.cif
#   From: 2010.05.17/outbox.cif.g08.bks.cpg/sg5_16_cif.got.tgz:31700.got - 2010.06.03 18:56:24.
