data_PCOD9124505
_publ_section_title
;
Structure prediction by ZEFSAII (Michael W. Deem and Ramdas Pophale) SiO2 
 PCOD9124505
Probable space group: C 2
;
_chemical_formula_sum "Si O2"
_cell_formula_units_Z 28
_cell_length_a 14.201058
_cell_length_b 8.834204
_cell_length_c 12.558923
_cell_angle_alpha 90.000000
_cell_angle_beta 65.477130
_cell_angle_gamma 90.000000
_cell_volume 1433.456072
_symmetry_space_group_name_H-M "C 2"
_symmetry_group_IT_number 5
_symmetry_cell_setting 'monoclinic'
loop_
_space_group_symop_operation_xyz
x,y,z
-x,y,-z
1/2+x,1/2+y,z
1/2-x,1/2+y,-z
loop_
_atom_site_type_symbol
_atom_site_label
_atom_site_fract_x
_atom_site_fract_y
_atom_site_fract_z
Si Si1 0.387905 0.323180 0.232397
Si Si2 0.251817 0.885131 0.246670
Si Si3 0.377688 0.119328 0.046758
Si Si4 0.599962 0.162393 0.201117
Si Si5 0.227654 0.593264 0.574500
Si Si6 0.014128 0.414632 0.619251
Si Si7 0.614058 0.657842 0.688880
O O1 0.367134 0.274760 0.120074
O O2 0.490803 0.234278 0.218366
O O3 0.301161 0.247561 0.349172
O O4 0.406688 0.497646 0.247258
O O5 0.162617 0.785273 0.237984
O O6 0.339580 0.770505 0.245814
O O7 0.305678 0.999916 0.140303
O O8 0.218225 0.982343 0.365560
O O9 0.500000 0.075618 0.000000
O O10 0.348663 0.128208 0.936866
O O11 0.574924 0.015204 0.283681
O O12 0.122084 0.506151 0.589928
O O13 0.298301 0.628495 0.441381
O O14 0.024479 0.251671 0.671141
O O15 0.000000 0.400238 0.500000
#
# Coordination Sequence:
#
# PCOD9124505 Si02
#       7
#     4   4   4   4   4   4   4
#     4   9  19  35  57  80 109 147 183 225 274 323
#     4  10  21  36  58  83 106 145 186 225 275 327
#     4   9  19  40  59  76 109 147 183 226 275 328
#     4  10  21  39  57  79 111 145 182 227 277 327
#     4   9  19  36  56  79 112 148 185 225 273 325
#     4  10  21  36  55  81 113 149 181 223 275 327
#     4  11  20  34  55  84 113 145 184 225 271 325
#
# _framework density 19.533208999999999
#
# number of rings (size 3 to 8) (size 9 to 14) (size 15 to 20)
#    0.000    2.286    0.000    5.143    0.000    3.429 
#    0.000   12.857    0.000    0.000    0.000    0.000 
#    0.000    0.000    0.000    0.000    0.000    0.000 
#
# Total GULP energy -78135.728076 kJ/mol
# GULP energy per Si atom -5581.123434 kJ/mol
# Density = 1.948875 g / cm^3
# Si number density = 19.533209 Si / 1000 Ang^3
#
#
#
# Elastic Constant Matrix: (Units=GPa)
#
#
# Indices 1 2 3 4 5 6 
#
# 1 35.6926 17.1640 28.1467 0.0000 19.3189 0.0000
# 2 17.1640 138.1113 55.7837 0.0000 15.1075 0.0000
# 3 28.1467 55.7837 109.7946 0.0000 20.3346 0.0000
# 4 0.0000 0.0000 0.0000 16.6960 0.0000 7.6894
# 5 19.3189 15.1075 20.3346 0.0000 32.1369 0.0000
# 6 0.0000 0.0000 0.0000 7.6894 0.0000 24.1432
#
#
#
# Elastic Compliance Matrix: (Units=1/GPa)
#
#
# Indices 1 2 3 4 5 6 
#
# 1 0.046596 -0.000209 -0.007555 0.000000 -0.023132 0.000000
# 2 -0.000209 0.009178 -0.004343 0.000000 -0.001441 0.000000
# 3 -0.007555 -0.004343 0.013629 0.000000 -0.002041 0.000000
# 4 0.000000 0.000000 0.000000 0.070190 0.000000 -0.022355
# 5 -0.023132 -0.001441 -0.002041 0.000000 0.046991 0.000000
# 6 0.000000 0.000000 0.000000 -0.022355 0.000000 0.048539
#
#
# Mechanical properties :
#
#
# Convention : Reuss Voigt Hill
#
# Bulk Modulus (GPa) = 22.12887 53.97637 38.05262
# Shear Modulus (GPa) = 18.22159 26.76217 22.49188
#
# Velocity S-wave (km/s) = 3.05758 3.70548 3.39701
# Velocity P-wave (km/s) = 4.88042 6.78237 5.90843
#
# Compressibility (1/GPa) = 0.04518983
#
# Stress axis : x y z
#
# Youngs Moduli (GPa) = 21.46129 108.95402 73.37300
#
# Poissons Ratio (x) = 0.02277 0.55431
# Poissons Ratio (y) = 0.00449 0.31864
# Poissons Ratio (z) = 0.16213 0.47315
#
# Static dielectric constant tensor:
#      x y z
#    x 1.741230 0.000000 -0.016560 
#    y 0.000000 1.688940 0.000000 
#    z -0.016560 0.000000 1.695400 
# 
# From -- ./inp_files/41687.got.cif
#   From: 2010.05.17/outbox.cif.g08.bks.cpg/sg5_21_cif.got.tgz:41687.got - 2010.06.03 18:56:24.
