data_PCOD9124697
_publ_section_title
;
Structure prediction by ZEFSAII (Michael W. Deem and Ramdas Pophale) SiO2 
 PCOD9124697
Probable space group: C 2
;
_chemical_formula_sum "Si O2"
_cell_formula_units_Z 20
_cell_length_a 7.733152
_cell_length_b 23.766277
_cell_length_c 7.005762
_cell_angle_alpha 90.000000
_cell_angle_beta 39.223044
_cell_angle_gamma 90.000000
_cell_volume 814.187394
_symmetry_space_group_name_H-M "C 2"
_symmetry_group_IT_number 5
_symmetry_cell_setting 'monoclinic'
loop_
_space_group_symop_operation_xyz
x,y,z
-x,y,-z
1/2+x,1/2+y,z
1/2-x,1/2+y,-z
loop_
_atom_site_type_symbol
_atom_site_label
_atom_site_fract_x
_atom_site_fract_y
_atom_site_fract_z
Si Si1 0.500000 0.907600 0.000000
Si Si2 0.940051 0.078779 0.826461
Si Si3 0.500000 0.335688 0.500000
Si Si4 0.554455 0.006451 0.679283
Si Si5 0.619098 0.748366 0.615135
Si Si6 0.887611 0.692205 0.895298
O O1 0.601961 0.947427 0.739804
O O2 0.771031 0.871246 0.811497
O O3 0.774964 0.135218 0.919429
O O4 0.216158 0.055427 0.495609
O O5 0.000000 0.085368 0.000000
O O6 0.723480 0.028978 0.991291
O O7 0.308525 0.299085 0.521516
O O8 0.500000 0.999902 0.500000
O O9 0.500000 0.754433 0.500000
O O10 0.828615 0.694378 0.462259
O O11 0.344443 0.735641 0.968456
O O12 0.000000 0.713160 0.000000
#
# Coordination Sequence:
#
# PCOD9124697 Si02
#       6
#     2   4   2   4   4   4
#     4  12  26  46  70 102 130 184 244 290 350 398
#     4  10  21  37  64  97 135 182 220 266 343 415
#     4  12  26  44  72 100 130 184 242 290 350 400
#     4  10  23  44  64  96 140 174 225 290 341 409
#     4  10  23  42  63  96 139 172 223 286 339 410
#     4  10  21  38  62  98 135 180 218 265 343 413
#
# _framework density 24.564371000000001
#
# number of rings (size 3 to 8) (size 9 to 14) (size 15 to 20)
#    0.000    1.600    0.000    3.600    4.200    0.800 
#    0.000    2.000    0.000    0.000    0.000    0.000 
#    0.000    0.000    0.000    0.000    0.000    0.000 
#
# Total GULP energy -55836.415433 kJ/mol
# GULP energy per Si atom -5583.641543 kJ/mol
# Density = 2.450846 g / cm^3
# Si number density = 24.564371 Si / 1000 Ang^3
#
#
#
# Elastic Constant Matrix: (Units=GPa)
#
#
# Indices 1 2 3 4 5 6 
#
# 1 136.8775 47.0453 39.6131 0.0000 -25.5729 0.0000
# 2 47.0453 109.0300 37.5080 0.0000 -23.4157 0.0000
# 3 39.6131 37.5080 142.7215 0.0000 -31.5797 0.0000
# 4 0.0000 0.0000 0.0000 46.6487 0.0000 -12.6191
# 5 -25.5729 -23.4157 -31.5797 0.0000 42.3362 0.0000
# 6 0.0000 0.0000 0.0000 -12.6191 0.0000 31.6282
#
#
#
# Elastic Compliance Matrix: (Units=1/GPa)
#
#
# Indices 1 2 3 4 5 6 
#
# 1 0.009213 -0.002926 -0.001096 0.000000 0.003129 0.000000
# 2 -0.002926 0.011716 -0.001466 0.000000 0.003619 0.000000
# 3 -0.001096 -0.001466 0.008827 0.000000 0.005112 0.000000
# 4 0.000000 0.000000 0.000000 0.024030 0.000000 0.009588
# 5 0.003129 0.003619 0.005112 0.000000 0.031325 0.000000
# 6 0.000000 0.000000 0.000000 0.009588 0.000000 0.035443
#
#
# Mechanical properties :
#
#
# Convention : Reuss Voigt Hill
#
# Bulk Modulus (GPa) = 53.24798 70.77355 62.01076
# Shear Modulus (GPa) = 36.28677 41.75346 39.02011
#
# Velocity S-wave (km/s) = 3.84762 4.12728 3.98990
# Velocity P-wave (km/s) = 6.43917 7.18238 6.82091
#
# Compressibility (1/GPa) = 0.01878005
#
# Stress axis : x y z
#
# Youngs Moduli (GPa) = 108.53739 85.35298 113.28743
#
# Poissons Ratio (x) = 0.24978 0.12413
# Poissons Ratio (y) = 0.31763 0.16609
# Poissons Ratio (z) = 0.11892 0.12513
#
# Static dielectric constant tensor:
#      x y z
#    x 1.978190 0.000000 0.034480 
#    y 0.000000 2.011210 0.000000 
#    z 0.034480 0.000000 2.043930 
# 
# From -- ./inp_files/17289.got.cif
#   From: 2010.05.17/outbox.cif.g08.bks.cpg/sg5_9_cif.got.tgz:17289.got - 2010.06.03 18:56:24.
