data_PCOD9124101
_publ_section_title
;
Structure prediction by ZEFSAII (Michael W. Deem and Ramdas Pophale) SiO2 
 PCOD9124101
Probable space group: C 2
;
_chemical_formula_sum "Si O2"
_cell_formula_units_Z 14
_cell_length_a 12.452199
_cell_length_b 7.385752
_cell_length_c 15.251380
_cell_angle_alpha 90.000000
_cell_angle_beta 153.030499
_cell_angle_gamma 90.000000
_cell_volume 636.125299
_symmetry_space_group_name_H-M "C 2"
_symmetry_group_IT_number 5
_symmetry_cell_setting 'monoclinic'
loop_
_space_group_symop_operation_xyz
x,y,z
-x,y,-z
1/2+x,1/2+y,z
1/2-x,1/2+y,-z
loop_
_atom_site_type_symbol
_atom_site_label
_atom_site_fract_x
_atom_site_fract_y
_atom_site_fract_z
Si Si1 0.160812 0.760620 0.441403
Si Si2 0.000000 0.758912 0.500000
Si Si3 0.865000 0.132551 0.223101
Si Si4 0.869258 0.583790 0.771331
O O1 0.441221 0.777436 0.665252
O O2 0.146114 0.675406 0.334336
O O3 0.041942 0.658553 0.438549
O O4 0.019943 0.948737 0.337676
O O5 0.769542 0.891378 0.326519
O O6 0.769598 0.182972 0.250102
O O7 0.641022 0.089757 0.999598
#
# Coordination Sequence:
#
# PCOD9124101 Si02
#       4
#     4   2   4   4
#     4  11  20  41  62  90 124 158 198 253 294 361
#     4  10  22  40  60  90 126 160 198 240 308 356
#     4  10  23  38  69  87 120 161 203 243 310 348
#     4  10  20  42  62  88 120 163 195 248 298 358
#
# _framework density 22.008241999999999
#
# number of rings (size 3 to 8) (size 9 to 14) (size 15 to 20)
#    0.000    1.714    5.714    0.000    4.000    0.000 
#    5.143    0.000    0.000    3.429    0.000    0.000 
#    0.000    0.000    0.000    0.000    0.000    0.000 
#
# Total GULP energy -39001.679920 kJ/mol
# GULP energy per Si atom -5571.668560 kJ/mol
# Density = 2.195815 g / cm^3
# Si number density = 22.008242 Si / 1000 Ang^3
#
#
#
# Elastic Constant Matrix: (Units=GPa)
#
#
# Indices 1 2 3 4 5 6 
#
# 1 200.7821 36.1841 92.5884 0.0001 -0.7938 -0.0002
# 2 36.1841 34.9833 30.2556 0.0015 9.6312 0.0005
# 3 92.5884 30.2556 178.9724 0.0031 20.2930 0.0015
# 4 0.0001 0.0015 0.0031 18.0975 0.0011 7.2302
# 5 -0.7938 9.6312 20.2930 0.0011 40.4388 0.0003
# 6 -0.0002 0.0005 0.0015 7.2302 0.0003 43.6859
#
#
#
# Elastic Compliance Matrix: (Units=1/GPa)
#
#
# Indices 1 2 3 4 5 6 
#
# 1 0.007564 -0.005862 -0.003284 0.000001 0.003193 0.000000
# 2 -0.005862 0.039193 -0.002674 -0.000002 -0.008108 0.000000
# 3 -0.003284 -0.002674 0.008136 -0.000001 -0.003511 0.000000
# 4 0.000001 -0.000002 -0.000001 0.059169 -0.000001 -0.009793
# 5 0.003193 -0.008108 -0.003511 -0.000001 0.028484 0.000000
# 6 0.000000 0.000000 0.000000 -0.009793 0.000000 0.024511
#
#
# Mechanical properties :
#
#
# Convention : Reuss Voigt Hill
#
# Bulk Modulus (GPa) = 31.99633 81.42157 56.70895
# Shear Modulus (GPa) = 24.86130 37.49175 31.17653
#
# Velocity S-wave (km/s) = 3.36465 4.13186 3.76784
# Velocity P-wave (km/s) = 5.44650 7.73559 6.68968
#
# Compressibility (1/GPa) = 0.03125358
#
# Stress axis : x y z
#
# Youngs Moduli (GPa) = 132.20383 25.51469 122.90337
#
# Poissons Ratio (x) = 0.14958 0.40363
# Poissons Ratio (y) = 0.77503 0.32858
# Poissons Ratio (z) = 0.43417 0.06821
#
# Static dielectric constant tensor:
#      x y z
#    x 1.857530 0.000000 -0.029440 
#    y 0.000000 1.880600 0.000000 
#    z -0.029440 0.000000 1.836090 
# 
# From -- ./inp_files/14397.got.cif
#   From: 2010.05.17/outbox.cif.g08.bks.cpg/sg5_8_cif.got.tgz:14397.got - 2010.06.03 18:56:24.
