data_PCOD9124130
_publ_section_title
;
Structure prediction by ZEFSAII (Michael W. Deem and Ramdas Pophale) SiO2 
 PCOD9124130
Probable space group: C 2
;
_chemical_formula_sum "Si O2"
_cell_formula_units_Z 30
_cell_length_a 12.631259
_cell_length_b 13.331881
_cell_length_c 9.056662
_cell_angle_alpha 90.000000
_cell_angle_beta 103.633603
_cell_angle_gamma 90.000000
_cell_volume 1482.154132
_symmetry_space_group_name_H-M "C 2"
_symmetry_group_IT_number 5
_symmetry_cell_setting 'monoclinic'
loop_
_space_group_symop_operation_xyz
x,y,z
-x,y,-z
1/2+x,1/2+y,z
1/2-x,1/2+y,-z
loop_
_atom_site_type_symbol
_atom_site_label
_atom_site_fract_x
_atom_site_fract_y
_atom_site_fract_z
Si Si1 0.500000 0.925451 0.000000
Si Si2 0.725325 0.432855 0.237127
Si Si3 0.987802 0.947727 0.656797
Si Si4 0.146919 0.052265 0.921522
Si Si5 0.323650 0.990623 0.736956
Si Si6 0.184815 0.799064 0.710110
Si Si7 0.869102 0.588978 0.449241
Si Si8 0.690842 0.781348 0.951277
O O1 0.557118 0.985386 0.150756
O O2 0.403692 0.857589 0.032404
O O3 0.634116 0.423599 0.334034
O O4 0.824665 0.499910 0.329656
O O5 0.761572 0.325486 0.184735
O O6 0.674552 0.493241 0.080383
O O7 0.000000 0.998808 0.500000
O O8 0.067132 0.851914 0.667560
O O9 0.039756 0.012557 0.805035
O O10 0.142979 0.170708 0.936983
O O11 0.243695 0.029168 0.838135
O O12 0.274973 0.879754 0.683039
O O13 0.325068 0.060702 0.596257
O O14 0.178752 0.694164 0.624334
O O15 0.217298 0.782865 0.891594
O O16 0.000000 0.592956 0.500000
#
# Coordination Sequence:
#
# PCOD9124130 Si02
#       8
#     2   4   4   4   4   4   4   4
#     4  10  20  42  64  90 136 176 208 278 320 384
#     4  12  23  44  68  98 131 174 225 270 330 396
#     4  11  24  43  68  96 135 171 217 279 335 387
#     4  11  23  41  66 100 125 174 222 268 327 395
#     4  10  23  43  65  91 140 170 221 273 332 386
#     4  10  22  44  64  96 132 172 215 277 333 379
#     4  12  26  41  68  97 132 180 218 272 338 396
#     4  11  23  39  67  97 131 171 223 269 321 394
#
# _framework density 20.240808999999999
#
# number of rings (size 3 to 8) (size 9 to 14) (size 15 to 20)
#    0.000    1.067    5.333    3.200    1.867    3.200 
#    0.000    2.000    0.000    0.000    0.000    0.000 
#    0.000    0.000    0.000    0.000    0.000    0.000 
#
# Total GULP energy -83816.357431 kJ/mol
# GULP energy per Si atom -5587.757162 kJ/mol
# Density = 2.019474 g / cm^3
# Si number density = 20.240809 Si / 1000 Ang^3
#
#
#
# Elastic Constant Matrix: (Units=GPa)
#
#
# Indices 1 2 3 4 5 6 
#
# 1 75.5492 -8.2277 26.5763 0.0000 -1.7959 0.0000
# 2 -8.2277 59.5841 14.1646 0.0000 2.7361 0.0000
# 3 26.5763 14.1646 101.4615 0.0000 6.5039 0.0000
# 4 0.0000 0.0000 0.0000 18.0934 0.0000 -5.9386
# 5 -1.7959 2.7361 6.5039 0.0000 37.7417 0.0000
# 6 0.0000 0.0000 0.0000 -5.9386 0.0000 2.8818
#
#
#
# Elastic Compliance Matrix: (Units=1/GPa)
#
#
# Indices 1 2 3 4 5 6 
#
# 1 0.015185 0.003107 -0.004493 0.000000 0.001272 0.000000
# 2 0.003107 0.018022 -0.003292 0.000000 -0.000591 0.000000
# 3 -0.004493 -0.003292 0.011619 0.000000 -0.001977 0.000000
# 4 0.000000 0.000000 0.000000 0.170781 0.000000 0.351935
# 5 0.001272 -0.000591 -0.001977 0.000000 0.026940 0.000000
# 6 0.000000 0.000000 0.000000 0.351935 0.000000 1.072259
#
#
# Mechanical properties :
#
#
# Convention : Reuss Voigt Hill
#
# Bulk Modulus (GPa) = 28.19269 33.51345 30.85307
# Shear Modulus (GPa) = 3.74256 25.34880 14.54568
#
# Velocity S-wave (km/s) = 1.36126 3.54271 2.68364
# Velocity P-wave (km/s) = 4.05334 5.77302 4.98785
#
# Compressibility (1/GPa) = 0.03547019
#
# Stress axis : x y z
#
# Youngs Moduli (GPa) = 65.85272 55.48880 86.06539
#
# Poissons Ratio (x) = -0.17238 0.38667
# Poissons Ratio (y) = -0.20457 0.28330
# Poissons Ratio (z) = 0.29586 0.18265
#
# Static dielectric constant tensor:
#      x y z
#    x 1.714430 0.000000 0.020350 
#    y 0.000000 1.709410 0.000000 
#    z 0.020350 0.000000 1.759030 
# 
# From -- ./inp_files/20703.got.cif
#   From: 2010.05.17/outbox.cif.g08.bks.cpg/sg5_11_cif.got.tgz:20703.got - 2010.06.03 18:56:24.
