data_PCOD9124100
_publ_section_title
;
Structure prediction by ZEFSAII (Michael W. Deem and Ramdas Pophale) SiO2 
 PCOD9124100
Probable space group: C 2
;
_chemical_formula_sum "Si O2"
_cell_formula_units_Z 22
_cell_length_a 12.796866
_cell_length_b 8.666711
_cell_length_c 15.121605
_cell_angle_alpha 90.000000
_cell_angle_beta 34.598297
_cell_angle_gamma 90.000000
_cell_volume 952.282844
_symmetry_space_group_name_H-M "C 2"
_symmetry_group_IT_number 5
_symmetry_cell_setting 'monoclinic'
loop_
_space_group_symop_operation_xyz
x,y,z
-x,y,-z
1/2+x,1/2+y,z
1/2-x,1/2+y,-z
loop_
_atom_site_type_symbol
_atom_site_label
_atom_site_fract_x
_atom_site_fract_y
_atom_site_fract_z
Si Si1 0.500000 0.000000 0.500000
Si Si2 0.999507 0.438257 0.692304
Si Si3 0.386473 0.412724 0.945749
Si Si4 0.500000 0.155630 0.000000
Si Si5 0.344587 0.234366 0.492513
Si Si6 0.500000 0.662230 0.000000
Si Si7 0.181547 0.910618 0.212222
O O1 0.443433 0.912590 0.628046
O O2 0.343270 0.117621 0.575762
O O3 0.084342 0.611978 0.631680
O O4 0.826838 0.423247 0.875715
O O5 0.154126 0.315083 0.607291
O O6 0.485111 0.553765 0.925487
O O7 0.390186 0.422922 0.838389
O O8 0.467571 0.260723 0.936102
O O9 0.684441 0.053154 0.859490
O O10 0.499940 0.366323 0.393174
O O11 0.680280 0.766738 0.875248
#
# Coordination Sequence:
#
# PCOD9124100 Si02
#       7
#     2   4   4   2   4   2   4
#     4   8  22  44  62  92 126 172 206 264 306 376
#     4  10  23  43  66  94 126 170 213 259 319 377
#     4  11  23  42  63  95 126 165 211 266 315 372
#     4  10  26  34  62  98 122 162 212 254 314 382
#     4  10  23  43  66  94 126 170 213 259 319 377
#     4  10  20  42  62  86 128 170 204 250 328 366
#     4  11  23  42  63  95 126 165 211 266 315 372
#
# _framework density 23.102381000000001
#
# number of rings (size 3 to 8) (size 9 to 14) (size 15 to 20)
#    1.091    0.727    1.818    1.091    2.545    8.727 
#    0.000    0.909    0.000    0.000    0.000    0.000 
#    0.000    0.000    0.000    0.000    0.000    0.000 
#
# Total GULP energy -61481.537583 kJ/mol
# GULP energy per Si atom -5589.230689 kJ/mol
# Density = 2.304980 g / cm^3
# Si number density = 23.102381 Si / 1000 Ang^3
#
#
#
# Elastic Constant Matrix: (Units=GPa)
#
#
# Indices 1 2 3 4 5 6 
#
# 1 103.4870 35.3594 29.4959 0.0000 -19.5134 0.0001
# 2 35.3594 90.1693 5.1671 -0.0001 -21.7996 -0.0001
# 3 29.4959 5.1671 67.3898 0.0000 -6.8831 -0.0001
# 4 0.0000 -0.0001 0.0000 -7.2919 0.0000 -21.9933
# 5 -19.5134 -21.7996 -6.8831 0.0000 26.7261 0.0000
# 6 0.0001 -0.0001 -0.0001 -21.9933 0.0000 -26.4917
#
#
#
# Elastic Compliance Matrix: (Units=1/GPa)
#
#
# Indices 1 2 3 4 5 6 
#
# 1 0.013369 -0.003622 -0.005010 0.000000 0.005516 0.000000
# 2 -0.003622 0.014796 0.001451 0.000000 0.009798 0.000000
# 3 -0.005010 0.001451 0.017118 0.000000 0.001935 0.000000
# 4 0.000000 0.000000 0.000000 0.091184 0.000000 -0.075701
# 5 0.005516 0.009798 0.001935 0.000000 0.049935 0.000000
# 6 0.000000 0.000000 0.000000 -0.075701 0.000000 0.025099
#
#
# Mechanical properties :
#
#
# Convention : Reuss Voigt Hill
#
# Bulk Modulus (GPa) = 32.33918 44.56566 38.45242
# Shear Modulus (GPa) = 21.17128 11.32341 16.24734
#
# Velocity S-wave (km/s) = 3.03051 2.21631 2.65481
# Velocity P-wave (km/s) = 5.12581 5.08741 5.10665
#
# Compressibility (1/GPa) = 0.03092224
#
# Stress axis : x y z
#
# Youngs Moduli (GPa) = 74.80170 67.58502 58.41717
#
# Poissons Ratio (x) = 0.24477 0.29268
# Poissons Ratio (y) = 0.27091 -0.08479
# Poissons Ratio (z) = 0.37477 -0.09810
#
# Static dielectric constant tensor:
#      x y z
#    x 1.970810 0.000000 0.119220 
#    y 0.000000 1.881130 0.000000 
#    z 0.119220 0.000000 1.987130 
# 
# From -- ./inp_files/61372.got.cif
#   From: 2010.05.17/outbox.cif.g08.bks.cpg/sg5_31_cif.got.tgz:61372.got - 2010.06.03 18:56:24.
