data_PCOD9124481
_publ_section_title
;
Structure prediction by ZEFSAII (Michael W. Deem and Ramdas Pophale) SiO2 
 PCOD9124481
Probable space group: C 2
;
_chemical_formula_sum "Si O2"
_cell_formula_units_Z 32
_cell_length_a 17.529823
_cell_length_b 16.148182
_cell_length_c 11.600964
_cell_angle_alpha 90.000000
_cell_angle_beta 150.903165
_cell_angle_gamma 90.000000
_cell_volume 1596.937819
_symmetry_space_group_name_H-M "C 2"
_symmetry_group_IT_number 5
_symmetry_cell_setting 'monoclinic'
loop_
_space_group_symop_operation_xyz
x,y,z
-x,y,-z
1/2+x,1/2+y,z
1/2-x,1/2+y,-z
loop_
_atom_site_type_symbol
_atom_site_label
_atom_site_fract_x
_atom_site_fract_y
_atom_site_fract_z
Si Si1 0.287455 0.549640 0.642062
Si Si2 0.240722 0.990917 0.157748
Si Si3 0.229402 0.186329 0.555758
Si Si4 0.971822 0.749475 0.172967
Si Si5 0.829104 0.051185 0.325241
Si Si6 0.344908 0.812152 0.366969
Si Si7 0.426358 0.428883 0.639605
Si Si8 0.576369 0.079613 0.795306
O O1 0.337714 0.541029 0.840972
O O2 0.334878 0.634205 0.638454
O O3 0.339107 0.471275 0.633176
O O4 0.097873 0.550827 0.402113
O O5 0.319174 0.910584 0.321274
O O6 0.360306 0.043541 0.240242
O O7 0.104537 0.961137 0.891453
O O8 0.406472 0.209339 0.755994
O O9 0.217712 0.120297 0.643303
O O10 0.148805 0.269497 0.498993
O O11 0.930826 0.679359 0.211485
O O12 0.059475 0.830526 0.336299
O O13 0.812141 0.776183 0.899698
O O14 0.000000 0.072344 0.500000
O O15 0.850909 0.966190 0.425005
O O16 0.698325 0.051381 0.054707
O O17 0.500000 0.790378 0.500000
#
# Coordination Sequence:
#
# PCOD9124481 Si02
#       8
#     4   4   4   4   4   4   4   4
#     4  10  22  36  59  92 121 163 211 261 319 378
#     4  11  22  40  61  89 123 168 215 261 315 394
#     4  10  21  35  59  87 120 157 210 264 314 374
#     4  10  22  37  60  94 122 165 209 266 323 375
#     4  11  21  39  64  97 125 167 212 265 323 384
#     4  11  21  34  59  89 123 155 210 272 317 365
#     4  10  22  40  63  92 126 166 215 262 323 380
#     4  11  22  38  65  93 129 166 217 262 319 384
#
# _framework density 20.038350999999999
#
# number of rings (size 3 to 8) (size 9 to 14) (size 15 to 20)
#    0.000    1.500    2.500    3.000    1.750    3.500 
#    0.000    2.500    0.000    0.000   29.250    0.000 
#    0.000    0.000    0.000    0.000    0.000    0.000 
#
# Total GULP energy -89322.999788 kJ/mol
# GULP energy per Si atom -5582.687487 kJ/mol
# Density = 1.999274 g / cm^3
# Si number density = 20.038351 Si / 1000 Ang^3
#
#
#
# Elastic Constant Matrix: (Units=GPa)
#
#
# Indices 1 2 3 4 5 6 
#
# 1 121.8664 69.3335 7.6284 0.0000 8.1286 0.0000
# 2 69.3335 149.3754 31.3628 0.0000 -8.2272 0.0000
# 3 7.6284 31.3628 44.9672 0.0000 -0.2619 0.0000
# 4 0.0000 0.0000 0.0000 32.7249 0.0000 4.7977
# 5 8.1286 -8.2272 -0.2619 0.0000 30.9938 0.0000
# 6 0.0000 0.0000 0.0000 4.7977 0.0000 28.9938
#
#
#
# Elastic Compliance Matrix: (Units=1/GPa)
#
#
# Indices 1 2 3 4 5 6 
#
# 1 0.011970 -0.006312 0.002344 0.000000 -0.004795 0.000000
# 2 -0.006312 0.011302 -0.006785 0.000000 0.004598 0.000000
# 3 0.002344 -0.006785 0.026560 0.000000 -0.002191 0.000000
# 4 0.000000 0.000000 0.000000 0.031317 0.000000 -0.005182
# 5 -0.004795 0.004598 -0.002191 0.000000 0.034724 0.000000
# 6 0.000000 0.000000 0.000000 -0.005182 0.000000 0.035348
#
#
# Mechanical properties :
#
#
# Convention : Reuss Voigt Hill
#
# Bulk Modulus (GPa) = 35.30363 59.20648 47.25505
# Shear Modulus (GPa) = 27.44673 32.40145 29.92409
#
# Velocity S-wave (km/s) = 3.70497 4.02552 3.86857
# Velocity P-wave (km/s) = 5.99656 7.15662 6.60212
#
# Compressibility (1/GPa) = 0.02832570
#
# Stress axis : x y z
#
# Youngs Moduli (GPa) = 83.54205 88.47779 37.64996
#
# Poissons Ratio (x) = 0.55849 -0.08825
# Poissons Ratio (y) = 0.52733 0.25546
# Poissons Ratio (z) = -0.19582 0.60034
#
# Static dielectric constant tensor:
#      x y z
#    x 1.712840 0.000000 -0.005780 
#    y 0.000000 1.746890 0.000000 
#    z -0.005780 0.000000 1.718540 
# 
# From -- ./inp_files/44988.got.cif
#   From: 2010.05.17/outbox.cif.g08.bks.cpg/sg5_23_cif.got.tgz:44988.got - 2010.06.03 18:56:24.
