data_PCOD9124849
_publ_section_title
;
Structure prediction by ZEFSAII (Michael W. Deem and Ramdas Pophale) SiO2 
 PCOD9124849
Probable space group: C 2
;
_chemical_formula_sum "Si O2"
_cell_formula_units_Z 32
_cell_length_a 11.773253
_cell_length_b 16.100645
_cell_length_c 13.735860
_cell_angle_alpha 90.000000
_cell_angle_beta 145.917844
_cell_angle_gamma 90.000000
_cell_volume 1459.079885
_symmetry_space_group_name_H-M "C 2"
_symmetry_group_IT_number 5
_symmetry_cell_setting 'monoclinic'
loop_
_space_group_symop_operation_xyz
x,y,z
-x,y,-z
1/2+x,1/2+y,z
1/2-x,1/2+y,-z
loop_
_atom_site_type_symbol
_atom_site_label
_atom_site_fract_x
_atom_site_fract_y
_atom_site_fract_z
Si Si1 0.530105 0.032010 0.701204
Si Si2 0.404364 0.474889 0.651561
Si Si3 0.793917 0.356155 0.142232
Si Si4 0.443485 0.214655 0.662011
Si Si5 0.378717 0.573023 0.819474
Si Si6 0.608836 0.751206 0.255469
Si Si7 0.649311 0.359490 0.699446
Si Si8 0.661059 0.329599 0.258378
O O1 0.552374 0.126706 0.753487
O O2 0.652131 0.041786 0.684928
O O3 0.287229 0.020725 0.531109
O O4 0.618399 0.948787 0.812645
O O5 0.467794 0.531023 0.786854
O O6 0.584677 0.442719 0.710726
O O7 0.300406 0.394146 0.627275
O O8 0.796885 0.341380 0.260652
O O9 0.920140 0.282429 0.183014
O O10 0.566043 0.349562 0.940683
O O11 0.283400 0.223048 0.458254
O O12 0.602319 0.285841 0.742651
O O13 0.338719 0.241648 0.687966
O O14 0.399871 0.670570 0.817996
O O15 0.500000 0.545488 0.000000
O O16 0.650747 0.830511 0.214463
O O17 0.500000 0.357095 0.500000
#
# Coordination Sequence:
#
# PCOD9124849 Si02
#       8
#     4   4   4   4   4   4   4   4
#     4  12  22  39  66 100 123 167 227 282 329 392
#     4  11  22  39  66  97 130 170 219 278 330 388
#     4  11  24  41  65  97 133 178 223 271 341 409
#     4  10  21  38  65  95 131 169 221 283 328 389
#     4  12  25  39  64 103 133 166 225 286 335 397
#     4  11  23  41  65  98 130 177 225 272 339 408
#     4   9  19  38  62  94 132 166 211 273 331 387
#     4  10  23  43  62  94 137 175 217 280 339 400
#
# _framework density 21.931629999999998
#
# number of rings (size 3 to 8) (size 9 to 14) (size 15 to 20)
#    0.000    1.250    3.750    3.375    1.750    1.500 
#    0.000    2.500    0.000    1.500    3.250    0.000 
#    0.000    0.000    0.000    0.000    0.000    0.000 
#
# Total GULP energy -89207.087602 kJ/mol
# GULP energy per Si atom -5575.442975 kJ/mol
# Density = 2.188171 g / cm^3
# Si number density = 21.931630 Si / 1000 Ang^3
#
#
#
# Elastic Constant Matrix: (Units=GPa)
#
#
# Indices 1 2 3 4 5 6 
#
# 1 64.5809 33.8911 -6.0179 -0.0022 3.9774 -0.0023
# 2 33.8911 86.9328 5.0584 0.0002 -2.7592 -0.0001
# 3 -6.0179 5.0584 40.4496 -0.0030 -3.9265 -0.0021
# 4 -0.0022 0.0002 -0.0030 24.4252 0.0011 -5.5415
# 5 3.9774 -2.7592 -3.9265 0.0011 22.5195 0.0003
# 6 -0.0023 -0.0001 -0.0021 -5.5415 0.0003 46.5793
#
#
#
# Elastic Compliance Matrix: (Units=1/GPa)
#
#
# Indices 1 2 3 4 5 6 
#
# 1 0.020433 -0.008307 0.003692 0.000003 -0.003983 0.000002
# 2 -0.008307 0.014996 -0.002839 -0.000002 0.002810 -0.000001
# 3 0.003692 -0.002839 0.025969 0.000004 0.003528 0.000002
# 4 0.000003 -0.000002 0.000004 0.042077 -0.000002 0.005006
# 5 -0.003983 0.002810 0.003528 -0.000002 0.046069 -0.000001
# 6 0.000002 -0.000001 0.000002 0.005006 -0.000001 0.022064
#
#
# Mechanical properties :
#
#
# Convention : Reuss Voigt Hill
#
# Bulk Modulus (GPa) = 21.50949 28.64740 25.07845
# Shear Modulus (GPa) = 24.75093 29.30692 27.02893
#
# Velocity S-wave (km/s) = 3.36303 3.65949 3.51439
# Velocity P-wave (km/s) = 4.99087 5.56294 5.28465
#
# Compressibility (1/GPa) = 0.04649110
#
# Stress axis : x y z
#
# Youngs Moduli (GPa) = 48.93963 66.68394 38.50769
#
# Poissons Ratio (x) = 0.55396 -0.14218
# Poissons Ratio (y) = 0.40656 0.10930
# Poissons Ratio (z) = -0.18069 0.18928
#
# Static dielectric constant tensor:
#      x y z
#    x 1.824890 0.000000 0.035120 
#    y 0.000000 1.845240 0.000000 
#    z 0.035120 0.000000 1.902880 
# 
# From -- ./inp_files/53203.got.cif
#   From: 2010.05.17/outbox.cif.g08.bks.cpg/sg5_27_cif.got.tgz:53203.got - 2010.06.03 18:56:24.
