data_PCOD9124768
_publ_section_title
;
Structure prediction by ZEFSAII (Michael W. Deem and Ramdas Pophale) SiO2 
 PCOD9124768
Probable space group: C 2
;
_chemical_formula_sum "Si O2"
_cell_formula_units_Z 24
_cell_length_a 8.193875
_cell_length_b 11.098537
_cell_length_c 12.644794
_cell_angle_alpha 90.000000
_cell_angle_beta 67.959390
_cell_angle_gamma 90.000000
_cell_volume 1065.879707
_symmetry_space_group_name_H-M "C 2"
_symmetry_group_IT_number 5
_symmetry_cell_setting 'monoclinic'
loop_
_space_group_symop_operation_xyz
x,y,z
-x,y,-z
1/2+x,1/2+y,z
1/2-x,1/2+y,-z
loop_
_atom_site_type_symbol
_atom_site_label
_atom_site_fract_x
_atom_site_fract_y
_atom_site_fract_z
Si Si1 0.515877 0.307940 0.215527
Si Si2 0.820977 0.770080 0.479634
Si Si3 0.434515 0.808161 0.136899
Si Si4 0.383791 0.062149 0.170341
Si Si5 0.204231 0.017637 0.435735
Si Si6 0.064711 0.058710 0.105310
O O1 0.386831 0.301166 0.346081
O O2 0.722482 0.305312 0.196392
O O3 0.481172 0.188869 0.154675
O O4 0.485126 0.435424 0.168343
O O5 0.737740 0.637475 0.495882
O O6 0.000000 0.751370 0.500000
O O7 0.715925 0.886712 0.550145
O O8 0.503782 0.685447 0.171312
O O9 0.496725 0.940134 0.158147
O O10 0.500000 0.803227 0.000000
O O11 0.254657 0.051173 0.303608
O O12 0.270309 0.052714 0.090049
O O13 0.000000 0.993645 0.500000
O O14 0.000000 0.062027 0.000000
#
# Coordination Sequence:
#
# PCOD9124768 Si02
#       6
#     4   4   4   4   4   4
#     4  10  23  40  59  86 118 152 191 237 287 340
#     4  10  21  38  61  88 118 151 188 234 287 343
#     4  10  22  38  58  84 112 151 196 237 283 335
#     4  10  23  40  59  86 118 152 191 237 287 340
#     4  10  21  38  61  88 118 151 188 234 287 343
#     4  10  22  38  58  84 112 151 196 237 283 335
#
# _framework density 22.516614000000001
#
# number of rings (size 3 to 8) (size 9 to 14) (size 15 to 20)
#    0.000    2.000    0.000    4.000    0.000   18.667 
#    0.000    6.667    0.000    0.000    0.000    0.000 
#    0.000    0.000    0.000    0.000    0.000    0.000 
#
# Total GULP energy -66916.483051 kJ/mol
# GULP energy per Si atom -5576.373588 kJ/mol
# Density = 2.246537 g / cm^3
# Si number density = 22.516614 Si / 1000 Ang^3
#
#
#
# Elastic Constant Matrix: (Units=GPa)
#
#
# Indices 1 2 3 4 5 6 
#
# 1 24.5168 42.7861 -8.3659 0.0000 11.8407 0.0000
# 2 42.7861 230.2528 15.8779 0.0000 20.8219 0.0000
# 3 -8.3659 15.8779 38.8475 0.0000 5.1358 0.0000
# 4 0.0000 0.0000 0.0000 543.3369 0.0000 -409.5033
# 5 11.8407 20.8219 5.1358 0.0000 25.6892 0.0000
# 6 0.0000 0.0000 0.0000 -409.5033 0.0000 386.9791
#
#
#
# Elastic Compliance Matrix: (Units=1/GPa)
#
#
# Indices 1 2 3 4 5 6 
#
# 1 0.103554 -0.018027 0.034971 0.000000 -0.040110 0.000000
# 2 -0.018027 0.007906 -0.007565 0.000000 0.003413 0.000000
# 3 0.034971 -0.007565 0.038708 0.000000 -0.017726 0.000000
# 4 0.000000 0.000000 0.000000 0.009091 0.000000 0.009620
# 5 -0.040110 0.003413 -0.017726 0.000000 0.058192 0.000000
# 6 0.000000 0.000000 0.000000 0.009620 0.000000 0.012764
#
#
# Mechanical properties :
#
#
# Convention : Reuss Voigt Hill
#
# Bulk Modulus (GPa) = 5.91973 43.80150 24.86062
# Shear Modulus (GPa) = 18.67315 207.42232 113.04774
#
# Velocity S-wave (km/s) = 2.88289 9.60831 7.09333
# Velocity P-wave (km/s) = 3.70353 11.94103 8.84037
#
# Compressibility (1/GPa) = 0.16892649
#
# Stress axis : x y z
#
# Youngs Moduli (GPa) = 9.65684 126.48889 25.83438
#
# Poissons Ratio (x) = 2.28021 -0.90346
# Poissons Ratio (y) = 0.17408 0.19543
# Poissons Ratio (z) = -0.33771 0.95685
#
# Static dielectric constant tensor:
#      x y z
#    x 1.763080 0.000000 0.006900 
#    y 0.000000 1.936580 0.000000 
#    z 0.006900 0.000000 1.852060 
# 
# From -- ./inp_files/50069.got.cif
#   From: 2010.05.17/outbox.cif.g08.bks.cpg/sg5_26_cif.got.tgz:50069.got - 2010.06.03 18:56:24.
