data_PCOD9124610
_publ_section_title
;
Structure prediction by ZEFSAII (Michael W. Deem and Ramdas Pophale) SiO2 
 PCOD9124610
Probable space group: C 2
;
_chemical_formula_sum "Si O2"
_cell_formula_units_Z 28
_cell_length_a 22.384785
_cell_length_b 12.104747
_cell_length_c 9.456162
_cell_angle_alpha 90.000000
_cell_angle_beta 145.845009
_cell_angle_gamma 90.000000
_cell_volume 1438.539730
_symmetry_space_group_name_H-M "C 2"
_symmetry_group_IT_number 5
_symmetry_cell_setting 'monoclinic'
loop_
_space_group_symop_operation_xyz
x,y,z
-x,y,-z
1/2+x,1/2+y,z
1/2-x,1/2+y,-z
loop_
_atom_site_type_symbol
_atom_site_label
_atom_site_fract_x
_atom_site_fract_y
_atom_site_fract_z
Si Si1 0.771971 0.851440 0.513445
Si Si2 0.882710 0.643147 0.768359
Si Si3 0.243850 0.012472 0.273759
Si Si4 0.753162 0.542011 0.756988
Si Si5 0.422306 0.695144 0.976966
Si Si6 0.874045 0.443020 0.258755
Si Si7 0.424674 0.704635 0.471656
O O1 0.870878 0.769573 0.702627
O O2 0.667013 0.780968 0.258525
O O3 0.766146 0.896960 0.661957
O O4 0.786760 0.952582 0.435519
O O5 0.822373 0.577447 0.530306
O O6 0.827706 0.621995 0.810419
O O7 0.000000 0.600036 0.000000
O O8 0.138048 0.088324 0.075574
O O9 0.301430 0.999831 0.237067
O O10 0.660417 0.616891 0.640077
O O11 0.819626 0.476568 0.005198
O O12 0.500000 0.663670 0.000000
O O13 0.499035 0.742832 0.249480
O O14 0.873970 0.312810 0.298658
O O15 0.000000 0.474376 0.500000
O O16 0.500000 0.652190 0.500000
#
# Coordination Sequence:
#
# PCOD9124610 Si02
#       7
#     4   4   4   4   4   4   4
#     4  10  21  37  59  85 117 153 196 243 291 347
#     4  10  21  37  57  84 116 151 191 240 291 347
#     4  10  21  37  57  86 119 152 194 244 291 343
#     4  11  23  40  60  87 119 152 195 246 295 348
#     4  11  21  37  61  88 116 154 199 245 293 350
#     4  11  22  38  61  86 115 157 198 241 294 351
#     4  11  23  40  60  86 117 155 199 245 293 352
#
# _framework density 19.464183999999999
#
# number of rings (size 3 to 8) (size 9 to 14) (size 15 to 20)
#    0.000    1.429    0.000    7.714    0.000    6.286 
#    0.000    1.429    0.000    3.429    0.000    0.000 
#    0.000    0.000    0.000    0.000    0.000    0.000 
#
# Total GULP energy -78122.541029 kJ/mol
# GULP energy per Si atom -5580.181502 kJ/mol
# Density = 1.941988 g / cm^3
# Si number density = 19.464184 Si / 1000 Ang^3
#
#
#
# Elastic Constant Matrix: (Units=GPa)
#
#
# Indices 1 2 3 4 5 6 
#
# 1 131.7358 23.2585 8.2381 0.0000 3.8749 0.0000
# 2 23.2585 70.1673 10.8925 0.0000 6.3686 0.0000
# 3 8.2381 10.8925 57.6665 0.0000 -9.2046 0.0000
# 4 0.0000 0.0000 0.0000 32.2166 0.0000 -29.0969
# 5 3.8749 6.3686 -9.2046 0.0000 33.1103 0.0000
# 6 0.0000 0.0000 0.0000 -29.0969 0.0000 50.8356
#
#
#
# Elastic Compliance Matrix: (Units=1/GPa)
#
#
# Indices 1 2 3 4 5 6 
#
# 1 0.008102 -0.002500 -0.000795 0.000000 -0.000688 0.000000
# 2 -0.002500 0.015915 -0.003235 0.000000 -0.003668 0.000000
# 3 -0.000795 -0.003235 0.019024 0.000000 0.006004 0.000000
# 4 0.000000 0.000000 0.000000 0.064258 0.000000 0.036779
# 5 -0.000688 -0.003668 0.006004 0.000000 0.032657 0.000000
# 6 0.000000 0.000000 0.000000 0.036779 0.000000 0.040723
#
#
# Mechanical properties :
#
#
# Convention : Reuss Voigt Hill
#
# Bulk Modulus (GPa) = 33.35274 38.26087 35.80681
# Shear Modulus (GPa) = 24.54202 37.71121 31.12662
#
# Velocity S-wave (km/s) = 3.55474 4.40644 4.00331
# Velocity P-wave (km/s) = 5.83274 6.75194 6.30910
#
# Compressibility (1/GPa) = 0.02998255
#
# Stress axis : x y z
#
# Youngs Moduli (GPa) = 123.42222 62.83268 52.56518
#
# Poissons Ratio (x) = 0.15707 0.04180
# Poissons Ratio (y) = 0.30852 0.17003
# Poissons Ratio (z) = 0.09814 0.20324
#
# Static dielectric constant tensor:
#      x y z
#    x 1.673800 0.000000 0.062630 
#    y 0.000000 1.743710 0.000000 
#    z 0.062630 0.000000 1.482770 
# 
# From -- ./inp_files/29648.got.cif
#   From: 2010.05.17/outbox.cif.g08.bks.cpg/sg5_15_cif.got.tgz:29648.got - 2010.06.03 18:56:24.
