data_PCOD9124477
_publ_section_title
;
Structure prediction by ZEFSAII (Michael W. Deem and Ramdas Pophale) SiO2 
 PCOD9124477
Probable space group: C 2
;
_chemical_formula_sum "Si O2"
_cell_formula_units_Z 24
_cell_length_a 9.038980
_cell_length_b 14.270996
_cell_length_c 8.123575
_cell_angle_alpha 90.000000
_cell_angle_beta 65.599835
_cell_angle_gamma 90.000000
_cell_volume 954.306499
_symmetry_space_group_name_H-M "C 2"
_symmetry_group_IT_number 5
_symmetry_cell_setting 'monoclinic'
loop_
_space_group_symop_operation_xyz
x,y,z
-x,y,-z
1/2+x,1/2+y,z
1/2-x,1/2+y,-z
loop_
_atom_site_type_symbol
_atom_site_label
_atom_site_fract_x
_atom_site_fract_y
_atom_site_fract_z
Si Si1 0.336342 0.166330 0.800299
Si Si2 0.888495 0.397938 0.385566
Si Si3 0.089404 0.081702 0.123290
Si Si4 0.693825 0.247761 0.653351
Si Si5 0.356196 0.789522 0.903595
Si Si6 0.314314 0.573180 0.458874
O O1 0.520251 0.199416 0.714972
O O2 0.279925 0.113174 0.661732
O O3 0.276348 0.097240 0.979390
O O4 0.240547 0.263362 0.887845
O O5 0.749500 0.321736 0.491277
O O6 0.798237 0.495156 0.409003
O O7 0.000000 0.399573 0.500000
O O8 0.015089 0.370554 0.185086
O O9 0.044355 0.192100 0.165349
O O10 0.988919 0.034668 0.316140
O O11 0.000000 0.045498 0.000000
O O12 0.724322 0.293435 0.817347
O O13 0.817319 0.161235 0.577836
#
# Coordination Sequence:
#
# PCOD9124477 Si02
#       6
#     4   4   4   4   4   4
#     4   9  19  35  60  84 115 160 197 240 303 360
#     4  10  21  35  57  91 118 155 202 251 295 361
#     4   8  17  34  59  81 111 159 196 234 299 357
#     4  11  19  34  61  88 118 156 200 257 299 352
#     4   9  19  36  59  81 120 154 195 243 315 338
#     4  11  20  37  63  86 116 161 208 243 297 365
#
# _framework density 25.149153999999999
#
# number of rings (size 3 to 8) (size 9 to 14) (size 15 to 20)
#    1.000    1.333    1.667    2.000    0.000    0.000 
#    0.000   11.667    7.333   12.000    0.000    0.000 
#    0.000    0.000    0.000    0.000    0.000    0.000 
#
# Total GULP energy -66879.206079 kJ/mol
# GULP energy per Si atom -5573.267173 kJ/mol
# Density = 2.509191 g / cm^3
# Si number density = 25.149154 Si / 1000 Ang^3
#
#
#
# Elastic Constant Matrix: (Units=GPa)
#
#
# Indices 1 2 3 4 5 6 
#
# 1 99.4389 3.9638 49.2846 0.0000 -16.9835 0.0000
# 2 3.9638 78.4260 30.9437 0.0000 -8.2871 0.0000
# 3 49.2846 30.9437 118.7590 0.0000 -11.8070 0.0000
# 4 0.0000 0.0000 0.0000 38.7590 0.0000 -20.1015
# 5 -16.9835 -8.2871 -11.8070 0.0000 40.3604 0.0000
# 6 0.0000 0.0000 0.0000 -20.1015 0.0000 22.7626
#
#
#
# Elastic Compliance Matrix: (Units=1/GPa)
#
#
# Indices 1 2 3 4 5 6 
#
# 1 0.013572 0.002042 -0.005721 0.000000 0.004457 0.000000
# 2 0.002042 0.014661 -0.004411 0.000000 0.002579 0.000000
# 3 -0.005721 -0.004411 0.011963 0.000000 0.000186 0.000000
# 4 0.000000 0.000000 0.000000 0.047602 0.000000 0.042037
# 5 0.004457 0.002579 0.000186 0.000000 0.027236 0.000000
# 6 0.000000 0.000000 0.000000 0.042037 0.000000 0.081055
#
#
# Mechanical properties :
#
#
# Convention : Reuss Voigt Hill
#
# Bulk Modulus (GPa) = 41.64078 51.66758 46.65418
# Shear Modulus (GPa) = 22.69909 34.53850 28.61880
#
# Velocity S-wave (km/s) = 3.00755 3.70989 3.37703
# Velocity P-wave (km/s) = 5.35294 6.24020 5.81352
#
# Compressibility (1/GPa) = 0.02401492
#
# Stress axis : x y z
#
# Youngs Moduli (GPa) = 73.68203 68.20989 83.59358
#
# Poissons Ratio (x) = -0.13931 0.47827
# Poissons Ratio (y) = -0.15049 0.36874
# Poissons Ratio (z) = 0.42156 0.30088
#
# Static dielectric constant tensor:
#      x y z
#    x 2.114020 0.000000 0.062170 
#    y 0.000000 1.962750 0.000000 
#    z 0.062170 0.000000 2.061880 
# 
# From -- ./inp_files/39579.got.cif
#   From: 2010.05.17/outbox.cif.g08.bks.cpg/sg5_20_cif.got.tgz:39579.got - 2010.06.03 18:56:24.
