data_PCOD9124936
_publ_section_title
;
Structure prediction by ZEFSAII (Michael W. Deem and Ramdas Pophale) SiO2 
 PCOD9124936
Probable space group: C 2
;
_chemical_formula_sum "Si O2"
_cell_formula_units_Z 32
_cell_length_a 12.249314
_cell_length_b 7.338728
_cell_length_c 16.750829
_cell_angle_alpha 90.000000
_cell_angle_beta 70.814634
_cell_angle_gamma 90.000000
_cell_volume 1422.173519
_symmetry_space_group_name_H-M "C 2"
_symmetry_group_IT_number 5
_symmetry_cell_setting 'monoclinic'
loop_
_space_group_symop_operation_xyz
x,y,z
-x,y,-z
1/2+x,1/2+y,z
1/2-x,1/2+y,-z
loop_
_atom_site_type_symbol
_atom_site_label
_atom_site_fract_x
_atom_site_fract_y
_atom_site_fract_z
Si Si1 0.514127 0.138640 0.729790
Si Si2 0.717214 0.961679 0.051949
Si Si3 0.058465 0.250470 0.202412
Si Si4 0.236164 0.565712 0.615151
Si Si5 0.577058 0.278863 0.084484
Si Si6 0.538201 0.479414 0.351172
Si Si7 0.606933 0.793265 0.528726
Si Si8 0.578098 0.608607 0.909170
O O1 0.449531 0.232714 0.818243
O O2 0.500343 0.275526 0.659452
O O3 0.465070 0.934107 0.741625
O O4 0.652092 0.124949 0.707022
O O5 0.663820 0.799241 0.117520
O O6 0.613047 0.081715 0.041340
O O7 0.790769 0.091874 0.094400
O O8 0.812209 0.900293 0.965501
O O9 0.070957 0.088201 0.262010
O O10 0.953463 0.203639 0.166457
O O11 0.349106 0.467882 0.621227
O O12 0.287955 0.733322 0.553294
O O13 0.157504 0.437400 0.578653
O O14 0.466997 0.398878 0.086440
O O15 0.443368 0.610712 0.415906
O O16 0.500000 0.861758 0.500000
O O17 0.500000 0.688822 0.000000
#
# Coordination Sequence:
#
# PCOD9124936 Si02
#       8
#     4   4   4   4   4   4   4   4
#     4  11  24  42  66 103 134 174 224 275 336 402
#     4  10  22  39  62  88 126 177 220 277 339 382
#     4  11  23  43  67  94 137 173 223 283 329 393
#     4  11  24  44  72 103 132 183 216 266 349 391
#     4  10  21  39  61  92 126 169 230 273 327 397
#     4  11  24  44  68  99 142 166 224 278 323 407
#     4  10  23  46  72 103 137 174 221 271 324 412
#     4  10  21  41  64  90 128 175 228 283 329 391
#
# _framework density 22.500771
#
# number of rings (size 3 to 8) (size 9 to 14) (size 15 to 20)
#    0.000    1.500    2.500    2.250    1.750    3.000 
#    2.250   15.000    0.000    0.000    0.000    0.000 
#    0.000    0.000    0.000    0.000    0.000    0.000 
#
# Total GULP energy -89280.064961 kJ/mol
# GULP energy per Si atom -5580.004060 kJ/mol
# Density = 2.244956 g / cm^3
# Si number density = 22.500771 Si / 1000 Ang^3
#
#
#
# Elastic Constant Matrix: (Units=GPa)
#
#
# Indices 1 2 3 4 5 6 
#
# 1 92.6840 36.7336 28.4726 0.0000 -1.7873 0.0000
# 2 36.7336 84.8565 15.1860 0.0000 13.0317 0.0000
# 3 28.4726 15.1860 50.3412 0.0000 -19.4855 0.0000
# 4 0.0000 0.0000 0.0000 29.7911 0.0000 4.3269
# 5 -1.7873 13.0317 -19.4855 0.0000 44.8607 0.0000
# 6 0.0000 0.0000 0.0000 4.3269 0.0000 24.0225
#
#
#
# Elastic Compliance Matrix: (Units=1/GPa)
#
#
# Indices 1 2 3 4 5 6 
#
# 1 0.015036 -0.004991 -0.007460 0.000000 -0.001191 0.000000
# 2 -0.004991 0.015802 -0.004565 0.000000 -0.006772 0.000000
# 3 -0.007460 -0.004565 0.031085 0.000000 0.014531 0.000000
# 4 0.000000 0.000000 0.000000 0.034469 0.000000 -0.006209
# 5 -0.001191 -0.006772 0.014531 0.000000 0.030523 0.000000
# 6 0.000000 0.000000 0.000000 -0.006209 0.000000 0.042746
#
#
# Mechanical properties :
#
#
# Convention : Reuss Voigt Hill
#
# Bulk Modulus (GPa) = 35.85350 43.18513 39.51932
# Shear Modulus (GPa) = 23.47517 29.56748 26.52132
#
# Velocity S-wave (km/s) = 3.23353 3.62894 3.43692
# Velocity P-wave (km/s) = 5.46899 6.06575 5.77508
#
# Compressibility (1/GPa) = 0.02789128
#
# Stress axis : x y z
#
# Youngs Moduli (GPa) = 66.50636 63.28209 32.16942
#
# Poissons Ratio (x) = 0.31584 0.23998
# Poissons Ratio (y) = 0.33194 0.14687
# Poissons Ratio (z) = 0.49613 0.28891
#
# Static dielectric constant tensor:
#      x y z
#    x 1.814460 0.000000 0.024080 
#    y 0.000000 1.900240 0.000000 
#    z 0.024080 0.000000 1.887920 
# 
# From -- ./inp_files/60205.got.cif
#   From: 2010.05.17/outbox.cif.g08.bks.cpg/sg5_31_cif.got.tgz:60205.got - 2010.06.03 18:56:24.
