data_PCOD9124093
_publ_section_title
;
Structure prediction by ZEFSAII (Michael W. Deem and Ramdas Pophale) SiO2 
 PCOD9124093
Probable space group: C 2
;
_chemical_formula_sum "Si O2"
_cell_formula_units_Z 22
_cell_length_a 11.026339
_cell_length_b 8.910922
_cell_length_c 11.678339
_cell_angle_alpha 90.000000
_cell_angle_beta 65.788616
_cell_angle_gamma 90.000000
_cell_volume 1046.521860
_symmetry_space_group_name_H-M "C 2"
_symmetry_group_IT_number 5
_symmetry_cell_setting 'monoclinic'
loop_
_space_group_symop_operation_xyz
x,y,z
-x,y,-z
1/2+x,1/2+y,z
1/2-x,1/2+y,-z
loop_
_atom_site_type_symbol
_atom_site_label
_atom_site_fract_x
_atom_site_fract_y
_atom_site_fract_z
Si Si1 0.000000 0.997840 0.000000
Si Si2 0.119994 0.743648 0.087349
Si Si3 0.765058 0.381704 0.450456
Si Si4 0.913920 0.675406 0.353766
Si Si5 0.000000 0.497411 0.000000
Si Si6 0.500000 0.965008 0.500000
Si Si7 0.352743 0.748526 0.183843
O O1 0.890536 0.890969 0.985469
O O2 0.062374 0.101518 0.877271
O O3 0.236758 0.750076 0.133647
O O4 0.981215 0.723924 0.210691
O O5 0.116825 0.602100 0.003709
O O6 0.791426 0.554025 0.398461
O O7 0.630211 0.321122 0.557687
O O8 0.126348 0.370857 0.489404
O O9 0.799826 0.273105 0.331505
O O10 0.020960 0.576282 0.384217
O O11 0.052578 0.389672 0.880287
#
# Coordination Sequence:
#
# PCOD9124093 Si02
#       7
#     2   4   4   4   2   2   4
#     4  10  26  40  62  94 122 156 206 254 288 366
#     4  11  22  40  63  90 120 164 196 252 301 354
#     4  10  22  40  62  89 120 160 198 249 300 360
#     4  10  21  39  62  88 121 158 199 245 302 355
#     4  10  20  42  60  88 122 156 208 240 306 352
#     4   8  20  40  56  88 120 160 184 256 294 342
#     4  11  22  41  63  90 121 160 201 250 299 358
#
# _framework density 21.022017000000002
#
# number of rings (size 3 to 8) (size 9 to 14) (size 15 to 20)
#    1.091    0.727    1.818    2.182    2.545    0.000 
#    3.273    2.727    0.000    0.000    0.000    0.000 
#    0.000    0.000    0.000    0.000    0.000    0.000 
#
# Total GULP energy -61291.290627 kJ/mol
# GULP energy per Si atom -5571.935512 kJ/mol
# Density = 2.097417 g / cm^3
# Si number density = 21.022017 Si / 1000 Ang^3
#
#
#
# Elastic Constant Matrix: (Units=GPa)
#
#
# Indices 1 2 3 4 5 6 
#
# 1 63.8039 17.3556 -20.7690 0.0000 23.9416 0.0000
# 2 17.3556 94.8505 3.3766 0.0000 1.4764 0.0000
# 3 -20.7690 3.3766 47.9051 0.0000 4.8870 0.0000
# 4 0.0000 0.0000 0.0000 5.6873 0.0000 6.8532
# 5 23.9416 1.4764 4.8870 0.0000 28.7138 0.0000
# 6 0.0000 0.0000 0.0000 6.8532 0.0000 47.0622
#
#
#
# Elastic Compliance Matrix: (Units=1/GPa)
#
#
# Indices 1 2 3 4 5 6 
#
# 1 0.036511 -0.006862 0.019725 0.000000 -0.033447 0.000000
# 2 -0.006862 0.011864 -0.004409 0.000000 0.005862 0.000000
# 3 0.019725 -0.004409 0.031946 0.000000 -0.021657 0.000000
# 4 0.000000 0.000000 0.000000 0.213251 0.000000 -0.031054
# 5 -0.033447 0.005862 -0.021657 0.000000 0.066099 0.000000
# 6 0.000000 0.000000 0.000000 -0.031054 0.000000 0.025771
#
#
# Mechanical properties :
#
#
# Convention : Reuss Voigt Hill
#
# Bulk Modulus (GPa) = 10.28510 22.94286 16.61398
# Shear Modulus (GPa) = 12.47055 30.06575 21.26815
#
# Velocity S-wave (km/s) = 2.43824 3.78590 3.18419
# Velocity P-wave (km/s) = 3.58188 5.48162 4.63023
#
# Compressibility (1/GPa) = 0.09722807
#
# Stress axis : x y z
#
# Youngs Moduli (GPa) = 27.38903 84.28663 31.30250
#
# Poissons Ratio (x) = 0.57840 -0.61744
# Poissons Ratio (y) = 0.18795 0.13802
# Poissons Ratio (z) = -0.54025 0.37165
#
# Static dielectric constant tensor:
#      x y z
#    x 1.764020 0.000000 0.000740 
#    y 0.000000 1.761440 0.000000 
#    z 0.000740 0.000000 1.717230 
# 
# From -- ./inp_files/38092.got.cif
#   From: 2010.05.17/outbox.cif.g08.bks.cpg/sg5_20_cif.got.tgz:38092.got - 2010.06.03 18:56:24.
