data_PCOD9124585
_publ_section_title
;
Structure prediction by ZEFSAII (Michael W. Deem and Ramdas Pophale) SiO2 
 PCOD9124585
Probable space group: C 2
;
_chemical_formula_sum "Si O2"
_cell_formula_units_Z 22
_cell_length_a 5.212431
_cell_length_b 30.312107
_cell_length_c 6.227642
_cell_angle_alpha 90.000000
_cell_angle_beta 89.677433
_cell_angle_gamma 90.000000
_cell_volume 983.950386
_symmetry_space_group_name_H-M "C 2"
_symmetry_group_IT_number 5
_symmetry_cell_setting 'monoclinic'
loop_
_space_group_symop_operation_xyz
x,y,z
-x,y,-z
1/2+x,1/2+y,z
1/2-x,1/2+y,-z
loop_
_atom_site_type_symbol
_atom_site_label
_atom_site_fract_x
_atom_site_fract_y
_atom_site_fract_z
Si Si1 0.751314 0.705230 0.355466
Si Si2 0.249251 0.921241 0.361089
Si Si3 0.751702 0.014738 0.847070
Si Si4 0.751303 0.109664 0.855023
Si Si5 0.750323 0.301853 0.655557
Si Si6 0.500000 0.864989 0.000000
O O1 0.500000 0.707642 0.500000
O O2 0.742491 0.657775 0.246506
O O3 0.767388 0.752631 0.238826
O O4 0.000000 0.704391 0.500000
O O5 0.500000 0.912765 0.500000
O O6 0.000000 0.908695 0.500000
O O7 0.307457 0.894844 0.142779
O O8 0.236608 0.973069 0.307508
O O9 0.500000 0.011040 0.000000
O O10 0.747612 0.062764 0.730769
O O11 0.000000 0.012515 0.000000
O O12 0.500000 0.108481 0.000000
O O13 0.000000 0.107128 0.000000
O O14 0.500000 0.308194 0.500000
O O15 0.000000 0.302958 0.500000
O O16 0.821015 0.335829 0.843216
#
# Coordination Sequence:
#
# PCOD9124585 Si02
#       6
#     4   4   4   4   4   2
#     4  10  21  40  64  95 135 173 220 283 336 406
#     4  12  28  46  73 106 137 181 241 288 355 428
#     4  10  21  43  66  96 139 183 221 282 345 411
#     4  10  21  36  65  99 133 175 224 264 332 418
#     4  10  25  48  70 103 140 181 240 290 350 427
#     4  12  28  50  76 100 146 192 232 310 364 408
#
# _framework density 22.358848999999999
#
# number of rings (size 3 to 8) (size 9 to 14) (size 15 to 20)
#    0.000    1.455    0.909    2.727    1.273    6.545 
#    0.000    0.000    0.000    0.000    0.000    0.000 
#    0.000    0.000    0.000    0.000    0.000    0.000 
#
# Total GULP energy -61454.586291 kJ/mol
# GULP energy per Si atom -5586.780572 kJ/mol
# Density = 2.230796 g / cm^3
# Si number density = 22.358849 Si / 1000 Ang^3
#
#
#
# Elastic Constant Matrix: (Units=GPa)
#
#
# Indices 1 2 3 4 5 6 
#
# 1 196.8788 38.3179 46.1862 0.0000 -5.2204 0.0000
# 2 38.3179 237.0983 77.0706 0.0000 -5.9266 0.0000
# 3 46.1862 77.0706 74.4323 0.0000 -9.0016 0.0000
# 4 0.0000 0.0000 0.0000 43.1476 0.0000 25.5809
# 5 -5.2204 -5.9266 -9.0016 0.0000 29.9503 0.0000
# 6 0.0000 0.0000 0.0000 25.5809 0.0000 39.5801
#
#
#
# Elastic Compliance Matrix: (Units=1/GPa)
#
#
# Indices 1 2 3 4 5 6 
#
# 1 0.005965 0.000363 -0.004092 0.000000 -0.000118 0.000000
# 2 0.000363 0.006396 -0.006939 0.000000 -0.000757 0.000000
# 3 -0.004092 -0.006939 0.023771 0.000000 0.005058 0.000000
# 4 0.000000 0.000000 0.000000 0.037574 0.000000 -0.024284
# 5 -0.000118 -0.000757 0.005058 0.000000 0.034739 0.000000
# 6 0.000000 0.000000 0.000000 -0.024284 0.000000 0.040960
#
#
# Mechanical properties :
#
#
# Convention : Reuss Voigt Hill
#
# Bulk Modulus (GPa) = 67.58538 92.39540 79.99039
# Shear Modulus (GPa) = 28.46209 45.65789 37.05999
#
# Velocity S-wave (km/s) = 3.57174 4.52381 4.07567
# Velocity P-wave (km/s) = 6.87771 8.28855 7.61587
#
# Compressibility (1/GPa) = 0.01479610
#
# Stress axis : x y z
#
# Youngs Moduli (GPa) = 167.63388 156.35477 42.06820
#
# Poissons Ratio (x) = -0.05676 0.17213
# Poissons Ratio (y) = -0.06086 0.29192
# Poissons Ratio (z) = 0.68592 1.08498
#
# Static dielectric constant tensor:
#      x y z
#    x 1.768170 0.000000 0.011240 
#    y 0.000000 1.958540 0.000000 
#    z 0.011240 0.000000 1.825590 
# 
# From -- ./inp_files/1282.got.cif
#   From: 2010.05.17/outbox.cif.g08.bks.cpg/sg5_1_cif.got.tgz:1282.got - 2010.06.03 18:56:24.
