data_PCOD9124155
_publ_section_title
;
Structure prediction by ZEFSAII (Michael W. Deem and Ramdas Pophale) SiO2 
 PCOD9124155
Probable space group: C 2
;
_chemical_formula_sum "Si O2"
_cell_formula_units_Z 26
_cell_length_a 8.047623
_cell_length_b 30.405994
_cell_length_c 5.375729
_cell_angle_alpha 90.000000
_cell_angle_beta 114.409081
_cell_angle_gamma 90.000000
_cell_volume 1197.844684
_symmetry_space_group_name_H-M "C 2"
_symmetry_group_IT_number 5
_symmetry_cell_setting 'monoclinic'
loop_
_space_group_symop_operation_xyz
x,y,z
-x,y,-z
1/2+x,1/2+y,z
1/2-x,1/2+y,-z
loop_
_atom_site_type_symbol
_atom_site_label
_atom_site_fract_x
_atom_site_fract_y
_atom_site_fract_z
Si Si1 0.121660 0.855380 0.825035
Si Si2 0.500000 0.507923 0.000000
Si Si3 0.385477 0.124770 0.687050
Si Si4 0.714735 0.715252 0.617097
Si Si5 0.313786 0.030072 0.539672
Si Si6 0.803642 0.948578 0.239088
Si Si7 0.780468 0.259953 0.880623
O O1 0.246128 0.898845 0.857549
O O2 0.228171 0.809879 0.910117
O O3 0.000000 0.851443 0.500000
O O4 0.000000 0.862345 0.000000
O O5 0.378089 0.533819 0.728069
O O6 0.650609 0.475878 0.977270
O O7 0.500000 0.124298 0.500000
O O8 0.241800 0.163999 0.575036
O O9 0.316848 0.075136 0.697686
O O10 0.500000 0.136989 0.000000
O O11 0.500000 0.724373 0.500000
O O12 0.789853 0.743487 0.431480
O O13 0.786837 0.730024 0.931641
O O14 0.500000 0.031095 0.500000
O O15 0.313683 0.982859 0.675692
O O16 0.000000 0.945416 0.500000
O O17 0.000000 0.256727 0.000000
#
# Coordination Sequence:
#
# PCOD9124155 Si02
#       7
#     4   2   4   4   4   4   4
#     4  11  22  39  64  93 125 165 213 263 316 381
#     4  10  20  42  66  86 132 172 214 270 328 378
#     4  11  25  43  64  95 131 161 214 273 319 386
#     4  10  22  42  64  88 126 166 212 260 320 388
#     4  10  24  42  64  97 131 174 220 277 325 394
#     4   9  20  39  61  90 126 167 218 264 320 389
#     4  10  22  41  60  93 127 163 209 264 316 388
#
# _framework density 21.705651
#
# number of rings (size 3 to 8) (size 9 to 14) (size 15 to 20)
#    0.000    1.846    0.769    1.846    4.308    5.538 
#    6.923    0.769    0.000    0.000    0.000    0.000 
#    0.000    0.000    0.000    0.000    0.000    0.000 
#
# Total GULP energy -72517.302999 kJ/mol
# GULP energy per Si atom -5578.254077 kJ/mol
# Density = 2.165625 g / cm^3
# Si number density = 21.705651 Si / 1000 Ang^3
#
#
#
# Elastic Constant Matrix: (Units=GPa)
#
#
# Indices 1 2 3 4 5 6 
#
# 1 77.2101 48.5460 27.8393 0.0000 -17.6802 0.0000
# 2 48.5460 159.2452 11.7482 0.0000 -19.2740 0.0000
# 3 27.8393 11.7482 78.4591 0.0000 -28.5278 0.0000
# 4 0.0000 0.0000 0.0000 37.6721 0.0000 4.3062
# 5 -17.6802 -19.2740 -28.5278 0.0000 27.1083 0.0000
# 6 0.0000 0.0000 0.0000 4.3062 0.0000 32.4023
#
#
#
# Elastic Compliance Matrix: (Units=1/GPa)
#
#
# Indices 1 2 3 4 5 6 
#
# 1 0.018483 -0.004825 -0.004374 0.000000 0.004022 0.000000
# 2 -0.004825 0.008202 0.002365 0.000000 0.005174 0.000000
# 3 -0.004374 0.002365 0.021896 0.000000 0.021871 0.000000
# 4 0.000000 0.000000 0.000000 0.026954 0.000000 -0.003582
# 5 0.004022 0.005174 0.021871 0.000000 0.066207 0.000000
# 6 0.000000 0.000000 0.000000 -0.003582 0.000000 0.031338
#
#
# Mechanical properties :
#
#
# Convention : Reuss Voigt Hill
#
# Bulk Modulus (GPa) = 28.64194 54.57570 41.60882
# Shear Modulus (GPa) = 25.20337 34.55528 29.87932
#
# Velocity S-wave (km/s) = 3.41125 3.99431 3.71424
# Velocity P-wave (km/s) = 5.36095 6.81695 6.13232
#
# Compressibility (1/GPa) = 0.03491384
#
# Stress axis : x y z
#
# Youngs Moduli (GPa) = 54.10248 121.91662 45.67123
#
# Poissons Ratio (x) = 0.58828 0.19975
# Poissons Ratio (y) = 0.26106 -0.10802
# Poissons Ratio (z) = 0.23662 -0.28835
#
# Static dielectric constant tensor:
#      x y z
#    x 1.756880 0.000000 0.001540 
#    y 0.000000 1.770240 0.000000 
#    z 0.001540 0.000000 1.921060 
# 
# From -- ./inp_files/3832.got.cif
#   From: 2010.05.17/outbox.cif.g08.bks.cpg/sg5_2_cif.got.tgz:3832.got - 2010.06.03 18:56:24.
