data_PCOD9124652
_publ_section_title
;
Structure prediction by ZEFSAII (Michael W. Deem and Ramdas Pophale) SiO2 
 PCOD9124652
Probable space group: C 2
;
_chemical_formula_sum "Si O2"
_cell_formula_units_Z 20
_cell_length_a 7.472642
_cell_length_b 17.815758
_cell_length_c 10.014915
_cell_angle_alpha 90.000000
_cell_angle_beta 47.857671
_cell_angle_gamma 90.000000
_cell_volume 988.610889
_symmetry_space_group_name_H-M "C 2"
_symmetry_group_IT_number 5
_symmetry_cell_setting 'monoclinic'
loop_
_space_group_symop_operation_xyz
x,y,z
-x,y,-z
1/2+x,1/2+y,z
1/2-x,1/2+y,-z
loop_
_atom_site_type_symbol
_atom_site_label
_atom_site_fract_x
_atom_site_fract_y
_atom_site_fract_z
Si Si1 0.000000 0.010420 0.000000
Si Si2 0.873299 0.403289 0.920781
Si Si3 0.199941 0.449680 0.515838
Si Si4 0.524587 0.746510 0.830685
Si Si5 0.781379 0.099295 0.344611
Si Si6 0.500000 0.331847 0.500000
O O1 0.826592 0.061400 0.177081
O O2 0.860946 0.954573 0.969968
O O3 0.055048 0.442244 0.725902
O O4 0.843294 0.315796 0.892631
O O5 0.000000 0.401604 0.000000
O O6 0.312164 0.531232 0.433143
O O7 0.396706 0.384743 0.433883
O O8 0.000000 0.437100 0.500000
O O9 0.535740 0.669311 0.742083
O O10 0.783722 0.783605 0.668543
O O11 0.500000 0.728381 0.000000
O O12 0.500000 0.122513 0.500000
#
# Coordination Sequence:
#
# PCOD9124652 Si02
#       6
#     2   4   4   4   4   2
#     4  12  22  40  68  88 132 162 204 264 302 366
#     4  10  23  39  65  98 120 162 215 253 305 373
#     4  10  21  38  62  92 122 160 212 249 305 364
#     4  10  21  37  60  93 124 163 207 246 315 370
#     4  11  21  38  62  95 124 167 206 248 316 373
#     4  10  22  38  64  84 128 164 204 260 296 368
#
# _framework density 20.230405999999999
#
# number of rings (size 3 to 8) (size 9 to 14) (size 15 to 20)
#    0.000    1.600    6.000    0.000    8.400    0.000 
#    0.000    0.000   11.000    7.200    0.000    0.000 
#    0.000    0.000    0.000    0.000    0.000    0.000 
#
# Total GULP energy -55732.496464 kJ/mol
# GULP energy per Si atom -5573.249646 kJ/mol
# Density = 2.018436 g / cm^3
# Si number density = 20.230406 Si / 1000 Ang^3
#
#
#
# Elastic Constant Matrix: (Units=GPa)
#
#
# Indices 1 2 3 4 5 6 
#
# 1 57.4145 29.8033 9.0934 0.0000 3.9901 0.0000
# 2 29.8033 143.7682 34.2564 0.0000 9.3324 0.0000
# 3 9.0934 34.2564 83.7774 0.0000 19.4145 0.0000
# 4 0.0000 0.0000 0.0000 37.3099 0.0000 3.8852
# 5 3.9901 9.3324 19.4145 0.0000 24.8786 0.0000
# 6 0.0000 0.0000 0.0000 3.8852 0.0000 21.1525
#
#
#
# Elastic Compliance Matrix: (Units=1/GPa)
#
#
# Indices 1 2 3 4 5 6 
#
# 1 0.019586 -0.003921 -0.000166 0.000000 -0.001541 0.000000
# 2 -0.003921 0.008497 -0.002998 0.000000 -0.000219 0.000000
# 3 -0.000166 -0.002998 0.015764 0.000000 -0.011151 0.000000
# 4 0.000000 0.000000 0.000000 0.027325 0.000000 -0.005019
# 5 -0.001541 -0.000219 -0.011151 0.000000 0.049226 0.000000
# 6 0.000000 0.000000 0.000000 -0.005019 0.000000 0.048198
#
#
# Mechanical properties :
#
#
# Convention : Reuss Voigt Hill
#
# Bulk Modulus (GPa) = 33.69448 47.91849 40.80648
# Shear Modulus (GPa) = 25.95280 30.78867 28.37074
#
# Velocity S-wave (km/s) = 3.58559 3.90539 3.74890
# Velocity P-wave (km/s) = 5.81665 6.63881 6.24129
#
# Compressibility (1/GPa) = 0.02967846
#
# Stress axis : x y z
#
# Youngs Moduli (GPa) = 51.05763 117.68877 63.43424
#
# Poissons Ratio (x) = 0.46142 0.01050
# Poissons Ratio (y) = 0.20018 0.19018
# Poissons Ratio (z) = 0.00845 0.35284
#
# Static dielectric constant tensor:
#      x y z
#    x 1.709980 0.000000 -0.030910 
#    y 0.000000 1.778730 0.000000 
#    z -0.030910 0.000000 1.772230 
# 
# From -- ./inp_files/36745.got.cif
#   From: 2010.05.17/outbox.cif.g08.bks.cpg/sg5_19_cif.got.tgz:36745.got - 2010.06.03 18:56:24.
