data_PCOD9124544
_publ_section_title
;
Structure prediction by ZEFSAII (Michael W. Deem and Ramdas Pophale) SiO2 
 PCOD9124544
Probable space group: C 2
;
_chemical_formula_sum "Si O2"
_cell_formula_units_Z 24
_cell_length_a 12.576085
_cell_length_b 5.173832
_cell_length_c 19.778212
_cell_angle_alpha 90.000000
_cell_angle_beta 126.116653
_cell_angle_gamma 90.000000
_cell_volume 1039.581789
_symmetry_space_group_name_H-M "C 2"
_symmetry_group_IT_number 5
_symmetry_cell_setting 'monoclinic'
loop_
_space_group_symop_operation_xyz
x,y,z
-x,y,-z
1/2+x,1/2+y,z
1/2-x,1/2+y,-z
loop_
_atom_site_type_symbol
_atom_site_label
_atom_site_fract_x
_atom_site_fract_y
_atom_site_fract_z
Si Si1 0.433031 0.651320 0.038739
Si Si2 0.875813 0.760202 0.752864
Si Si3 0.425073 0.958282 0.542728
Si Si4 0.387508 0.457762 0.605620
Si Si5 0.842540 0.821535 0.127111
Si Si6 0.811355 0.292806 0.801185
O O1 0.393595 0.546541 0.097554
O O2 0.555559 0.837365 0.103095
O O3 0.500000 0.493605 0.000000
O O4 0.290585 0.726241 0.957386
O O5 0.885183 0.886143 0.683160
O O6 0.797393 0.496082 0.735157
O O7 0.024485 0.659013 0.822513
O O8 0.823296 0.993441 0.781708
O O9 0.500000 0.919432 0.500000
O O10 0.448320 0.728400 0.604799
O O11 0.268134 0.962008 0.470866
O O12 0.456926 0.231079 0.589031
O O13 0.804125 0.858385 0.190102
#
# Coordination Sequence:
#
# PCOD9124544 Si02
#       6
#     4   4   4   4   4   4
#     4   9  19  36  56  83 112 150 196 238 281 339
#     4  11  23  39  58  86 118 148 188 236 284 336
#     4  10  21  39  62  86 115 152 188 228 280 335
#     4  10  22  38  59  88 117 147 190 233 275 339
#     4  10  21  36  59  83 114 152 190 237 290 333
#     4  10  23  38  57  84 114 151 193 234 282 338
#
# _framework density 23.086209
#
# number of rings (size 3 to 8) (size 9 to 14) (size 15 to 20)
#    0.000    2.000    0.000    2.500    0.000    9.333 
#    0.000    4.167    0.000    0.000    0.000    0.000 
#    0.000    0.000    0.000    0.000    0.000    0.000 
#
# Total GULP energy -66802.832994 kJ/mol
# GULP energy per Si atom -5566.902749 kJ/mol
# Density = 2.303366 g / cm^3
# Si number density = 23.086209 Si / 1000 Ang^3
#
#
#
# Elastic Constant Matrix: (Units=GPa)
#
#
# Indices 1 2 3 4 5 6 
#
# 1 121.3981 40.0950 8.2428 0.0000 -38.1561 0.0000
# 2 40.0950 53.7084 -1.6918 0.0000 -0.8793 0.0000
# 3 8.2428 -1.6918 33.3627 0.0000 -17.3169 0.0000
# 4 0.0000 0.0000 0.0000 21.7466 0.0000 -16.2839
# 5 -38.1561 -0.8793 -17.3169 0.0000 37.1598 0.0000
# 6 0.0000 0.0000 0.0000 -16.2839 0.0000 20.7575
#
#
#
# Elastic Compliance Matrix: (Units=1/GPa)
#
#
# Indices 1 2 3 4 5 6 
#
# 1 0.019582 -0.014052 0.006217 0.000000 0.022672 0.000000
# 2 -0.014052 0.028770 -0.002909 0.000000 -0.015103 0.000000
# 3 0.006217 -0.002909 0.041640 0.000000 0.025720 0.000000
# 4 0.000000 0.000000 0.000000 0.111457 0.000000 0.087436
# 5 0.022672 -0.015103 0.025720 0.000000 0.061819 0.000000
# 6 0.000000 0.000000 0.000000 0.087436 0.000000 0.116768
#
#
# Mechanical properties :
#
#
# Convention : Reuss Voigt Hill
#
# Bulk Modulus (GPa) = 14.59724 33.52901 24.06313
# Shear Modulus (GPa) = 11.78254 26.72098 19.25176
#
# Velocity S-wave (km/s) = 2.26159 3.40581 2.89088
# Velocity P-wave (km/s) = 3.62717 5.47914 4.64636
#
# Compressibility (1/GPa) = 0.06850610
#
# Stress axis : x y z
#
# Youngs Moduli (GPa) = 51.06724 34.75831 24.01544
#
# Poissons Ratio (x) = 0.48841 -0.14931
# Poissons Ratio (y) = 0.71757 0.06985
# Poissons Ratio (z) = -0.31749 0.10110
#
# Static dielectric constant tensor:
#      x y z
#    x 1.907710 0.000000 -0.003830 
#    y 0.000000 1.899280 0.000000 
#    z -0.003830 0.000000 1.962420 
# 
# From -- ./inp_files/60037.got.cif
#   From: 2010.05.17/outbox.cif.g08.bks.cpg/sg5_31_cif.got.tgz:60037.got - 2010.06.03 18:56:24.
