data_PCOD9124744
_publ_section_title
;
Structure prediction by ZEFSAII (Michael W. Deem and Ramdas Pophale) SiO2 
 PCOD9124744
Probable space group: C 2
;
_chemical_formula_sum "Si O2"
_cell_formula_units_Z 20
_cell_length_a 9.686748
_cell_length_b 24.231811
_cell_length_c 8.131377
_cell_angle_alpha 90.000000
_cell_angle_beta 148.579167
_cell_angle_gamma 90.000000
_cell_volume 995.021165
_symmetry_space_group_name_H-M "C 2"
_symmetry_group_IT_number 5
_symmetry_cell_setting 'monoclinic'
loop_
_space_group_symop_operation_xyz
x,y,z
-x,y,-z
1/2+x,1/2+y,z
1/2-x,1/2+y,-z
loop_
_atom_site_type_symbol
_atom_site_label
_atom_site_fract_x
_atom_site_fract_y
_atom_site_fract_z
Si Si1 0.481730 0.462550 0.672266
Si Si2 0.500000 0.117136 0.500000
Si Si3 0.617852 0.346155 0.945493
Si Si4 0.980772 0.536390 0.173583
Si Si5 0.387793 0.802473 0.716115
Si Si6 0.000000 0.194291 0.000000
O O1 0.500000 0.445077 0.500000
O O2 0.569997 0.411018 0.869926
O O3 0.189373 0.486076 0.405187
O O4 0.687643 0.512495 0.902801
O O5 0.538928 0.080345 0.375326
O O6 0.751832 0.156046 0.782799
O O7 0.418363 0.315809 0.616920
O O8 0.500000 0.329679 0.000000
O O9 0.918919 0.328482 0.222766
O O10 0.000000 0.554745 0.000000
O O11 0.434894 0.737197 0.786432
O O12 0.500000 0.827796 0.000000
#
# Coordination Sequence:
#
# PCOD9124744 Si02
#       6
#     4   2   4   4   4   2
#     4  10  21  38  59  87 125 171 199 243 312 391
#     4  12  22  42  70  90 120 170 210 282 312 362
#     4  12  23  36  62  97 130 164 209 262 320 374
#     4  10  23  39  60  92 128 159 210 258 314 384
#     4  10  22  42  63  82 125 166 215 256 306 396
#     4  10  24  42  68  88 112 170 228 248 324 376
#
# _framework density 20.100076999999999
#
# number of rings (size 3 to 8) (size 9 to 14) (size 15 to 20)
#    0.600    0.800    0.000    6.000    2.800    1.600 
#    0.000    6.000    0.000    0.000    0.000    0.000 
#    0.000    0.000    0.000    0.000    0.000    0.000 
#
# Total GULP energy -55832.313753 kJ/mol
# GULP energy per Si atom -5583.231375 kJ/mol
# Density = 2.005433 g / cm^3
# Si number density = 20.100077 Si / 1000 Ang^3
#
#
#
# Elastic Constant Matrix: (Units=GPa)
#
#
# Indices 1 2 3 4 5 6 
#
# 1 66.5453 25.9102 -2.7730 0.0000 -1.8020 0.0000
# 2 25.9102 74.2479 4.0923 0.0000 -9.1907 0.0000
# 3 -2.7730 4.0923 58.8253 0.0000 8.2490 0.0000
# 4 0.0000 0.0000 0.0000 -29.4647 0.0000 34.5986
# 5 -1.8020 -9.1907 8.2490 0.0000 30.0267 0.0000
# 6 0.0000 0.0000 0.0000 34.5986 0.0000 4.8715
#
#
#
# Elastic Compliance Matrix: (Units=1/GPa)
#
#
# Indices 1 2 3 4 5 6 
#
# 1 0.017528 -0.006356 0.001450 0.000000 -0.001292 0.000000
# 2 -0.006356 0.016457 -0.002181 0.000000 0.005255 0.000000
# 3 0.001450 -0.002181 0.017994 0.000000 -0.005524 0.000000
# 4 0.000000 0.000000 0.000000 -0.003634 0.000000 0.025808
# 5 -0.001292 0.005255 -0.005524 0.000000 0.036352 0.000000
# 6 0.000000 0.000000 0.000000 0.025808 0.000000 0.021979
#
#
# Mechanical properties :
#
#
# Convention : Reuss Voigt Hill
#
# Bulk Modulus (GPa) = 26.45313 28.23085 27.34199
# Shear Modulus (GPa) = 37.46607 12.57928 25.02268
#
# Velocity S-wave (km/s) = 4.32206 2.50438 3.53215
# Velocity P-wave (km/s) = 6.17222 4.73690 5.50157
#
# Compressibility (1/GPa) = 0.03780270
#
# Stress axis : x y z
#
# Youngs Moduli (GPa) = 57.05240 60.76313 55.57334
#
# Poissons Ratio (x) = 0.38624 -0.08056
# Poissons Ratio (y) = 0.36265 0.12123
# Poissons Ratio (z) = -0.08270 0.13255
#
# Static dielectric constant tensor:
#      x y z
#    x 1.746030 0.000000 -0.046130 
#    y 0.000000 1.680420 0.000000 
#    z -0.046130 0.000000 1.693500 
# 
# From -- ./inp_files/17369.got.cif
#   From: 2010.05.17/outbox.cif.g08.bks.cpg/sg5_9_cif.got.tgz:17369.got - 2010.06.03 18:56:24.
