data_PCOD9124813
_publ_section_title
;
Structure prediction by ZEFSAII (Michael W. Deem and Ramdas Pophale) SiO2 
 PCOD9124813
Probable space group: C 2
;
_chemical_formula_sum "Si O2"
_cell_formula_units_Z 32
_cell_length_a 12.426196
_cell_length_b 17.966939
_cell_length_c 9.269794
_cell_angle_alpha 90.000000
_cell_angle_beta 130.225867
_cell_angle_gamma 90.000000
_cell_volume 1580.134318
_symmetry_space_group_name_H-M "C 2"
_symmetry_group_IT_number 5
_symmetry_cell_setting 'monoclinic'
loop_
_space_group_symop_operation_xyz
x,y,z
-x,y,-z
1/2+x,1/2+y,z
1/2-x,1/2+y,-z
loop_
_atom_site_type_symbol
_atom_site_label
_atom_site_fract_x
_atom_site_fract_y
_atom_site_fract_z
Si Si1 0.611644 0.691460 0.214949
Si Si2 0.647342 0.710316 0.560386
Si Si3 0.341612 0.472523 0.890327
Si Si4 0.808681 0.858737 0.600703
Si Si5 0.638093 0.191108 0.020810
Si Si6 0.639167 0.113393 0.716018
Si Si7 0.864234 0.361174 0.810501
Si Si8 0.866090 0.846914 0.142248
O O1 0.612813 0.665627 0.382470
O O2 0.763498 0.674434 0.279775
O O3 0.583613 0.779865 0.197746
O O4 0.500000 0.663085 0.000000
O O5 0.500000 0.736681 0.500000
O O6 0.745116 0.779878 0.597748
O O7 0.732945 0.669494 0.762011
O O8 0.315054 0.414042 0.739563
O O9 0.229272 0.537886 0.794941
O O10 0.500000 0.500993 0.000000
O O11 0.340530 0.422773 0.032629
O O12 0.708964 0.894642 0.392999
O O13 0.966871 0.844624 0.678983
O O14 0.500000 0.191190 0.000000
O O15 0.617330 0.140950 0.860893
O O16 0.663463 0.274806 0.982839
O O17 0.500000 0.104935 0.500000
O O18 0.741178 0.347428 0.818868
O O19 0.000000 0.399131 0.000000
#
# Coordination Sequence:
#
# PCOD9124813 Si02
#       8
#     4   4   4   4   4   4   4   4
#     4  10  21  39  58  89 130 171 214 257 330 399
#     4  11  22  34  61  98 129 165 211 281 335 374
#     4  10  23  44  65  90 125 177 223 259 326 407
#     4  10  21  38  63  92 124 170 217 269 324 396
#     4  12  22  41  65  97 129 169 224 282 335 397
#     4  12  26  40  64  94 129 180 213 278 334 401
#     4  10  22  34  60  99 131 162 208 277 329 378
#     4  11  20  40  66  93 127 168 219 274 330 387
#
# _framework density 20.251445
#
# number of rings (size 3 to 8) (size 9 to 14) (size 15 to 20)
#    0.000    1.250    3.750    2.625    5.250    1.500 
#    0.000    3.125    0.000    3.000    0.000    0.000 
#    0.000    0.000    0.000    0.000    0.000    0.000 
#
# Total GULP energy -89319.373091 kJ/mol
# GULP energy per Si atom -5582.460818 kJ/mol
# Density = 2.020535 g / cm^3
# Si number density = 20.251445 Si / 1000 Ang^3
#
#
#
# Elastic Constant Matrix: (Units=GPa)
#
#
# Indices 1 2 3 4 5 6 
#
# 1 91.3750 1.3923 44.6026 0.0000 0.6650 0.0000
# 2 1.3923 40.8958 22.4479 0.0000 0.5800 0.0000
# 3 44.6026 22.4479 173.2726 0.0000 4.5245 0.0000
# 4 0.0000 0.0000 0.0000 1.8658 0.0000 10.2801
# 5 0.6650 0.5800 4.5245 0.0000 34.5588 0.0000
# 6 0.0000 0.0000 0.0000 10.2801 0.0000 15.0823
#
#
#
# Elastic Compliance Matrix: (Units=1/GPa)
#
#
# Indices 1 2 3 4 5 6 
#
# 1 0.012598 0.001455 -0.003436 0.000000 0.000183 0.000000
# 2 0.001455 0.026492 -0.003807 0.000000 0.000026 0.000000
# 3 -0.003436 -0.003807 0.007170 0.000000 -0.000809 0.000000
# 4 0.000000 0.000000 0.000000 -0.194510 0.000000 0.132578
# 5 0.000183 0.000026 -0.000809 0.000000 0.029038 0.000000
# 6 0.000000 0.000000 0.000000 0.132578 0.000000 -0.024062
#
#
# Mechanical properties :
#
#
# Convention : Reuss Voigt Hill
#
# Bulk Modulus (GPa) = 28.83288 49.15878 38.99583
# Shear Modulus (GPa) = -41.61947 26.10809 -7.75569
#
# Velocity S-wave (km/s) = -4.53828 3.59443 -1.95908
# Velocity P-wave (km/s) = 3.63221 6.44620 3.76567
#
# Compressibility (1/GPa) = 0.03468263
#
# Stress axis : x y z
#
# Youngs Moduli (GPa) = 79.38002 37.74680 139.46848
#
# Poissons Ratio (x) = -0.05491 0.47921
# Poissons Ratio (y) = -0.11546 0.53099
# Poissons Ratio (z) = 0.27275 0.14371
#
# Static dielectric constant tensor:
#      x y z
#    x 1.699310 0.000000 -0.000600 
#    y 0.000000 1.700460 0.000000 
#    z -0.000600 0.000000 1.798550 
# 
# From -- ./inp_files/21932.got.cif
#   From: 2010.05.17/outbox.cif.g08.bks.cpg/sg5_11_cif.got.tgz:21932.got - 2010.06.03 18:56:24.
