data_PCOD9124627
_publ_section_title
;
Structure prediction by ZEFSAII (Michael W. Deem and Ramdas Pophale) SiO2 
 PCOD9124627
Probable space group: C 2
;
_chemical_formula_sum "Si O2"
_cell_formula_units_Z 32
_cell_length_a 14.454597
_cell_length_b 27.811816
_cell_length_c 8.956504
_cell_angle_alpha 90.000000
_cell_angle_beta 28.549020
_cell_angle_gamma 90.000000
_cell_volume 1720.760394
_symmetry_space_group_name_H-M "C 2"
_symmetry_group_IT_number 5
_symmetry_cell_setting 'monoclinic'
loop_
_space_group_symop_operation_xyz
x,y,z
-x,y,-z
1/2+x,1/2+y,z
1/2-x,1/2+y,-z
loop_
_atom_site_type_symbol
_atom_site_label
_atom_site_fract_x
_atom_site_fract_y
_atom_site_fract_z
Si Si1 0.460504 0.223160 0.880698
Si Si2 0.551166 0.474426 0.763533
Si Si3 0.564160 0.036380 0.742387
Si Si4 0.180323 0.033318 0.132732
Si Si5 0.300596 0.794985 0.362978
Si Si6 0.211032 0.313926 0.263335
Si Si7 0.533791 0.375026 0.628806
Si Si8 0.066285 0.622657 0.239754
O O1 0.650910 0.251052 0.552748
O O2 0.417554 0.172334 0.868632
O O3 0.500000 0.216281 0.000000
O O4 0.288653 0.261567 0.102595
O O5 0.747530 0.504363 0.507099
O O6 0.386283 0.508857 0.926136
O O7 0.569556 0.429376 0.628573
O O8 0.500000 0.456044 0.000000
O O9 0.587402 0.086171 0.619854
O O10 0.500000 0.049444 0.000000
O O11 0.379116 0.011811 0.921433
O O12 0.000000 0.027974 0.500000
O O13 0.241188 0.089271 0.031795
O O14 0.298893 0.809165 0.541999
O O15 0.217176 0.841867 0.401044
O O16 0.500000 0.782527 0.000000
O O17 0.000000 0.324437 0.500000
O O18 0.362923 0.351816 0.975208
O O19 0.500000 0.373061 0.500000
O O20 0.000000 0.632303 0.500000
#
# Coordination Sequence:
#
# PCOD9124627 Si02
#       8
#     4   4   4   4   4   4   4   4
#     4   9  20  38  62  87 124 161 203 249 303 369
#     4  12  23  41  64  90 125 165 205 259 313 366
#     4  10  22  40  64  85 123 166 203 256 307 363
#     4  10  22  41  61  90 122 161 212 251 303 373
#     4  10  21  41  64  90 123 163 202 253 312 371
#     4  10  21  41  63  92 123 158 207 254 310 373
#     4  11  24  41  62  90 123 159 208 258 307 370
#     4  10  21  37  58  90 123 159 205 256 305 363
#
# _framework density 18.596430000000002
#
# number of rings (size 3 to 8) (size 9 to 14) (size 15 to 20)
#    0.750    1.000    1.250    4.125    0.000    4.000 
#    4.500    4.375    0.000    0.000    0.000    0.000 
#    0.000    0.000    0.000    0.000    0.000    0.000 
#
# Total GULP energy -89177.302104 kJ/mol
# GULP energy per Si atom -5573.581381 kJ/mol
# Density = 1.855410 g / cm^3
# Si number density = 18.596430 Si / 1000 Ang^3
#
#
#
# Elastic Constant Matrix: (Units=GPa)
#
#
# Indices 1 2 3 4 5 6 
#
# 1 84.0892 33.3259 16.0885 0.0000 -5.7288 0.0000
# 2 33.3259 115.0898 17.0878 0.0000 -4.5202 0.0000
# 3 16.0885 17.0878 51.2669 0.0000 1.2928 0.0000
# 4 0.0000 0.0000 0.0000 5.6642 0.0000 10.4187
# 5 -5.7288 -4.5202 1.2928 0.0000 33.6696 0.0000
# 6 0.0000 0.0000 0.0000 10.4187 0.0000 30.2723
#
#
#
# Elastic Compliance Matrix: (Units=1/GPa)
#
#
# Indices 1 2 3 4 5 6 
#
# 1 0.014048 -0.003498 -0.003294 0.000000 0.002047 0.000000
# 2 -0.003498 0.010074 -0.002281 0.000000 0.000845 0.000000
# 3 -0.003294 -0.002281 0.021342 0.000000 -0.001686 0.000000
# 4 0.000000 0.000000 0.000000 0.481125 0.000000 -0.165586
# 5 0.002047 0.000845 -0.001686 0.000000 0.030227 0.000000
# 6 0.000000 0.000000 0.000000 -0.165586 0.000000 0.090022
#
#
# Mechanical properties :
#
#
# Convention : Reuss Voigt Hill
#
# Bulk Modulus (GPa) = 36.60720 42.60558 39.60639
# Shear Modulus (GPa) = 7.41738 26.18413 16.80075
#
# Velocity S-wave (km/s) = 1.99932 3.75643 3.00899
# Velocity P-wave (km/s) = 5.00575 6.46334 5.78067
#
# Compressibility (1/GPa) = 0.02731703
#
# Stress axis : x y z
#
# Youngs Moduli (GPa) = 71.18275 99.26806 46.85509
#
# Poissons Ratio (x) = 0.34728 0.15435
# Poissons Ratio (y) = 0.24902 0.10688
# Poissons Ratio (z) = 0.23449 0.22644
#
# Static dielectric constant tensor:
#      x y z
#    x 1.653650 0.000000 0.012530 
#    y 0.000000 1.620490 0.000000 
#    z 0.012530 0.000000 1.679610 
# 
# From -- ./inp_files/25697.got.cif
#   From: 2010.05.17/outbox.cif.g08.bks.cpg/sg5_13_cif.got.tgz:25697.got - 2010.06.03 18:56:24.
