data_PCOD9124250
_publ_section_title
;
Structure prediction by ZEFSAII (Michael W. Deem and Ramdas Pophale) SiO2 
 PCOD9124250
Probable space group: C 2
;
_chemical_formula_sum "Si O2"
_cell_formula_units_Z 28
_cell_length_a 12.475767
_cell_length_b 14.086748
_cell_length_c 7.122682
_cell_angle_alpha 90.000000
_cell_angle_beta 109.195592
_cell_angle_gamma 90.000000
_cell_volume 1182.165556
_symmetry_space_group_name_H-M "C 2"
_symmetry_group_IT_number 5
_symmetry_cell_setting 'monoclinic'
loop_
_space_group_symop_operation_xyz
x,y,z
-x,y,-z
1/2+x,1/2+y,z
1/2-x,1/2+y,-z
loop_
_atom_site_type_symbol
_atom_site_label
_atom_site_fract_x
_atom_site_fract_y
_atom_site_fract_z
Si Si1 0.776901 0.516520 0.759366
Si Si2 0.964642 0.978039 0.202211
Si Si3 0.187740 0.337725 0.442071
Si Si4 0.593510 0.650902 0.211761
Si Si5 0.000000 0.627413 0.000000
Si Si6 0.574264 0.281766 0.346327
Si Si7 0.829198 0.615326 0.378468
Si Si8 0.000000 0.471154 0.500000
O O1 0.658434 0.516730 0.805080
O O2 0.783592 0.403562 0.719866
O O3 0.887421 0.561023 0.924244
O O4 0.789106 0.570556 0.559936
O O5 0.996496 0.875440 0.303511
O O6 0.048486 0.063186 0.307701
O O7 0.000000 0.969381 0.000000
O O8 0.128005 0.240297 0.354447
O O9 0.299551 0.322408 0.633282
O O10 0.093298 0.402020 0.478686
O O11 0.715203 0.622760 0.195123
O O12 0.500000 0.673058 0.000000
O O13 0.978645 0.703892 0.821121
O O14 0.616412 0.218387 0.549459
O O15 0.922977 0.546701 0.344447
#
# Coordination Sequence:
#
# PCOD9124250 Si02
#       8
#     4   4   4   4   2   4   4   2
#     4  10  23  44  68  96 139 178 234 284 352 415
#     4  11  23  44  66 100 136 181 225 290 337 411
#     4  10  23  42  67 100 136 184 227 290 345 422
#     4  10  23  43  62  98 142 178 232 286 347 401
#     4  10  22  46  66 102 134 184 228 286 358 416
#     4  10  21  43  68  99 133 179 234 280 353 414
#     4   9  21  42  69  97 134 184 231 283 342 417
#     4  10  20  42  72  98 130 178 236 280 340 416
#
# _framework density 23.685345999999999
#
# number of rings (size 3 to 8) (size 9 to 14) (size 15 to 20)
#    0.000    2.000    0.714    1.714    1.000    8.000 
#   28.286    0.000    0.000    0.000    0.000    0.000 
#    0.000    0.000    0.000    0.000    0.000    0.000 
#
# Total GULP energy -77990.198757 kJ/mol
# GULP energy per Si atom -5570.728483 kJ/mol
# Density = 2.363144 g / cm^3
# Si number density = 23.685346 Si / 1000 Ang^3
#
#
#
# Elastic Constant Matrix: (Units=GPa)
#
#
# Indices 1 2 3 4 5 6 
#
# 1 97.6363 44.4952 43.4858 0.0000 31.4059 0.0000
# 2 44.4952 194.8709 40.8057 0.0000 16.6597 0.0000
# 3 43.4858 40.8057 119.5669 0.0000 21.7588 0.0000
# 4 0.0000 0.0000 0.0000 18.5074 0.0000 14.7875
# 5 31.4059 16.6597 21.7588 0.0000 48.8252 0.0000
# 6 0.0000 0.0000 0.0000 14.7875 0.0000 40.3964
#
#
#
# Elastic Compliance Matrix: (Units=1/GPa)
#
#
# Indices 1 2 3 4 5 6 
#
# 1 0.015133 -0.002098 -0.003425 0.000000 -0.007492 0.000000
# 2 -0.002098 0.005876 -0.001222 0.000000 -0.000111 0.000000
# 3 -0.003425 -0.001222 0.010392 0.000000 -0.002011 0.000000
# 4 0.000000 0.000000 0.000000 0.076369 0.000000 -0.027956
# 5 -0.007492 -0.000111 -0.002011 0.000000 0.026235 0.000000
# 6 0.000000 0.000000 0.000000 -0.027956 0.000000 0.034988
#
#
# Mechanical properties :
#
#
# Convention : Reuss Voigt Hill
#
# Bulk Modulus (GPa) = 55.82717 74.40527 65.11622
# Shear Modulus (GPa) = 26.53180 40.43165 33.48172
#
# Velocity S-wave (km/s) = 3.35054 4.13611 3.76387
# Velocity P-wave (km/s) = 6.21206 7.36832 6.81475
#
# Compressibility (1/GPa) = 0.01791243
#
# Stress axis : x y z
#
# Youngs Moduli (GPa) = 66.07926 170.18353 96.22637
#
# Poissons Ratio (x) = 0.35701 0.32953
# Poissons Ratio (y) = 0.13862 0.11761
# Poissons Ratio (z) = 0.22629 0.20800
#
# Static dielectric constant tensor:
#      x y z
#    x 2.174050 0.000000 -0.126590 
#    y 0.000000 1.897180 0.000000 
#    z -0.126590 0.000000 1.976550 
# 
# From -- ./inp_files/20766.got.cif
#   From: 2010.05.17/outbox.cif.g08.bks.cpg/sg5_11_cif.got.tgz:20766.got - 2010.06.03 18:56:24.
