data_PCOD9124774
_publ_section_title
;
Structure prediction by ZEFSAII (Michael W. Deem and Ramdas Pophale) SiO2 
 PCOD9124774
Probable space group: C 2
;
_chemical_formula_sum "Si O2"
_cell_formula_units_Z 28
_cell_length_a 12.822164
_cell_length_b 22.940061
_cell_length_c 5.066601
_cell_angle_alpha 90.000000
_cell_angle_beta 76.227634
_cell_angle_gamma 90.000000
_cell_volume 1447.449032
_symmetry_space_group_name_H-M "C 2"
_symmetry_group_IT_number 5
_symmetry_cell_setting 'monoclinic'
loop_
_space_group_symop_operation_xyz
x,y,z
-x,y,-z
1/2+x,1/2+y,z
1/2-x,1/2+y,-z
loop_
_atom_site_type_symbol
_atom_site_label
_atom_site_fract_x
_atom_site_fract_y
_atom_site_fract_z
Si Si1 0.875126 0.466300 0.060421
Si Si2 0.880079 0.703857 0.041499
Si Si3 0.237053 0.662170 0.387986
Si Si4 0.126752 0.543353 0.440925
Si Si5 0.245848 0.356748 0.618983
Si Si6 0.620372 0.339626 0.952786
Si Si7 0.923110 0.250188 0.293270
O O1 0.857713 0.519040 0.275349
O O2 0.810179 0.411893 0.210968
O O3 0.856057 0.491433 0.780107
O O4 0.000000 0.449513 0.000000
O O5 0.801785 0.671725 0.289838
O O6 0.881578 0.771359 0.123904
O O7 0.837935 0.697690 0.770875
O O8 0.000000 0.679863 0.000000
O O9 0.209084 0.595594 0.336792
O O10 0.354216 0.690889 0.297098
O O11 0.000000 0.561851 0.500000
O O12 0.298395 0.368872 0.303029
O O13 0.162054 0.303375 0.637588
O O14 0.338176 0.341041 0.773663
O O15 0.500000 0.363114 0.000000
O O16 0.000000 0.247675 0.500000
O O17 0.000000 0.260286 0.000000
#
# Coordination Sequence:
#
# PCOD9124774 Si02
#       7
#     4   4   4   4   4   4   4
#     4  10  22  39  61  91 121 159 206 253 300 359
#     4  11  20  34  57  90 123 155 191 237 306 376
#     4  12  22  39  60  88 125 161 197 249 313 363
#     4  10  21  38  61  91 121 154 203 256 310 365
#     4  12  22  41  63  88 126 168 200 251 313 363
#     4  11  22  37  59  91 127 157 197 249 303 372
#     4  12  25  40  59  89 124 162 211 251 296 368
#
# _framework density 19.344377999999999
#
# number of rings (size 3 to 8) (size 9 to 14) (size 15 to 20)
#    0.000    0.857    2.857    5.571    0.000    5.143 
#    0.000    0.000    0.000    8.571    0.000    0.000 
#    0.000    0.000    0.000    0.000    0.000    0.000 
#
# Total GULP energy -78211.321152 kJ/mol
# GULP energy per Si atom -5586.522939 kJ/mol
# Density = 1.930035 g / cm^3
# Si number density = 19.344378 Si / 1000 Ang^3
#
#
#
# Elastic Constant Matrix: (Units=GPa)
#
#
# Indices 1 2 3 4 5 6 
#
# 1 104.6986 22.5630 13.8274 0.0000 8.7828 0.0000
# 2 22.5630 56.5332 -4.1445 0.0000 -10.4420 0.0000
# 3 13.8274 -4.1445 65.7053 0.0000 5.4928 0.0000
# 4 0.0000 0.0000 0.0000 23.1578 0.0000 -2.9567
# 5 8.7828 -10.4420 5.4928 0.0000 34.3367 0.0000
# 6 0.0000 0.0000 0.0000 -2.9567 0.0000 13.3463
#
#
#
# Elastic Compliance Matrix: (Units=1/GPa)
#
#
# Indices 1 2 3 4 5 6 
#
# 1 0.011407 -0.005506 -0.002396 0.000000 -0.004209 0.000000
# 2 -0.005506 0.021432 0.001873 0.000000 0.007626 0.000000
# 3 -0.002396 0.001873 0.015956 0.000000 -0.001370 0.000000
# 4 0.000000 0.000000 0.000000 0.044439 0.000000 0.009845
# 5 -0.004209 0.007626 -0.001370 0.000000 0.032738 0.000000
# 6 0.000000 0.000000 0.000000 0.009845 0.000000 0.077108
#
#
# Mechanical properties :
#
#
# Convention : Reuss Voigt Hill
#
# Bulk Modulus (GPa) = 27.21973 32.38096 29.80035
# Shear Modulus (GPa) = 21.98912 27.14757 24.56834
#
# Velocity S-wave (km/s) = 3.37518 3.75024 3.56764
# Velocity P-wave (km/s) = 5.41210 5.96053 5.69292
#
# Compressibility (1/GPa) = 0.03673806
#
# Stress axis : x y z
#
# Youngs Moduli (GPa) = 87.66342 46.65897 62.67082
#
# Poissons Ratio (x) = 0.25690 0.15016
# Poissons Ratio (y) = 0.48266 -0.11738
# Poissons Ratio (z) = 0.21005 -0.08739
#
# Static dielectric constant tensor:
#      x y z
#    x 1.661130 0.000000 -0.021130 
#    y 0.000000 1.694000 0.000000 
#    z -0.021130 0.000000 1.642770 
# 
# From -- ./inp_files/5608.got.cif
#   From: 2010.05.17/outbox.cif.g08.bks.cpg/sg5_3_cif.got.tgz:5608.got - 2010.06.03 18:56:24.
