data_PCOD9124724
_publ_section_title
;
Structure prediction by ZEFSAII (Michael W. Deem and Ramdas Pophale) SiO2 
 PCOD9124724
Probable space group: C 2
;
_chemical_formula_sum "Si O2"
_cell_formula_units_Z 30
_cell_length_a 14.433181
_cell_length_b 5.349916
_cell_length_c 16.936184
_cell_angle_alpha 90.000000
_cell_angle_beta 86.262567
_cell_angle_gamma 90.000000
_cell_volume 1304.968302
_symmetry_space_group_name_H-M "C 2"
_symmetry_group_IT_number 5
_symmetry_cell_setting 'monoclinic'
loop_
_space_group_symop_operation_xyz
x,y,z
-x,y,-z
1/2+x,1/2+y,z
1/2-x,1/2+y,-z
loop_
_atom_site_type_symbol
_atom_site_label
_atom_site_fract_x
_atom_site_fract_y
_atom_site_fract_z
Si Si1 0.811665 0.447970 0.411625
Si Si2 0.671587 0.086148 0.915856
Si Si3 0.451707 0.478269 0.130528
Si Si4 0.348115 0.376419 0.848732
Si Si5 0.691323 0.947231 0.416617
Si Si6 0.000000 0.372321 0.000000
Si Si7 0.374943 0.899018 0.755317
Si Si8 0.088678 0.362092 0.757699
O O1 0.766104 0.722124 0.412447
O O2 0.859241 0.423509 0.495451
O O3 0.868911 0.413032 0.329004
O O4 0.737137 0.222030 0.412834
O O5 0.639088 0.371876 0.907256
O O6 0.773398 0.969756 0.917907
O O7 0.599530 0.004671 0.987596
O O8 0.641521 0.985498 0.829278
O O9 0.546758 0.322643 0.127614
O O10 0.419742 0.569852 0.217978
O O11 0.492424 0.706792 0.078057
O O12 0.321023 0.124795 0.802749
O O13 0.352984 0.623539 0.791710
O O14 0.639842 0.910385 0.337285
O O15 0.483228 0.948353 0.761475
#
# Coordination Sequence:
#
# PCOD9124724 Si02
#       8
#     4   4   4   4   4   2   4   4
#     4  10  22  37  59  90 122 174 216 268 330 388
#     4  11  22  43  68  89 130 174 207 274 333 389
#     4  10  23  45  62  98 131 165 222 277 318 416
#     4  11  25  41  69  97 129 170 223 262 334 390
#     4  10  21  38  57  88 131 162 223 271 320 395
#     4  10  24  44  64  96 128 164 218 262 332 400
#     4  11  22  40  61  96 129 165 220 279 310 403
#     4  10  22  37  64  89 127 166 220 268 330 383
#
# _framework density 22.989063999999999
#
# number of rings (size 3 to 8) (size 9 to 14) (size 15 to 20)
#    0.000    1.600    1.333    2.800    7.467    0.533 
#    4.800    0.000    0.000    6.400    0.000    0.000 
#    0.000    0.000    0.000    0.000    0.000    0.000 
#
# Total GULP energy -83626.176217 kJ/mol
# GULP energy per Si atom -5575.078414 kJ/mol
# Density = 2.293674 g / cm^3
# Si number density = 22.989064 Si / 1000 Ang^3
#
#
#
# Elastic Constant Matrix: (Units=GPa)
#
#
# Indices 1 2 3 4 5 6 
#
# 1 60.5834 2.7248 13.3875 0.0000 -4.6823 0.0000
# 2 2.7248 54.2280 25.1058 0.0000 -8.1031 0.0000
# 3 13.3875 25.1058 121.6227 0.0000 -17.1349 0.0000
# 4 0.0000 0.0000 0.0000 33.9361 0.0000 -0.5520
# 5 -4.6823 -8.1031 -17.1349 0.0000 30.4148 0.0000
# 6 0.0000 0.0000 0.0000 -0.5520 0.0000 20.8909
#
#
#
# Elastic Compliance Matrix: (Units=1/GPa)
#
#
# Indices 1 2 3 4 5 6 
#
# 1 0.016999 0.000174 -0.001664 0.000000 0.001726 0.000000
# 2 0.000174 0.020705 -0.003815 0.000000 0.003394 0.000000
# 3 -0.001664 -0.003815 0.009791 0.000000 0.004243 0.000000
# 4 0.000000 0.000000 0.000000 0.029480 0.000000 0.000779
# 5 0.001726 0.003394 0.004243 0.000000 0.036439 0.000000
# 6 0.000000 0.000000 0.000000 0.000779 0.000000 0.047888
#
#
# Mechanical properties :
#
#
# Convention : Reuss Voigt Hill
#
# Bulk Modulus (GPa) = 27.11095 35.43003 31.27049
# Shear Modulus (GPa) = 27.14326 30.06276 28.60301
#
# Velocity S-wave (km/s) = 3.43986 3.62013 3.53115
# Velocity P-wave (km/s) = 5.25314 5.73751 5.50066
#
# Compressibility (1/GPa) = 0.03688546
#
# Stress axis : x y z
#
# Youngs Moduli (GPa) = 58.82551 48.29677 102.13841
#
# Poissons Ratio (x) = -0.00841 0.16995
# Poissons Ratio (y) = -0.01024 0.38967
# Poissons Ratio (z) = 0.09788 0.18426
#
# Static dielectric constant tensor:
#      x y z
#    x 1.924230 0.000000 0.017240 
#    y 0.000000 1.987470 0.000000 
#    z 0.017240 0.000000 1.870540 
# 
# From -- ./inp_files/61206.got.cif
#   From: 2010.05.17/outbox.cif.g08.bks.cpg/sg5_31_cif.got.tgz:61206.got - 2010.06.03 18:56:24.
