data_PCOD9124798
_publ_section_title
;
Structure prediction by ZEFSAII (Michael W. Deem and Ramdas Pophale) SiO2 
 PCOD9124798
Probable space group: C 2
;
_chemical_formula_sum "Si O2"
_cell_formula_units_Z 28
_cell_length_a 13.205369
_cell_length_b 7.430403
_cell_length_c 11.802635
_cell_angle_alpha 90.000000
_cell_angle_beta 78.484599
_cell_angle_gamma 90.000000
_cell_volume 1134.777789
_symmetry_space_group_name_H-M "C 2"
_symmetry_group_IT_number 5
_symmetry_cell_setting 'monoclinic'
loop_
_space_group_symop_operation_xyz
x,y,z
-x,y,-z
1/2+x,1/2+y,z
1/2-x,1/2+y,-z
loop_
_atom_site_type_symbol
_atom_site_label
_atom_site_fract_x
_atom_site_fract_y
_atom_site_fract_z
Si Si1 0.113583 0.853280 0.629310
Si Si2 0.524022 0.931313 0.145334
Si Si3 0.690144 0.784658 0.829678
Si Si4 0.918634 0.813798 0.104061
Si Si5 0.232716 0.179180 0.574964
Si Si6 0.775683 0.555381 0.006503
Si Si7 0.446829 0.041103 0.617637
O O1 0.112932 0.883802 0.765022
O O2 0.212733 0.752240 0.550689
O O3 0.013848 0.728342 0.621724
O O4 0.134572 0.051743 0.574308
O O5 0.433413 0.798955 0.134404
O O6 0.478306 0.128974 0.127340
O O7 0.630647 0.928210 0.056761
O O8 0.545556 0.927024 0.272252
O O9 0.706426 0.802513 0.689996
O O10 0.719758 0.615551 0.903404
O O11 0.756861 0.946325 0.873404
O O12 0.825026 0.738120 0.048918
O O13 0.000000 0.908506 0.000000
O O14 0.329417 0.075574 0.611653
O O15 0.500000 0.948164 0.500000
#
# Coordination Sequence:
#
# PCOD9124798 Si02
#       7
#     4   4   4   4   4   4   4
#     4  10  23  40  68 102 132 178 233 276 340 411
#     4   9  18  39  62  91 130 175 221 276 335 394
#     4  11  23  38  66  96 134 175 225 285 334 406
#     4   8  17  35  63  90 126 180 219 275 336 392
#     4  11  24  41  69 101 135 179 232 276 345 411
#     4  10  21  38  62  93 134 174 229 273 338 406
#     4   9  19  39  67  89 131 180 216 274 336 395
#
# _framework density 24.674431999999999
#
# number of rings (size 3 to 8) (size 9 to 14) (size 15 to 20)
#    0.000    2.286    1.429    1.286   10.000    0.000 
#    0.000    4.286    9.429    0.000    0.000    0.000 
#    0.000    0.000    0.000    0.000    0.000    0.000 
#
# Total GULP energy -77992.175421 kJ/mol
# GULP energy per Si atom -5570.869673 kJ/mol
# Density = 2.461827 g / cm^3
# Si number density = 24.674432 Si / 1000 Ang^3
#
#
#
# Elastic Constant Matrix: (Units=GPa)
#
#
# Indices 1 2 3 4 5 6 
#
# 1 76.4353 9.7293 19.1462 0.0000 2.0580 0.0000
# 2 9.7293 39.5471 15.9571 0.0000 0.5872 0.0000
# 3 19.1462 15.9571 151.7373 0.0000 4.3300 0.0000
# 4 0.0000 0.0000 0.0000 29.0639 0.0000 10.0179
# 5 2.0580 0.5872 4.3300 0.0000 27.6052 0.0000
# 6 0.0000 0.0000 0.0000 10.0179 0.0000 27.3836
#
#
#
# Elastic Compliance Matrix: (Units=1/GPa)
#
#
# Indices 1 2 3 4 5 6 
#
# 1 0.013818 -0.002813 -0.001426 0.000000 -0.000747 0.000000
# 2 -0.002813 0.026980 -0.002483 0.000000 0.000025 0.000000
# 3 -0.001426 -0.002483 0.007059 0.000000 -0.000948 0.000000
# 4 0.000000 0.000000 0.000000 0.039372 0.000000 -0.014404
# 5 -0.000747 0.000025 -0.000948 0.000000 0.036429 0.000000
# 6 0.000000 0.000000 0.000000 -0.014404 0.000000 0.041787
#
#
# Mechanical properties :
#
#
# Convention : Reuss Voigt Hill
#
# Bulk Modulus (GPa) = 29.05973 39.70942 34.38457
# Shear Modulus (GPa) = 26.26599 31.66970 28.96784
#
# Velocity S-wave (km/s) = 3.26621 3.58649 3.43009
# Velocity P-wave (km/s) = 5.10167 5.76878 5.44545
#
# Compressibility (1/GPa) = 0.03441188
#
# Stress axis : x y z
#
# Youngs Moduli (GPa) = 72.36716 37.06471 141.67296
#
# Poissons Ratio (x) = 0.10426 0.20209
# Poissons Ratio (y) = 0.20356 0.35178
# Poissons Ratio (z) = 0.10323 0.09203
#
# Static dielectric constant tensor:
#      x y z
#    x 2.018620 0.000000 -0.089530 
#    y 0.000000 2.107580 0.000000 
#    z -0.089530 0.000000 2.260200 
# 
# From -- ./inp_files/41707.got.cif
#   From: 2010.05.17/outbox.cif.g08.bks.cpg/sg5_21_cif.got.tgz:41707.got - 2010.06.03 18:56:24.
