data_PCOD9124664
_publ_section_title
;
Structure prediction by ZEFSAII (Michael W. Deem and Ramdas Pophale) SiO2 
 PCOD9124664
Probable space group: C 2
;
_chemical_formula_sum "Si O2"
_cell_formula_units_Z 28
_cell_length_a 7.832469
_cell_length_b 16.132012
_cell_length_c 18.062413
_cell_angle_alpha 90.000000
_cell_angle_beta 38.417817
_cell_angle_gamma 90.000000
_cell_volume 1418.169901
_symmetry_space_group_name_H-M "C 2"
_symmetry_group_IT_number 5
_symmetry_cell_setting 'monoclinic'
loop_
_space_group_symop_operation_xyz
x,y,z
-x,y,-z
1/2+x,1/2+y,z
1/2-x,1/2+y,-z
loop_
_atom_site_type_symbol
_atom_site_label
_atom_site_fract_x
_atom_site_fract_y
_atom_site_fract_z
Si Si1 0.914998 0.904600 0.413938
Si Si2 0.172503 0.730764 0.366394
Si Si3 0.739735 0.560384 0.268310
Si Si4 0.262640 0.234329 0.235435
Si Si5 0.174791 0.407630 0.330468
Si Si6 0.413861 0.576514 0.222876
Si Si7 0.747615 0.127022 0.032689
O O1 0.780725 0.915147 0.378656
O O2 0.655889 0.903935 0.557156
O O3 0.057346 0.815251 0.371300
O O4 0.117042 0.983313 0.353982
O O5 0.491041 0.744009 0.278818
O O6 0.187066 0.648786 0.310696
O O7 0.000000 0.713394 0.500000
O O8 0.708181 0.655118 0.308922
O O9 0.573361 0.566560 0.246857
O O10 0.059666 0.556403 0.136243
O O11 0.300816 0.322069 0.259727
O O12 0.531040 0.202454 0.101141
O O13 0.274642 0.488747 0.253922
O O14 0.629583 0.600646 0.086903
O O15 0.000000 0.148753 0.000000
#
# Coordination Sequence:
#
# PCOD9124664 Si02
#       7
#     4   4   4   4   4   4   4
#     4  10  21  37  61  93 120 159 202 253 303 375
#     4  11  22  37  63  92 124 158 207 248 308 371
#     4   8  20  39  63  80 122 157 203 244 308 361
#     4   9  21  40  60  85 124 158 200 257 306 358
#     4  10  21  38  62  91 125 154 207 252 310 364
#     4  10  22  38  64  87 120 170 203 245 304 370
#     4  10  22  41  61  88 123 157 215 257 298 356
#
# _framework density 19.743756999999999
#
# number of rings (size 3 to 8) (size 9 to 14) (size 15 to 20)
#    0.857    1.429    1.429    0.429    8.000    1.143 
#    2.571    0.000    3.143    0.000    0.000    0.000 
#    0.000    0.000    0.000    0.000    0.000    0.000 
#
# Total GULP energy -77972.294752 kJ/mol
# GULP energy per Si atom -5569.449625 kJ/mol
# Density = 1.969882 g / cm^3
# Si number density = 19.743757 Si / 1000 Ang^3
#
#
#
# Elastic Constant Matrix: (Units=GPa)
#
#
# Indices 1 2 3 4 5 6 
#
# 1 32.6619 16.9251 25.2874 0.0031 -14.4717 -0.0013
# 2 16.9251 177.0761 93.4731 0.0027 -3.2930 0.0001
# 3 25.2874 93.4731 131.3161 0.0032 -15.9142 0.0032
# 4 0.0031 0.0027 0.0032 26.0205 0.0026 -0.5588
# 5 -14.4717 -3.2930 -15.9142 0.0026 25.1681 -0.0005
# 6 -0.0013 0.0001 0.0032 -0.5588 -0.0005 26.6812
#
#
#
# Elastic Compliance Matrix: (Units=1/GPa)
#
#
# Indices 1 2 3 4 5 6 
#
# 1 0.045215 -0.001204 -0.005110 -0.000007 0.022610 0.000003
# 2 -0.001204 0.009312 -0.006858 0.000000 -0.003810 0.000001
# 3 -0.005110 -0.006858 0.014096 -0.000001 0.005078 -0.000002
# 4 -0.000007 0.000000 -0.000001 0.038449 -0.000008 0.000805
# 5 0.022610 -0.003810 0.005078 -0.000008 0.055446 0.000001
# 6 0.000003 0.000001 -0.000002 0.000805 0.000001 0.037497
#
#
# Mechanical properties :
#
#
# Convention : Reuss Voigt Hill
#
# Bulk Modulus (GPa) = 23.65255 68.04726 45.84991
# Shear Modulus (GPa) = 20.79431 29.26518 25.02974
#
# Velocity S-wave (km/s) = 3.24884 3.85418 3.56438
# Velocity P-wave (km/s) = 5.10676 7.37199 6.34134
#
# Compressibility (1/GPa) = 0.04227873
#
# Stress axis : x y z
#
# Youngs Moduli (GPa) = 22.11678 107.39118 70.93987
#
# Poissons Ratio (x) = 0.12928 0.36250
# Poissons Ratio (y) = 0.02662 0.48652
# Poissons Ratio (z) = 0.11302 0.73652
#
# Static dielectric constant tensor:
#      x y z
#    x 1.754820 0.000000 0.001400 
#    y 0.000000 1.727110 0.000000 
#    z 0.001400 0.000000 1.685420 
# 
# From -- ./inp_files/64686.got.cif
#   From: 2010.05.17/outbox.cif.g08.bks.cpg/sg5_33_cif.got.tgz:64686.got - 2010.06.03 18:56:24.
