data_PCOD9124761
_publ_section_title
;
Structure prediction by ZEFSAII (Michael W. Deem and Ramdas Pophale) SiO2 
 PCOD9124761
Probable space group: C 2
;
_chemical_formula_sum "Si O2"
_cell_formula_units_Z 28
_cell_length_a 12.717013
_cell_length_b 4.918869
_cell_length_c 21.261231
_cell_angle_alpha 90.000000
_cell_angle_beta 59.036693
_cell_angle_gamma 90.000000
_cell_volume 1140.437181
_symmetry_space_group_name_H-M "C 2"
_symmetry_group_IT_number 5
_symmetry_cell_setting 'monoclinic'
loop_
_space_group_symop_operation_xyz
x,y,z
-x,y,-z
1/2+x,1/2+y,z
1/2-x,1/2+y,-z
loop_
_atom_site_type_symbol
_atom_site_label
_atom_site_fract_x
_atom_site_fract_y
_atom_site_fract_z
Si Si1 0.309230 0.231280 0.513880
Si Si2 0.241207 0.289447 0.043480
Si Si3 0.004929 0.602212 0.636116
Si Si4 0.975010 0.979031 0.828222
Si Si5 0.353868 0.175743 0.133786
Si Si6 0.377627 0.599245 0.334735
Si Si7 0.203574 0.681540 0.214670
O O1 0.278778 0.537201 0.502209
O O2 0.444450 0.147401 0.449527
O O3 0.257421 0.179567 0.599408
O O4 0.346101 0.206613 0.061168
O O5 0.113578 0.202603 0.114503
O O6 0.247831 0.600829 0.021462
O O7 0.032366 0.301863 0.654046
O O8 0.869397 0.691254 0.697538
O O9 0.094314 0.796845 0.649667
O O10 0.081158 0.100782 0.750243
O O11 0.030498 0.798416 0.866729
O O12 0.892737 0.792343 0.807432
O O13 0.243721 0.374485 0.190455
O O14 0.319350 0.876120 0.167079
#
# Coordination Sequence:
#
# PCOD9124761 Si02
#       7
#     4   4   4   4   4   4   4
#     4   8  14  24  43  77 112 149 198 238 282 340
#     4  11  24  44  64  88 121 152 193 244 296 363
#     4   9  15  28  50  79 119 157 193 246 291 327
#     4  10  23  42  65  89 122 157 194 246 299 348
#     4  11  24  41  64  91 119 157 198 239 296 357
#     4   9  17  29  52  82 113 153 199 240 286 347
#     4  10  21  38  60  91 122 156 203 244 286 349
#
# _framework density 24.551984999999998
#
# number of rings (size 3 to 8) (size 9 to 14) (size 15 to 20)
#    0.000    2.286    0.000    4.286    0.000    7.429 
#    0.000    4.286    0.000    0.857    0.000   10.000 
#    0.000    0.000    0.000    0.000    0.000    0.000 
#
# Total GULP energy -78277.701932 kJ/mol
# GULP energy per Si atom -5591.264424 kJ/mol
# Density = 2.449610 g / cm^3
# Si number density = 24.551985 Si / 1000 Ang^3
#
#
#
# Elastic Constant Matrix: (Units=GPa)
#
#
# Indices 1 2 3 4 5 6 
#
# 1 66.5610 2.1142 28.0657 0.0012 10.2855 0.0029
# 2 2.1142 70.5727 12.3098 0.0023 3.4160 0.0070
# 3 28.0657 12.3098 137.1424 0.0006 -4.2691 0.0011
# 4 0.0012 0.0023 0.0006 37.2195 -0.0004 -6.9449
# 5 10.2855 3.4160 -4.2691 -0.0004 37.8313 0.0002
# 6 0.0029 0.0070 0.0011 -6.9449 0.0002 27.7808
#
#
#
# Elastic Compliance Matrix: (Units=1/GPa)
#
#
# Indices 1 2 3 4 5 6 
#
# 1 0.017397 0.000385 -0.003756 -0.000001 -0.005189 -0.000002
# 2 0.000385 0.014483 -0.001428 -0.000002 -0.001574 -0.000004
# 3 -0.003756 -0.001428 0.008253 0.000000 0.002082 0.000000
# 4 -0.000001 -0.000002 0.000000 0.028182 0.000001 0.007045
# 5 -0.005189 -0.001574 0.002082 0.000001 0.028221 0.000001
# 6 -0.000002 -0.000004 0.000000 0.007045 0.000001 0.037757
#
#
# Mechanical properties :
#
#
# Convention : Reuss Voigt Hill
#
# Bulk Modulus (GPa) = 32.74818 39.91728 36.33273
# Shear Modulus (GPa) = 32.45254 36.01874 34.23564
#
# Velocity S-wave (km/s) = 3.63959 3.83435 3.73824
# Velocity P-wave (km/s) = 5.57040 5.99137 5.78472
#
# Compressibility (1/GPa) = 0.03053605
#
# Stress axis : x y z
#
# Youngs Moduli (GPa) = 57.48030 69.04424 121.16253
#
# Poissons Ratio (x) = -0.02659 0.45513
# Poissons Ratio (y) = -0.02214 0.17300
# Poissons Ratio (z) = 0.21592 0.09858
#
# Static dielectric constant tensor:
#      x y z
#    x 1.952760 0.000000 -0.033420 
#    y 0.000000 1.848890 0.000000 
#    z -0.033420 0.000000 2.005920 
# 
# From -- ./inp_files/65549.got.cif
#   From: 2010.05.17/outbox.cif.g08.bks.cpg/sg5_33_cif.got.tgz:65549.got - 2010.06.03 18:56:24.
