data_PCOD9124720
_publ_section_title
;
Structure prediction by ZEFSAII (Michael W. Deem and Ramdas Pophale) SiO2 
 PCOD9124720
Probable space group: C 2
;
_chemical_formula_sum "Si O2"
_cell_formula_units_Z 30
_cell_length_a 10.307876
_cell_length_b 8.806709
_cell_length_c 27.828400
_cell_angle_alpha 90.000000
_cell_angle_beta 33.942275
_cell_angle_gamma 90.000000
_cell_volume 1410.533234
_symmetry_space_group_name_H-M "C 2"
_symmetry_group_IT_number 5
_symmetry_cell_setting 'monoclinic'
loop_
_space_group_symop_operation_xyz
x,y,z
-x,y,-z
1/2+x,1/2+y,z
1/2-x,1/2+y,-z
loop_
_atom_site_type_symbol
_atom_site_label
_atom_site_fract_x
_atom_site_fract_y
_atom_site_fract_z
Si Si1 0.268493 0.407310 0.525474
Si Si2 0.500000 0.134898 0.500000
Si Si3 0.756676 0.056436 0.628959
Si Si4 0.554851 0.410054 0.181670
Si Si5 0.724565 0.904695 0.371398
Si Si6 0.000465 0.908796 0.089754
Si Si7 0.545014 0.045489 0.185752
Si Si8 0.502466 0.044967 0.090632
O O1 0.402448 0.247755 0.489352
O O2 0.188502 0.457111 0.603680
O O3 0.468302 0.526227 0.449758
O O4 0.043696 0.397323 0.562534
O O5 0.711385 0.032272 0.415947
O O6 0.709454 0.234316 0.633522
O O7 0.626050 0.010073 0.717597
O O8 0.381401 0.451500 0.278131
O O9 0.464071 0.454187 0.156881
O O10 0.804315 0.480633 0.116875
O O11 0.576259 0.227501 0.175425
O O12 0.008754 0.726742 0.084525
O O13 0.791722 0.969901 0.121394
O O14 0.246568 0.977313 0.998660
O O15 0.450811 0.002199 0.162163
#
# Coordination Sequence:
#
# PCOD9124720 Si02
#       8
#     4   2   4   4   4   4   4   4
#     4  10  21  38  56  82 118 153 191 240 287 337
#     4  10  22  34  56  86 112 148 198 238 282 342
#     4   9  20  38  58  82 115 152 193 238 289 340
#     4  10  24  40  59  88 121 153 195 244 291 346
#     4  11  21  37  59  82 113 155 193 235 289 342
#     4  11  23  42  64  87 120 155 192 240 294 352
#     4  10  22  41  62  86 118 155 195 244 292 345
#     4  11  24  40  62  91 119 152 194 241 294 350
#
# _framework density 21.268553000000001
#
# number of rings (size 3 to 8) (size 9 to 14) (size 15 to 20)
#    0.000    1.867    0.000    4.000    0.000   11.733 
#    0.000    4.000    0.000    0.000    0.000    0.000 
#    0.000    0.000    0.000    0.000    0.000    0.000 
#
# Total GULP energy -83855.054986 kJ/mol
# GULP energy per Si atom -5590.336999 kJ/mol
# Density = 2.122015 g / cm^3
# Si number density = 21.268553 Si / 1000 Ang^3
#
#
#
# Elastic Constant Matrix: (Units=GPa)
#
#
# Indices 1 2 3 4 5 6 
#
# 1 50.7864 -6.4516 -26.8351 -0.0001 -2.1748 0.0000
# 2 -6.4516 26.5966 6.6709 -0.0003 16.5590 0.0001
# 3 -26.8351 6.6709 58.9281 -0.0006 12.7313 0.0001
# 4 -0.0001 -0.0003 -0.0006 31.2202 0.0001 0.2544
# 5 -2.1748 16.5590 12.7313 0.0001 28.4161 -0.0001
# 6 0.0000 0.0001 0.0001 0.2544 -0.0001 29.2261
#
#
#
# Elastic Compliance Matrix: (Units=1/GPa)
#
#
# Indices 1 2 3 4 5 6 
#
# 1 0.027596 0.009039 0.013535 0.000000 -0.009220 0.000000
# 2 0.009039 0.062005 0.005264 0.000001 -0.037799 0.000000
# 3 0.013535 0.005264 0.025439 0.000001 -0.013429 0.000000
# 4 0.000000 0.000001 0.000001 0.032033 -0.000001 -0.000279
# 5 -0.009220 -0.037799 -0.013429 -0.000001 0.062529 0.000000
# 6 0.000000 0.000000 0.000000 -0.000279 0.000000 0.034218
#
#
# Mechanical properties :
#
#
# Convention : Reuss Voigt Hill
#
# Bulk Modulus (GPa) = 5.85766 9.23104 7.54435
# Shear Modulus (GPa) = 20.40409 28.63426 24.51918
#
# Velocity S-wave (km/s) = 3.10071 3.67320 3.39903
# Velocity P-wave (km/s) = 3.94706 4.72647 4.35424
#
# Compressibility (1/GPa) = 0.17071654
#
# Stress axis : x y z
#
# Youngs Moduli (GPa) = 36.23741 16.12774 39.30958
#
# Poissons Ratio (x) = -0.14578 -0.53207
# Poissons Ratio (y) = -0.32756 -0.20691
# Poissons Ratio (z) = -0.49049 -0.08489
#
# Static dielectric constant tensor:
#      x y z
#    x 1.769420 0.000000 0.035810 
#    y 0.000000 1.760600 0.000000 
#    z 0.035810 0.000000 1.754730 
# 
# From -- ./inp_files/71696.got.cif
#   From: 2010.05.17/outbox.cif.g08.bks.cpg/sg5_36_cif.got.tgz:71696.got - 2010.06.03 18:56:24.
