data_PCOD9124808
_publ_section_title
;
Structure prediction by ZEFSAII (Michael W. Deem and Ramdas Pophale) SiO2 
 PCOD9124808
Probable space group: C 2
;
_chemical_formula_sum "Si O2"
_cell_formula_units_Z 26
_cell_length_a 13.342905
_cell_length_b 10.806109
_cell_length_c 12.655242
_cell_angle_alpha 90.000000
_cell_angle_beta 134.610595
_cell_angle_gamma 90.000000
_cell_volume 1298.993156
_symmetry_space_group_name_H-M "C 2"
_symmetry_group_IT_number 5
_symmetry_cell_setting 'monoclinic'
loop_
_space_group_symop_operation_xyz
x,y,z
-x,y,-z
1/2+x,1/2+y,z
1/2-x,1/2+y,-z
loop_
_atom_site_type_symbol
_atom_site_label
_atom_site_fract_x
_atom_site_fract_y
_atom_site_fract_z
Si Si1 0.331638 0.744040 0.691472
Si Si2 0.776586 0.246700 0.400211
Si Si3 0.078798 0.075974 0.949460
Si Si4 0.652584 0.473265 0.563950
Si Si5 0.500000 0.947921 0.500000
Si Si6 0.485812 0.366028 0.733400
Si Si7 0.859475 0.645204 0.268772
O O1 0.307549 0.733639 0.548796
O O2 0.484459 0.690752 0.835484
O O3 0.282849 0.883066 0.686664
O O4 0.219329 0.666309 0.677350
O O5 0.614783 0.283885 0.267573
O O6 0.870061 0.356753 0.423753
O O7 0.813910 0.113365 0.381562
O O8 0.236546 0.111755 0.096312
O O9 0.075937 0.962756 0.866002
O O10 0.000000 0.039048 0.000000
O O11 0.500000 0.441302 0.500000
O O12 0.619583 0.449398 0.415923
O O13 0.467037 0.035097 0.374873
O O14 0.566671 0.268533 0.719494
#
# Coordination Sequence:
#
# PCOD9124808 Si02
#       7
#     4   4   4   4   2   4   4
#     4  10  21  38  63  91 122 167 208 250 318 373
#     4  11  23  35  64  92 131 160 207 266 310 370
#     4  10  22  43  63  86 129 172 212 262 319 379
#     4  11  20  38  62  96 130 163 208 267 306 371
#     4  12  24  40  62 100 120 166 218 260 322 384
#     4  11  23  41  61  93 124 168 214 259 323 377
#     4  11  24  41  66  89 125 167 213 263 323 382
#
# _framework density 20.015502000000001
#
# number of rings (size 3 to 8) (size 9 to 14) (size 15 to 20)
#    0.000    1.231    3.846    3.692    6.462    1.231 
#    0.000    0.000    0.000    0.000    0.000    0.000 
#    0.000    0.000    0.000    0.000    0.000    0.000 
#
# Total GULP energy -72526.613253 kJ/mol
# GULP energy per Si atom -5578.970250 kJ/mol
# Density = 1.996995 g / cm^3
# Si number density = 20.015502 Si / 1000 Ang^3
#
#
#
# Elastic Constant Matrix: (Units=GPa)
#
#
# Indices 1 2 3 4 5 6 
#
# 1 39.1166 25.2764 11.0862 0.0000 8.9504 0.0000
# 2 25.2764 155.0067 64.4399 0.0000 13.2119 0.0000
# 3 11.0862 64.4399 77.8422 0.0000 15.7400 0.0000
# 4 0.0000 0.0000 0.0000 33.6832 0.0000 -5.1040
# 5 8.9504 13.2119 15.7400 0.0000 25.2361 0.0000
# 6 0.0000 0.0000 0.0000 -5.1040 0.0000 30.9890
#
#
#
# Elastic Compliance Matrix: (Units=1/GPa)
#
#
# Indices 1 2 3 4 5 6 
#
# 1 0.030335 -0.004787 0.001501 0.000000 -0.009189 0.000000
# 2 -0.004787 0.010592 -0.008364 0.000000 0.001369 0.000000
# 3 0.001501 -0.008364 0.021489 0.000000 -0.009556 0.000000
# 4 0.000000 0.000000 0.000000 0.030448 0.000000 0.005015
# 5 -0.009189 0.001369 -0.009556 0.000000 0.048129 0.000000
# 6 0.000000 0.000000 0.000000 0.005015 0.000000 0.033096
#
#
# Mechanical properties :
#
#
# Convention : Reuss Voigt Hill
#
# Bulk Modulus (GPa) = 25.56504 52.61895 39.09199
# Shear Modulus (GPa) = 23.76117 29.39251 26.57684
#
# Velocity S-wave (km/s) = 3.44923 3.83624 3.64787
# Velocity P-wave (km/s) = 5.35380 6.78001 6.10867
#
# Compressibility (1/GPa) = 0.03911592
#
# Stress axis : x y z
#
# Youngs Moduli (GPa) = 32.96496 94.40882 46.53613
#
# Poissons Ratio (x) = 0.45197 -0.06984
# Poissons Ratio (y) = 0.15782 0.38921
# Poissons Ratio (z) = -0.04947 0.78959
#
# Static dielectric constant tensor:
#      x y z
#    x 1.748430 0.000000 -0.018630 
#    y 0.000000 1.733620 0.000000 
#    z -0.018630 0.000000 1.696140 
# 
# From -- ./inp_files/46093.got.cif
#   From: 2010.05.17/outbox.cif.g08.bks.cpg/sg5_24_cif.got.tgz:46093.got - 2010.06.03 18:56:24.
