data_PCOD9124659
_publ_section_title
;
Structure prediction by ZEFSAII (Michael W. Deem and Ramdas Pophale) SiO2 
 PCOD9124659
Probable space group: C 2
;
_chemical_formula_sum "Si O2"
_cell_formula_units_Z 28
_cell_length_a 18.212917
_cell_length_b 6.769210
_cell_length_c 11.229147
_cell_angle_alpha 90.000000
_cell_angle_beta 51.712099
_cell_angle_gamma 90.000000
_cell_volume 1086.632256
_symmetry_space_group_name_H-M "C 2"
_symmetry_group_IT_number 5
_symmetry_cell_setting 'monoclinic'
loop_
_space_group_symop_operation_xyz
x,y,z
-x,y,-z
1/2+x,1/2+y,z
1/2-x,1/2+y,-z
loop_
_atom_site_type_symbol
_atom_site_label
_atom_site_fract_x
_atom_site_fract_y
_atom_site_fract_z
Si Si1 0.013928 0.583570 0.628476
Si Si2 0.244550 0.933031 0.288741
Si Si3 0.831367 0.578074 0.955005
Si Si4 0.610574 0.481842 0.612161
Si Si5 0.179808 0.975204 0.923626
Si Si6 0.422188 0.771652 0.154843
Si Si7 0.711367 0.972107 0.395318
O O1 0.046774 0.792730 0.651352
O O2 0.106106 0.447894 0.541066
O O3 0.000000 0.610240 0.500000
O O4 0.922417 0.501441 0.790026
O O5 0.158352 0.043089 0.438101
O O6 0.342670 0.932607 0.261210
O O7 0.215163 0.702604 0.344196
O O8 0.283304 0.973794 0.117770
O O9 0.744546 0.590070 0.951568
O O10 0.864986 0.793421 0.963391
O O11 0.559053 0.639572 0.748430
O O12 0.706115 0.437579 0.592436
O O13 0.112882 0.110148 0.910256
O O14 0.251389 0.867842 0.760183
O O15 0.500000 0.881114 0.000000
#
# Coordination Sequence:
#
# PCOD9124659 Si02
#       7
#     4   4   4   4   4   4   4
#     4  11  22  39  67  99 129 168 222 272 315 387
#     4   9  21  38  61  91 121 170 208 261 322 383
#     4  12  23  38  66  93 128 167 222 265 329 383
#     4   9  20  39  64  92 129 169 207 256 326 384
#     4  10  21  37  61  90 126 169 211 261 325 383
#     4  10  21  41  62  89 128 166 214 265 317 378
#     4   9  20  43  64  89 132 171 212 263 329 381
#
# _framework density 25.767686999999999
#
# number of rings (size 3 to 8) (size 9 to 14) (size 15 to 20)
#    0.000    2.286    1.429    2.571    2.000    8.000 
#    0.000    3.571    0.000    5.143    0.000    0.000 
#    0.000    0.000    0.000    0.000    0.000    0.000 
#
# Total GULP energy -78034.536734 kJ/mol
# GULP energy per Si atom -5573.895481 kJ/mol
# Density = 2.570904 g / cm^3
# Si number density = 25.767687 Si / 1000 Ang^3
#
#
#
# Elastic Constant Matrix: (Units=GPa)
#
#
# Indices 1 2 3 4 5 6 
#
# 1 79.5601 28.1442 49.1976 0.0000 24.9395 0.0000
# 2 28.1442 67.0948 44.6978 -0.0001 9.0644 0.0000
# 3 49.1976 44.6978 218.3326 0.0000 -11.7118 0.0000
# 4 0.0000 -0.0001 0.0000 44.7303 0.0000 4.3944
# 5 24.9395 9.0644 -11.7118 0.0000 49.3660 0.0000
# 6 0.0000 0.0000 0.0000 4.3944 0.0000 30.6634
#
#
#
# Elastic Compliance Matrix: (Units=1/GPa)
#
#
# Indices 1 2 3 4 5 6 
#
# 1 0.019826 -0.004158 -0.004166 0.000000 -0.010241 0.000000
# 2 -0.004158 0.018972 -0.003060 0.000000 -0.002109 0.000000
# 3 -0.004166 -0.003060 0.006369 0.000000 0.004177 0.000000
# 4 0.000000 0.000000 0.000000 0.022675 0.000000 -0.003250
# 5 -0.010241 -0.002109 0.004177 0.000000 0.026809 0.000000
# 6 0.000000 0.000000 0.000000 -0.003250 0.000000 0.033078
#
#
# Mechanical properties :
#
#
# Convention : Reuss Voigt Hill
#
# Bulk Modulus (GPa) = 44.64264 67.67406 56.15835
# Shear Modulus (GPa) = 31.65288 41.14847 36.40068
#
# Velocity S-wave (km/s) = 3.50865 4.00046 3.76260
# Velocity P-wave (km/s) = 5.81178 6.90351 6.38104
#
# Compressibility (1/GPa) = 0.02240011
#
# Stress axis : x y z
#
# Youngs Moduli (GPa) = 50.43888 52.70930 157.00033
#
# Poissons Ratio (x) = 0.21915 0.65400
# Poissons Ratio (y) = 0.20971 0.48046
# Poissons Ratio (z) = 0.21011 0.16130
#
# Static dielectric constant tensor:
#      x y z
#    x 2.088600 0.000000 -0.001770 
#    y 0.000000 2.250050 0.000000 
#    z -0.001770 0.000000 2.146150 
# 
# From -- ./inp_files/45978.got.cif
#   From: 2010.05.17/outbox.cif.g08.bks.cpg/sg5_23_cif.got.tgz:45978.got - 2010.06.03 18:56:24.
