data_PCOD9124631
_publ_section_title
;
Structure prediction by ZEFSAII (Michael W. Deem and Ramdas Pophale) SiO2 
 PCOD9124631
Probable space group: C 2
;
_chemical_formula_sum "Si O2"
_cell_formula_units_Z 20
_cell_length_a 7.357122
_cell_length_b 28.110626
_cell_length_c 7.969248
_cell_angle_alpha 90.000000
_cell_angle_beta 37.562366
_cell_angle_gamma 90.000000
_cell_volume 1004.750706
_symmetry_space_group_name_H-M "C 2"
_symmetry_group_IT_number 5
_symmetry_cell_setting 'monoclinic'
loop_
_space_group_symop_operation_xyz
x,y,z
-x,y,-z
1/2+x,1/2+y,z
1/2-x,1/2+y,-z
loop_
_atom_site_type_symbol
_atom_site_label
_atom_site_fract_x
_atom_site_fract_y
_atom_site_fract_z
Si Si1 0.500000 0.318260 0.500000
Si Si2 0.000000 0.966568 0.000000
Si Si3 0.000000 0.251998 0.000000
Si Si4 0.885013 0.672760 0.896408
Si Si5 0.145328 0.874970 0.728669
Si Si6 0.114621 0.110134 0.604140
Si Si7 0.500000 0.030901 0.500000
O O1 0.789022 0.285299 0.265220
O O2 0.551869 0.349710 0.627363
O O3 0.982036 0.928996 0.166999
O O4 0.706969 0.998554 0.229406
O O5 0.784130 0.217625 0.053103
O O6 0.155224 0.654104 0.585016
O O7 0.656001 0.628733 0.084692
O O8 0.000000 0.682884 0.000000
O O9 0.500000 0.876624 0.500000
O O10 0.000000 0.850653 0.000000
O O11 0.279753 0.065139 0.558871
O O12 0.000000 0.100114 0.500000
#
# Coordination Sequence:
#
# PCOD9124631 Si02
#       7
#     2   2   2   4   4   4   2
#     4  12  26  41  68  94 122 162 216 255 316 376
#     4  10  22  41  64  88 122 162 204 249 322 362
#     4  12  24  37  62 100 116 156 220 253 294 372
#     4  10  21  39  58  84 128 165 194 245 307 358
#     4  10  22  46  64  86 124 167 202 255 324 373
#     4  10  21  37  59  86 123 165 198 239 306 359
#     4  12  20  37  62  92 120 154 208 259 284 364
#
# _framework density 19.905435000000001
#
# number of rings (size 3 to 8) (size 9 to 14) (size 15 to 20)
#    0.600    0.800    1.000    4.800    0.000    2.400 
#    1.800    2.000    0.000    0.000    0.000    0.000 
#    0.000    0.000    0.000    0.000    0.000    0.000 
#
# Total GULP energy -55870.549552 kJ/mol
# GULP energy per Si atom -5587.054955 kJ/mol
# Density = 1.986013 g / cm^3
# Si number density = 19.905435 Si / 1000 Ang^3
#
#
#
# Elastic Constant Matrix: (Units=GPa)
#
#
# Indices 1 2 3 4 5 6 
#
# 1 119.7999 69.2966 34.5197 0.0000 1.0854 0.0000
# 2 69.2966 108.1291 23.6723 0.0000 0.5393 0.0000
# 3 34.5197 23.6723 86.3937 0.0000 -10.5771 0.0000
# 4 0.0000 0.0000 0.0000 5.5628 0.0000 0.2811
# 5 1.0854 0.5393 -10.5771 0.0000 26.2706 0.0000
# 6 0.0000 0.0000 0.0000 0.2811 0.0000 -15.1682
#
#
#
# Elastic Compliance Matrix: (Units=1/GPa)
#
#
# Indices 1 2 3 4 5 6 
#
# 1 0.014216 -0.008305 -0.003635 0.000000 -0.001880 0.000000
# 2 -0.008305 0.014737 -0.000751 0.000000 -0.000262 0.000000
# 3 -0.003635 -0.000751 0.013940 0.000000 0.005778 0.000000
# 4 0.000000 0.000000 0.000000 0.179596 0.000000 0.003328
# 5 -0.001880 -0.000262 0.005778 0.000000 0.040475 0.000000
# 6 0.000000 0.000000 0.000000 0.003328 0.000000 -0.065866
#
#
# Mechanical properties :
#
#
# Convention : Reuss Voigt Hill
#
# Bulk Modulus (GPa) = 57.10985 63.25556 60.18270
# Shear Modulus (GPa) = 21.89937 15.78866 18.84401
#
# Velocity S-wave (km/s) = 3.32048 2.81941 3.08015
# Velocity P-wave (km/s) = 6.59194 6.51504 6.55360
#
# Compressibility (1/GPa) = 0.01751011
#
# Stress axis : x y z
#
# Youngs Moduli (GPa) = 70.34503 67.85811 71.73349
#
# Poissons Ratio (x) = 0.56358 0.26072
# Poissons Ratio (y) = 0.58424 0.05391
# Poissons Ratio (z) = 0.25567 0.05099
#
# Static dielectric constant tensor:
#      x y z
#    x 1.682490 0.000000 -0.012170 
#    y 0.000000 1.689630 0.000000 
#    z -0.012170 0.000000 1.708370 
# 
# From -- ./inp_files/17412.got.cif
#   From: 2010.05.17/outbox.cif.g08.bks.cpg/sg5_9_cif.got.tgz:17412.got - 2010.06.03 18:56:24.
