data_PCOD9124700
_publ_section_title
;
Structure prediction by ZEFSAII (Michael W. Deem and Ramdas Pophale) SiO2 
 PCOD9124700
Probable space group: C 2
;
_chemical_formula_sum "Si O2"
_cell_formula_units_Z 30
_cell_length_a 9.410500
_cell_length_b 18.584831
_cell_length_c 15.370415
_cell_angle_alpha 90.000000
_cell_angle_beta 150.050579
_cell_angle_gamma 90.000000
_cell_volume 1342.029919
_symmetry_space_group_name_H-M "C 2"
_symmetry_group_IT_number 5
_symmetry_cell_setting 'monoclinic'
loop_
_space_group_symop_operation_xyz
x,y,z
-x,y,-z
1/2+x,1/2+y,z
1/2-x,1/2+y,-z
loop_
_atom_site_type_symbol
_atom_site_label
_atom_site_fract_x
_atom_site_fract_y
_atom_site_fract_z
Si Si1 0.257525 0.813440 0.306947
Si Si2 0.457674 0.976143 0.878785
Si Si3 0.676632 0.651248 0.346170
Si Si4 0.500000 0.438072 0.500000
Si Si5 0.948318 0.312673 0.706314
Si Si6 0.805014 0.141146 0.316982
Si Si7 0.131400 0.317527 0.990787
Si Si8 0.838151 0.082868 0.006316
O O1 0.500000 0.839938 0.500000
O O2 0.320418 0.834329 0.242095
O O3 0.270939 0.727141 0.308307
O O4 0.954344 0.834462 0.181707
O O5 0.500000 0.006772 0.000000
O O6 0.747596 0.000874 0.983661
O O7 0.174114 0.983231 0.666891
O O8 0.455181 0.890650 0.890760
O O9 0.707457 0.735980 0.391936
O O10 0.473370 0.623623 0.317033
O O11 0.515968 0.626132 0.173159
O O12 0.000000 0.625421 0.500000
O O13 0.736536 0.380471 0.592623
O O14 0.102804 0.290800 0.878145
O O15 0.000000 0.118782 0.500000
O O16 0.484166 0.113532 0.157979
O O17 0.000000 0.271947 0.000000
O O18 0.000000 0.086212 0.000000
#
# Coordination Sequence:
#
# PCOD9124700 Si02
#       8
#     4   4   4   2   4   4   4   4
#     4  10  22  35  59  96 131 167 208 267 329 401
#     4  10  24  44  67  94 131 178 236 279 346 390
#     4  11  22  40  66  98 135 171 219 274 337 412
#     4  10  22  42  72 102 130 182 222 282 336 408
#     4  10  21  37  65  94 136 168 216 265 344 398
#     4  10  22  40  63  93 131 172 215 269 336 396
#     4  10  22  38  62  89 126 169 217 272 328 394
#     4  12  26  44  65  95 132 179 231 281 333 404
#
# _framework density 22.354195000000001
#
# number of rings (size 3 to 8) (size 9 to 14) (size 15 to 20)
#    0.000    1.600    0.667    3.200    6.533    7.467 
#    2.400    0.667    0.000    0.000    0.000    0.000 
#    0.000    0.000    0.000    0.000    0.000    0.000 
#
# Total GULP energy -83502.597997 kJ/mol
# GULP energy per Si atom -5566.839866 kJ/mol
# Density = 2.230332 g / cm^3
# Si number density = 22.354195 Si / 1000 Ang^3
#
#
#
# Elastic Constant Matrix: (Units=GPa)
#
#
# Indices 1 2 3 4 5 6 
#
# 1 210.4243 12.0979 87.9754 0.0177 3.0354 0.0148
# 2 12.0979 42.0108 14.3425 -0.0020 -5.6950 0.0192
# 3 87.9754 14.3425 172.2196 0.0077 9.9491 0.0494
# 4 0.0177 -0.0020 0.0077 20.0808 0.0176 -4.1825
# 5 3.0354 -5.6950 9.9491 0.0176 39.2876 0.0190
# 6 0.0148 0.0192 0.0494 -4.1825 0.0190 12.8575
#
#
#
# Elastic Compliance Matrix: (Units=1/GPa)
#
#
# Indices 1 2 3 4 5 6 
#
# 1 0.006065 -0.000676 -0.003054 -0.000004 0.000207 0.000004
# 2 -0.000676 0.025253 -0.002002 -0.000008 0.004220 -0.000038
# 3 -0.003054 -0.002002 0.007648 -0.000003 -0.001991 -0.000021
# 4 -0.000004 -0.000008 -0.000003 0.053418 -0.000032 0.017377
# 5 0.000207 0.004220 -0.001991 -0.000032 0.026553 -0.000049
# 6 0.000004 -0.000038 -0.000021 0.017377 -0.000049 0.083429
#
#
# Mechanical properties :
#
#
# Convention : Reuss Voigt Hill
#
# Bulk Modulus (GPa) = 36.35840 72.60961 54.48400
# Shear Modulus (GPa) = 22.42180 35.12776 28.77478
#
# Velocity S-wave (km/s) = 3.17049 3.96841 3.59168
# Velocity P-wave (km/s) = 5.45002 7.31776 6.45183
#
# Compressibility (1/GPa) = 0.02750396
#
# Stress axis : x y z
#
# Youngs Moduli (GPa) = 164.88202 39.59852 130.74881
#
# Poissons Ratio (x) = 0.02677 0.39928
# Poissons Ratio (y) = 0.11145 0.26171
# Poissons Ratio (z) = 0.50352 0.07926
#
# Static dielectric constant tensor:
#      x y z
#    x 1.968740 0.000040 -0.085810 
#    y 0.000040 1.986170 -0.000010 
#    z -0.085810 -0.000010 1.860780 
# 
# From -- ./inp_files/51657.got.cif
#   From: 2010.05.17/outbox.cif.g08.bks.cpg/sg5_26_cif.got.tgz:51657.got - 2010.06.03 18:56:24.
