data_PCOD9124143
_publ_section_title
;
Structure prediction by ZEFSAII (Michael W. Deem and Ramdas Pophale) SiO2 
 PCOD9124143
Probable space group: C 2
;
_chemical_formula_sum "Si O2"
_cell_formula_units_Z 20
_cell_length_a 21.413899
_cell_length_b 7.123472
_cell_length_c 13.873793
_cell_angle_alpha 90.000000
_cell_angle_beta 22.228966
_cell_angle_gamma 90.000000
_cell_volume 800.624991
_symmetry_space_group_name_H-M "C 2"
_symmetry_group_IT_number 5
_symmetry_cell_setting 'monoclinic'
loop_
_space_group_symop_operation_xyz
x,y,z
-x,y,-z
1/2+x,1/2+y,z
1/2-x,1/2+y,-z
loop_
_atom_site_type_symbol
_atom_site_label
_atom_site_fract_x
_atom_site_fract_y
_atom_site_fract_z
Si Si1 0.612556 0.011370 0.759954
Si Si2 0.611767 0.184203 0.086798
Si Si3 0.577367 0.499003 0.285993
Si Si4 0.818947 0.916307 0.291733
Si Si5 0.398268 0.887622 0.559499
O O1 0.494624 0.081076 0.842263
O O2 0.677546 0.191429 0.724915
O O3 0.766794 0.934801 0.478081
O O4 0.500000 0.903779 0.000000
O O5 0.539464 0.339021 0.263098
O O6 0.741145 0.305622 0.839722
O O7 0.726168 0.035604 0.981754
O O8 0.500000 0.447392 0.500000
O O9 0.500855 0.705999 0.375738
O O10 0.680053 0.996465 0.418178
O O11 0.000000 0.980714 0.000000
O O12 0.500000 0.985256 0.500000
#
# Coordination Sequence:
#
# PCOD9124143 Si02
#       5
#     4   4   4   4   4
#     4  11  25  43  66  91 133 173 221 266 324 382
#     4  10  20  42  65  93 128 168 212 264 326 380
#     4   9  22  39  62  95 129 160 207 267 324 382
#     4  11  24  44  65  95 130 175 220 265 323 388
#     4   9  20  40  66  88 127 166 210 267 323 371
#
# _framework density 24.980485000000002
#
# number of rings (size 3 to 8) (size 9 to 14) (size 15 to 20)
#    0.000    2.400    4.000    0.000    8.400    0.800 
#    3.600    0.000    0.000    0.000    0.000    0.000 
#    0.000    0.000    0.000    0.000    0.000    0.000 
#
# Total GULP energy -55806.123686 kJ/mol
# GULP energy per Si atom -5580.612369 kJ/mol
# Density = 2.492363 g / cm^3
# Si number density = 24.980485 Si / 1000 Ang^3
#
#
#
# Elastic Constant Matrix: (Units=GPa)
#
#
# Indices 1 2 3 4 5 6 
#
# 1 166.5412 25.2051 65.7312 0.0000 1.3170 0.0000
# 2 25.2051 65.1916 31.7597 0.0000 17.1801 0.0000
# 3 65.7312 31.7597 131.3819 0.0000 39.6687 0.0000
# 4 0.0000 0.0000 0.0000 21.4384 0.0000 17.3108
# 5 1.3170 17.1801 39.6687 0.0000 54.3172 0.0000
# 6 0.0000 0.0000 0.0000 17.3108 0.0000 31.4202
#
#
#
# Elastic Compliance Matrix: (Units=1/GPa)
#
#
# Indices 1 2 3 4 5 6 
#
# 1 0.008150 -0.001834 -0.004810 0.000000 0.003895 0.000000
# 2 -0.001834 0.018221 -0.002258 0.000000 -0.004069 0.000000
# 3 -0.004810 -0.002258 0.013230 0.000000 -0.008831 0.000000
# 4 0.000000 0.000000 0.000000 0.084026 0.000000 -0.046293
# 5 0.003895 -0.004069 -0.008831 0.000000 0.026053 0.000000
# 6 0.000000 0.000000 0.000000 -0.046293 0.000000 0.057332
#
#
# Mechanical properties :
#
#
# Convention : Reuss Voigt Hill
#
# Bulk Modulus (GPa) = 45.88009 67.61185 56.74597
# Shear Modulus (GPa) = 21.54408 37.46308 29.50358
#
# Velocity S-wave (km/s) = 2.93991 3.87679 3.44039
# Velocity P-wave (km/s) = 5.47086 6.86760 6.20864
#
# Compressibility (1/GPa) = 0.02179595
#
# Stress axis : x y z
#
# Youngs Moduli (GPa) = 122.70215 54.88120 75.58338
#
# Poissons Ratio (x) = 0.10066 0.36357
# Poissons Ratio (y) = 0.22505 0.17070
# Poissons Ratio (z) = 0.59022 0.12394
#
# Static dielectric constant tensor:
#      x y z
#    x 2.036920 0.000000 -0.003090 
#    y 0.000000 1.957980 0.000000 
#    z -0.003090 0.000000 2.123210 
# 
# From -- ./inp_files/57564.got.cif
#   From: 2010.05.17/outbox.cif.g08.bks.cpg/sg5_29_cif.got.tgz:57564.got - 2010.06.03 18:56:24.
