data_PCOD9124882
_publ_section_title
;
Structure prediction by ZEFSAII (Michael W. Deem and Ramdas Pophale) SiO2 
 PCOD9124882
Probable space group: C 2
;
_chemical_formula_sum "Si O2"
_cell_formula_units_Z 26
_cell_length_a 8.784774
_cell_length_b 28.148198
_cell_length_c 9.189525
_cell_angle_alpha 90.000000
_cell_angle_beta 32.737521
_cell_angle_gamma 90.000000
_cell_volume 1228.864320
_symmetry_space_group_name_H-M "C 2"
_symmetry_group_IT_number 5
_symmetry_cell_setting 'monoclinic'
loop_
_space_group_symop_operation_xyz
x,y,z
-x,y,-z
1/2+x,1/2+y,z
1/2-x,1/2+y,-z
loop_
_atom_site_type_symbol
_atom_site_label
_atom_site_fract_x
_atom_site_fract_y
_atom_site_fract_z
Si Si1 0.138635 0.378870 0.543463
Si Si2 0.467315 0.579737 0.199647
Si Si3 0.759141 0.834972 0.909131
Si Si4 0.191390 0.980993 0.702921
Si Si5 0.000000 0.654686 0.500000
Si Si6 0.687968 0.656056 0.207328
Si Si7 0.776256 0.227590 0.056318
O O1 0.238865 0.433182 0.439851
O O2 0.000000 0.363570 0.500000
O O3 0.879252 0.369051 0.858963
O O4 0.421884 0.353172 0.375032
O O5 0.435654 0.526048 0.279681
O O6 0.216000 0.618081 0.402411
O O7 0.700510 0.608283 0.100683
O O8 0.500000 0.574092 0.000000
O O9 0.500000 0.835463 0.000000
O O10 0.817194 0.780287 0.911314
O O11 0.500000 0.999643 0.500000
O O12 0.000000 0.970207 0.000000
O O13 0.088831 0.689333 0.295759
O O14 0.500000 0.648926 0.500000
O O15 0.589105 0.699515 0.185755
O O16 0.000000 0.670102 0.000000
O O17 0.000000 0.237579 0.000000
#
# Coordination Sequence:
#
# PCOD9124882 Si02
#       7
#     4   4   4   4   2   4   4
#     4  11  23  45  68  96 133 170 222 283 340 396
#     4  11  22  40  68  96 127 178 228 271 325 392
#     4  11  26  43  68  97 130 174 226 278 337 396
#     4  10  21  38  69 101 124 166 232 282 319 390
#     4  12  18  40  72  94 130 158 242 280 310 372
#     4  12  26  41  59  95 142 171 210 270 345 403
#     4  11  25  41  68  93 125 184 233 275 312 406
#
# _framework density 21.157745999999999
#
# number of rings (size 3 to 8) (size 9 to 14) (size 15 to 20)
#    0.000    0.923    3.846    3.692    4.308    1.846 
#    0.000    2.308    0.000    0.000    0.000    0.000 
#    0.000    0.000    0.000    0.000    0.000    0.000 
#
# Total GULP energy -72374.799984 kJ/mol
# GULP energy per Si atom -5567.292306 kJ/mol
# Density = 2.110959 g / cm^3
# Si number density = 21.157746 Si / 1000 Ang^3
#
#
#
# Elastic Constant Matrix: (Units=GPa)
#
#
# Indices 1 2 3 4 5 6 
#
# 1 51.4401 -5.0318 -6.2003 0.0000 4.2660 0.0000
# 2 -5.0318 133.0141 14.4098 0.0000 8.8545 0.0000
# 3 -6.2003 14.4098 82.3972 0.0000 0.8527 0.0000
# 4 0.0000 0.0000 0.0000 78.3490 0.0000 7.2282
# 5 4.2660 8.8545 0.8527 0.0000 30.8189 0.0000
# 6 0.0000 0.0000 0.0000 7.2282 0.0000 5.9024
#
#
#
# Elastic Compliance Matrix: (Units=1/GPa)
#
#
# Indices 1 2 3 4 5 6 
#
# 1 0.019938 0.000805 0.001391 0.000000 -0.003030 0.000000
# 2 0.000805 0.007843 -0.001287 0.000000 -0.002329 0.000000
# 3 0.001391 -0.001287 0.012468 0.000000 -0.000168 0.000000
# 4 0.000000 0.000000 0.000000 0.014389 0.000000 -0.017621
# 5 -0.003030 -0.002329 -0.000168 0.000000 0.033541 0.000000
# 6 0.000000 0.000000 0.000000 -0.017621 0.000000 0.191003
#
#
# Mechanical properties :
#
#
# Convention : Reuss Voigt Hill
#
# Bulk Modulus (GPa) = 23.77171 30.35630 27.06401
# Shear Modulus (GPa) = 17.15943 40.59232 28.87588
#
# Velocity S-wave (km/s) = 2.85094 4.38488 3.69831
# Velocity P-wave (km/s) = 4.70074 6.32574 5.57279
#
# Compressibility (1/GPa) = 0.04206681
#
# Stress axis : x y z
#
# Youngs Moduli (GPa) = 50.15610 127.50348 80.20669
#
# Poissons Ratio (x) = -0.10267 -0.11155
# Poissons Ratio (y) = -0.04039 0.10322
# Poissons Ratio (z) = -0.06976 0.16408
#
# Static dielectric constant tensor:
#      x y z
#    x 1.775940 0.000000 0.014220 
#    y 0.000000 1.807290 0.000000 
#    z 0.014220 0.000000 1.794530 
# 
# From -- ./inp_files/17417.got.cif
#   From: 2010.05.17/outbox.cif.g08.bks.cpg/sg5_9_cif.got.tgz:17417.got - 2010.06.03 18:56:24.
