data_PCOD9124816
_publ_section_title
;
Structure prediction by ZEFSAII (Michael W. Deem and Ramdas Pophale) SiO2 
 PCOD9124816
Probable space group: C 2
;
_chemical_formula_sum "Si O2"
_cell_formula_units_Z 22
_cell_length_a 8.025614
_cell_length_b 17.937786
_cell_length_c 8.624843
_cell_angle_alpha 90.000000
_cell_angle_beta 49.746455
_cell_angle_gamma 90.000000
_cell_volume 947.616019
_symmetry_space_group_name_H-M "C 2"
_symmetry_group_IT_number 5
_symmetry_cell_setting 'monoclinic'
loop_
_space_group_symop_operation_xyz
x,y,z
-x,y,-z
1/2+x,1/2+y,z
1/2-x,1/2+y,-z
loop_
_atom_site_type_symbol
_atom_site_label
_atom_site_fract_x
_atom_site_fract_y
_atom_site_fract_z
Si Si1 0.315681 0.684470 0.377958
Si Si2 0.232866 0.495536 0.771902
Si Si3 0.880176 0.339532 0.240260
Si Si4 0.369082 0.522940 0.238732
Si Si5 0.500000 0.897624 0.500000
Si Si6 0.294317 0.159200 0.235097
O O1 0.280746 0.757389 0.297335
O O2 0.267618 0.605469 0.325621
O O3 0.572693 0.676850 0.274645
O O4 0.192900 0.702325 0.612540
O O5 0.253100 0.416627 0.678410
O O6 0.438933 0.506974 0.755701
O O7 0.220517 0.573871 0.691063
O O8 0.000000 0.494868 0.000000
O O9 0.992510 0.348885 0.344725
O O10 0.000000 0.343078 0.000000
O O11 0.199355 0.455474 0.353341
O O12 0.500000 0.523848 0.000000
O O13 0.500000 0.167443 0.000000
#
# Coordination Sequence:
#
# PCOD9124816 Si02
#       6
#     4   4   4   4   2   4
#     4  10  21  38  63  93 129 168 212 270 330 382
#     4   9  19  39  67  92 125 171 214 263 322 379
#     4  11  23  44  66  95 137 171 212 274 330 386
#     4  11  23  42  67  97 131 172 224 274 320 390
#     4  12  26  44  70  98 130 178 224 264 328 394
#     4   9  18  37  64  92 124 171 221 263 317 391
#
# _framework density 23.216152999999998
#
# number of rings (size 3 to 8) (size 9 to 14) (size 15 to 20)
#    0.000    1.818    0.000    4.909    0.000    5.091 
#    0.000   14.545    0.000    2.182    0.000    1.273 
#    0.000    0.000    0.000    0.000    0.000    0.000 
#
# Total GULP energy -61352.539265 kJ/mol
# GULP energy per Si atom -5577.503570 kJ/mol
# Density = 2.316331 g / cm^3
# Si number density = 23.216153 Si / 1000 Ang^3
#
#
#
# Elastic Constant Matrix: (Units=GPa)
#
#
# Indices 1 2 3 4 5 6 
#
# 1 50.0613 25.4692 36.5763 0.0000 -3.3748 0.0000
# 2 25.4692 128.4711 20.7778 0.0000 4.3266 0.0000
# 3 36.5763 20.7778 170.7729 0.0000 5.8536 0.0000
# 4 0.0000 0.0000 0.0000 31.3179 0.0000 8.0686
# 5 -3.3748 4.3266 5.8536 0.0000 38.4606 0.0000
# 6 0.0000 0.0000 0.0000 8.0686 0.0000 41.7434
#
#
#
# Elastic Compliance Matrix: (Units=1/GPa)
#
#
# Indices 1 2 3 4 5 6 
#
# 1 0.026314 -0.004495 -0.005213 0.000000 0.003608 0.000000
# 2 -0.004495 0.008730 -0.000052 0.000000 -0.001368 0.000000
# 3 -0.005213 -0.000052 0.007031 0.000000 -0.001522 0.000000
# 4 0.000000 0.000000 0.000000 0.033604 0.000000 -0.006495
# 5 0.003608 -0.001368 -0.001522 0.000000 0.026703 0.000000
# 6 0.000000 0.000000 0.000000 -0.006495 0.000000 0.025211
#
#
# Mechanical properties :
#
#
# Convention : Reuss Voigt Hill
#
# Bulk Modulus (GPa) = 44.33835 57.21688 50.77761
# Shear Modulus (GPa) = 32.33491 40.06985 36.20238
#
# Velocity S-wave (km/s) = 3.73604 4.15896 3.95316
# Velocity P-wave (km/s) = 6.14412 6.91096 6.53879
#
# Compressibility (1/GPa) = 0.02255384
#
# Stress axis : x y z
#
# Youngs Moduli (GPa) = 38.00203 114.55292 142.23254
#
# Poissons Ratio (x) = 0.51494 0.74143
# Poissons Ratio (y) = 0.17083 0.00746
# Poissons Ratio (z) = 0.19810 0.00600
#
# Static dielectric constant tensor:
#      x y z
#    x 1.934120 0.000000 0.070890 
#    y 0.000000 1.867930 0.000000 
#    z 0.070890 0.000000 1.952040 
# 
# From -- ./inp_files/16041.got.cif
#   From: 2010.05.17/outbox.cif.g08.bks.cpg/sg5_9_cif.got.tgz:16041.got - 2010.06.03 18:56:24.
