data_PCOD9124194
_publ_section_title
;
Structure prediction by ZEFSAII (Michael W. Deem and Ramdas Pophale) SiO2 
 PCOD9124194
Probable space group: C 2
;
_chemical_formula_sum "Si O2"
_cell_formula_units_Z 22
_cell_length_a 7.902452
_cell_length_b 24.925046
_cell_length_c 5.421086
_cell_angle_alpha 90.000000
_cell_angle_beta 62.219257
_cell_angle_gamma 90.000000
_cell_volume 944.710308
_symmetry_space_group_name_H-M "C 2"
_symmetry_group_IT_number 5
_symmetry_cell_setting 'monoclinic'
loop_
_space_group_symop_operation_xyz
x,y,z
-x,y,-z
1/2+x,1/2+y,z
1/2-x,1/2+y,-z
loop_
_atom_site_type_symbol
_atom_site_label
_atom_site_fract_x
_atom_site_fract_y
_atom_site_fract_z
Si Si1 0.500000 0.003510 0.500000
Si Si2 0.793497 0.575156 0.278807
Si Si3 0.626609 0.189088 0.667064
Si Si4 0.227550 0.307553 0.339656
Si Si5 0.766846 0.365737 0.172555
Si Si6 0.823496 0.977100 0.939248
O O1 0.340608 0.041323 0.488729
O O2 0.619660 0.971622 0.219692
O O3 0.743641 0.635421 0.392281
O O4 0.669597 0.535624 0.193547
O O5 0.000000 0.577970 0.000000
O O6 0.500000 0.185563 0.500000
O O7 0.730170 0.245713 0.623994
O O8 0.500000 0.188142 0.000000
O O9 0.298401 0.340321 0.526590
O O10 0.000000 0.313748 0.500000
O O11 0.293587 0.330774 0.029049
O O12 0.689269 0.426148 0.226557
O O13 0.000000 0.365907 0.000000
O O14 0.000000 0.971014 0.000000
#
# Coordination Sequence:
#
# PCOD9124194 Si02
#       6
#     2   4   4   4   4   4
#     4  10  20  42  68  86 136 178 208 274 346 398
#     4   9  20  40  63  93 128 176 217 267 338 405
#     4  11  22  41  68  96 130 174 223 275 332 399
#     4  10  23  42  65  94 129 175 219 272 335 393
#     4  10  22  42  67  90 132 181 218 271 340 401
#     4  11  25  41  65 103 132 173 230 278 336 409
#
# _framework density 23.287565000000001
#
# number of rings (size 3 to 8) (size 9 to 14) (size 15 to 20)
#    0.000    1.818    0.909    2.727    6.364    2.909 
#    3.273    0.909    0.000    0.000    0.000    0.000 
#    0.000    0.000    0.000    0.000    0.000    0.000 
#
# Total GULP energy -61478.616024 kJ/mol
# GULP energy per Si atom -5588.965093 kJ/mol
# Density = 2.323456 g / cm^3
# Si number density = 23.287565 Si / 1000 Ang^3
#
#
#
# Elastic Constant Matrix: (Units=GPa)
#
#
# Indices 1 2 3 4 5 6 
#
# 1 101.2432 47.5419 34.8714 0.0000 25.7808 0.0000
# 2 47.5419 174.7264 49.0751 0.0000 24.8960 0.0000
# 3 34.8714 49.0751 127.2276 0.0000 23.7614 0.0000
# 4 0.0000 0.0000 0.0000 13.6375 0.0000 -0.7981
# 5 25.7808 24.8960 23.7614 0.0000 38.8658 0.0000
# 6 0.0000 0.0000 0.0000 -0.7981 0.0000 23.4512
#
#
#
# Elastic Compliance Matrix: (Units=1/GPa)
#
#
# Indices 1 2 3 4 5 6 
#
# 1 0.013055 -0.002221 -0.001546 0.000000 -0.006291 0.000000
# 2 -0.002221 0.007107 -0.001758 0.000000 -0.002004 0.000000
# 3 -0.001546 -0.001758 0.009663 0.000000 -0.003756 0.000000
# 4 0.000000 0.000000 0.000000 0.073474 0.000000 0.002500
# 5 -0.006291 -0.002004 -0.003756 0.000000 0.033483 0.000000
# 6 0.000000 0.000000 0.000000 0.002500 0.000000 0.042727
#
#
# Mechanical properties :
#
#
# Convention : Reuss Voigt Hill
#
# Bulk Modulus (GPa) = 53.26655 74.01933 63.64294
# Shear Modulus (GPa) = 25.40412 33.30483 29.35447
#
# Velocity S-wave (km/s) = 3.30644 3.78584 3.55423
# Velocity P-wave (km/s) = 6.12371 7.13891 6.65071
#
# Compressibility (1/GPa) = 0.01877351
#
# Stress axis : x y z
#
# Youngs Moduli (GPa) = 76.59888 140.70539 103.48294
#
# Poissons Ratio (x) = 0.31257 0.16002
# Poissons Ratio (y) = 0.17016 0.18195
# Poissons Ratio (z) = 0.11845 0.24739
#
# Static dielectric constant tensor:
#      x y z
#    x 1.931460 0.000000 -0.056600 
#    y 0.000000 1.906670 0.000000 
#    z -0.056600 0.000000 1.946080 
# 
# From -- ./inp_files/3252.got.cif
#   From: 2010.05.17/outbox.cif.g08.bks.cpg/sg5_2_cif.got.tgz:3252.got - 2010.06.03 18:56:24.
