data_PCOD9124888
_publ_section_title
;
Structure prediction by ZEFSAII (Michael W. Deem and Ramdas Pophale) SiO2 
 PCOD9124888
Probable space group: C 2
;
_chemical_formula_sum "Si O2"
_cell_formula_units_Z 28
_cell_length_a 16.198700
_cell_length_b 11.138030
_cell_length_c 17.997508
_cell_angle_alpha 90.000000
_cell_angle_beta 156.532004
_cell_angle_gamma 90.000000
_cell_volume 1293.130236
_symmetry_space_group_name_H-M "C 2"
_symmetry_group_IT_number 5
_symmetry_cell_setting 'monoclinic'
loop_
_space_group_symop_operation_xyz
x,y,z
-x,y,-z
1/2+x,1/2+y,z
1/2-x,1/2+y,-z
loop_
_atom_site_type_symbol
_atom_site_label
_atom_site_fract_x
_atom_site_fract_y
_atom_site_fract_z
Si Si1 0.023879 0.634950 0.103635
Si Si2 0.769424 0.334421 0.092917
Si Si3 0.166135 0.231017 0.070733
Si Si4 0.902044 0.690996 0.497748
Si Si5 0.074573 0.398295 0.222549
Si Si6 0.713850 0.871170 0.719981
Si Si7 0.042889 0.027279 0.185617
O O1 0.109745 0.536498 0.231499
O O2 0.174739 0.747675 0.212245
O O3 0.000000 0.583283 0.000000
O O4 0.818204 0.699289 0.968027
O O5 0.797899 0.378527 0.201287
O O6 0.979788 0.362138 0.223571
O O7 0.593891 0.412930 0.904282
O O8 0.401930 0.216555 0.289112
O O9 0.000000 0.214605 0.000000
O O10 0.103219 0.356678 0.982284
O O11 0.112614 0.132886 0.964145
O O12 0.772305 0.812518 0.375095
O O13 0.735482 0.590252 0.386785
O O14 0.000000 0.652629 0.500000
O O15 0.500000 0.874895 0.500000
O O16 0.853514 0.977688 0.804212
#
# Coordination Sequence:
#
# PCOD9124888 Si02
#       7
#     4   4   4   4   4   4   4
#     4   9  21  43  65  88 126 181 217 254 327 404
#     4  10  23  42  64  97 132 168 219 273 338 378
#     4  11  21  40  64  94 127 172 213 267 322 391
#     4  11  23  38  64 102 128 164 225 260 328 400
#     4  11  24  41  67  92 136 172 211 278 328 385
#     4  10  21  40  68  94 124 170 228 264 318 405
#     4  10  21  38  69  94 124 167 209 276 322 389
#
# _framework density 21.652885000000001
#
# number of rings (size 3 to 8) (size 9 to 14) (size 15 to 20)
#    0.000    1.714    2.857    3.000    6.000    0.571 
#    7.714    0.000    0.000    0.000    0.000    0.000 
#    0.000    0.000    0.000    0.000    0.000    0.000 
#
# Total GULP energy -78098.805039 kJ/mol
# GULP energy per Si atom -5578.486074 kJ/mol
# Density = 2.160360 g / cm^3
# Si number density = 21.652885 Si / 1000 Ang^3
#
#
#
# Elastic Constant Matrix: (Units=GPa)
#
#
# Indices 1 2 3 4 5 6 
#
# 1 66.4917 23.5351 15.4072 0.0013 15.1706 0.0008
# 2 23.5351 84.2189 14.3948 0.0035 3.8842 -0.0001
# 3 15.4072 14.3948 135.8039 0.0042 -8.1290 -0.0003
# 4 0.0013 0.0035 0.0042 25.4220 0.0007 -3.3141
# 5 15.1706 3.8842 -8.1290 0.0007 18.4296 0.0006
# 6 0.0008 -0.0001 -0.0003 -3.3141 0.0006 7.5052
#
#
#
# Elastic Compliance Matrix: (Units=1/GPa)
#
#
# Indices 1 2 3 4 5 6 
#
# 1 0.021511 -0.004661 -0.003028 0.000000 -0.018060 -0.000001
# 2 -0.004661 0.013289 -0.000840 -0.000001 0.000665 0.000000
# 3 -0.003028 -0.000840 0.008172 -0.000001 0.006274 0.000000
# 4 0.000000 -0.000001 -0.000001 0.041739 -0.000003 0.018430
# 5 -0.018060 0.000665 0.006274 -0.000003 0.071754 -0.000005
# 6 -0.000001 0.000000 0.000000 0.018430 -0.000005 0.141379
#
#
# Mechanical properties :
#
#
# Convention : Reuss Voigt Hill
#
# Bulk Modulus (GPa) = 38.58733 43.68763 41.13748
# Shear Modulus (GPa) = 15.45406 25.81653 20.63530
#
# Velocity S-wave (km/s) = 2.67445 3.45670 3.09043
# Velocity P-wave (km/s) = 5.23416 6.01264 5.63686
#
# Compressibility (1/GPa) = 0.02591524
#
# Stress axis : x y z
#
# Youngs Moduli (GPa) = 46.48699 75.24903 122.37508
#
# Poissons Ratio (x) = 0.35073 0.37049
# Poissons Ratio (y) = 0.21667 0.10279
# Poissons Ratio (z) = 0.14074 0.06321
#
# Static dielectric constant tensor:
#      x y z
#    x 1.812460 0.000000 0.015240 
#    y 0.000000 1.823670 0.000000 
#    z 0.015240 0.000000 1.822660 
# 
# From -- ./inp_files/62910.got.cif
#   From: 2010.05.17/outbox.cif.g08.bks.cpg/sg5_32_cif.got.tgz:62910.got - 2010.06.03 18:56:24.
