data_PCOD9124871
_publ_section_title
;
Structure prediction by ZEFSAII (Michael W. Deem and Ramdas Pophale) SiO2 
 PCOD9124871
Probable space group: C 2
;
_chemical_formula_sum "Si O2"
_cell_formula_units_Z 28
_cell_length_a 29.354803
_cell_length_b 5.354278
_cell_length_c 8.841327
_cell_angle_alpha 90.000000
_cell_angle_beta 59.056843
_cell_angle_gamma 90.000000
_cell_volume 1191.850362
_symmetry_space_group_name_H-M "C 2"
_symmetry_group_IT_number 5
_symmetry_cell_setting 'monoclinic'
loop_
_space_group_symop_operation_xyz
x,y,z
-x,y,-z
1/2+x,1/2+y,z
1/2-x,1/2+y,-z
loop_
_atom_site_type_symbol
_atom_site_label
_atom_site_fract_x
_atom_site_fract_y
_atom_site_fract_z
Si Si1 0.465121 0.459790 0.175405
Si Si2 0.499230 0.843887 0.678842
Si Si3 0.591624 0.814160 0.958260
Si Si4 0.242690 0.927874 0.107122
Si Si5 0.107188 0.580672 0.635088
Si Si6 0.702670 0.758625 0.398306
Si Si7 0.698607 0.611438 0.755258
O O1 0.495520 0.558648 0.269780
O O2 0.448633 0.667835 0.082102
O O3 0.408483 0.367243 0.333101
O O4 0.500000 0.286844 0.000000
O O5 0.500000 0.867875 0.500000
O O6 0.552071 0.971419 0.658893
O O7 0.443112 0.925837 0.847525
O O8 0.637993 0.616573 0.916582
O O9 0.614905 0.012953 0.799645
O O10 0.194230 0.059950 0.278602
O O11 0.278445 0.844628 0.188643
O O12 0.264317 0.164010 0.970210
O O13 0.158031 0.473341 0.466123
O O14 0.699676 0.648275 0.572597
O O15 0.760653 0.887047 0.283625
#
# Coordination Sequence:
#
# PCOD9124871 Si02
#       7
#     4   4   4   4   4   4   4
#     4   9  18  36  62  92 126 171 222 286 349 413
#     4  10  21  39  58  91 136 171 227 280 355 430
#     4   9  21  38  64  95 128 175 226 294 343 412
#     4  12  26  47  68 101 150 192 232 294 368 425
#     4  10  21  38  67  93 128 173 230 291 348 413
#     4  11  24  41  70 104 136 189 248 300 349 427
#     4  11  23  41  71 100 140 187 247 300 344 437
#
# _framework density 23.492881000000001
#
# number of rings (size 3 to 8) (size 9 to 14) (size 15 to 20)
#    0.000    1.714    2.857    2.143    2.000    2.857 
#    0.000    0.000    0.000    0.000    0.000    0.000 
#    0.000    0.000    0.000    0.000    0.000    0.000 
#
# Total GULP energy -77949.418732 kJ/mol
# GULP energy per Si atom -5567.815624 kJ/mol
# Density = 2.343941 g / cm^3
# Si number density = 23.492881 Si / 1000 Ang^3
#
#
#
# Elastic Constant Matrix: (Units=GPa)
#
#
# Indices 1 2 3 4 5 6 
#
# 1 49.6395 1.9830 28.8361 0.0000 -11.5975 0.0000
# 2 1.9830 64.8782 23.1592 0.0000 9.9909 0.0000
# 3 28.8361 23.1592 120.3229 0.0000 23.3638 0.0000
# 4 0.0000 0.0000 0.0000 31.5865 0.0000 0.6318
# 5 -11.5975 9.9909 23.3638 0.0000 32.7242 0.0000
# 6 0.0000 0.0000 0.0000 0.6318 0.0000 27.4811
#
#
#
# Elastic Compliance Matrix: (Units=1/GPa)
#
#
# Indices 1 2 3 4 5 6 
#
# 1 0.031021 0.000113 -0.011127 0.000000 0.018903 0.000000
# 2 0.000113 0.016850 -0.002646 0.000000 -0.003215 0.000000
# 3 -0.011127 -0.002646 0.014042 0.000000 -0.013161 0.000000
# 4 0.000000 0.000000 0.000000 0.031674 0.000000 -0.000728
# 5 0.018903 -0.003215 -0.013161 0.000000 0.047636 0.000000
# 6 0.000000 0.000000 0.000000 -0.000728 0.000000 0.036405
#
#
# Mechanical properties :
#
#
# Convention : Reuss Voigt Hill
#
# Bulk Modulus (GPa) = 28.90730 38.08857 33.49793
# Shear Modulus (GPa) = 23.09700 30.41585 26.75643
#
# Velocity S-wave (km/s) = 3.13892 3.60207 3.37844
# Velocity P-wave (km/s) = 5.04664 5.79206 5.43215
#
# Compressibility (1/GPa) = 0.03459334
#
# Stress axis : x y z
#
# Youngs Moduli (GPa) = 32.23651 59.34834 71.21319
#
# Poissons Ratio (x) = -0.00668 0.79236
# Poissons Ratio (y) = -0.00363 0.18842
# Poissons Ratio (z) = 0.35868 0.15702
#
# Static dielectric constant tensor:
#      x y z
#    x 1.930250 0.000000 -0.108060 
#    y 0.000000 2.157940 0.000000 
#    z -0.108060 0.000000 2.030500 
# 
# From -- ./inp_files/32107.got.cif
#   From: 2010.05.17/outbox.cif.g08.bks.cpg/sg5_17_cif.got.tgz:32107.got - 2010.06.03 18:56:24.
