data_PCOD9124348
_publ_section_title
;
Structure prediction by ZEFSAII (Michael W. Deem and Ramdas Pophale) SiO2 
 PCOD9124348
Probable space group: C 2
;
_chemical_formula_sum "Si O2"
_cell_formula_units_Z 28
_cell_length_a 14.232866
_cell_length_b 7.765918
_cell_length_c 11.936723
_cell_angle_alpha 90.000000
_cell_angle_beta 115.552018
_cell_angle_gamma 90.000000
_cell_volume 1190.337839
_symmetry_space_group_name_H-M "C 2"
_symmetry_group_IT_number 5
_symmetry_cell_setting 'monoclinic'
loop_
_space_group_symop_operation_xyz
x,y,z
-x,y,-z
1/2+x,1/2+y,z
1/2-x,1/2+y,-z
loop_
_atom_site_type_symbol
_atom_site_label
_atom_site_fract_x
_atom_site_fract_y
_atom_site_fract_z
Si Si1 0.683892 0.222120 0.355155
Si Si2 0.712841 0.842835 0.384046
Si Si3 0.110899 0.207905 0.103895
Si Si4 0.709591 0.809451 0.804633
Si Si5 0.984376 0.201636 0.620970
Si Si6 0.262477 0.455395 0.051291
Si Si7 0.010226 0.916002 0.194021
O O1 0.696774 0.266220 0.492275
O O2 0.745083 0.338305 0.296155
O O3 0.566397 0.235761 0.248452
O O4 0.736622 0.038220 0.369456
O O5 0.670402 0.761904 0.248633
O O6 0.612705 0.827731 0.413597
O O7 0.189738 0.299739 0.057006
O O8 0.066747 0.019427 0.122140
O O9 0.000000 0.283610 0.000000
O O10 0.586878 0.784420 0.727563
O O11 0.752856 0.629206 0.882562
O O12 0.735657 0.959910 0.905247
O O13 0.000000 0.161792 0.500000
O O14 0.964872 0.030739 0.683316
O O15 0.386088 0.413801 0.118779
#
# Coordination Sequence:
#
# PCOD9124348 Si02
#       7
#     4   4   4   4   4   4   4
#     4  12  25  45  68 102 139 182 236 295 354 427
#     4  11  23  44  69 100 138 180 231 289 357 422
#     4  11  23  45  73 102 142 190 232 292 363 423
#     4  11  25  43  71  99 140 183 236 290 358 425
#     4  10  20  44  69  95 133 180 228 287 356 424
#     4  11  24  46  69 104 142 187 237 294 357 427
#     4  10  26  41  69 103 139 185 237 290 357 430
#
# _framework density 23.522734
#
# number of rings (size 3 to 8) (size 9 to 14) (size 15 to 20)
#    0.000    1.143    2.857    4.286    4.000    2.286 
#    0.000    0.714    0.000    0.000    0.000    0.000 
#    0.000    0.000    0.000    0.000    0.000    0.000 
#
# Total GULP energy -78037.893320 kJ/mol
# GULP energy per Si atom -5574.135237 kJ/mol
# Density = 2.346920 g / cm^3
# Si number density = 23.522734 Si / 1000 Ang^3
#
#
#
# Elastic Constant Matrix: (Units=GPa)
#
#
# Indices 1 2 3 4 5 6 
#
# 1 68.6671 -8.5664 -0.4546 0.0000 0.1187 0.0000
# 2 -8.5664 40.3762 13.4866 0.0000 12.5915 0.0000
# 3 -0.4546 13.4866 144.0581 0.0000 -5.5477 0.0000
# 4 0.0000 0.0000 0.0000 33.7375 0.0000 -1.3810
# 5 0.1187 12.5915 -5.5477 0.0000 50.2063 0.0000
# 6 0.0000 0.0000 0.0000 -1.3810 0.0000 9.4823
#
#
#
# Elastic Compliance Matrix: (Units=1/GPa)
#
#
# Indices 1 2 3 4 5 6 
#
# 1 0.015011 0.003598 -0.000327 0.000000 -0.000974 0.000000
# 2 0.003598 0.028893 -0.002986 0.000000 -0.007585 0.000000
# 3 -0.000327 -0.002986 0.007280 0.000000 0.001554 0.000000
# 4 0.000000 0.000000 0.000000 0.029818 0.000000 0.004343
# 5 -0.000974 -0.007585 0.001554 0.000000 0.021994 0.000000
# 6 0.000000 0.000000 0.000000 0.004343 0.000000 0.106092
#
#
# Mechanical properties :
#
#
# Convention : Reuss Voigt Hill
#
# Bulk Modulus (GPa) = 19.32191 29.11473 24.21832
# Shear Modulus (GPa) = 22.14641 35.26094 28.70367
#
# Velocity S-wave (km/s) = 3.07170 3.87591 3.49700
# Velocity P-wave (km/s) = 4.56206 5.69512 5.15979
#
# Compressibility (1/GPa) = 0.05175473
#
# Stress axis : x y z
#
# Youngs Moduli (GPa) = 66.61617 34.61049 137.36323
#
# Poissons Ratio (x) = -0.12452 0.04491
# Poissons Ratio (y) = -0.23967 0.41012
# Poissons Ratio (z) = 0.02178 0.10334
#
# Static dielectric constant tensor:
#      x y z
#    x 1.934520 0.000000 -0.036150 
#    y 0.000000 2.023820 0.000000 
#    z -0.036150 0.000000 1.934410 
# 
# From -- ./inp_files/41877.got.cif
#   From: 2010.05.17/outbox.cif.g08.bks.cpg/sg5_21_cif.got.tgz:41877.got - 2010.06.03 18:56:24.
