data_PCOD9124507
_publ_section_title
;
Structure prediction by ZEFSAII (Michael W. Deem and Ramdas Pophale) SiO2 
 PCOD9124507
Probable space group: C 2
;
_chemical_formula_sum "Si O2"
_cell_formula_units_Z 32
_cell_length_a 9.933529
_cell_length_b 14.255854
_cell_length_c 15.532182
_cell_angle_alpha 90.000000
_cell_angle_beta 119.536823
_cell_angle_gamma 90.000000
_cell_volume 1913.674264
_symmetry_space_group_name_H-M "C 2"
_symmetry_group_IT_number 5
_symmetry_cell_setting 'monoclinic'
loop_
_space_group_symop_operation_xyz
x,y,z
-x,y,-z
1/2+x,1/2+y,z
1/2-x,1/2+y,-z
loop_
_atom_site_type_symbol
_atom_site_label
_atom_site_fract_x
_atom_site_fract_y
_atom_site_fract_z
Si Si1 0.941844 0.216460 0.077815
Si Si2 0.081326 0.739711 0.936122
Si Si3 0.464483 0.580492 0.233792
Si Si4 0.134077 0.585747 0.217570
Si Si5 0.637062 0.867283 0.242649
Si Si6 0.251712 0.737625 0.381511
Si Si7 0.569547 0.745445 0.384823
Si Si8 0.536621 0.363157 0.753723
O O1 0.988718 0.126735 0.148919
O O2 0.017654 0.306267 0.148376
O O3 0.758307 0.223290 0.015247
O O4 0.000000 0.210167 0.000000
O O5 0.999456 0.646957 0.869965
O O6 0.068027 0.817734 0.857262
O O7 0.000000 0.766035 0.000000
O O8 0.283164 0.587590 0.201893
O O9 0.553730 0.647291 0.328870
O O10 0.505071 0.472187 0.251539
O O11 0.097441 0.477564 0.225369
O O12 0.188751 0.640453 0.320923
O O13 0.625525 0.823658 0.334670
O O14 0.808248 0.854500 0.255310
O O15 0.396880 0.767358 0.366564
O O16 0.319647 0.732870 0.498550
O O17 0.108655 0.808202 0.331127
#
# Coordination Sequence:
#
# PCOD9124507 Si02
#       8
#     4   4   4   4   4   4   4   4
#     4  11  21  36  53  80 113 142 175 222 272 311
#     4  11  21  36  57  78 107 146 183 216 263 319
#     4   9  19  36  56  78 108 140 179 220 262 313
#     4   9  19  36  57  79 103 142 185 216 254 324
#     4  10  21  36  56  81 110 139 178 224 270 312
#     4   9  19  37  58  80 107 139 181 218 265 324
#     4   9  19  37  58  79 108 143 172 221 274 317
#     4  10  21  36  55  83 108 138 183 224 260 319
#
# _framework density 16.72176
#
# number of rings (size 3 to 8) (size 9 to 14) (size 15 to 20)
#    0.000    2.250    2.500    0.000    1.750    3.500 
#    2.250    2.500    0.000    0.000    0.000    0.000 
#    0.000    0.000    0.000    0.000    0.000    0.000 
#
# Total GULP energy -89207.782343 kJ/mol
# GULP energy per Si atom -5575.486396 kJ/mol
# Density = 1.668370 g / cm^3
# Si number density = 16.721760 Si / 1000 Ang^3
#
#
#
# Elastic Constant Matrix: (Units=GPa)
#
#
# Indices 1 2 3 4 5 6 
#
# 1 76.2361 42.1560 49.6016 0.0000 -8.8066 0.0000
# 2 42.1560 128.0258 45.0653 0.0000 -5.9896 0.0000
# 3 49.6016 45.0653 107.8787 0.0000 -9.2453 0.0000
# 4 0.0000 0.0000 0.0000 6.1777 0.0000 0.4489
# 5 -8.8066 -5.9896 -9.2453 0.0000 34.3838 0.0000
# 6 0.0000 0.0000 0.0000 0.4489 0.0000 27.6325
#
#
#
# Elastic Compliance Matrix: (Units=1/GPa)
#
#
# Indices 1 2 3 4 5 6 
#
# 1 0.020529 -0.003980 -0.007559 0.000000 0.002532 0.000000
# 2 -0.003980 0.009941 -0.002315 0.000000 0.000090 0.000000
# 3 -0.007559 -0.002315 0.013831 0.000000 0.001380 0.000000
# 4 0.000000 0.000000 0.000000 0.162065 0.000000 -0.002633
# 5 0.002532 0.000090 0.001380 0.000000 0.030119 0.000000
# 6 0.000000 0.000000 0.000000 -0.002633 0.000000 0.036232
#
#
# Mechanical properties :
#
#
# Convention : Reuss Voigt Hill
#
# Bulk Modulus (GPa) = 60.27259 65.08737 62.67998
# Shear Modulus (GPa) = 16.34231 25.32665 20.83448
#
# Velocity S-wave (km/s) = 3.12958 3.89600 3.53363
# Velocity P-wave (km/s) = 7.01297 7.69719 7.36303
#
# Compressibility (1/GPa) = 0.01659129
#
# Stress axis : x y z
#
# Youngs Moduli (GPa) = 48.71177 100.59793 72.30384
#
# Poissons Ratio (x) = 0.40042 0.54656
# Poissons Ratio (y) = 0.19389 0.16737
# Poissons Ratio (z) = 0.36822 0.23286
#
# Static dielectric constant tensor:
#      x y z
#    x 1.546120 0.000000 -0.004520 
#    y 0.000000 1.542970 0.000000 
#    z -0.004520 0.000000 1.549250 
# 
# From -- ./inp_files/50735.got.cif
#   From: 2010.05.17/outbox.cif.g08.bks.cpg/sg5_26_cif.got.tgz:50735.got - 2010.06.03 18:56:24.
