data_PCOD9124964
_publ_section_title
;
Structure prediction by ZEFSAII (Michael W. Deem and Ramdas Pophale) SiO2 
 PCOD9124964
Probable space group: C 2
;
_chemical_formula_sum "Si O2"
_cell_formula_units_Z 26
_cell_length_a 7.248515
_cell_length_b 16.966204
_cell_length_c 7.244261
_cell_angle_alpha 90.000000
_cell_angle_beta 84.400311
_cell_angle_gamma 90.000000
_cell_volume 886.646228
_symmetry_space_group_name_H-M "C 2"
_symmetry_group_IT_number 5
_symmetry_cell_setting 'monoclinic'
loop_
_space_group_symop_operation_xyz
x,y,z
-x,y,-z
1/2+x,1/2+y,z
1/2-x,1/2+y,-z
loop_
_atom_site_type_symbol
_atom_site_label
_atom_site_fract_x
_atom_site_fract_y
_atom_site_fract_z
Si Si1 0.304897 0.562290 0.486267
Si Si2 0.153618 0.482976 0.793214
Si Si3 0.000000 0.933867 0.000000
Si Si4 0.600714 0.827658 0.644905
Si Si5 0.106161 0.827656 0.641178
Si Si6 0.631326 0.158586 0.803326
Si Si7 0.165965 0.167892 0.855031
O O1 0.500000 0.523662 0.500000
O O2 0.178507 0.492472 0.567083
O O3 0.296145 0.630174 0.644047
O O4 0.279025 0.601932 0.296209
O O5 0.072073 0.396814 0.798428
O O6 0.333421 0.480560 0.909850
O O7 0.058372 0.567832 0.826659
O O8 0.908373 0.882601 0.174912
O O9 0.635718 0.824976 0.410470
O O10 0.864380 0.841869 0.590291
O O11 0.614404 0.744767 0.746952
O O12 0.069824 0.735758 0.699751
O O13 0.682431 0.184576 0.004123
O O14 0.000000 0.140526 0.000000
#
# Coordination Sequence:
#
# PCOD9124964 Si02
#       7
#     4   4   2   4   4   4   4
#     4  10  21  39  63 104 140 185 236 298 367 417
#     4  10  25  43  68 108 145 191 246 306 376 437
#     4  12  26  46  80 106 152 198 258 308 374 456
#     4  12  25  46  72 106 149 195 241 307 373 440
#     4  12  26  49  74 106 150 201 253 304 374 457
#     4  10  24  39  68 101 141 187 241 302 362 436
#     4  12  21  41  71 104 142 192 248 291 361 452
#
# _framework density 29.323981
#
# number of rings (size 3 to 8) (size 9 to 14) (size 15 to 20)
#    0.923    0.000    4.615    2.308    5.385    0.615 
#    0.000    0.000    5.077    0.000    0.000    0.000 
#    0.000    0.000    0.000    0.000    0.000    0.000 
#
# Total GULP energy -72449.296837 kJ/mol
# GULP energy per Si atom -5573.022834 kJ/mol
# Density = 2.925724 g / cm^3
# Si number density = 29.323981 Si / 1000 Ang^3
#
#
#
# Elastic Constant Matrix: (Units=GPa)
#
#
# Indices 1 2 3 4 5 6 
#
# 1 158.6334 64.3371 82.6179 0.0000 38.5702 0.0000
# 2 64.3371 177.5996 93.9926 0.0000 19.2715 0.0000
# 3 82.6179 93.9926 253.3142 0.0000 9.4195 0.0000
# 4 0.0000 0.0000 0.0000 46.4543 0.0000 22.8394
# 5 38.5702 19.2715 9.4195 0.0000 73.0464 0.0000
# 6 0.0000 0.0000 0.0000 22.8394 0.0000 28.1628
#
#
#
# Elastic Compliance Matrix: (Units=1/GPa)
#
#
# Indices 1 2 3 4 5 6 
#
# 1 0.009132 -0.001703 -0.002194 0.000000 -0.004089 0.000000
# 2 -0.001703 0.007496 -0.002197 0.000000 -0.000795 0.000000
# 3 -0.002194 -0.002197 0.005440 0.000000 0.001037 0.000000
# 4 0.000000 0.000000 0.000000 0.035801 0.000000 -0.029034
# 5 -0.004089 -0.000795 0.001037 0.000000 0.015925 0.000000
# 6 0.000000 0.000000 0.000000 -0.029034 0.000000 0.059054
#
#
# Mechanical properties :
#
#
# Convention : Reuss Voigt Hill
#
# Bulk Modulus (GPa) = 101.21263 119.04914 110.13088
# Shear Modulus (GPa) = 33.70880 52.77269 43.24075
#
# Velocity S-wave (km/s) = 3.39415 4.24682 3.84420
# Velocity P-wave (km/s) = 7.06757 8.04570 7.57245
#
# Compressibility (1/GPa) = 0.00988019
#
# Stress axis : x y z
#
# Youngs Moduli (GPa) = 109.50929 133.39834 183.82970
#
# Poissons Ratio (x) = 0.22717 0.40338
# Poissons Ratio (y) = 0.18649 0.40379
# Poissons Ratio (z) = 0.24030 0.29301
#
# Static dielectric constant tensor:
#      x y z
#    x 5.742420 0.000000 -0.086280 
#    y 0.000000 2.080800 0.000000 
#    z -0.086280 0.000000 2.526720 
# 
# From -- ./inp_files/7081.got.cif
#   From: 2010.05.17/outbox.cif.g08.bks.cpg/sg5_4_cif.got.tgz:7081.got - 2010.06.03 18:56:24.
