data_PCOD9124687
_publ_section_title
;
Structure prediction by ZEFSAII (Michael W. Deem and Ramdas Pophale) SiO2 
 PCOD9124687
Probable space group: C 2
;
_chemical_formula_sum "Si O2"
_cell_formula_units_Z 30
_cell_length_a 17.925524
_cell_length_b 6.790006
_cell_length_c 12.967777
_cell_angle_alpha 90.000000
_cell_angle_beta 43.360194
_cell_angle_gamma 90.000000
_cell_volume 1083.678156
_symmetry_space_group_name_H-M "C 2"
_symmetry_group_IT_number 5
_symmetry_cell_setting 'monoclinic'
loop_
_space_group_symop_operation_xyz
x,y,z
-x,y,-z
1/2+x,1/2+y,z
1/2-x,1/2+y,-z
loop_
_atom_site_type_symbol
_atom_site_label
_atom_site_fract_x
_atom_site_fract_y
_atom_site_fract_z
Si Si1 0.484315 0.927030 0.848847
Si Si2 0.151042 0.763417 0.488676
Si Si3 0.557007 0.851605 0.563840
Si Si4 0.783654 0.411005 0.172687
Si Si5 0.341408 0.362217 0.076047
Si Si6 0.000000 0.989711 0.500000
Si Si7 0.142777 0.599699 0.207743
Si Si8 0.914311 0.819830 0.219035
O O1 0.442045 0.957159 0.647509
O O2 0.536789 0.794007 0.706282
O O3 0.399025 0.832988 0.012974
O O4 0.564971 0.082564 0.821581
O O5 0.248081 0.847046 0.322541
O O6 0.146025 0.827844 0.611850
O O7 0.142320 0.527791 0.486997
O O8 0.536995 0.334668 0.551550
O O9 0.578005 0.660372 0.474691
O O10 0.912332 0.576021 0.847616
O O11 0.793486 0.640992 0.138274
O O12 0.682912 0.310615 0.210063
O O13 0.255280 0.481781 0.097618
O O14 0.354595 0.417672 0.183293
O O15 0.461863 0.393077 0.910295
#
# Coordination Sequence:
#
# PCOD9124687 Si02
#       8
#     4   4   4   4   4   2   4   4
#     4   8  21  37  64  91 125 164 207 263 328 381
#     4  11  23  37  62  88 133 166 204 268 332 387
#     4   9  21  39  54  93 132 161 190 270 327 372
#     4  11  22  37  61  96 122 166 213 263 324 390
#     4  10  22  43  69  86 125 174 226 261 320 397
#     4  12  20  32  62  92 122 162 210 244 326 400
#     4  10  21  37  63  94 126 158 212 276 311 380
#     4   9  21  46  62  88 130 176 208 274 333 384
#
# _framework density 27.683496000000002
#
# number of rings (size 3 to 8) (size 9 to 14) (size 15 to 20)
#    0.800    1.333    0.000    2.800    3.733    1.067 
#    2.400    8.000    0.000    0.000    0.000    0.000 
#    0.000    0.000    0.000    0.000    0.000    0.000 
#
# Total GULP energy -83618.292417 kJ/mol
# GULP energy per Si atom -5574.552828 kJ/mol
# Density = 2.762049 g / cm^3
# Si number density = 27.683496 Si / 1000 Ang^3
#
#
#
# Elastic Constant Matrix: (Units=GPa)
#
#
# Indices 1 2 3 4 5 6 
#
# 1 66.2087 16.9920 10.5395 -0.0003 1.7427 0.0004
# 2 16.9920 79.4391 15.3672 -0.0025 -7.8512 0.0024
# 3 10.5395 15.3672 180.2047 0.0001 2.8886 0.0009
# 4 -0.0003 -0.0025 0.0001 22.3093 0.0004 -5.4361
# 5 1.7427 -7.8512 2.8886 0.0004 52.0031 -0.0003
# 6 0.0004 0.0024 0.0009 -5.4361 -0.0003 25.8552
#
#
#
# Elastic Compliance Matrix: (Units=1/GPa)
#
#
# Indices 1 2 3 4 5 6 
#
# 1 0.016110 -0.003424 -0.000634 0.000000 -0.001022 0.000000
# 2 -0.003424 0.013737 -0.001007 0.000001 0.002245 -0.000001
# 3 -0.000634 -0.001007 0.005679 0.000000 -0.000446 0.000000
# 4 0.000000 0.000001 0.000000 0.047245 0.000000 0.009933
# 5 -0.001022 0.002245 -0.000446 0.000000 0.019628 0.000000
# 6 0.000000 -0.000001 0.000000 0.009933 0.000000 0.040766
#
#
# Mechanical properties :
#
#
# Convention : Reuss Voigt Hill
#
# Bulk Modulus (GPa) = 39.37567 45.73887 42.55727
# Shear Modulus (GPa) = 30.90976 38.89712 34.90344
#
# Velocity S-wave (km/s) = 3.34509 3.75249 3.55463
# Velocity P-wave (km/s) = 5.40129 5.94414 5.67920
#
# Compressibility (1/GPa) = 0.02539639
#
# Stress axis : x y z
#
# Youngs Moduli (GPa) = 62.07175 72.79388 176.07624
#
# Poissons Ratio (x) = 0.24927 0.11160
# Poissons Ratio (y) = 0.21256 0.17734
# Poissons Ratio (z) = 0.03934 0.07332
#
# Static dielectric constant tensor:
#      x y z
#    x 2.148370 0.000000 0.018060 
#    y 0.000000 2.183390 0.000000 
#    z 0.018060 0.000000 2.336120 
# 
# From -- ./inp_files/56529.got.cif
#   From: 2010.05.17/outbox.cif.g08.bks.cpg/sg5_29_cif.got.tgz:56529.got - 2010.06.03 18:56:24.
