data_PCOD9124519
_publ_section_title
;
Structure prediction by ZEFSAII (Michael W. Deem and Ramdas Pophale) SiO2 
 PCOD9124519
Probable space group: C 2
;
_chemical_formula_sum "Si O2"
_cell_formula_units_Z 28
_cell_length_a 5.113789
_cell_length_b 32.041058
_cell_length_c 9.098700
_cell_angle_alpha 90.000000
_cell_angle_beta 120.229042
_cell_angle_gamma 90.000000
_cell_volume 1288.109116
_symmetry_space_group_name_H-M "C 2"
_symmetry_group_IT_number 5
_symmetry_cell_setting 'monoclinic'
loop_
_space_group_symop_operation_xyz
x,y,z
-x,y,-z
1/2+x,1/2+y,z
1/2-x,1/2+y,-z
loop_
_atom_site_type_symbol
_atom_site_label
_atom_site_fract_x
_atom_site_fract_y
_atom_site_fract_z
Si Si1 0.286115 0.793260 0.794362
Si Si2 0.577714 0.200226 0.691496
Si Si3 0.190084 0.155160 0.818024
Si Si4 0.343205 0.479489 0.295619
Si Si5 0.356880 0.563208 0.122864
Si Si6 0.836718 0.432513 0.295071
Si Si7 0.289006 0.338914 0.795955
O O1 0.124230 0.748829 0.739481
O O2 0.518955 0.805475 0.732162
O O3 0.022637 0.827704 0.733514
O O4 0.500000 0.793069 0.000000
O O5 0.500000 0.195254 0.500000
O O6 0.311228 0.178178 0.707328
O O7 0.907492 0.179380 0.807587
O O8 0.080443 0.107180 0.778739
O O9 0.500000 0.155304 0.000000
O O10 0.500000 0.479169 0.500000
O O11 0.420309 0.523377 0.241861
O O12 0.494557 0.445533 0.231821
O O13 0.001337 0.465067 0.232766
O O14 0.500000 0.562634 0.000000
O O15 0.000000 0.561530 0.000000
O O16 0.847856 0.384971 0.247753
O O17 0.000000 0.435077 0.500000
O O18 0.500000 0.336040 0.000000
#
# Coordination Sequence:
#
# PCOD9124519 Si02
#       7
#     4   4   4   4   4   4   4
#     4  10  21  38  58  83 117 159 200 244 304 363
#     4  12  25  40  63  96 125 157 208 259 304 361
#     4  11  23  43  65  88 124 167 202 247 312 373
#     4  10  22  39  59  86 121 159 195 239 302 363
#     4  11  23  41  64  92 119 153 204 250 294 355
#     4  10  21  37  57  83 117 158 198 239 298 362
#     4  10  21  36  57  84 114 153 202 248 293 351
#
# _framework density 21.737290999999999
#
# number of rings (size 3 to 8) (size 9 to 14) (size 15 to 20)
#    0.000    1.429    0.000    6.000    0.000    5.143 
#    0.000    1.429    0.000    0.000    0.000    0.000 
#    0.000    0.000    0.000    0.000    0.000    0.000 
#
# Total GULP energy -78182.133363 kJ/mol
# GULP energy per Si atom -5584.438097 kJ/mol
# Density = 2.168782 g / cm^3
# Si number density = 21.737291 Si / 1000 Ang^3
#
#
#
# Elastic Constant Matrix: (Units=GPa)
#
#
# Indices 1 2 3 4 5 6 
#
# 1 148.4312 43.2279 20.6637 0.0000 -21.0689 0.0000
# 2 43.2279 126.7159 5.9550 0.0000 -15.6928 0.0000
# 3 20.6637 5.9550 26.9214 0.0000 -7.3314 0.0000
# 4 0.0000 0.0000 0.0000 31.0091 0.0000 4.9604
# 5 -21.0689 -15.6928 -7.3314 0.0000 19.8491 0.0000
# 6 0.0000 0.0000 0.0000 4.9604 0.0000 43.2510
#
#
#
# Elastic Compliance Matrix: (Units=1/GPa)
#
#
# Indices 1 2 3 4 5 6 
#
# 1 0.008844 -0.002049 -0.004691 0.000000 0.006034 0.000000
# 2 -0.002049 0.009223 0.001030 0.000000 0.005497 0.000000
# 3 -0.004691 0.001030 0.043788 0.000000 0.012008 0.000000
# 4 0.000000 0.000000 0.000000 0.032851 0.000000 -0.003768
# 5 0.006034 0.005497 0.012008 0.000000 0.065566 0.000000
# 6 0.000000 0.000000 0.000000 -0.003768 0.000000 0.023553
#
#
# Mechanical properties :
#
#
# Convention : Reuss Voigt Hill
#
# Bulk Modulus (GPa) = 19.82817 49.08463 34.45640
# Shear Modulus (GPa) = 23.57842 34.30330 28.94086
#
# Velocity S-wave (km/s) = 3.29705 3.97682 3.65278
# Velocity P-wave (km/s) = 4.86164 6.61186 5.80311
#
# Compressibility (1/GPa) = 0.05043331
#
# Stress axis : x y z
#
# Youngs Moduli (GPa) = 113.07722 108.42350 22.83710
#
# Poissons Ratio (x) = 0.22217 0.10714
# Poissons Ratio (y) = 0.23171 -0.02351
# Poissons Ratio (z) = 0.53049 -0.11164
#
# Static dielectric constant tensor:
#      x y z
#    x 1.767110 0.000000 -0.007970 
#    y 0.000000 1.834150 0.000000 
#    z -0.007970 0.000000 1.799350 
# 
# From -- ./inp_files/13391.got.cif
#   From: 2010.05.17/outbox.cif.g08.bks.cpg/sg5_7_cif.got.tgz:13391.got - 2010.06.03 18:56:24.
