data_PCOD9124287
_publ_section_title
;
Structure prediction by ZEFSAII (Michael W. Deem and Ramdas Pophale) SiO2 
 PCOD9124287
Probable space group: C 2
;
_chemical_formula_sum "Si O2"
_cell_formula_units_Z 30
_cell_length_a 7.534573
_cell_length_b 6.965118
_cell_length_c 20.740749
_cell_angle_alpha 90.000000
_cell_angle_beta 96.787451
_cell_angle_gamma 90.000000
_cell_volume 1080.829162
_symmetry_space_group_name_H-M "C 2"
_symmetry_group_IT_number 5
_symmetry_cell_setting 'monoclinic'
loop_
_space_group_symop_operation_xyz
x,y,z
-x,y,-z
1/2+x,1/2+y,z
1/2-x,1/2+y,-z
loop_
_atom_site_type_symbol
_atom_site_label
_atom_site_fract_x
_atom_site_fract_y
_atom_site_fract_z
Si Si1 0.707428 0.471790 0.673684
Si Si2 0.846729 0.430308 0.037994
Si Si3 0.000000 0.619343 0.500000
Si Si4 0.408717 0.077829 0.293258
Si Si5 0.362426 0.510874 0.087872
Si Si6 0.651325 0.747451 0.553620
Si Si7 0.968836 0.061130 0.782951
Si Si8 0.516803 0.004824 0.164362
O O1 0.620478 0.262797 0.663446
O O2 0.653591 0.627880 0.618829
O O3 0.633017 0.536237 0.740240
O O4 0.922113 0.454421 0.676836
O O5 0.852260 0.535428 0.106796
O O6 0.907916 0.219855 0.062203
O O7 0.686915 0.404436 0.980514
O O8 0.000000 0.517985 0.000000
O O9 0.157663 0.732355 0.472648
O O10 0.094858 0.469789 0.553832
O O11 0.210095 0.007780 0.265093
O O12 0.481705 0.134686 0.225011
O O13 0.508067 0.454053 0.147163
O O14 0.188917 0.529979 0.126716
O O15 0.500000 0.662284 0.500000
O O16 0.970195 0.287621 0.804739
#
# Coordination Sequence:
#
# PCOD9124287 Si02
#       8
#     4   4   2   4   4   4   4   4
#     4  12  29  44  78 108 150 193 255 299 386 442
#     4   9  21  37  65  94 134 180 241 295 370 446
#     4  10  26  46  82 108 166 198 264 306 388 436
#     4  12  26  46  70 110 146 190 247 308 369 456
#     4  10  20  43  65  97 139 184 239 304 375 446
#     4  10  28  50  79 119 158 212 255 322 375 459
#     4  11  24  45  71 102 144 194 242 315 377 455
#     4  10  22  45  64  98 142 185 245 310 375 450
#
# _framework density 27.756471999999999
#
# number of rings (size 3 to 8) (size 9 to 14) (size 15 to 20)
#    0.400    1.067    2.667    0.000    6.533    5.333 
#    0.000    8.667    0.000    0.000    0.000    0.000 
#    0.000    0.000    0.000    0.000    0.000    0.000 
#
# Total GULP energy -83897.087580 kJ/mol
# GULP energy per Si atom -5593.139172 kJ/mol
# Density = 2.769330 g / cm^3
# Si number density = 27.756472 Si / 1000 Ang^3
#
#
#
# Elastic Constant Matrix: (Units=GPa)
#
#
# Indices 1 2 3 4 5 6 
#
# 1 194.3892 35.7670 55.2621 0.0000 -24.0891 0.0000
# 2 35.7670 72.6721 20.8758 0.0000 0.4520 0.0000
# 3 55.2621 20.8758 117.5149 0.0000 2.8069 0.0000
# 4 0.0000 0.0000 0.0000 33.4748 0.0000 -13.8376
# 5 -24.0891 0.4520 2.8069 0.0000 43.2431 0.0000
# 6 0.0000 0.0000 0.0000 -13.8376 0.0000 37.0504
#
#
#
# Elastic Compliance Matrix: (Units=1/GPa)
#
#
# Indices 1 2 3 4 5 6 
#
# 1 0.006959 -0.002616 -0.002905 0.000000 0.004092 0.000000
# 2 -0.002616 0.015484 -0.001484 0.000000 -0.001523 0.000000
# 3 -0.002905 -0.001484 0.010194 0.000000 -0.002265 0.000000
# 4 0.000000 0.000000 0.000000 0.035327 0.000000 0.013194
# 5 0.004092 -0.001523 -0.002265 0.000000 0.025568 0.000000
# 6 0.000000 0.000000 0.000000 0.013194 0.000000 0.031918
#
#
# Mechanical properties :
#
#
# Convention : Reuss Voigt Hill
#
# Bulk Modulus (GPa) = 53.69038 67.59845 60.64441
# Shear Modulus (GPa) = 34.32463 40.93174 37.62818
#
# Velocity S-wave (km/s) = 3.52040 3.84431 3.68592
# Velocity P-wave (km/s) = 5.99246 6.64169 6.32541
#
# Compressibility (1/GPa) = 0.01862531
#
# Stress axis : x y z
#
# Youngs Moduli (GPa) = 143.70461 64.58440 98.10059
#
# Poissons Ratio (x) = 0.16893 0.28503
# Poissons Ratio (y) = 0.37589 0.14560
# Poissons Ratio (z) = 0.41753 0.09585
#
# Static dielectric constant tensor:
#      x y z
#    x 2.218010 0.000000 0.135220 
#    y 0.000000 2.231850 0.000000 
#    z 0.135220 0.000000 2.194940 
# 
# From -- ./inp_files/64326.got.cif
#   From: 2010.05.17/outbox.cif.g08.bks.cpg/sg5_33_cif.got.tgz:64326.got - 2010.06.03 18:56:24.
