data_PCOD9124950
_publ_section_title
;
Structure prediction by ZEFSAII (Michael W. Deem and Ramdas Pophale) SiO2 
 PCOD9124950
Probable space group: C 2
;
_chemical_formula_sum "Si O2"
_cell_formula_units_Z 22
_cell_length_a 24.905830
_cell_length_b 4.942049
_cell_length_c 7.810702
_cell_angle_alpha 90.000000
_cell_angle_beta 122.675306
_cell_angle_gamma 90.000000
_cell_volume 809.241094
_symmetry_space_group_name_H-M "C 2"
_symmetry_group_IT_number 5
_symmetry_cell_setting 'monoclinic'
loop_
_space_group_symop_operation_xyz
x,y,z
-x,y,-z
1/2+x,1/2+y,z
1/2-x,1/2+y,-z
loop_
_atom_site_type_symbol
_atom_site_label
_atom_site_fract_x
_atom_site_fract_y
_atom_site_fract_z
Si Si1 0.371925 0.802030 0.648941
Si Si2 0.677178 0.312247 0.263860
Si Si3 0.052863 0.854521 0.805715
Si Si4 0.500000 0.025581 0.000000
Si Si5 0.275807 0.593308 0.964558
Si Si6 0.593274 0.848102 0.687045
O O1 0.337782 0.517176 0.610813
O O2 0.437384 0.841465 0.871749
O O3 0.392462 0.827950 0.488329
O O4 0.324544 0.016029 0.660259
O O5 0.729201 0.438991 0.225237
O O6 0.614757 0.335258 0.034470
O O7 0.069479 0.646648 0.684402
O O8 0.999587 0.724688 0.835064
O O9 0.045947 0.145199 0.708358
O O10 0.274171 0.335859 0.090617
O O11 0.340323 0.763798 0.106264
#
# Coordination Sequence:
#
# PCOD9124950 Si02
#       6
#     4   4   4   2   4   4
#     4  11  23  40  63  89 127 160 200 246 301 354
#     4  10  21  40  62  87 122 163 194 248 310 354
#     4  10  21  39  62  87 123 160 205 244 298 356
#     4  10  22  40  62  90 120 170 206 236 290 370
#     4  11  21  38  66  91 116 158 208 245 297 372
#     4  11  23  41  62  91 124 158 196 259 305 340
#
# _framework density 27.185966000000001
#
# number of rings (size 3 to 8) (size 9 to 14) (size 15 to 20)
#    0.000    1.455    0.000    8.727    0.000    7.273 
#    0.000    7.273    0.000    2.182    0.000    0.000 
#    0.000    0.000    0.000    0.000    0.000    0.000 
#
# Total GULP energy -61610.485336 kJ/mol
# GULP energy per Si atom -5600.953212 kJ/mol
# Density = 2.712409 g / cm^3
# Si number density = 27.185966 Si / 1000 Ang^3
#
#
#
# Elastic Constant Matrix: (Units=GPa)
#
#
# Indices 1 2 3 4 5 6 
#
# 1 81.0852 5.0980 15.2585 0.0000 -19.6709 0.0000
# 2 5.0980 81.7632 -12.3972 0.0000 -4.4121 0.0000
# 3 15.2585 -12.3972 111.5682 0.0000 -14.9137 0.0000
# 4 0.0000 0.0000 0.0000 13.5432 0.0000 -18.8844
# 5 -19.6709 -4.4121 -14.9137 0.0000 53.8056 0.0000
# 6 0.0000 0.0000 0.0000 -18.8844 0.0000 53.4746
#
#
#
# Elastic Compliance Matrix: (Units=1/GPa)
#
#
# Indices 1 2 3 4 5 6 
#
# 1 0.013752 -0.000816 -0.001359 0.000000 0.004584 0.000000
# 2 -0.000816 0.012599 0.001672 0.000000 0.001198 0.000000
# 3 -0.001359 0.001672 0.009644 0.000000 0.002313 0.000000
# 4 0.000000 0.000000 0.000000 0.145471 0.000000 0.051373
# 5 0.004584 0.001198 0.002313 0.000000 0.021001 0.000000
# 6 0.000000 0.000000 0.000000 0.051373 0.000000 0.036843
#
#
# Mechanical properties :
#
#
# Convention : Reuss Voigt Hill
#
# Bulk Modulus (GPa) = 28.58017 32.25947 30.41982
# Shear Modulus (GPa) = 19.84294 41.92849 30.88572
#
# Velocity S-wave (km/s) = 2.70459 3.93145 3.37425
# Velocity P-wave (km/s) = 4.50430 5.70091 5.13757
#
# Compressibility (1/GPa) = 0.03498930
#
# Stress axis : x y z
#
# Youngs Moduli (GPa) = 72.71798 79.36845 103.69192
#
# Poissons Ratio (x) = 0.06477 0.14088
# Poissons Ratio (y) = 0.05934 -0.17335
# Poissons Ratio (z) = 0.09880 -0.13269
#
# Static dielectric constant tensor:
#      x y z
#    x 2.284550 0.000000 0.059300 
#    y 0.000000 2.078830 0.000000 
#    z 0.059300 0.000000 2.135490 
# 
# From -- ./inp_files/30342.got.cif
#   From: 2010.05.17/outbox.cif.g08.bks.cpg/sg5_16_cif.got.tgz:30342.got - 2010.06.03 18:56:24.
