data_PCOD9124596
_publ_section_title
;
Structure prediction by ZEFSAII (Michael W. Deem and Ramdas Pophale) SiO2 
 PCOD9124596
Probable space group: C 2
;
_chemical_formula_sum "Si O2"
_cell_formula_units_Z 30
_cell_length_a 9.038835
_cell_length_b 10.625682
_cell_length_c 15.355577
_cell_angle_alpha 90.000000
_cell_angle_beta 56.180657
_cell_angle_gamma 90.000000
_cell_volume 1225.265295
_symmetry_space_group_name_H-M "C 2"
_symmetry_group_IT_number 5
_symmetry_cell_setting 'monoclinic'
loop_
_space_group_symop_operation_xyz
x,y,z
-x,y,-z
1/2+x,1/2+y,z
1/2-x,1/2+y,-z
loop_
_atom_site_type_symbol
_atom_site_label
_atom_site_fract_x
_atom_site_fract_y
_atom_site_fract_z
Si Si1 0.634662 0.640580 0.036024
Si Si2 0.500000 0.650988 0.500000
Si Si3 0.681309 0.322122 0.897098
Si Si4 0.167419 0.940744 0.324701
Si Si5 0.941906 0.057323 0.267259
Si Si6 0.149399 0.292585 0.603064
Si Si7 0.013605 0.597660 0.837320
Si Si8 0.402507 0.015183 0.705897
O O1 0.697726 0.767360 0.064760
O O2 0.536567 0.562346 0.143422
O O3 0.500000 0.662571 0.000000
O O4 0.823072 0.579820 0.946044
O O5 0.611900 0.559794 0.401450
O O6 0.640386 0.731264 0.511050
O O7 0.614523 0.206360 0.857397
O O8 0.786515 0.421046 0.804855
O O9 0.500000 0.374191 0.000000
O O10 0.352905 0.978497 0.215999
O O11 0.018057 0.944129 0.299630
O O12 0.190019 0.825679 0.383552
O O13 0.970433 0.193072 0.303204
O O14 0.731062 0.050734 0.325662
O O15 0.062564 0.429856 0.620887
O O16 0.963732 0.623605 0.752277
#
# Coordination Sequence:
#
# PCOD9124596 Si02
#       8
#     4   2   4   4   4   4   4   4
#     4  11  20  38  61  90 137 176 219 265 300 365
#     4  10  22  44  74  92 128 160 204 282 330 394
#     4  10  21  37  55  85 124 172 222 263 305 361
#     4  10  22  43  68  96 125 172 210 264 342 378
#     4  11  22  40  64  93 138 174 212 266 306 375
#     4  10  23  44  67  97 129 160 214 268 328 392
#     4  10  21  37  61  90 130 167 216 267 307 368
#     4  11  22  38  63  90 127 173 213 256 325 368
#
# _framework density 24.484491999999999
#
# number of rings (size 3 to 8) (size 9 to 14) (size 15 to 20)
#    0.000    1.600    4.000    0.800    1.867    3.200 
#    0.000    4.667    0.000    0.000    0.000    0.000 
#    0.000    0.000    0.000    0.000    0.000    0.000 
#
# Total GULP energy -83771.473125 kJ/mol
# GULP energy per Si atom -5584.764875 kJ/mol
# Density = 2.442876 g / cm^3
# Si number density = 24.484492 Si / 1000 Ang^3
#
#
#
# Elastic Constant Matrix: (Units=GPa)
#
#
# Indices 1 2 3 4 5 6 
#
# 1 150.3858 34.9929 23.4259 0.0000 32.8606 0.0000
# 2 34.9929 77.6198 24.1736 0.0000 18.8663 0.0000
# 3 23.4259 24.1736 57.7984 0.0000 19.0291 0.0000
# 4 0.0000 0.0000 0.0000 22.1004 0.0000 0.8221
# 5 32.8606 18.8663 19.0291 0.0000 39.6450 0.0000
# 6 0.0000 0.0000 0.0000 0.8221 0.0000 30.0892
#
#
#
# Elastic Compliance Matrix: (Units=1/GPa)
#
#
# Indices 1 2 3 4 5 6 
#
# 1 0.008515 -0.002261 -0.000637 0.000000 -0.005676 0.000000
# 2 -0.002261 0.016239 -0.004689 0.000000 -0.003603 0.000000
# 3 -0.000637 -0.004689 0.022106 0.000000 -0.007851 0.000000
# 4 0.000000 0.000000 0.000000 0.045294 0.000000 -0.001238
# 5 -0.005676 -0.003603 -0.007851 0.000000 0.035412 0.000000
# 6 0.000000 0.000000 0.000000 -0.001238 0.000000 0.033268
#
#
# Mechanical properties :
#
#
# Convention : Reuss Voigt Hill
#
# Bulk Modulus (GPa) = 31.55957 50.10984 40.83471
# Shear Modulus (GPa) = 26.79969 31.91436 29.35702
#
# Velocity S-wave (km/s) = 3.31200 3.61425 3.46642
# Velocity P-wave (km/s) = 5.24818 6.15853 5.72149
#
# Compressibility (1/GPa) = 0.03168611
#
# Stress axis : x y z
#
# Youngs Moduli (GPa) = 117.43744 61.58146 45.23734
#
# Poissons Ratio (x) = 0.13922 0.02881
# Poissons Ratio (y) = 0.26550 0.21212
# Poissons Ratio (z) = 0.07478 0.28876
#
# Static dielectric constant tensor:
#      x y z
#    x 2.050610 0.000000 0.021220 
#    y 0.000000 1.959130 0.000000 
#    z 0.021220 0.000000 1.967210 
# 
# From -- ./inp_files/50465.got.cif
#   From: 2010.05.17/outbox.cif.g08.bks.cpg/sg5_26_cif.got.tgz:50465.got - 2010.06.03 18:56:24.
