data_PCOD9124368
_publ_section_title
;
Structure prediction by ZEFSAII (Michael W. Deem and Ramdas Pophale) SiO2 
 PCOD9124368
Probable space group: C 2
;
_chemical_formula_sum "Si O2"
_cell_formula_units_Z 22
_cell_length_a 14.563254
_cell_length_b 12.741078
_cell_length_c 10.160146
_cell_angle_alpha 90.000000
_cell_angle_beta 153.012967
_cell_angle_gamma 90.000000
_cell_volume 855.496736
_symmetry_space_group_name_H-M "C 2"
_symmetry_group_IT_number 5
_symmetry_cell_setting 'monoclinic'
loop_
_space_group_symop_operation_xyz
x,y,z
-x,y,-z
1/2+x,1/2+y,z
1/2-x,1/2+y,-z
loop_
_atom_site_type_symbol
_atom_site_label
_atom_site_fract_x
_atom_site_fract_y
_atom_site_fract_z
Si Si1 0.278216 0.728490 0.206603
Si Si2 0.254784 0.584123 0.919551
Si Si3 0.522650 0.942142 0.281491
Si Si4 0.293350 0.789332 0.817368
Si Si5 0.939518 0.897542 0.715047
Si Si6 0.000000 0.591504 0.000000
O O1 0.500000 0.776834 0.500000
O O2 0.709067 0.648057 0.899025
O O3 0.199222 0.660492 0.229093
O O4 0.102924 0.811176 0.960430
O O5 0.447025 0.508956 0.139643
O O6 0.067534 0.508922 0.716421
O O7 0.224702 0.673815 0.771567
O O8 0.749836 0.898574 0.573778
O O9 0.532026 0.019403 0.167121
O O10 0.359905 0.854407 0.031076
O O11 0.146598 0.858131 0.537342
O O12 0.500000 0.777008 0.000000
#
# Coordination Sequence:
#
# PCOD9124368 Si02
#       6
#     4   4   4   4   4   2
#     4  11  26  43  70 109 147 198 253 308 380 465
#     4  11  25  43  77 110 147 194 262 317 376 463
#     4  10  21  43  75 110 145 199 256 310 386 464
#     4  10  23  47  77 115 151 200 263 313 388 467
#     4  11  24  48  74 105 157 203 245 325 385 454
#     4  10  20  44  72  98 142 194 256 306 366 464
#
# _framework density 25.716054
#
# number of rings (size 3 to 8) (size 9 to 14) (size 15 to 20)
#    0.000    1.455    2.727    2.182    2.545   12.364 
#    4.909    1.818    0.000    0.000    0.000    0.000 
#    0.000    0.000    0.000    0.000    0.000    0.000 
#
# Total GULP energy -61710.823055 kJ/mol
# GULP energy per Si atom -5610.074823 kJ/mol
# Density = 2.565752 g / cm^3
# Si number density = 25.716054 Si / 1000 Ang^3
#
#
#
# Elastic Constant Matrix: (Units=GPa)
#
#
# Indices 1 2 3 4 5 6 
#
# 1 84.3906 39.2091 48.6972 0.0000 3.1179 0.0000
# 2 39.2091 159.6357 68.6351 0.0000 8.7118 0.0000
# 3 48.6972 68.6351 157.1872 0.0000 32.4058 0.0000
# 4 0.0000 0.0000 0.0000 44.8183 0.0000 16.5491
# 5 3.1179 8.7118 32.4058 0.0000 40.3752 0.0000
# 6 0.0000 0.0000 0.0000 16.5491 0.0000 56.5303
#
#
#
# Elastic Compliance Matrix: (Units=1/GPa)
#
#
# Indices 1 2 3 4 5 6 
#
# 1 0.015225 -0.001989 -0.004427 0.000000 0.002806 0.000000
# 2 -0.001989 0.008025 -0.003070 0.000000 0.000886 0.000000
# 3 -0.004427 -0.003070 0.010625 0.000000 -0.007523 0.000000
# 4 0.000000 0.000000 0.000000 0.025016 0.000000 -0.007324
# 5 0.002806 0.000886 -0.007523 0.000000 0.030398 0.000000
# 6 0.000000 0.000000 0.000000 -0.007324 0.000000 0.019834
#
#
# Mechanical properties :
#
#
# Convention : Reuss Voigt Hill
#
# Bulk Modulus (GPa) = 67.10719 79.36626 73.23672
# Shear Modulus (GPa) = 37.57651 44.65626 41.11639
#
# Velocity S-wave (km/s) = 3.82672 4.17167 4.00291
# Velocity P-wave (km/s) = 6.75849 7.35753 7.06436
#
# Compressibility (1/GPa) = 0.01490153
#
# Stress axis : x y z
#
# Youngs Moduli (GPa) = 65.68326 124.61690 94.11877
#
# Poissons Ratio (x) = 0.24791 0.41662
# Poissons Ratio (y) = 0.13067 0.28898
# Poissons Ratio (z) = 0.29075 0.38262
#
# Static dielectric constant tensor:
#      x y z
#    x 2.027940 0.000000 -0.004060 
#    y 0.000000 2.001830 0.000000 
#    z -0.004060 0.000000 2.060920 
# 
# From -- ./inp_files/42631.got.cif
#   From: 2010.05.17/outbox.cif.g08.bks.cpg/sg5_22_cif.got.tgz:42631.got - 2010.06.03 18:56:24.
