data_PCOD9124337
_publ_section_title
;
Structure prediction by ZEFSAII (Michael W. Deem and Ramdas Pophale) SiO2 
 PCOD9124337
Probable space group: C 2
;
_chemical_formula_sum "Si O2"
_cell_formula_units_Z 30
_cell_length_a 13.939858
_cell_length_b 11.340086
_cell_length_c 8.228598
_cell_angle_alpha 90.000000
_cell_angle_beta 105.832730
_cell_angle_gamma 90.000000
_cell_volume 1251.421866
_symmetry_space_group_name_H-M "C 2"
_symmetry_group_IT_number 5
_symmetry_cell_setting 'monoclinic'
loop_
_space_group_symop_operation_xyz
x,y,z
-x,y,-z
1/2+x,1/2+y,z
1/2-x,1/2+y,-z
loop_
_atom_site_type_symbol
_atom_site_label
_atom_site_fract_x
_atom_site_fract_y
_atom_site_fract_z
Si Si1 0.450245 0.069620 0.698025
Si Si2 0.706109 0.917599 0.520572
Si Si3 0.384890 0.465004 0.387267
Si Si4 0.000000 0.382138 0.000000
Si Si5 0.348039 0.721189 0.768806
Si Si6 0.645808 0.295874 0.186323
Si Si7 0.643576 0.223008 0.805116
Si Si8 0.008571 0.019903 0.191218
O O1 0.376728 0.169578 0.741295
O O2 0.550745 0.141893 0.722281
O O3 0.389396 0.002603 0.528886
O O4 0.484661 0.969186 0.841323
O O5 0.794790 0.987287 0.465938
O O6 0.678789 0.809953 0.388563
O O7 0.753458 0.859581 0.703434
O O8 0.500000 0.475316 0.500000
O O9 0.367665 0.332645 0.320742
O O10 0.400782 0.532642 0.225667
O O11 0.095146 0.296746 0.065329
O O12 0.249633 0.667216 0.805915
O O13 0.418881 0.624022 0.722801
O O14 0.560951 0.389378 0.211848
O O15 0.641936 0.270419 0.991197
O O16 0.000000 0.044478 0.000000
#
# Coordination Sequence:
#
# PCOD9124337 Si02
#       8
#     4   4   4   2   4   4   4   4
#     4  11  21  41  70 101 139 182 231 293 351 424
#     4  10  25  41  68  98 143 179 231 289 360 420
#     4  11  21  40  66 100 131 184 233 290 350 426
#     4  10  20  44  66  92 136 180 226 294 344 412
#     4  10  25  42  66  98 136 182 226 284 366 417
#     4  12  22  41  70 103 136 179 240 293 349 423
#     4  11  22  42  72 100 133 182 241 287 354 431
#     4  12  22  40  68  97 137 170 229 296 341 412
#
# _framework density 23.972733000000002
#
# number of rings (size 3 to 8) (size 9 to 14) (size 15 to 20)
#    0.000    1.067    6.000    0.000    1.867    2.133 
#    0.000    0.000    5.867    1.600    0.000    0.000 
#    0.000    0.000    0.000    0.000    0.000    0.000 
#
# Total GULP energy -83714.642150 kJ/mol
# GULP energy per Si atom -5580.976143 kJ/mol
# Density = 2.391817 g / cm^3
# Si number density = 23.972733 Si / 1000 Ang^3
#
#
#
# Elastic Constant Matrix: (Units=GPa)
#
#
# Indices 1 2 3 4 5 6 
#
# 1 109.4644 41.3909 29.9999 0.0000 12.0812 0.0000
# 2 41.3909 100.3333 30.4971 0.0000 16.5047 0.0000
# 3 29.9999 30.4971 98.6203 0.0000 26.7902 0.0000
# 4 0.0000 0.0000 0.0000 32.2746 0.0000 29.3875
# 5 12.0812 16.5047 26.7902 0.0000 32.0085 0.0000
# 6 0.0000 0.0000 0.0000 29.3875 0.0000 24.8307
#
#
#
# Elastic Compliance Matrix: (Units=1/GPa)
#
#
# Indices 1 2 3 4 5 6 
#
# 1 0.011242 -0.003928 -0.002074 0.000000 -0.000482 0.000000
# 2 -0.003928 0.012714 -0.001758 0.000000 -0.003601 0.000000
# 3 -0.002074 -0.001758 0.014050 0.000000 -0.010070 0.000000
# 4 0.000000 0.000000 0.000000 -0.399035 0.000000 0.472265
# 5 -0.000482 -0.003601 -0.010070 0.000000 0.041709 0.000000
# 6 0.000000 0.000000 0.000000 0.472265 0.000000 -0.518662
#
#
# Mechanical properties :
#
#
# Convention : Reuss Voigt Hill
#
# Bulk Modulus (GPa) = 44.47413 56.91043 50.69228
# Shear Modulus (GPa) = -6.13524 31.59143 12.72810
#
# Velocity S-wave (km/s) = -1.60150 3.63410 2.30671
# Velocity P-wave (km/s) = 3.89519 6.43429 5.31849
#
# Compressibility (1/GPa) = 0.02248498
#
# Stress axis : x y z
#
# Youngs Moduli (GPa) = 88.94936 78.65221 71.17353
#
# Poissons Ratio (x) = 0.30896 0.14764
# Poissons Ratio (y) = 0.34940 0.12515
# Poissons Ratio (z) = 0.18451 0.13831
#
# Static dielectric constant tensor:
#      x y z
#    x 1.922760 0.000000 -0.011560 
#    y 0.000000 1.903320 0.000000 
#    z -0.011560 0.000000 2.167450 
# 
# From -- ./inp_files/23908.got.cif
#   From: 2010.05.17/outbox.cif.g08.bks.cpg/sg5_12_cif.got.tgz:23908.got - 2010.06.03 18:56:24.
