data_PCOD9124461
_publ_section_title
;
Structure prediction by ZEFSAII (Michael W. Deem and Ramdas Pophale) SiO2 
 PCOD9124461
Probable space group: C 2
;
_chemical_formula_sum "Si O2"
_cell_formula_units_Z 30
_cell_length_a 14.333757
_cell_length_b 4.703824
_cell_length_c 20.685139
_cell_angle_alpha 90.000000
_cell_angle_beta 126.731681
_cell_angle_gamma 90.000000
_cell_volume 1117.746472
_symmetry_space_group_name_H-M "C 2"
_symmetry_group_IT_number 5
_symmetry_cell_setting 'monoclinic'
loop_
_space_group_symop_operation_xyz
x,y,z
-x,y,-z
1/2+x,1/2+y,z
1/2-x,1/2+y,-z
loop_
_atom_site_type_symbol
_atom_site_label
_atom_site_fract_x
_atom_site_fract_y
_atom_site_fract_z
Si Si1 0.182240 0.545470 0.182952
Si Si2 0.660946 0.624558 0.352576
Si Si3 0.459042 0.117276 0.749250
Si Si4 0.500000 0.182684 0.500000
Si Si5 0.038314 0.202972 0.425169
Si Si6 0.814984 0.548597 0.290524
Si Si7 0.678752 0.861877 0.044996
Si Si8 0.167563 0.365432 0.896045
O O1 0.090659 0.524275 0.202180
O O2 0.293891 0.354133 0.249850
O O3 0.227031 0.862803 0.210879
O O4 0.128699 0.458006 0.092448
O O5 0.556466 0.442985 0.275691
O O6 0.639821 0.586113 0.420317
O O7 0.764187 0.565491 0.343744
O O8 0.631660 0.958182 0.334872
O O9 0.586399 0.990490 0.807083
O O10 0.577850 0.943948 0.493631
O O11 0.481806 0.423408 0.436077
O O12 0.936839 0.383711 0.346831
O O13 0.802267 0.035179 0.097170
O O14 0.709689 0.530792 0.058421
O O15 0.628223 0.924990 0.953541
#
# Coordination Sequence:
#
# PCOD9124461 Si02
#       8
#     4   4   4   2   4   4   4   4
#     4  10  21  36  55  85 118 152 204 256 299 361
#     4  10  22  38  61  93 123 155 202 251 303 363
#     4  10  21  36  55  85 118 152 204 256 299 361
#     4  10  24  42  64  98 124 158 212 232 288 386
#     4  11  22  42  66  90 130 163 194 253 300 362
#     4  10  22  38  61  93 123 155 202 251 303 363
#     4  10  21  35  52  78 114 155 204 251 302 367
#     4  10  21  35  52  78 114 155 204 251 302 367
#
# _framework density 26.839715000000002
#
# number of rings (size 3 to 8) (size 9 to 14) (size 15 to 20)
#    0.000    1.867    0.000    3.200    5.600    0.533 
#    0.000    2.667    0.000    9.600    0.000    0.000 
#    0.000    0.000    0.000    0.000    0.000    0.000 
#
# Total GULP energy -83624.655858 kJ/mol
# GULP energy per Si atom -5574.977057 kJ/mol
# Density = 2.677863 g / cm^3
# Si number density = 26.839715 Si / 1000 Ang^3
#
#
#
# Elastic Constant Matrix: (Units=GPa)
#
#
# Indices 1 2 3 4 5 6 
#
# 1 113.5360 4.2996 22.5063 0.0000 -45.8252 0.0000
# 2 4.2996 120.4792 24.3501 0.0001 -9.7651 -0.0001
# 3 22.5063 24.3501 92.9448 0.0000 -33.9414 0.0000
# 4 0.0000 0.0001 0.0000 32.1520 0.0000 -16.7804
# 5 -45.8252 -9.7651 -33.9414 0.0000 43.3135 0.0000
# 6 0.0000 -0.0001 0.0000 -16.7804 0.0000 25.6856
#
#
#
# Elastic Compliance Matrix: (Units=1/GPa)
#
#
# Indices 1 2 3 4 5 6 
#
# 1 0.016056 0.000374 0.003149 0.000000 0.019539 0.000000
# 2 0.000374 0.008775 -0.002133 0.000000 0.000703 0.000000
# 3 0.003149 -0.002133 0.016245 0.000000 0.015581 0.000000
# 4 0.000000 0.000000 0.000000 0.047194 0.000000 0.030832
# 5 0.019539 0.000703 0.015581 0.000000 0.056128 0.000000
# 6 0.000000 0.000000 0.000000 0.030832 0.000000 0.059075
#
#
# Mechanical properties :
#
#
# Convention : Reuss Voigt Hill
#
# Bulk Modulus (GPa) = 22.80139 47.69690 35.24914
# Shear Modulus (GPa) = 23.22241 38.61714 30.91977
#
# Velocity S-wave (km/s) = 2.94466 3.79727 3.39782
# Velocity P-wave (km/s) = 4.48054 6.08566 5.34371
#
# Compressibility (1/GPa) = 0.04385697
#
# Stress axis : x y z
#
# Youngs Moduli (GPa) = 62.28370 113.96188 61.55677
#
# Poissons Ratio (x) = -0.04264 -0.19386
# Poissons Ratio (y) = -0.02330 0.13129
# Poissons Ratio (z) = -0.19615 0.24306
#
# Static dielectric constant tensor:
#      x y z
#    x 2.207420 0.000000 0.019820 
#    y 0.000000 1.973240 0.000000 
#    z 0.019820 0.000000 2.214240 
# 
# From -- ./inp_files/61275.got.cif
#   From: 2010.05.17/outbox.cif.g08.bks.cpg/sg5_31_cif.got.tgz:61275.got - 2010.06.03 18:56:24.
