data_PCOD9124316
_publ_section_title
;
Structure prediction by ZEFSAII (Michael W. Deem and Ramdas Pophale) SiO2 
 PCOD9124316
Probable space group: C 2
;
_chemical_formula_sum "Si O2"
_cell_formula_units_Z 24
_cell_length_a 10.124248
_cell_length_b 14.870696
_cell_length_c 6.598392
_cell_angle_alpha 90.000000
_cell_angle_beta 67.533273
_cell_angle_gamma 90.000000
_cell_volume 918.019508
_symmetry_space_group_name_H-M "C 2"
_symmetry_group_IT_number 5
_symmetry_cell_setting 'monoclinic'
loop_
_space_group_symop_operation_xyz
x,y,z
-x,y,-z
1/2+x,1/2+y,z
1/2-x,1/2+y,-z
loop_
_atom_site_type_symbol
_atom_site_label
_atom_site_fract_x
_atom_site_fract_y
_atom_site_fract_z
Si Si1 0.877635 0.253030 0.873021
Si Si2 0.759284 0.424630 0.130170
Si Si3 0.840118 0.597901 0.860494
Si Si4 0.500000 0.213593 0.500000
Si Si5 0.805796 0.231143 0.481288
Si Si6 0.205597 0.029085 0.552870
Si Si7 0.500000 0.456798 0.000000
O O1 0.851108 0.338207 0.030018
O O2 0.791507 0.165425 0.007676
O O3 0.955578 0.236599 0.273149
O O4 0.815430 0.281073 0.688379
O O5 0.721753 0.449635 0.383513
O O6 0.622808 0.409895 0.060752
O O7 0.839236 0.516086 0.014030
O O8 0.972104 0.661917 0.730877
O O9 0.825473 0.546903 0.651644
O O10 0.657660 0.254045 0.451812
O O11 0.805328 0.125580 0.545099
O O12 0.072669 0.013427 0.778919
#
# Coordination Sequence:
#
# PCOD9124316 Si02
#       7
#     4   4   4   2   4   4   2
#     4  11  24  44  81 122 162 211 274 333 409 484
#     4  11  23  43  72 118 165 211 270 338 406 479
#     4  10  23  47  74 112 159 220 264 332 399 489
#     4  10  24  44  78 108 158 220 278 318 404 480
#     4  10  22  45  79 118 156 215 266 336 404 483
#     4  10  20  43  76 110 154 215 266 327 402 474
#     4  10  22  38  74 112 162 208 274 326 398 482
#
# _framework density 26.143235000000001
#
# number of rings (size 3 to 8) (size 9 to 14) (size 15 to 20)
#    0.000    1.667    1.667    2.500    2.333    5.333 
#   15.000    0.000   14.667    0.000    0.000    0.000 
#    0.000    0.000    0.000    0.000    0.000    0.000 
#
# Total GULP energy -67017.284708 kJ/mol
# GULP energy per Si atom -5584.773726 kJ/mol
# Density = 2.608373 g / cm^3
# Si number density = 26.143235 Si / 1000 Ang^3
#
#
#
# Elastic Constant Matrix: (Units=GPa)
#
#
# Indices 1 2 3 4 5 6 
#
# 1 180.9082 42.9143 62.9617 0.0000 -13.7102 0.0000
# 2 42.9143 144.3415 79.7597 0.0000 -17.1758 0.0000
# 3 62.9617 79.7597 174.9980 0.0000 -22.6971 0.0000
# 4 0.0000 0.0000 0.0000 28.1251 0.0000 0.4819
# 5 -13.7102 -17.1758 -22.6971 0.0000 42.2240 0.0000
# 6 0.0000 0.0000 0.0000 0.4819 0.0000 25.0851
#
#
#
# Elastic Compliance Matrix: (Units=1/GPa)
#
#
# Indices 1 2 3 4 5 6 
#
# 1 0.006417 -0.000796 -0.001846 0.000000 0.000767 0.000000
# 2 -0.000796 0.009462 -0.003827 0.000000 0.001533 0.000000
# 3 -0.001846 -0.003827 0.008431 0.000000 0.002376 0.000000
# 4 0.000000 0.000000 0.000000 0.035567 0.000000 -0.000683
# 5 0.000767 0.001533 0.002376 0.000000 0.025833 0.000000
# 6 0.000000 0.000000 0.000000 -0.000683 0.000000 0.039877
#
#
# Mechanical properties :
#
#
# Convention : Reuss Voigt Hill
#
# Bulk Modulus (GPa) = 87.94623 96.83545 92.39084
# Shear Modulus (GPa) = 35.13258 40.06098 37.59678
#
# Velocity S-wave (km/s) = 3.66983 3.91879 3.79635
# Velocity P-wave (km/s) = 7.18819 7.58925 7.39144
#
# Compressibility (1/GPa) = 0.01137058
#
# Stress axis : x y z
#
# Youngs Moduli (GPa) = 155.82820 105.68554 118.60821
#
# Poissons Ratio (x) = 0.08417 0.21900
# Poissons Ratio (y) = 0.12410 0.45394
# Poissons Ratio (z) = 0.28772 0.40448
#
# Static dielectric constant tensor:
#      x y z
#    x 2.195540 0.000000 0.058130 
#    y 0.000000 2.098010 0.000000 
#    z 0.058130 0.000000 2.102040 
# 
# From -- ./inp_files/6858.got.cif
#   From: 2010.05.17/outbox.cif.g08.bks.cpg/sg5_4_cif.got.tgz:6858.got - 2010.06.03 18:56:24.
