data_PCOD9124338
_publ_section_title
;
Structure prediction by ZEFSAII (Michael W. Deem and Ramdas Pophale) SiO2 
 PCOD9124338
Probable space group: C 2
;
_chemical_formula_sum "Si O2"
_cell_formula_units_Z 26
_cell_length_a 9.414490
_cell_length_b 18.881648
_cell_length_c 9.197755
_cell_angle_alpha 90.000000
_cell_angle_beta 46.460649
_cell_angle_gamma 90.000000
_cell_volume 1185.215963
_symmetry_space_group_name_H-M "C 2"
_symmetry_group_IT_number 5
_symmetry_cell_setting 'monoclinic'
loop_
_space_group_symop_operation_xyz
x,y,z
-x,y,-z
1/2+x,1/2+y,z
1/2-x,1/2+y,-z
loop_
_atom_site_type_symbol
_atom_site_label
_atom_site_fract_x
_atom_site_fract_y
_atom_site_fract_z
Si Si1 0.309171 0.442990 0.056160
Si Si2 0.247739 0.313698 0.543102
Si Si3 0.294696 0.328252 0.836793
Si Si4 0.353387 0.153483 0.468127
Si Si5 0.022353 0.092878 0.151893
Si Si6 0.000000 0.409718 0.500000
Si Si7 0.138443 0.687776 0.032425
O O1 0.147671 0.454006 0.294891
O O2 0.500000 0.408915 0.000000
O O3 0.232788 0.391014 0.986129
O O4 0.388611 0.515210 0.931004
O O5 0.196134 0.324788 0.748764
O O6 0.472524 0.337147 0.358888
O O7 0.248330 0.229251 0.515452
O O8 0.117504 0.358353 0.525817
O O9 0.285019 0.254061 0.928581
O O10 0.500000 0.164207 0.500000
O O11 0.494685 0.140013 0.233400
O O12 0.188712 0.097186 0.624532
O O13 0.174002 0.140659 0.134593
O O14 0.000000 0.120612 0.000000
O O15 0.000000 0.713076 0.000000
#
# Coordination Sequence:
#
# PCOD9124338 Si02
#       7
#     4   4   4   4   4   2   4
#     4  11  25  44  67 101 141 183 234 290 343 417
#     4  10  21  40  70 105 134 176 228 288 350 404
#     4  10  20  44  66  97 142 181 224 290 343 412
#     4  11  21  43  70  99 135 180 233 289 344 414
#     4  11  24  43  69  97 135 190 239 278 355 416
#     4  12  26  42  70 108 138 182 234 288 350 418
#     4  11  24  42  69 102 143 181 233 294 347 411
#
# _framework density 21.93693
#
# number of rings (size 3 to 8) (size 9 to 14) (size 15 to 20)
#    0.000    1.231    6.154    0.462    4.308    3.692 
#    2.769    1.538    0.000    0.000    0.000    0.000 
#    0.000    0.000    0.000    0.000    0.000    0.000 
#
# Total GULP energy -72705.457765 kJ/mol
# GULP energy per Si atom -5592.727520 kJ/mol
# Density = 2.188700 g / cm^3
# Si number density = 21.936930 Si / 1000 Ang^3
#
#
#
# Elastic Constant Matrix: (Units=GPa)
#
#
# Indices 1 2 3 4 5 6 
#
# 1 72.4581 30.3476 -6.1539 0.0000 1.4287 0.0000
# 2 30.3476 78.1248 32.1782 0.0000 -10.1709 0.0000
# 3 -6.1539 32.1782 98.8089 0.0000 -13.3931 0.0000
# 4 0.0000 0.0000 0.0000 26.2857 0.0000 -1.8402
# 5 1.4287 -10.1709 -13.3931 0.0000 31.6607 0.0000
# 6 0.0000 0.0000 0.0000 -1.8402 0.0000 19.9783
#
#
#
# Elastic Compliance Matrix: (Units=1/GPa)
#
#
# Indices 1 2 3 4 5 6 
#
# 1 0.017789 -0.008683 0.003659 0.000000 -0.002045 0.000000
# 2 -0.008683 0.019273 -0.006285 0.000000 0.003924 0.000000
# 3 0.003659 -0.006285 0.012835 0.000000 0.003245 0.000000
# 4 0.000000 0.000000 0.000000 0.038290 0.000000 0.003527
# 5 -0.002045 0.003924 0.003245 0.000000 0.034311 0.000000
# 6 0.000000 0.000000 0.000000 0.003527 0.000000 0.050379
#
#
# Mechanical properties :
#
#
# Convention : Reuss Voigt Hill
#
# Bulk Modulus (GPa) = 36.66091 40.23730 38.44910
# Shear Modulus (GPa) = 24.43923 28.45292 26.44608
#
# Velocity S-wave (km/s) = 3.34139 3.60534 3.47587
# Velocity P-wave (km/s) = 5.62448 5.97607 5.80294
#
# Compressibility (1/GPa) = 0.02727701
#
# Stress axis : x y z
#
# Youngs Moduli (GPa) = 56.21488 51.88689 77.91110
#
# Poissons Ratio (x) = 0.45054 -0.28504
# Poissons Ratio (y) = 0.48812 0.48969
# Poissons Ratio (z) = -0.20566 0.32612
#
# Static dielectric constant tensor:
#      x y z
#    x 1.822560 0.000000 -0.017250 
#    y 0.000000 1.774990 0.000000 
#    z -0.017250 0.000000 1.843590 
# 
# From -- ./inp_files/17020.got.cif
#   From: 2010.05.17/outbox.cif.g08.bks.cpg/sg5_9_cif.got.tgz:17020.got - 2010.06.03 18:56:24.
