data_PCOD9124233
_publ_section_title
;
Structure prediction by ZEFSAII (Michael W. Deem and Ramdas Pophale) SiO2 
 PCOD9124233
Probable space group: C 2
;
_chemical_formula_sum "Si O2"
_cell_formula_units_Z 22
_cell_length_a 9.027602
_cell_length_b 13.313619
_cell_length_c 7.928467
_cell_angle_alpha 90.000000
_cell_angle_beta 99.873784
_cell_angle_gamma 90.000000
_cell_volume 938.808075
_symmetry_space_group_name_H-M "C 2"
_symmetry_group_IT_number 5
_symmetry_cell_setting 'monoclinic'
loop_
_space_group_symop_operation_xyz
x,y,z
-x,y,-z
1/2+x,1/2+y,z
1/2-x,1/2+y,-z
loop_
_atom_site_type_symbol
_atom_site_label
_atom_site_fract_x
_atom_site_fract_y
_atom_site_fract_z
Si Si1 0.630924 0.356730 0.168431
Si Si2 0.289905 0.940502 0.730604
Si Si3 0.724526 0.077997 0.778189
Si Si4 0.333612 0.760556 0.954033
Si Si5 0.500000 0.008853 0.500000
Si Si6 0.000000 0.901803 0.500000
Si Si7 0.500000 0.068506 0.000000
O O1 0.718589 0.464121 0.186187
O O2 0.574614 0.345201 0.351721
O O3 0.500000 0.363256 0.000000
O O4 0.745381 0.273578 0.113222
O O5 0.255553 0.832996 0.803673
O O6 0.134372 0.967516 0.608984
O O7 0.430167 0.939402 0.630405
O O8 0.358633 0.009974 0.889959
O O9 0.849385 0.153734 0.865603
O O10 0.642007 0.075212 0.583284
O O11 0.583611 0.119547 0.863163
O O12 0.500000 0.804413 0.000000
#
# Coordination Sequence:
#
# PCOD9124233 Si02
#       7
#     4   4   4   4   2   2   2
#     4  12  24  47  72 104 147 188 234 293 359 428
#     4  11  21  41  71  99 138 187 237 285 362 420
#     4  11  23  41  71 103 138 182 239 295 349 427
#     4  12  25  43  71 104 137 190 243 292 362 422
#     4  10  22  43  69  96 142 188 234 289 365 432
#     4  12  24  39  77 106 142 192 234 295 359 424
#     4  10  20  42  70  96 136 194 230 282 368 424
#
# _framework density 23.433971
#
# number of rings (size 3 to 8) (size 9 to 14) (size 15 to 20)
#    0.000    0.727    6.364    1.636    1.273    0.727 
#    0.000    0.909    0.000    0.000    0.000    0.000 
#    0.000    0.000    0.000    0.000    0.000    0.000 
#
# Total GULP energy -61241.551440 kJ/mol
# GULP energy per Si atom -5567.413767 kJ/mol
# Density = 2.338063 g / cm^3
# Si number density = 23.433971 Si / 1000 Ang^3
#
#
#
# Elastic Constant Matrix: (Units=GPa)
#
#
# Indices 1 2 3 4 5 6 
#
# 1 104.1131 -0.7145 51.1578 0.0000 6.8213 0.0000
# 2 -0.7145 53.9333 16.8391 0.0000 4.5924 0.0000
# 3 51.1578 16.8391 128.5702 0.0000 -9.4730 0.0000
# 4 0.0000 0.0000 0.0000 11.0468 0.0000 4.4261
# 5 6.8213 4.5924 -9.4730 0.0000 76.6030 0.0000
# 6 0.0000 0.0000 0.0000 4.4261 0.0000 12.1104
#
#
#
# Elastic Compliance Matrix: (Units=1/GPa)
#
#
# Indices 1 2 3 4 5 6 
#
# 1 0.012352 0.001982 -0.005313 0.000000 -0.001876 0.000000
# 2 0.001982 0.019819 -0.003517 0.000000 -0.001800 0.000000
# 3 -0.005313 -0.003517 0.010498 0.000000 0.001982 0.000000
# 4 0.000000 0.000000 0.000000 0.106054 0.000000 -0.038761
# 5 -0.001876 -0.001800 0.001982 0.000000 0.013574 0.000000
# 6 0.000000 0.000000 0.000000 -0.038761 0.000000 0.096740
#
#
# Mechanical properties :
#
#
# Convention : Reuss Voigt Hill
#
# Bulk Modulus (GPa) = 34.51346 46.79796 40.65571
# Shear Modulus (GPa) = 17.70595 34.57430 26.14013
#
# Velocity S-wave (km/s) = 2.75174 3.84525 3.34350
# Velocity P-wave (km/s) = 4.98558 6.30302 5.68261
#
# Compressibility (1/GPa) = 0.02897420
#
# Stress axis : x y z
#
# Youngs Moduli (GPa) = 80.95944 50.45669 95.25268
#
# Poissons Ratio (x) = -0.10001 0.50604
# Poissons Ratio (y) = -0.16047 0.33500
# Poissons Ratio (z) = 0.43010 0.17746
#
# Static dielectric constant tensor:
#      x y z
#    x 1.942920 0.000000 0.015450 
#    y 0.000000 1.910940 0.000000 
#    z 0.015450 0.000000 2.050740 
# 
# From -- ./inp_files/14903.got.cif
#   From: 2010.05.17/outbox.cif.g08.bks.cpg/sg5_8_cif.got.tgz:14903.got - 2010.06.03 18:56:24.
