data_PCOD9124847
_publ_section_title
;
Structure prediction by ZEFSAII (Michael W. Deem and Ramdas Pophale) SiO2 
 PCOD9124847
Probable space group: C 2
;
_chemical_formula_sum "Si O2"
_cell_formula_units_Z 20
_cell_length_a 19.484943
_cell_length_b 5.346334
_cell_length_c 18.927663
_cell_angle_alpha 90.000000
_cell_angle_beta 152.184774
_cell_angle_gamma 90.000000
_cell_volume 920.062117
_symmetry_space_group_name_H-M "C 2"
_symmetry_group_IT_number 5
_symmetry_cell_setting 'monoclinic'
loop_
_space_group_symop_operation_xyz
x,y,z
-x,y,-z
1/2+x,1/2+y,z
1/2-x,1/2+y,-z
loop_
_atom_site_type_symbol
_atom_site_label
_atom_site_fract_x
_atom_site_fract_y
_atom_site_fract_z
Si Si1 0.843229 0.058800 0.396039
Si Si2 0.082387 0.449704 0.895983
Si Si3 0.737535 0.449694 0.084100
Si Si4 0.327543 0.056976 0.323946
Si Si5 0.256334 0.965493 0.551535
O O1 0.767807 0.326909 0.315998
O O2 0.865637 0.998166 0.498756
O O3 0.000000 0.087016 0.500000
O O4 0.762879 0.825599 0.285930
O O5 0.143583 0.456574 0.870982
O O6 0.908786 0.474939 0.732669
O O7 0.131210 0.185143 0.972583
O O8 0.155282 0.684517 0.002153
O O9 0.807469 0.488153 0.224345
O O10 0.500000 0.085079 0.500000
O O11 0.253062 0.201121 0.496244
#
# Coordination Sequence:
#
# PCOD9124847 Si02
#       5
#     4   4   4   4   4
#     4  10  23  39  61  96 128 166 217 260 335 378
#     4  10  23  40  63  94 132 171 217 259 333 374
#     4  10  21  41  65  93 129 175 212 264 318 404
#     4  10  21  38  65  93 126 167 222 260 317 385
#     4  12  26  42  67  98 135 169 222 279 314 379
#
# _framework density 21.737660999999999
#
# number of rings (size 3 to 8) (size 9 to 14) (size 15 to 20)
#    0.000    1.600    0.000    3.600   11.200    0.000 
#    0.000    6.000    0.000    0.000    0.000    0.000 
#    0.000    0.000    0.000    0.000    0.000    0.000 
#
# Total GULP energy -55885.483031 kJ/mol
# GULP energy per Si atom -5588.548303 kJ/mol
# Density = 2.168819 g / cm^3
# Si number density = 21.737661 Si / 1000 Ang^3
#
#
#
# Elastic Constant Matrix: (Units=GPa)
#
#
# Indices 1 2 3 4 5 6 
#
# 1 54.5000 -16.2562 12.7781 0.0000 -5.1068 0.0000
# 2 -16.2562 116.8374 -15.9049 0.0000 7.5459 0.0000
# 3 12.7781 -15.9049 50.6388 0.0000 -6.1284 0.0000
# 4 0.0000 0.0000 0.0000 24.3188 0.0000 -14.5782
# 5 -5.1068 7.5459 -6.1284 0.0000 29.4631 0.0000
# 6 0.0000 0.0000 0.0000 -14.5782 0.0000 29.1375
#
#
#
# Elastic Compliance Matrix: (Units=1/GPa)
#
#
# Indices 1 2 3 4 5 6 
#
# 1 0.020149 0.002101 -0.004172 0.000000 0.002087 0.000000
# 2 0.002101 0.009249 0.002187 0.000000 -0.001550 0.000000
# 3 -0.004172 0.002187 0.021883 0.000000 0.003268 0.000000
# 4 0.000000 0.000000 0.000000 0.058737 0.000000 0.029388
# 5 0.002087 -0.001550 0.003268 0.000000 0.035379 0.000000
# 6 0.000000 0.000000 0.000000 0.029388 0.000000 0.049023
#
#
# Mechanical properties :
#
#
# Convention : Reuss Voigt Hill
#
# Bulk Modulus (GPa) = 19.41251 20.35666 19.88458
# Shear Modulus (GPa) = 23.65636 32.67450 28.16543
#
# Velocity S-wave (km/s) = 3.30247 3.88123 3.60348
# Velocity P-wave (km/s) = 4.84680 5.42865 5.14596
#
# Compressibility (1/GPa) = 0.05151318
#
# Stress axis : x y z
#
# Youngs Moduli (GPa) = 49.63043 108.11928 45.69749
#
# Poissons Ratio (x) = -0.22713 0.19065
# Poissons Ratio (y) = -0.10426 -0.09996
# Poissons Ratio (z) = 0.20706 -0.23649
#
# Static dielectric constant tensor:
#      x y z
#    x 1.834640 0.000000 0.011890 
#    y 0.000000 1.854810 0.000000 
#    z 0.011890 0.000000 1.721870 
# 
# From -- ./inp_files/28254.got.cif
#   From: 2010.05.17/outbox.cif.g08.bks.cpg/sg5_15_cif.got.tgz:28254.got - 2010.06.03 18:56:24.
