data_PCOD9124870
_publ_section_title
;
Structure prediction by ZEFSAII (Michael W. Deem and Ramdas Pophale) SiO2 
 PCOD9124870
Probable space group: C 2
;
_chemical_formula_sum "Si O2"
_cell_formula_units_Z 30
_cell_length_a 5.564546
_cell_length_b 13.471860
_cell_length_c 22.728251
_cell_angle_alpha 90.000000
_cell_angle_beta 126.578644
_cell_angle_gamma 90.000000
_cell_volume 1368.233769
_symmetry_space_group_name_H-M "C 2"
_symmetry_group_IT_number 5
_symmetry_cell_setting 'monoclinic'
loop_
_space_group_symop_operation_xyz
x,y,z
-x,y,-z
1/2+x,1/2+y,z
1/2-x,1/2+y,-z
loop_
_atom_site_type_symbol
_atom_site_label
_atom_site_fract_x
_atom_site_fract_y
_atom_site_fract_z
Si Si1 0.085411 0.135060 0.270044
Si Si2 0.230763 0.691201 0.578821
Si Si3 0.500000 0.751848 0.000000
Si Si4 0.544916 0.110228 0.873221
Si Si5 0.666676 0.898557 0.114844
Si Si6 0.809396 0.845192 0.267405
Si Si7 0.750848 0.482347 0.200122
Si Si8 0.772873 0.315319 0.421360
O O1 0.122164 0.131919 0.345568
O O2 0.276288 0.228935 0.276694
O O3 0.754546 0.156868 0.197383
O O4 0.169551 0.033464 0.249837
O O5 0.503739 0.738390 0.580546
O O6 0.000000 0.638834 0.500000
O O7 0.999866 0.769152 0.578222
O O8 0.773406 0.682595 0.058747
O O9 0.458281 0.824909 0.049119
O O10 0.469158 0.007451 0.895520
O O11 0.715532 0.073288 0.840059
O O12 0.771221 0.855875 0.192503
O O13 0.989424 0.916658 0.132621
O O14 0.540946 0.915071 0.250611
O O15 0.109395 0.874693 0.345603
O O16 0.000000 0.367338 0.500000
#
# Coordination Sequence:
#
# PCOD9124870 Si02
#       8
#     4   4   2   4   4   4   4   4
#     4  10  21  38  67  93 125 174 221 273 342 411
#     4   9  19  34  60  99 132 171 229 284 332 406
#     4  12  24  40  70  90 128 178 220 272 346 414
#     4  10  24  42  61  93 129 168 221 279 334 409
#     4  10  24  42  61  93 129 168 221 279 334 409
#     4  10  21  38  67  93 125 174 221 273 342 411
#     4  10  22  42  62  93 130 168 218 284 331 400
#     4   9  19  34  60  99 132 171 229 284 332 406
#
# _framework density 21.926079000000001
#
# number of rings (size 3 to 8) (size 9 to 14) (size 15 to 20)
#    0.000    2.133    0.000    1.600   11.200    0.000 
#    0.000    5.333    0.000    8.800    0.000    0.000 
#    0.000    0.000    0.000    0.000    0.000    0.000 
#
# Total GULP energy -83602.129173 kJ/mol
# GULP energy per Si atom -5573.475278 kJ/mol
# Density = 2.187617 g / cm^3
# Si number density = 21.926079 Si / 1000 Ang^3
#
#
#
# Elastic Constant Matrix: (Units=GPa)
#
#
# Indices 1 2 3 4 5 6 
#
# 1 52.6289 -4.4571 28.6878 -0.0001 -0.4707 0.0000
# 2 -4.4571 56.6190 66.6412 -0.0001 -15.7354 0.0000
# 3 28.6878 66.6412 142.8373 0.0000 35.3162 -0.0001
# 4 -0.0001 -0.0001 0.0000 -0.4718 -0.0001 -24.9890
# 5 -0.4707 -15.7354 35.3162 -0.0001 2.5684 -0.0001
# 6 0.0000 0.0000 -0.0001 -24.9890 -0.0001 55.7703
#
#
#
# Elastic Compliance Matrix: (Units=1/GPa)
#
#
# Indices 1 2 3 4 5 6 
#
# 1 0.018614 -0.002082 0.000190 0.000000 -0.011960 0.000000
# 2 -0.002082 0.005391 0.004237 0.000000 -0.025619 0.000000
# 3 0.000190 0.004237 0.000601 0.000000 0.017736 0.000000
# 4 0.000000 0.000000 0.000000 -0.085700 0.000000 -0.038400
# 5 -0.011960 -0.025619 0.017736 0.000000 -0.013678 0.000000
# 6 0.000000 0.000000 0.000000 -0.038400 0.000000 0.000725
#
#
# Mechanical properties :
#
#
# Convention : Reuss Voigt Hill
#
# Bulk Modulus (GPa) = 34.13491 48.20322 41.16907
# Shear Modulus (GPa) = -72.49293 22.32093 -25.08600
#
# Velocity S-wave (km/s) = -5.75623 3.19409 -3.38615
# Velocity P-wave (km/s) = 5.34574 5.96951 1.87858
#
# Compressibility (1/GPa) = 0.02929552
#
# Stress axis : x y z
#
# Youngs Moduli (GPa) = 53.72297 185.50188 1664.97230
#
# Poissons Ratio (x) = 0.38627 -0.31650
# Poissons Ratio (y) = 0.11187 -7.05496
# Poissons Ratio (z) = -0.01021 -0.78602
#
# Static dielectric constant tensor:
#      x y z
#    x 1.909330 0.000000 0.004820 
#    y 0.000000 1.806540 0.000000 
#    z 0.004820 0.000000 1.815120 
# 
# From -- ./inp_files/67811.got.cif
#   From: 2010.05.17/outbox.cif.g08.bks.cpg/sg5_34_cif.got.tgz:67811.got - 2010.06.03 18:56:24.
