data_PCOD9124840
_publ_section_title
;
Structure prediction by ZEFSAII (Michael W. Deem and Ramdas Pophale) SiO2 
 PCOD9124840
Probable space group: C 2
;
_chemical_formula_sum "Si O2"
_cell_formula_units_Z 28
_cell_length_a 25.440975
_cell_length_b 7.639778
_cell_length_c 8.594032
_cell_angle_alpha 90.000000
_cell_angle_beta 134.552388
_cell_angle_gamma 90.000000
_cell_volume 1190.317805
_symmetry_space_group_name_H-M "C 2"
_symmetry_group_IT_number 5
_symmetry_cell_setting 'monoclinic'
loop_
_space_group_symop_operation_xyz
x,y,z
-x,y,-z
1/2+x,1/2+y,z
1/2-x,1/2+y,-z
loop_
_atom_site_type_symbol
_atom_site_label
_atom_site_fract_x
_atom_site_fract_y
_atom_site_fract_z
Si Si1 0.871730 0.375000 0.485830
Si Si2 0.543328 0.225436 0.363513
Si Si3 0.302626 0.014819 0.667684
Si Si4 0.804087 0.430249 0.004488
Si Si5 0.885124 0.860396 0.950408
Si Si6 0.126614 0.020650 0.355855
Si Si7 0.157971 0.824333 0.832153
O O1 0.934678 0.522406 0.602158
O O2 0.824178 0.442979 0.539934
O O3 0.836116 0.359040 0.237293
O O4 0.895500 0.181960 0.583817
O O5 0.458999 0.261199 0.154937
O O6 0.591913 0.341450 0.347102
O O7 0.577826 0.297028 0.594716
O O8 0.214501 0.025427 0.507080
O O9 0.328979 0.902477 0.876307
O O10 0.335579 0.209725 0.765328
O O11 0.815529 0.635899 0.054678
O O12 0.717368 0.388250 0.833180
O O13 0.844636 0.936660 0.018023
O O14 0.906065 0.020384 0.884726
#
# Coordination Sequence:
#
# PCOD9124840 Si02
#       7
#     4   4   4   4   4   4   4
#     4  11  25  41  69  99 140 183 230 287 351 411
#     4  11  24  46  67  98 144 184 229 291 354 426
#     4  11  22  42  69 101 138 180 229 292 346 415
#     4  10  21  38  65 105 132 175 230 291 340 409
#     4  11  24  44  69  98 140 189 232 286 363 425
#     4  12  23  43  67 100 137 174 241 286 344 420
#     4  10  21  40  71  96 142 182 228 292 358 409
#
# _framework density 23.523129000000001
#
# number of rings (size 3 to 8) (size 9 to 14) (size 15 to 20)
#    0.000    1.143    2.857    4.286    0.000    1.143 
#    5.143    0.000    0.000    1.714    0.000    0.000 
#    0.000    0.000    0.000    0.000    0.000    0.000 
#
# Total GULP energy -78062.529156 kJ/mol
# GULP energy per Si atom -5575.894940 kJ/mol
# Density = 2.346959 g / cm^3
# Si number density = 23.523129 Si / 1000 Ang^3
#
#
#
# Elastic Constant Matrix: (Units=GPa)
#
#
# Indices 1 2 3 4 5 6 
#
# 1 70.4918 3.3550 24.0521 0.0000 -25.7742 0.0000
# 2 3.3550 41.1777 22.3941 0.0000 -10.7181 0.0000
# 3 24.0521 22.3941 61.5988 0.0000 -12.2162 0.0000
# 4 0.0000 0.0000 0.0000 33.2814 0.0000 -3.9286
# 5 -25.7742 -10.7181 -12.2162 0.0000 53.2859 0.0000
# 6 0.0000 0.0000 0.0000 -3.9286 0.0000 25.7074
#
#
#
# Elastic Compliance Matrix: (Units=1/GPa)
#
#
# Indices 1 2 3 4 5 6 
#
# 1 0.019821 0.004903 -0.007779 0.000000 0.008790 0.000000
# 2 0.004903 0.032209 -0.012434 0.000000 0.006000 0.000000
# 3 -0.007779 -0.012434 0.023624 0.000000 -0.000848 0.000000
# 4 0.000000 0.000000 0.000000 0.030599 0.000000 0.004676
# 5 0.008790 0.006000 -0.000848 0.000000 0.024031 0.000000
# 6 0.000000 0.000000 0.000000 0.004676 0.000000 0.039614
#
#
# Mechanical properties :
#
#
# Convention : Reuss Voigt Hill
#
# Bulk Modulus (GPa) = 22.20511 30.31898 26.26205
# Shear Modulus (GPa) = 23.19877 30.68606 26.94241
#
# Velocity S-wave (km/s) = 3.14381 3.61571 3.38799
# Velocity P-wave (km/s) = 4.75796 5.50892 5.14715
#
# Compressibility (1/GPa) = 0.04503467
#
# Stress axis : x y z
#
# Youngs Moduli (GPa) = 50.45211 31.04675 42.33025
#
# Poissons Ratio (x) = -0.15224 0.32927
# Poissons Ratio (y) = -0.24739 0.52635
# Poissons Ratio (z) = 0.39245 0.38605
#
# Static dielectric constant tensor:
#      x y z
#    x 1.973730 0.000000 -0.121610 
#    y 0.000000 1.871650 0.000000 
#    z -0.121610 0.000000 1.994080 
# 
# From -- ./inp_files/31778.got.cif
#   From: 2010.05.17/outbox.cif.g08.bks.cpg/sg5_16_cif.got.tgz:31778.got - 2010.06.03 18:56:24.
