data_PCOD9124653
_publ_section_title
;
Structure prediction by ZEFSAII (Michael W. Deem and Ramdas Pophale) SiO2 
 PCOD9124653
Probable space group: C 2
;
_chemical_formula_sum "Si O2"
_cell_formula_units_Z 32
_cell_length_a 24.757922
_cell_length_b 8.893125
_cell_length_c 24.841818
_cell_angle_alpha 90.000000
_cell_angle_beta 17.404802
_cell_angle_gamma 90.000000
_cell_volume 1636.057368
_symmetry_space_group_name_H-M "C 2"
_symmetry_group_IT_number 5
_symmetry_cell_setting 'monoclinic'
loop_
_space_group_symop_operation_xyz
x,y,z
-x,y,-z
1/2+x,1/2+y,z
1/2-x,1/2+y,-z
loop_
_atom_site_type_symbol
_atom_site_label
_atom_site_fract_x
_atom_site_fract_y
_atom_site_fract_z
Si Si1 0.586551 0.047720 0.859475
Si Si2 0.233864 0.276415 0.590685
Si Si3 0.233693 0.117999 0.484950
Si Si4 0.564769 0.356722 0.494420
Si Si5 0.761754 0.363218 0.121465
Si Si6 0.688078 0.591081 0.101816
Si Si7 0.121796 0.103483 0.045081
Si Si8 0.982505 0.778692 0.164552
O O1 0.570247 0.198666 0.840528
O O2 0.788430 0.981610 0.663257
O O3 0.500000 0.069035 0.000000
O O4 0.453811 0.926468 0.957562
O O5 0.303206 0.162356 0.478436
O O6 0.236815 0.446820 0.563878
O O7 0.339110 0.270465 0.547277
O O8 0.030309 0.226130 0.795574
O O9 0.330617 0.231016 0.351881
O O10 0.017987 0.140894 0.692526
O O11 0.500000 0.280622 0.500000
O O12 0.384904 0.414637 0.695310
O O13 0.709655 0.436792 0.114080
O O14 0.764027 0.184629 0.109716
O O15 0.721092 0.570973 0.006983
O O16 0.832606 0.703814 0.989484
O O17 0.018869 0.954054 0.125608
#
# Coordination Sequence:
#
# PCOD9124653 Si02
#       8
#     4   4   4   4   4   4   4   4
#     4  11  22  43  67  94 117 166 222 273 327 380
#     4  11  22  40  64 100 128 177 214 263 334 373
#     4  11  21  39  62  93 137 165 215 270 318 398
#     4  12  23  41  69  95 122 171 227 273 315 382
#     4  11  21  39  64  91 129 161 221 264 311 395
#     4  10  21  37  60  93 127 171 209 253 321 387
#     4  11  23  39  60  97 135 169 205 260 328 399
#     4  11  23  40  62  93 133 169 206 268 329 388
#
# _framework density 19.559215999999999
#
# number of rings (size 3 to 8) (size 9 to 14) (size 15 to 20)
#    0.000    1.000    5.000    3.000    1.750    1.000 
#    2.250    1.875    0.000    0.750    0.000    0.000 
#    0.000    0.000    0.000    0.000    0.000    0.000 
#
# Total GULP energy -89282.844537 kJ/mol
# GULP energy per Si atom -5580.177784 kJ/mol
# Density = 1.951470 g / cm^3
# Si number density = 19.559216 Si / 1000 Ang^3
#
#
#
# Elastic Constant Matrix: (Units=GPa)
#
#
# Indices 1 2 3 4 5 6 
#
# 1 142.6208 42.2939 18.0925 0.0024 17.3218 0.0008
# 2 42.2939 64.5926 43.0992 0.0115 6.5777 -0.0031
# 3 18.0925 43.0992 97.1096 0.0089 8.3098 -0.0027
# 4 0.0024 0.0115 0.0089 19.4812 -0.0011 1.9229
# 5 17.3218 6.5777 8.3098 -0.0011 27.5714 0.0001
# 6 0.0008 -0.0031 -0.0027 1.9229 0.0001 12.7417
#
#
#
# Elastic Compliance Matrix: (Units=1/GPa)
#
#
# Indices 1 2 3 4 5 6 
#
# 1 0.009390 -0.006772 0.001666 0.000002 -0.004786 -0.000002
# 2 -0.006772 0.027031 -0.010827 -0.000011 0.001069 0.000006
# 3 0.001666 -0.010827 0.015049 -0.000001 -0.002999 0.000001
# 4 0.000002 -0.000011 -0.000001 0.052108 0.000004 -0.007864
# 5 -0.004786 0.001069 -0.002999 0.000004 0.039925 -0.000001
# 6 -0.000002 0.000006 0.000001 -0.007864 -0.000001 0.079669
#
#
# Mechanical properties :
#
#
# Convention : Reuss Voigt Hill
#
# Bulk Modulus (GPa) = 51.01130 56.81046 53.91088
# Shear Modulus (GPa) = 19.11510 25.34804 22.23157
#
# Velocity S-wave (km/s) = 3.12956 3.60386 3.37505
# Velocity P-wave (km/s) = 6.26067 6.81362 6.54299
#
# Compressibility (1/GPa) = 0.01960350
#
# Stress axis : x y z
#
# Youngs Moduli (GPa) = 106.49786 36.99403 66.44931
#
# Poissons Ratio (x) = 0.25054 -0.11069
# Poissons Ratio (y) = 0.72125 0.71943
# Poissons Ratio (z) = -0.17741 0.40053
#
# Static dielectric constant tensor:
#      x y z
#    x 1.728490 0.000000 -0.001900 
#    y 0.000000 1.679860 0.000000 
#    z -0.001900 0.000000 1.735430 
# 
# From -- ./inp_files/69655.got.cif
#   From: 2010.05.17/outbox.cif.g08.bks.cpg/sg5_35_cif.got.tgz:69655.got - 2010.06.03 18:56:24.
