data_PCOD9124263
_publ_section_title
;
Structure prediction by ZEFSAII (Michael W. Deem and Ramdas Pophale) SiO2 
 PCOD9124263
Probable space group: C 2
;
_chemical_formula_sum "Si O2"
_cell_formula_units_Z 18
_cell_length_a 9.091167
_cell_length_b 17.639940
_cell_length_c 5.052045
_cell_angle_alpha 90.000000
_cell_angle_beta 68.703865
_cell_angle_gamma 90.000000
_cell_volume 754.861676
_symmetry_space_group_name_H-M "C 2"
_symmetry_group_IT_number 5
_symmetry_cell_setting 'monoclinic'
loop_
_space_group_symop_operation_xyz
x,y,z
-x,y,-z
1/2+x,1/2+y,z
1/2-x,1/2+y,-z
loop_
_atom_site_type_symbol
_atom_site_label
_atom_site_fract_x
_atom_site_fract_y
_atom_site_fract_z
Si Si1 0.891133 0.256460 0.318208
Si Si2 0.167469 0.633233 0.236814
Si Si3 0.112721 0.462321 0.181512
Si Si4 0.357904 0.361183 0.724540
Si Si5 0.500000 0.232567 0.000000
O O1 0.803087 0.178921 0.297051
O O2 0.758842 0.321820 0.410859
O O3 0.000000 0.250676 0.500000
O O4 0.000000 0.277996 0.000000
O O5 0.187250 0.543849 0.202898
O O6 0.000000 0.644942 0.500000
O O7 0.141872 0.672433 0.964741
O O8 0.000000 0.438933 0.500000
O O9 0.250507 0.406037 0.001136
O O10 0.000000 0.472951 0.000000
O O11 0.500000 0.408140 0.500000
O O12 0.448270 0.292082 0.808951
#
# Coordination Sequence:
#
# PCOD9124263 Si02
#       5
#     4   4   4   4   2
#     4  11  26  43  74 112 148 189 251 316 371 435
#     4  10  23  46  77 101 146 205 249 306 377 461
#     4  11  26  49  77 111 152 199 254 310 379 448
#     4  11  27  45  77 107 154 202 249 311 379 456
#     4  10  20  42  76 104 138 198 254 298 370 452
#
# _framework density 23.84543
#
# number of rings (size 3 to 8) (size 9 to 14) (size 15 to 20)
#    0.000    1.333    1.111    3.333   15.556    1.778 
#    2.000    1.111    0.000    0.000    0.000    0.000 
#    0.000    0.000    0.000    0.000    0.000    0.000 
#
# Total GULP energy -50303.091202 kJ/mol
# GULP energy per Si atom -5589.232356 kJ/mol
# Density = 2.379116 g / cm^3
# Si number density = 23.845430 Si / 1000 Ang^3
#
#
#
# Elastic Constant Matrix: (Units=GPa)
#
#
# Indices 1 2 3 4 5 6 
#
# 1 171.7126 71.3911 98.0478 0.0000 12.1719 0.0000
# 2 71.3911 143.1276 53.3145 0.0000 -17.7433 0.0000
# 3 98.0478 53.3145 121.2004 0.0000 0.7702 0.0000
# 4 0.0000 0.0000 0.0000 8.9349 0.0000 -11.7406
# 5 12.1719 -17.7433 0.7702 0.0000 64.6031 0.0000
# 6 0.0000 0.0000 0.0000 -11.7406 0.0000 104.0875
#
#
#
# Elastic Compliance Matrix: (Units=1/GPa)
#
#
# Indices 1 2 3 4 5 6 
#
# 1 0.012244 -0.003364 -0.008405 0.000000 -0.003131 0.000000
# 2 -0.003364 0.009649 -0.001544 0.000000 0.003302 0.000000
# 3 -0.008405 -0.001544 0.015723 0.000000 0.000972 0.000000
# 4 0.000000 0.000000 0.000000 0.131395 0.000000 0.014821
# 5 -0.003131 0.003302 0.000972 0.000000 0.016964 0.000000
# 6 0.000000 0.000000 0.000000 0.014821 0.000000 0.011279
#
#
# Mechanical properties :
#
#
# Convention : Reuss Voigt Hill
#
# Bulk Modulus (GPa) = 90.99434 97.94970 94.47202
# Shear Modulus (GPa) = 21.97376 49.74424 35.85900
#
# Velocity S-wave (km/s) = 3.03893 4.57235 3.88211
# Velocity P-wave (km/s) = 7.11030 8.30911 7.73297
#
# Compressibility (1/GPa) = 0.01098969
#
# Stress axis : x y z
#
# Youngs Moduli (GPa) = 81.67586 103.63331 63.60063
#
# Poissons Ratio (x) = 0.34865 0.53455
# Poissons Ratio (y) = 0.27478 0.09820
# Poissons Ratio (z) = 0.68647 0.16001
#
# Static dielectric constant tensor:
#      x y z
#    x 1.822450 0.000000 -0.073780 
#    y 0.000000 1.888220 0.000000 
#    z -0.073780 0.000000 2.007700 
# 
# From -- ./inp_files/2349.got.cif
#   From: 2010.05.17/outbox.cif.g08.bks.cpg/sg5_2_cif.got.tgz:2349.got - 2010.06.03 18:56:24.
