data_PCOD9124842
_publ_section_title
;
Structure prediction by ZEFSAII (Michael W. Deem and Ramdas Pophale) SiO2 
 PCOD9124842
Probable space group: C 2
;
_chemical_formula_sum "Si O2"
_cell_formula_units_Z 20
_cell_length_a 12.931510
_cell_length_b 8.633546
_cell_length_c 9.252166
_cell_angle_alpha 90.000000
_cell_angle_beta 63.711692
_cell_angle_gamma 90.000000
_cell_volume 926.124500
_symmetry_space_group_name_H-M "C 2"
_symmetry_group_IT_number 5
_symmetry_cell_setting 'monoclinic'
loop_
_space_group_symop_operation_xyz
x,y,z
-x,y,-z
1/2+x,1/2+y,z
1/2-x,1/2+y,-z
loop_
_atom_site_type_symbol
_atom_site_label
_atom_site_fract_x
_atom_site_fract_y
_atom_site_fract_z
Si Si1 0.097653 0.609520 0.547902
Si Si2 0.230157 0.843215 0.663163
Si Si3 0.550097 0.554361 0.697825
Si Si4 0.924611 0.394060 0.188747
Si Si5 0.821039 0.037533 0.694782
O O1 0.184025 0.739262 0.555596
O O2 0.170302 0.467243 0.434233
O O3 0.056765 0.230218 0.745519
O O4 0.000000 0.668325 0.500000
O O5 0.040428 0.531168 0.723388
O O6 0.274901 0.713475 0.744465
O O7 0.118674 0.946003 0.766507
O O8 0.420226 0.502185 0.747486
O O9 0.617172 0.543000 0.501566
O O10 0.789740 0.427451 0.238127
O O11 0.000000 0.399505 0.000000
#
# Coordination Sequence:
#
# PCOD9124842 Si02
#       5
#     4   4   4   4   4
#     4  11  22  36  62  92 119 164 207 251 304 374
#     4  11  20  34  60  94 117 151 216 257 290 357
#     4  11  20  38  65  90 120 167 211 254 300 374
#     4  11  23  43  63  94 135 162 199 271 324 361
#     4  10  21  38  65  89 122 165 212 250 304 376
#
# _framework density 21.595369000000002
#
# number of rings (size 3 to 8) (size 9 to 14) (size 15 to 20)
#    0.000    1.200    6.000    1.200    2.800    0.000 
#    0.000   14.000    0.000    0.000    0.000    0.000 
#    0.000    0.000    0.000    0.000    0.000    0.000 
#
# Total GULP energy -55850.033439 kJ/mol
# GULP energy per Si atom -5585.003344 kJ/mol
# Density = 2.154622 g / cm^3
# Si number density = 21.595369 Si / 1000 Ang^3
#
#
#
# Elastic Constant Matrix: (Units=GPa)
#
#
# Indices 1 2 3 4 5 6 
#
# 1 121.8837 2.3378 23.1173 0.0000 -11.8284 0.0000
# 2 2.3378 74.7172 10.3571 0.0000 -4.3137 0.0000
# 3 23.1173 10.3571 68.4653 0.0000 -15.7612 0.0000
# 4 0.0000 0.0000 0.0000 5.9316 0.0000 -1.8319
# 5 -11.8284 -4.3137 -15.7612 0.0000 11.9117 0.0000
# 6 0.0000 0.0000 0.0000 -1.8319 0.0000 19.9072
#
#
#
# Elastic Compliance Matrix: (Units=1/GPa)
#
#
# Indices 1 2 3 4 5 6 
#
# 1 0.009185 0.000338 -0.001473 0.000000 0.007294 0.000000
# 2 0.000338 0.013767 -0.001397 0.000000 0.003472 0.000000
# 3 -0.001473 -0.001397 0.021371 0.000000 0.026309 0.000000
# 4 0.000000 0.000000 0.000000 0.173519 0.000000 0.015967
# 5 0.007294 0.003472 0.026309 0.000000 0.127262 0.000000
# 6 0.000000 0.000000 0.000000 0.015967 0.000000 0.051702
#
#
# Mechanical properties :
#
#
# Convention : Reuss Voigt Hill
#
# Bulk Modulus (GPa) = 25.47241 37.41006 31.44124
# Shear Modulus (GPa) = 12.04938 22.83372 17.44155
#
# Velocity S-wave (km/s) = 2.36468 3.25521 2.84501
# Velocity P-wave (km/s) = 4.39051 5.61153 5.03815
#
# Compressibility (1/GPa) = 0.03925816
#
# Stress axis : x y z
#
# Youngs Moduli (GPa) = 108.86882 72.63533 46.79174
#
# Poissons Ratio (x) = -0.02455 0.06895
# Poissons Ratio (y) = -0.03679 0.06539
# Poissons Ratio (z) = 0.16041 0.10150
#
# Static dielectric constant tensor:
#      x y z
#    x 1.820320 0.000000 0.013030 
#    y 0.000000 1.820240 0.000000 
#    z 0.013030 0.000000 1.785620 
# 
# From -- ./inp_files/18672.got.cif
#   From: 2010.05.17/outbox.cif.g08.bks.cpg/sg5_10_cif.got.tgz:18672.got - 2010.06.03 18:56:24.
