data_PCOD9124542
_publ_section_title
;
Structure prediction by ZEFSAII (Michael W. Deem and Ramdas Pophale) SiO2 
 PCOD9124542
Probable space group: C 2
;
_chemical_formula_sum "Si O2"
_cell_formula_units_Z 30
_cell_length_a 5.182652
_cell_length_b 13.337390
_cell_length_c 22.881100
_cell_angle_alpha 90.000000
_cell_angle_beta 96.254616
_cell_angle_gamma 90.000000
_cell_volume 1572.197001
_symmetry_space_group_name_H-M "C 2"
_symmetry_group_IT_number 5
_symmetry_cell_setting 'monoclinic'
loop_
_space_group_symop_operation_xyz
x,y,z
-x,y,-z
1/2+x,1/2+y,z
1/2-x,1/2+y,-z
loop_
_atom_site_type_symbol
_atom_site_label
_atom_site_fract_x
_atom_site_fract_y
_atom_site_fract_z
Si Si1 0.600289 0.757790 0.216497
Si Si2 0.984452 0.436228 0.871632
Si Si3 0.481949 0.347401 0.068928
Si Si4 0.069342 0.652853 0.405491
Si Si5 0.978850 0.243841 0.648369
Si Si6 0.000000 0.796529 0.500000
Si Si7 0.566858 0.169324 0.157475
Si Si8 0.402199 0.920529 0.564040
O O1 0.582708 0.867258 0.186222
O O2 0.572749 0.761816 0.285102
O O3 0.357735 0.696053 0.184300
O O4 0.865270 0.705535 0.202124
O O5 0.779679 0.401173 0.915760
O O6 0.960750 0.552762 0.856892
O O7 0.272670 0.408417 0.899764
O O8 0.497631 0.238219 0.099696
O O9 0.500000 0.340839 0.000000
O O10 0.266424 0.678509 0.358426
O O11 0.161798 0.717583 0.464506
O O12 0.080375 0.535833 0.419644
O O13 0.775524 0.687971 0.384382
O O14 0.025977 0.348544 0.615506
O O15 0.117483 0.872612 0.550259
O O16 0.500000 0.906728 0.500000
#
# Coordination Sequence:
#
# PCOD9124542 Si02
#       8
#     4   4   4   4   4   2   4   4
#     4  10  22  40  61  85 119 152 203 249 292 345
#     4  10  21  39  62  86 119 166 202 239 295 344
#     4  10  21  36  58  94 128 155 198 245 287 346
#     4  11  24  39  61  86 117 150 190 234 299 355
#     4  11  25  41  59  91 117 149 196 251 291 353
#     4  10  22  38  60  84 116 150 186 230 286 364
#     4  10  21  40  63  87 118 164 197 242 296 344
#     4  11  23  39  63  85 116 153 189 233 303 363
#
# _framework density 19.081581
#
# number of rings (size 3 to 8) (size 9 to 14) (size 15 to 20)
#    0.000    1.600    2.000    2.000    1.867    3.200 
#    0.000    0.000    0.000    0.000    0.000    0.000 
#    0.000    0.000    0.000    0.000    0.000    0.000 
#
# Total GULP energy -83711.509548 kJ/mol
# GULP energy per Si atom -5580.767303 kJ/mol
# Density = 1.903815 g / cm^3
# Si number density = 19.081581 Si / 1000 Ang^3
#
#
#
# Elastic Constant Matrix: (Units=GPa)
#
#
# Indices 1 2 3 4 5 6 
#
# 1 50.9413 17.4456 -22.4404 0.0000 -13.4647 0.0000
# 2 17.4456 177.7188 43.3040 0.0000 -6.1288 0.0000
# 3 -22.4404 43.3040 94.8468 0.0000 -23.2822 0.0000
# 4 0.0000 0.0000 0.0000 4.7691 0.0000 -0.1106
# 5 -13.4647 -6.1288 -23.2822 0.0000 26.9627 0.0000
# 6 0.0000 0.0000 0.0000 -0.1106 0.0000 16.9327
#
#
#
# Elastic Compliance Matrix: (Units=1/GPa)
#
#
# Indices 1 2 3 4 5 6 
#
# 1 0.044874 -0.009064 0.025063 0.000000 0.041990 0.000000
# 2 -0.009064 0.008200 -0.008302 0.000000 -0.009831 0.000000
# 3 0.025063 -0.008302 0.029025 0.000000 0.035691 0.000000
# 4 0.000000 0.000000 0.000000 0.209716 0.000000 0.001370
# 5 0.041990 -0.009831 0.035691 0.000000 0.086642 0.000000
# 6 0.000000 0.000000 0.000000 0.001370 0.000000 0.059066
#
#
# Mechanical properties :
#
#
# Convention : Reuss Voigt Hill
#
# Bulk Modulus (GPa) = 10.25714 44.45837 27.35776
# Shear Modulus (GPa) = 10.99802 28.74607 19.87205
#
# Velocity S-wave (km/s) = 2.40337 3.88555 3.23061
# Velocity P-wave (km/s) = 3.61783 6.59392 5.31829
#
# Compressibility (1/GPa) = 0.09749308
#
# Stress axis : x y z
#
# Youngs Moduli (GPa) = 22.28474 121.94462 34.45348
#
# Poissons Ratio (x) = 1.10529 -0.86350
# Poissons Ratio (y) = 0.20199 0.28602
# Poissons Ratio (z) = -0.55852 1.01235
#
# Static dielectric constant tensor:
#      x y z
#    x 1.741880 0.000000 0.004910 
#    y 0.000000 1.618710 0.000000 
#    z 0.004910 0.000000 1.656420 
# 
# From -- ./inp_files/64020.got.cif
#   From: 2010.05.17/outbox.cif.g08.bks.cpg/sg5_33_cif.got.tgz:64020.got - 2010.06.03 18:56:24.
