data_PCOD9124031
_publ_section_title
;
Structure prediction by ZEFSAII (Michael W. Deem and Ramdas Pophale) SiO2 
 PCOD9124031
Probable space group: C 2
;
_chemical_formula_sum "Si O2"
_cell_formula_units_Z 24
_cell_length_a 20.440638
_cell_length_b 7.809739
_cell_length_c 13.836345
_cell_angle_alpha 90.000000
_cell_angle_beta 24.213312
_cell_angle_gamma 90.000000
_cell_volume 905.897627
_symmetry_space_group_name_H-M "C 2"
_symmetry_group_IT_number 5
_symmetry_cell_setting 'monoclinic'
loop_
_space_group_symop_operation_xyz
x,y,z
-x,y,-z
1/2+x,1/2+y,z
1/2-x,1/2+y,-z
loop_
_atom_site_type_symbol
_atom_site_label
_atom_site_fract_x
_atom_site_fract_y
_atom_site_fract_z
Si Si1 0.797245 0.139600 0.501548
Si Si2 0.599622 0.444647 0.021142
Si Si3 0.243739 0.699374 0.974857
Si Si4 0.056937 0.499719 0.690170
Si Si5 0.500000 0.500081 0.500000
Si Si6 0.000000 0.661244 0.000000
Si Si7 0.291833 0.792622 0.135784
O O1 0.851990 0.326608 0.463735
O O2 0.693383 0.129182 0.542600
O O3 0.665789 0.071247 0.752093
O O4 0.947835 0.023850 0.279541
O O5 0.545038 0.292372 0.025934
O O6 0.714036 0.364737 0.947600
O O7 0.674915 0.607262 0.863877
O O8 0.391316 0.605623 0.722041
O O9 0.274928 0.748253 0.042961
O O10 0.077333 0.593008 0.192030
O O11 0.944392 0.418388 0.928003
O O12 0.627485 0.381991 0.383599
#
# Coordination Sequence:
#
# PCOD9124031 Si02
#       7
#     4   4   4   4   2   2   4
#     4  11  22  44  66 102 138 182 228 288 344 410
#     4  11  24  43  69 105 139 177 237 280 348 420
#     4  11  22  44  71 102 135 186 229 287 346 406
#     4  10  20  41  66  94 142 169 229 284 333 413
#     4  10  24  44  66 102 134 176 232 274 344 406
#     4  12  24  40  72  98 138 186 220 276 356 402
#     4  10  24  43  68 100 140 177 230 290 341 407
#
# _framework density 26.49306
#
# number of rings (size 3 to 8) (size 9 to 14) (size 15 to 20)
#    0.000    1.333    3.333    2.000    0.000    6.000 
#    0.000    3.333    0.000    0.000    0.000    0.000 
#    0.000    0.000    0.000    0.000    0.000    0.000 
#
# Total GULP energy -67166.462259 kJ/mol
# GULP energy per Si atom -5597.205188 kJ/mol
# Density = 2.643276 g / cm^3
# Si number density = 26.493060 Si / 1000 Ang^3
#
#
#
# Elastic Constant Matrix: (Units=GPa)
#
#
# Indices 1 2 3 4 5 6 
#
# 1 73.3310 7.9578 29.8568 0.0000 0.1267 0.0000
# 2 7.9578 98.6896 53.7492 0.0000 -21.9199 0.0000
# 3 29.8568 53.7492 188.2913 0.0000 -14.4461 0.0000
# 4 0.0000 0.0000 0.0000 59.1663 0.0000 -9.3849
# 5 0.1267 -21.9199 -14.4461 0.0000 32.5023 0.0000
# 6 0.0000 0.0000 0.0000 -9.3849 0.0000 31.7937
#
#
#
# Elastic Compliance Matrix: (Units=1/GPa)
#
#
# Indices 1 2 3 4 5 6 
#
# 1 0.014620 -0.000161 -0.002366 0.000000 -0.001217 0.000000
# 2 -0.000161 0.013652 -0.003277 0.000000 0.007751 0.000000
# 3 -0.002366 -0.003277 0.006680 0.000000 0.000768 0.000000
# 4 0.000000 0.000000 0.000000 0.017732 0.000000 0.005234
# 5 -0.001217 0.007751 0.000768 0.000000 0.036341 0.000000
# 6 0.000000 0.000000 0.000000 0.005234 0.000000 0.032998
#
#
# Mechanical properties :
#
#
# Convention : Reuss Voigt Hill
#
# Bulk Modulus (GPa) = 42.83486 60.38216 51.60851
# Shear Modulus (GPa) = 35.35797 42.60900 38.98349
#
# Velocity S-wave (km/s) = 3.65720 4.01472 3.84012
# Velocity P-wave (km/s) = 5.83411 6.65822 6.25974
#
# Compressibility (1/GPa) = 0.02334547
#
# Stress axis : x y z
#
# Youngs Moduli (GPa) = 68.40169 73.24890 149.69134
#
# Poissons Ratio (x) = 0.01177 0.35412
# Poissons Ratio (y) = 0.01099 0.49053
# Poissons Ratio (z) = 0.16182 0.24003
#
# Static dielectric constant tensor:
#      x y z
#    x 2.123460 0.000000 0.033690 
#    y 0.000000 2.185770 0.000000 
#    z 0.033690 0.000000 2.052950 
# 
# From -- ./inp_files/63300.got.cif
#   From: 2010.05.17/outbox.cif.g08.bks.cpg/sg5_32_cif.got.tgz:63300.got - 2010.06.03 18:56:24.
