data_PCOD9124800
_publ_section_title
;
Structure prediction by ZEFSAII (Michael W. Deem and Ramdas Pophale) SiO2 
 PCOD9124800
Probable space group: C 2
;
_chemical_formula_sum "Si O2"
_cell_formula_units_Z 24
_cell_length_a 21.227968
_cell_length_b 4.917941
_cell_length_c 16.505781
_cell_angle_alpha 90.000000
_cell_angle_beta 35.738794
_cell_angle_gamma 90.000000
_cell_volume 1006.487246
_symmetry_space_group_name_H-M "C 2"
_symmetry_group_IT_number 5
_symmetry_cell_setting 'monoclinic'
loop_
_space_group_symop_operation_xyz
x,y,z
-x,y,-z
1/2+x,1/2+y,z
1/2-x,1/2+y,-z
loop_
_atom_site_type_symbol
_atom_site_label
_atom_site_fract_x
_atom_site_fract_y
_atom_site_fract_z
Si Si1 0.000000 0.639380 0.500000
Si Si2 0.000000 0.662763 0.000000
Si Si3 0.176002 0.289394 0.223391
Si Si4 0.966257 0.429885 0.777394
Si Si5 0.086242 0.944207 0.065645
Si Si6 0.343552 0.094258 0.531841
Si Si7 0.262668 0.050054 0.283903
O O1 0.089767 0.455839 0.364654
O O2 0.064689 0.754947 0.508337
O O3 0.887539 0.514269 0.132110
O O4 0.019670 0.840387 0.058997
O O5 0.113717 0.278476 0.203063
O O6 0.205508 0.038635 0.252956
O O7 0.288353 0.441889 0.090400
O O8 0.924492 0.722034 0.851027
O O9 0.084072 0.477254 0.615718
O O10 0.960361 0.230966 0.859178
O O11 0.260516 0.339837 0.619235
O O12 0.278478 0.843196 0.640193
#
# Coordination Sequence:
#
# PCOD9124800 Si02
#       7
#     2   2   4   4   4   4   4
#     4   8  18  34  58  92 130 164 196 250 312 384
#     4  10  26  46  68  92 126 172 230 272 318 384
#     4   9  20  37  62  96 133 167 208 257 321 386
#     4  11  23  40  64  97 133 167 209 268 332 389
#     4  11  24  41  64  92 128 174 217 268 322 382
#     4  10  21  38  62  95 129 165 210 256 320 384
#     4  10  22  40  65  94 127 171 213 260 310 377
#
# _framework density 23.845310000000001
#
# number of rings (size 3 to 8) (size 9 to 14) (size 15 to 20)
#    0.000    2.000    0.000    2.000    0.000   18.667 
#    0.000    3.333    0.000    0.000    0.000    0.000 
#    0.000    0.000    0.000    0.000    0.000    0.000 
#
# Total GULP energy -66899.225413 kJ/mol
# GULP energy per Si atom -5574.935451 kJ/mol
# Density = 2.379104 g / cm^3
# Si number density = 23.845310 Si / 1000 Ang^3
#
#
#
# Elastic Constant Matrix: (Units=GPa)
#
#
# Indices 1 2 3 4 5 6 
#
# 1 52.9351 0.1642 13.5671 0.0435 -1.4459 0.0086
# 2 0.1642 92.2859 35.5105 0.1040 0.6285 0.0177
# 3 13.5671 35.5105 145.6431 0.0470 0.7340 -0.0032
# 4 0.0435 0.1040 0.0470 47.3611 0.0142 4.7795
# 5 -1.4459 0.6285 0.7340 0.0142 19.9137 0.0041
# 6 0.0086 0.0177 -0.0032 4.7795 0.0041 7.5627
#
#
#
# Elastic Compliance Matrix: (Units=1/GPa)
#
#
# Indices 1 2 3 4 5 6 
#
# 1 0.019440 0.000723 -0.001995 -0.000016 0.001462 -0.000015
# 2 0.000723 0.011986 -0.002989 -0.000022 -0.000216 -0.000016
# 3 -0.001995 -0.002989 0.007782 -0.000001 -0.000337 0.000013
# 4 -0.000016 -0.000022 -0.000001 0.022553 -0.000014 -0.014253
# 5 0.001462 -0.000216 -0.000337 -0.000014 0.050342 -0.000020
# 6 -0.000015 -0.000016 0.000013 -0.014253 -0.000020 0.141236
#
#
# Mechanical properties :
#
#
# Convention : Reuss Voigt Hill
#
# Bulk Modulus (GPa) = 32.58621 43.26087 37.92354
# Shear Modulus (GPa) = 18.37634 31.07563 24.72599
#
# Velocity S-wave (km/s) = 2.77907 3.61393 3.22364
# Velocity P-wave (km/s) = 4.89826 5.96621 5.45842
#
# Compressibility (1/GPa) = 0.03068783
#
# Stress axis : x y z
#
# Youngs Moduli (GPa) = 51.44042 83.42988 128.49678
#
# Poissons Ratio (x) = -0.06031 0.25629
# Poissons Ratio (y) = -0.03719 0.38404
# Poissons Ratio (z) = 0.10260 0.24935
#
# Static dielectric constant tensor:
#      x y z
#    x 2.101610 0.000040 -0.127470 
#    y 0.000040 1.927570 0.000440 
#    z -0.127470 0.000440 1.366850 
# 
# From -- ./inp_files/43740.got.cif
#   From: 2010.05.17/outbox.cif.g08.bks.cpg/sg5_22_cif.got.tgz:43740.got - 2010.06.03 18:56:24.
