data_PCOD9124853
_publ_section_title
;
Structure prediction by ZEFSAII (Michael W. Deem and Ramdas Pophale) SiO2 
 PCOD9124853
Probable space group: C 2
;
_chemical_formula_sum "Si O2"
_cell_formula_units_Z 28
_cell_length_a 12.651401
_cell_length_b 7.185194
_cell_length_c 14.208645
_cell_angle_alpha 90.000000
_cell_angle_beta 64.881721
_cell_angle_gamma 90.000000
_cell_volume 1169.462512
_symmetry_space_group_name_H-M "C 2"
_symmetry_group_IT_number 5
_symmetry_cell_setting 'monoclinic'
loop_
_space_group_symop_operation_xyz
x,y,z
-x,y,-z
1/2+x,1/2+y,z
1/2-x,1/2+y,-z
loop_
_atom_site_type_symbol
_atom_site_label
_atom_site_fract_x
_atom_site_fract_y
_atom_site_fract_z
Si Si1 0.305613 0.964640 0.359302
Si Si2 0.293186 0.011536 0.718467
Si Si3 0.129470 0.683251 0.491522
Si Si4 0.161214 0.288819 0.015545
Si Si5 0.628161 0.390110 0.934836
Si Si6 0.530550 0.755519 0.238074
Si Si7 0.797319 0.932301 0.793418
O O1 0.193138 0.878660 0.452601
O O2 0.396958 0.794989 0.310485
O O3 0.263816 0.028735 0.272854
O O4 0.362915 0.115459 0.404872
O O5 0.305397 0.035897 0.602539
O O6 0.174583 0.935945 0.812285
O O7 0.318591 0.218951 0.751871
O O8 0.394243 0.876965 0.717669
O O9 0.000000 0.694096 0.500000
O O10 0.270840 0.284232 0.046091
O O11 0.056216 0.340675 0.124536
O O12 0.128939 0.091030 0.984918
O O13 0.205811 0.410948 0.912629
O O14 0.500000 0.308664 0.000000
O O15 0.587356 0.549251 0.222060
#
# Coordination Sequence:
#
# PCOD9124853 Si02
#       7
#     4   4   4   4   4   4   4
#     4  11  27  43  73 101 129 194 230 283 371 399
#     4   9  22  42  67  96 139 173 227 296 332 401
#     4  11  24  46  65  97 139 172 238 300 333 413
#     4  10  21  38  65  98 137 169 224 276 326 413
#     4  10  21  39  64  94 132 176 212 269 342 397
#     4  11  22  44  70  99 140 181 228 288 339 421
#     4  10  23  42  67 106 137 181 234 275 347 420
#
# _framework density 23.942623999999999
#
# number of rings (size 3 to 8) (size 9 to 14) (size 15 to 20)
#    0.000    1.714    2.857    0.000    8.000    2.286 
#    0.000   10.714    0.000    0.000    0.000    0.000 
#    0.000    0.000    0.000    0.000    0.000    0.000 
#
# Total GULP energy -78252.519649 kJ/mol
# GULP energy per Si atom -5589.465689 kJ/mol
# Density = 2.388813 g / cm^3
# Si number density = 23.942624 Si / 1000 Ang^3
#
#
#
# Elastic Constant Matrix: (Units=GPa)
#
#
# Indices 1 2 3 4 5 6 
#
# 1 99.8348 19.0691 25.8593 0.0000 -16.3338 0.0000
# 2 19.0691 65.8971 17.2456 0.0000 5.1768 0.0000
# 3 25.8593 17.2456 59.5502 0.0000 5.0694 0.0000
# 4 0.0000 0.0000 0.0000 16.8757 0.0000 7.1827
# 5 -16.3338 5.1768 5.0694 0.0000 38.0415 0.0000
# 6 0.0000 0.0000 0.0000 7.1827 0.0000 26.3737
#
#
#
# Elastic Compliance Matrix: (Units=1/GPa)
#
#
# Indices 1 2 3 4 5 6 
#
# 1 0.013072 -0.002895 -0.005411 0.000000 0.006728 0.000000
# 2 -0.002895 0.017160 -0.003447 0.000000 -0.003119 0.000000
# 3 -0.005411 -0.003447 0.020531 0.000000 -0.004590 0.000000
# 4 0.000000 0.000000 0.000000 0.067026 0.000000 -0.018254
# 5 0.006728 -0.003119 -0.004590 0.000000 0.030212 0.000000
# 6 0.000000 0.000000 0.000000 -0.018254 0.000000 0.042888
#
#
# Mechanical properties :
#
#
# Convention : Reuss Voigt Hill
#
# Bulk Modulus (GPa) = 36.68694 38.84778 37.76736
# Shear Modulus (GPa) = 22.37341 27.13206 24.75274
#
# Velocity S-wave (km/s) = 3.06021 3.36997 3.21882
# Velocity P-wave (km/s) = 5.27661 5.60383 5.44268
#
# Compressibility (1/GPa) = 0.02725765
#
# Stress axis : x y z
#
# Youngs Moduli (GPa) = 76.50119 58.27499 48.70681
#
# Poissons Ratio (x) = 0.16872 0.26353
# Poissons Ratio (y) = 0.22148 0.16788
# Poissons Ratio (z) = 0.41392 0.20086
#
# Static dielectric constant tensor:
#      x y z
#    x 1.898690 0.000000 -0.026490 
#    y 0.000000 1.935640 0.000000 
#    z -0.026490 0.000000 1.974480 
# 
# From -- ./inp_files/52243.got.cif
#   From: 2010.05.17/outbox.cif.g08.bks.cpg/sg5_27_cif.got.tgz:52243.got - 2010.06.03 18:56:24.
