data_PCOD9124145
_publ_section_title
;
Structure prediction by ZEFSAII (Michael W. Deem and Ramdas Pophale) SiO2 
 PCOD9124145
Probable space group: C 2
;
_chemical_formula_sum "Si O2"
_cell_formula_units_Z 30
_cell_length_a 10.603569
_cell_length_b 13.487063
_cell_length_c 11.974024
_cell_angle_alpha 90.000000
_cell_angle_beta 52.023660
_cell_angle_gamma 90.000000
_cell_volume 1349.838395
_symmetry_space_group_name_H-M "C 2"
_symmetry_group_IT_number 5
_symmetry_cell_setting 'monoclinic'
loop_
_space_group_symop_operation_xyz
x,y,z
-x,y,-z
1/2+x,1/2+y,z
1/2-x,1/2+y,-z
loop_
_atom_site_type_symbol
_atom_site_label
_atom_site_fract_x
_atom_site_fract_y
_atom_site_fract_z
Si Si1 0.483772 0.666470 0.262288
Si Si2 0.262308 0.369590 0.379849
Si Si3 0.772400 0.675126 0.944708
Si Si4 0.000000 0.199816 0.500000
Si Si5 0.100106 0.494470 0.052263
Si Si6 0.654810 0.882617 0.678092
Si Si7 0.360569 0.510076 0.152661
Si Si8 0.857298 0.880259 0.788516
O O1 0.504430 0.641520 0.381140
O O2 0.373224 0.763974 0.312230
O O3 0.417309 0.576253 0.226451
O O4 0.648743 0.694048 0.111455
O O5 0.197280 0.416682 0.530220
O O6 0.248214 0.430554 0.272747
O O7 0.452992 0.365918 0.299709
O O8 0.157755 0.270284 0.419039
O O9 0.916666 0.612146 0.918854
O O10 0.711857 0.590774 0.891854
O O11 0.791666 0.774541 0.866200
O O12 0.011117 0.434195 0.196564
O O13 0.277190 0.460116 0.917261
O O14 0.000000 0.463311 0.000000
O O15 0.789644 0.901080 0.700453
O O16 0.500000 0.462187 0.000000
#
# Coordination Sequence:
#
# PCOD9124145 Si02
#       8
#     4   4   4   2   4   4   4   4
#     4  10  20  42  65  95 129 180 215 267 334 400
#     4  11  25  43  62  99 132 174 217 278 335 394
#     4  11  22  38  71 100 127 170 234 276 316 390
#     4  10  26  44  64  86 142 184 208 258 368 386
#     4  10  23  41  66 100 133 175 221 272 338 391
#     4  10  21  43  67  91 136 180 210 267 345 399
#     4  10  22  40  67 100 128 166 230 274 323 389
#     4  11  21  42  69  96 131 175 229 274 319 407
#
# _framework density 22.224881
#
# number of rings (size 3 to 8) (size 9 to 14) (size 15 to 20)
#    0.000    1.600    2.667    2.000    3.733    2.133 
#   12.000    0.000    0.000    0.000    0.000    0.000 
#    0.000    0.000    0.000    0.000    0.000    0.000 
#
# Total GULP energy -83678.495110 kJ/mol
# GULP energy per Si atom -5578.566341 kJ/mol
# Density = 2.217430 g / cm^3
# Si number density = 22.224881 Si / 1000 Ang^3
#
#
#
# Elastic Constant Matrix: (Units=GPa)
#
#
# Indices 1 2 3 4 5 6 
#
# 1 85.9162 -12.2065 35.5394 0.0000 15.7900 0.0000
# 2 -12.2065 35.6343 11.2339 0.0000 9.6137 0.0000
# 3 35.5394 11.2339 141.7017 0.0000 33.1587 0.0000
# 4 0.0000 0.0000 0.0000 28.0530 0.0000 6.3071
# 5 15.7900 9.6137 33.1587 0.0000 38.5273 0.0000
# 6 0.0000 0.0000 0.0000 6.3071 0.0000 25.9165
#
#
#
# Elastic Compliance Matrix: (Units=1/GPa)
#
#
# Indices 1 2 3 4 5 6 
#
# 1 0.014980 0.007554 -0.003103 0.000000 -0.005354 0.000000
# 2 0.007554 0.033968 -0.002354 0.000000 -0.009546 0.000000
# 3 -0.003103 -0.002354 0.009500 0.000000 -0.006317 0.000000
# 4 0.000000 0.000000 0.000000 0.037710 0.000000 -0.009177
# 5 -0.005354 -0.009546 -0.006317 0.000000 0.035969 0.000000
# 6 0.000000 0.000000 0.000000 -0.009177 0.000000 0.040819
#
#
# Mechanical properties :
#
#
# Convention : Reuss Voigt Hill
#
# Bulk Modulus (GPa) = 15.96357 36.93174 26.44766
# Shear Modulus (GPa) = 26.36681 33.74507 30.05594
#
# Velocity S-wave (km/s) = 3.44810 3.90082 3.68143
# Velocity P-wave (km/s) = 4.80113 6.07799 5.47690
#
# Compressibility (1/GPa) = 0.06264262
#
# Stress axis : x y z
#
# Youngs Moduli (GPa) = 66.75557 29.43952 105.26052
#
# Poissons Ratio (x) = -0.22239 0.32664
# Poissons Ratio (y) = -0.50427 0.24775
# Poissons Ratio (z) = 0.20715 0.06929
#
# Static dielectric constant tensor:
#      x y z
#    x 1.961150 0.000000 0.008000 
#    y 0.000000 1.799890 0.000000 
#    z 0.008000 0.000000 1.822280 
# 
# From -- ./inp_files/20613.got.cif
#   From: 2010.05.17/outbox.cif.g08.bks.cpg/sg5_11_cif.got.tgz:20613.got - 2010.06.03 18:56:24.
