data_PCOD9124656
_publ_section_title
;
Structure prediction by ZEFSAII (Michael W. Deem and Ramdas Pophale) SiO2 
 PCOD9124656
Probable space group: C 2
;
_chemical_formula_sum "Si O2"
_cell_formula_units_Z 32
_cell_length_a 12.334716
_cell_length_b 7.094791
_cell_length_c 17.836603
_cell_angle_alpha 90.000000
_cell_angle_beta 51.601515
_cell_angle_gamma 90.000000
_cell_volume 1223.309165
_symmetry_space_group_name_H-M "C 2"
_symmetry_group_IT_number 5
_symmetry_cell_setting 'monoclinic'
loop_
_space_group_symop_operation_xyz
x,y,z
-x,y,-z
1/2+x,1/2+y,z
1/2-x,1/2+y,-z
loop_
_atom_site_type_symbol
_atom_site_label
_atom_site_fract_x
_atom_site_fract_y
_atom_site_fract_z
Si Si1 0.284424 0.340190 0.911648
Si Si2 0.133345 0.438699 0.397208
Si Si3 0.018493 0.148807 0.222863
Si Si4 0.566557 0.522555 0.375747
Si Si5 0.197439 0.857561 0.545911
Si Si6 0.454906 0.977943 0.346063
Si Si7 0.797610 0.288182 0.218147
Si Si8 0.532973 0.061778 0.069149
O O1 0.352671 0.546954 0.871278
O O2 0.259268 0.247694 0.840821
O O3 0.391000 0.213978 0.912314
O O4 0.137917 0.384765 0.012926
O O5 0.257886 0.475730 0.399657
O O6 0.000000 0.509458 0.500000
O O7 0.098468 0.504405 0.329245
O O8 0.117653 0.211982 0.393183
O O9 0.999349 0.369416 0.252781
O O10 0.892859 0.131210 0.216958
O O11 0.038482 0.064068 0.298686
O O12 0.415907 0.443224 0.461551
O O13 0.683845 0.365127 0.325387
O O14 0.343674 0.844284 0.439184
O O15 0.126406 0.673407 0.612410
O O16 0.891286 0.474961 0.160594
O O17 0.500000 0.138147 0.000000
#
# Coordination Sequence:
#
# PCOD9124656 Si02
#       8
#     4   4   4   4   4   4   4   4
#     4  10  22  40  65  94 122 157 201 244 300 370
#     4   9  19  36  55  79 112 152 200 254 302 349
#     4  10  21  38  58  88 123 154 197 251 300 355
#     4  10  22  37  56  85 118 158 205 249 301 361
#     4  11  21  39  60  82 119 165 211 260 307 353
#     4  10  21  37  61  87 118 163 211 258 308 361
#     4  10  22  39  58  87 124 157 193 245 300 357
#     4  10  22  42  66  92 123 158 196 243 300 364
#
# _framework density 26.158553000000001
#
# number of rings (size 3 to 8) (size 9 to 14) (size 15 to 20)
#    0.000    2.000    0.000    3.750    0.000    6.000 
#    0.000   11.875    0.000    0.000    0.000    0.000 
#    0.000    0.000    0.000    0.000    0.000    0.000 
#
# Total GULP energy -89375.866593 kJ/mol
# GULP energy per Si atom -5585.991662 kJ/mol
# Density = 2.609902 g / cm^3
# Si number density = 26.158553 Si / 1000 Ang^3
#
#
#
# Elastic Constant Matrix: (Units=GPa)
#
#
# Indices 1 2 3 4 5 6 
#
# 1 168.8801 17.6069 21.6390 0.0000 14.4238 0.0000
# 2 17.6069 74.9982 23.4776 0.0000 3.3190 0.0000
# 3 21.6390 23.4776 65.3020 0.0000 5.6613 0.0000
# 4 0.0000 0.0000 0.0000 37.0364 0.0000 4.8572
# 5 14.4238 3.3190 5.6613 0.0000 44.0720 0.0000
# 6 0.0000 0.0000 0.0000 4.8572 0.0000 62.6201
#
#
#
# Elastic Compliance Matrix: (Units=1/GPa)
#
#
# Indices 1 2 3 4 5 6 
#
# 1 0.006379 -0.000907 -0.001631 0.000000 -0.001810 0.000000
# 2 -0.000907 0.015162 -0.005134 0.000000 -0.000185 0.000000
# 3 -0.001631 -0.005134 0.017819 0.000000 -0.001368 0.000000
# 4 0.000000 0.000000 0.000000 0.027278 0.000000 -0.002116
# 5 -0.001810 -0.000185 -0.001368 0.000000 0.023472 0.000000
# 6 0.000000 0.000000 0.000000 -0.002116 0.000000 0.016133
#
#
# Mechanical properties :
#
#
# Convention : Reuss Voigt Hill
#
# Bulk Modulus (GPa) = 41.64031 48.29192 44.96611
# Shear Modulus (GPa) = 38.58212 45.17617 41.87915
#
# Velocity S-wave (km/s) = 3.84465 4.16024 4.00556
# Velocity P-wave (km/s) = 5.97172 6.44811 6.21448
#
# Compressibility (1/GPa) = 0.02401519
#
# Stress axis : x y z
#
# Youngs Moduli (GPa) = 156.75229 65.95394 56.12142
#
# Poissons Ratio (x) = 0.05982 0.09153
# Poissons Ratio (y) = 0.14218 0.28815
# Poissons Ratio (z) = 0.25565 0.33864
#
# Static dielectric constant tensor:
#      x y z
#    x 2.050760 0.000000 0.001670 
#    y 0.000000 2.109660 0.000000 
#    z 0.001670 0.000000 2.077010 
# 
# From -- ./inp_files/60298.got.cif
#   From: 2010.05.17/outbox.cif.g08.bks.cpg/sg5_31_cif.got.tgz:60298.got - 2010.06.03 18:56:24.
