data_PCOD9124312
_publ_section_title
;
Structure prediction by ZEFSAII (Michael W. Deem and Ramdas Pophale) SiO2 
 PCOD9124312
Probable space group: C 2
;
_chemical_formula_sum "Si O2"
_cell_formula_units_Z 20
_cell_length_a 21.610760
_cell_length_b 6.603848
_cell_length_c 6.140519
_cell_angle_alpha 90.000000
_cell_angle_beta 73.884297
_cell_angle_gamma 90.000000
_cell_volume 841.901701
_symmetry_space_group_name_H-M "C 2"
_symmetry_group_IT_number 5
_symmetry_cell_setting 'monoclinic'
loop_
_space_group_symop_operation_xyz
x,y,z
-x,y,-z
1/2+x,1/2+y,z
1/2-x,1/2+y,-z
loop_
_atom_site_type_symbol
_atom_site_label
_atom_site_fract_x
_atom_site_fract_y
_atom_site_fract_z
Si Si1 0.662090 0.533300 0.099902
Si Si2 0.645045 0.890742 0.461226
Si Si3 0.991129 0.305525 0.249779
Si Si4 0.896231 0.636530 0.868367
Si Si5 0.212236 0.380304 0.787671
O O1 0.644774 0.710397 0.286573
O O2 0.605112 0.377156 0.103661
O O3 0.722749 0.419780 0.146801
O O4 0.686171 0.658048 0.869927
O O5 0.584054 0.856734 0.674102
O O6 0.710739 0.897977 0.530237
O O7 0.630113 0.094721 0.348648
O O8 0.000000 0.230578 0.500000
O O9 0.038630 0.502882 0.186106
O O10 0.000000 0.201240 0.000000
O O11 0.840118 0.543687 0.074592
#
# Coordination Sequence:
#
# PCOD9124312 Si02
#       5
#     4   4   4   4   4
#     4  11  24  39  64 104 133 178 228 284 351 423
#     4  10  24  40  67  96 134 179 229 283 348 410
#     4  10  20  43  73  94 135 187 229 285 347 406
#     4  10  22  43  66  92 133 176 229 279 347 406
#     4  11  22  40  63  97 138 172 221 287 345 417
#
# _framework density 23.755742000000001
#
# number of rings (size 3 to 8) (size 9 to 14) (size 15 to 20)
#    0.000    1.600    4.000    0.000    2.800    1.600 
#    0.000   15.000    0.000    0.000    0.000    0.000 
#    0.000    0.000    0.000    0.000    0.000    0.000 
#
# Total GULP energy -55736.927551 kJ/mol
# GULP energy per Si atom -5573.692755 kJ/mol
# Density = 2.370167 g / cm^3
# Si number density = 23.755742 Si / 1000 Ang^3
#
#
#
# Elastic Constant Matrix: (Units=GPa)
#
#
# Indices 1 2 3 4 5 6 
#
# 1 74.3957 17.4886 21.8439 0.0000 13.6598 0.0000
# 2 17.4886 70.1111 12.7378 0.0000 -4.2407 0.0000
# 3 21.8439 12.7378 102.8947 0.0000 6.2530 0.0000
# 4 0.0000 0.0000 0.0000 7.5440 0.0000 -6.8797
# 5 13.6598 -4.2407 6.2530 0.0000 47.5377 0.0000
# 6 0.0000 0.0000 0.0000 -6.8797 0.0000 36.9801
#
#
#
# Elastic Compliance Matrix: (Units=1/GPa)
#
#
# Indices 1 2 3 4 5 6 
#
# 1 0.015943 -0.003774 -0.002640 0.000000 -0.004571 0.000000
# 2 -0.003774 0.015599 -0.001291 0.000000 0.002646 0.000000
# 3 -0.002640 -0.001291 0.010484 0.000000 -0.000736 0.000000
# 4 0.000000 0.000000 0.000000 0.159640 0.000000 0.029699
# 5 -0.004571 0.002646 -0.000736 0.000000 0.022682 0.000000
# 6 0.000000 0.000000 0.000000 0.029699 0.000000 0.032567
#
#
# Mechanical properties :
#
#
# Convention : Reuss Voigt Hill
#
# Bulk Modulus (GPa) = 37.56959 39.06024 38.31492
# Shear Modulus (GPa) = 17.78123 31.43442 24.60783
#
# Velocity S-wave (km/s) = 2.73885 3.64158 3.22198
# Velocity P-wave (km/s) = 5.08439 5.84462 5.47771
#
# Compressibility (1/GPa) = 0.02661727
#
# Stress axis : x y z
#
# Youngs Moduli (GPa) = 62.72334 64.10698 95.38759
#
# Poissons Ratio (x) = 0.24192 0.25179
# Poissons Ratio (y) = 0.23670 0.12312
# Poissons Ratio (z) = 0.16557 0.08274
#
# Static dielectric constant tensor:
#      x y z
#    x 1.913870 0.000000 0.016690 
#    y 0.000000 1.894980 0.000000 
#    z 0.016690 0.000000 1.977260 
# 
# From -- ./inp_files/10581.got.cif
#   From: 2010.05.17/outbox.cif.g08.bks.cpg/sg5_6_cif.got.tgz:10581.got - 2010.06.03 18:56:24.
