data_PCOD9124803
_publ_section_title
;
Structure prediction by ZEFSAII (Michael W. Deem and Ramdas Pophale) SiO2 
 PCOD9124803
Probable space group: C 2
;
_chemical_formula_sum "Si O2"
_cell_formula_units_Z 32
_cell_length_a 8.970699
_cell_length_b 21.788161
_cell_length_c 15.738321
_cell_angle_alpha 90.000000
_cell_angle_beta 28.390849
_cell_angle_gamma 90.000000
_cell_volume 1462.651639
_symmetry_space_group_name_H-M "C 2"
_symmetry_group_IT_number 5
_symmetry_cell_setting 'monoclinic'
loop_
_space_group_symop_operation_xyz
x,y,z
-x,y,-z
1/2+x,1/2+y,z
1/2-x,1/2+y,-z
loop_
_atom_site_type_symbol
_atom_site_label
_atom_site_fract_x
_atom_site_fract_y
_atom_site_fract_z
Si Si1 0.926546 0.815900 0.133383
Si Si2 0.132018 0.642325 0.341453
Si Si3 0.730582 0.587720 0.308734
Si Si4 0.691326 0.751712 0.490159
Si Si5 0.837443 0.690461 0.990499
Si Si6 0.683772 0.020517 0.200678
Si Si7 0.124107 0.873736 0.674899
Si Si8 0.096491 0.970765 0.551448
O O1 0.574797 0.784993 0.317170
O O2 0.988415 0.868129 0.171900
O O3 0.000000 0.833340 0.000000
O O4 0.142758 0.758890 0.054065
O O5 0.479862 0.670231 0.175046
O O6 0.191016 0.583020 0.252568
O O7 0.000000 0.624908 0.500000
O O8 0.885006 0.693626 0.428945
O O9 0.500000 0.606953 0.500000
O O10 0.514874 0.539691 0.365096
O O11 0.982995 0.541617 0.220574
O O12 0.930564 0.643182 0.172804
O O13 0.500000 0.736581 0.500000
O O14 0.916797 0.807486 0.349786
O O15 0.000000 0.694412 0.000000
O O16 0.474157 0.972566 0.356858
O O17 0.000000 0.998570 0.000000
O O18 0.500000 0.881192 0.500000
O O19 0.996458 0.923803 0.673771
O O20 0.000000 0.958352 0.500000
#
# Coordination Sequence:
#
# PCOD9124803 Si02
#       8
#     4   4   4   4   4   4   4   4
#     4   9  19  37  65  97 136 177 218 285 353 404
#     4  12  25  37  62 103 135 185 222 280 342 418
#     4   9  21  37  65  91 130 176 216 273 345 401
#     4   9  22  39  65  92 132 178 229 273 348 408
#     4  11  23  38  61  96 145 178 222 272 345 413
#     4  10  21  38  62  96 129 168 225 279 334 406
#     4   9  20  41  68  97 124 180 227 283 338 416
#     4   9  21  40  67  94 131 182 232 276 352 398
#
# _framework density 21.878072
#
# number of rings (size 3 to 8) (size 9 to 14) (size 15 to 20)
#    0.000    2.750    1.250    1.500   10.500    2.000 
#    0.000    2.500    0.000   19.500    0.000    0.000 
#    0.000    0.000    0.000    0.000    0.000    0.000 
#
# Total GULP energy -89145.686491 kJ/mol
# GULP energy per Si atom -5571.605406 kJ/mol
# Density = 2.182828 g / cm^3
# Si number density = 21.878072 Si / 1000 Ang^3
#
#
#
# Elastic Constant Matrix: (Units=GPa)
#
#
# Indices 1 2 3 4 5 6 
#
# 1 71.9760 40.8469 41.2573 -0.0671 8.9080 -0.0826
# 2 40.8469 83.3764 25.3789 -0.0853 22.5818 -0.1076
# 3 41.2573 25.3789 128.3513 -0.3655 12.9731 -0.3114
# 4 -0.0671 -0.0853 -0.3655 11.7133 0.0576 17.3280
# 5 8.9080 22.5818 12.9731 0.0576 37.8610 0.0903
# 6 -0.0826 -0.1076 -0.3114 17.3280 0.0903 -7.7097
#
#
#
# Elastic Compliance Matrix: (Units=1/GPa)
#
#
# Indices 1 2 3 4 5 6 
#
# 1 0.022391 -0.009998 -0.005481 -0.000081 0.002573 -0.000032
# 2 -0.009998 0.019302 0.000335 0.000130 -0.009275 0.000007
# 3 -0.005481 0.000335 0.009714 0.000191 -0.002239 0.000064
# 4 -0.000081 0.000130 0.000191 0.019745 -0.000259 0.044368
# 5 0.002573 -0.009275 -0.002239 -0.000259 0.032107 -0.000014
# 6 -0.000032 0.000007 0.000064 0.044368 -0.000014 -0.029990
#
#
# Mechanical properties :
#
#
# Convention : Reuss Voigt Hill
#
# Bulk Modulus (GPa) = 47.35118 55.40777 51.37948
# Shear Modulus (GPa) = 45.20967 20.12096 32.66532
#
# Velocity S-wave (km/s) = 4.55074 3.03592 3.86821
# Velocity P-wave (km/s) = 7.02158 6.13757 6.59440
#
# Compressibility (1/GPa) = 0.02111880
#
# Stress axis : x y z
#
# Youngs Moduli (GPa) = 44.66178 51.80736 102.94844
#
# Poissons Ratio (x) = 0.51798 0.56423
# Poissons Ratio (y) = 0.44654 -0.03449
# Poissons Ratio (z) = 0.24478 -0.01736
#
# Static dielectric constant tensor:
#      x y z
#    x 1.845220 0.000000 -0.044920 
#    y 0.000000 1.892850 -0.000030 
#    z -0.044920 -0.000030 1.956160 
# 
# From -- ./inp_files/51686.got.cif
#   From: 2010.05.17/outbox.cif.g08.bks.cpg/sg5_26_cif.got.tgz:51686.got - 2010.06.03 18:56:24.
