data_PCOD9124810
_publ_section_title
;
Structure prediction by ZEFSAII (Michael W. Deem and Ramdas Pophale) SiO2 
 PCOD9124810
Probable space group: C 2
;
_chemical_formula_sum "Si O2"
_cell_formula_units_Z 30
_cell_length_a 16.202072
_cell_length_b 9.480771
_cell_length_c 19.848716
_cell_angle_alpha 90.000000
_cell_angle_beta 149.055145
_cell_angle_gamma 90.000000
_cell_volume 1567.796007
_symmetry_space_group_name_H-M "C 2"
_symmetry_group_IT_number 5
_symmetry_cell_setting 'monoclinic'
loop_
_space_group_symop_operation_xyz
x,y,z
-x,y,-z
1/2+x,1/2+y,z
1/2-x,1/2+y,-z
loop_
_atom_site_type_symbol
_atom_site_label
_atom_site_fract_x
_atom_site_fract_y
_atom_site_fract_z
Si Si1 0.959123 0.471550 0.080601
Si Si2 0.406998 0.559973 0.192679
Si Si3 0.056143 0.553232 0.774586
Si Si4 0.399283 0.657908 0.034286
Si Si5 0.000000 0.923869 0.000000
Si Si6 0.696466 0.223545 0.226888
Si Si7 0.512607 0.801028 0.644929
Si Si8 0.350148 0.305113 0.652662
O O1 0.952654 0.478484 0.158156
O O2 0.975143 0.308903 0.070821
O O3 0.104678 0.573136 0.159709
O O4 0.783601 0.525696 0.933125
O O5 0.424153 0.622726 0.129713
O O6 0.466212 0.675578 0.286658
O O7 0.522072 0.424266 0.277952
O O8 0.071089 0.441925 0.725099
O O9 0.904277 0.654463 0.660769
O O10 0.209118 0.656436 0.887057
O O11 0.459866 0.527626 0.032847
O O12 0.132279 0.818222 0.120749
O O13 0.646415 0.286678 0.263933
O O14 0.885600 0.242784 0.347452
O O15 0.330244 0.832273 0.496796
#
# Coordination Sequence:
#
# PCOD9124810 Si02
#       8
#     4   4   4   4   2   4   4   4
#     4  10  22  39  63  89 131 154 200 276 325 364
#     4  11  22  38  64  94 121 164 218 257 320 366
#     4  10  21  38  63  92 120 162 213 258 315 369
#     4  11  21  38  62  93 126 158 202 273 320 374
#     4  12  22  36  64  90 124 156 208 260 316 378
#     4  11  24  40  62  96 124 165 210 258 321 375
#     4  12  23  40  64  92 126 173 215 254 304 389
#     4  11  23  42  62  90 131 171 211 256 306 382
#
# _framework density 19.135141000000001
#
# number of rings (size 3 to 8) (size 9 to 14) (size 15 to 20)
#    0.000    1.067    5.333    2.000    0.000    1.600 
#    0.000    0.000    0.000    0.000    3.467    0.000 
#    0.000    0.000    0.000    0.000    0.000    0.000 
#
# Total GULP energy -83698.343867 kJ/mol
# GULP energy per Si atom -5579.889591 kJ/mol
# Density = 1.909159 g / cm^3
# Si number density = 19.135141 Si / 1000 Ang^3
#
#
#
# Elastic Constant Matrix: (Units=GPa)
#
#
# Indices 1 2 3 4 5 6 
#
# 1 57.5599 23.5718 -4.7111 0.0000 5.6844 0.0000
# 2 23.5718 106.4002 21.4543 0.0000 -2.5909 0.0000
# 3 -4.7111 21.4543 62.6954 0.0001 7.2167 0.0000
# 4 0.0000 0.0000 0.0001 22.0793 0.0000 -1.9120
# 5 5.6844 -2.5909 7.2167 0.0000 21.6343 0.0000
# 6 0.0000 0.0000 0.0000 -1.9120 0.0000 34.8716
#
#
#
# Elastic Compliance Matrix: (Units=1/GPa)
#
#
# Indices 1 2 3 4 5 6 
#
# 1 0.020809 -0.005679 0.004383 0.000000 -0.007610 0.000000
# 2 -0.005679 0.011772 -0.004980 0.000000 0.004563 0.000000
# 3 0.004383 -0.004980 0.018911 0.000000 -0.008056 0.000000
# 4 0.000000 0.000000 0.000000 0.045507 0.000000 0.002495
# 5 -0.007610 0.004563 -0.008056 0.000000 0.051456 0.000000
# 6 0.000000 0.000000 0.000000 0.002495 0.000000 0.028813
#
#
# Mechanical properties :
#
#
# Convention : Reuss Voigt Hill
#
# Bulk Modulus (GPa) = 25.68108 34.14283 29.91195
# Shear Modulus (GPa) = 24.65457 28.13973 26.39715
#
# Velocity S-wave (km/s) = 3.59339 3.83897 3.71821
# Velocity P-wave (km/s) = 5.53774 6.12634 5.83946
#
# Compressibility (1/GPa) = 0.03893918
#
# Stress axis : x y z
#
# Youngs Moduli (GPa) = 48.05582 84.94753 52.87904
#
# Poissons Ratio (x) = 0.48243 -0.23177
# Poissons Ratio (y) = 0.27291 0.26336
# Poissons Ratio (z) = -0.21063 0.42307
#
# Static dielectric constant tensor:
#      x y z
#    x 1.715580 0.000000 0.043090 
#    y 0.000000 1.659820 0.000000 
#    z 0.043090 0.000000 1.678400 
# 
# From -- ./inp_files/66598.got.cif
#   From: 2010.05.17/outbox.cif.g08.bks.cpg/sg5_34_cif.got.tgz:66598.got - 2010.06.03 18:56:24.
