data_PCOD9124249
_publ_section_title
;
Structure prediction by ZEFSAII (Michael W. Deem and Ramdas Pophale) SiO2 
 PCOD9124249
Probable space group: C 2
;
_chemical_formula_sum "Si O2"
_cell_formula_units_Z 26
_cell_length_a 22.006380
_cell_length_b 7.613332
_cell_length_c 9.439429
_cell_angle_alpha 90.000000
_cell_angle_beta 126.709652
_cell_angle_gamma 90.000000
_cell_volume 1267.848667
_symmetry_space_group_name_H-M "C 2"
_symmetry_group_IT_number 5
_symmetry_cell_setting 'monoclinic'
loop_
_space_group_symop_operation_xyz
x,y,z
-x,y,-z
1/2+x,1/2+y,z
1/2-x,1/2+y,-z
loop_
_atom_site_type_symbol
_atom_site_label
_atom_site_fract_x
_atom_site_fract_y
_atom_site_fract_z
Si Si1 0.565988 0.682640 0.369417
Si Si2 0.146977 0.492200 0.080085
Si Si3 0.745555 0.771885 0.611644
Si Si4 0.500000 0.837202 0.000000
Si Si5 0.500000 0.913421 0.500000
Si Si6 0.124663 0.665970 0.748356
Si Si7 0.756411 0.176847 0.713484
Si Si8 0.000000 0.922446 0.500000
O O1 0.655064 0.733933 0.505307
O O2 0.504098 0.804348 0.363650
O O3 0.550618 0.514470 0.447400
O O4 0.541210 0.711129 0.172913
O O5 0.202214 0.620768 0.246445
O O6 0.174894 0.290586 0.128805
O O7 0.148794 0.577204 0.927614
O O8 0.062555 0.469529 0.021983
O O9 0.760789 0.759543 0.464582
O O10 0.764373 0.966686 0.698810
O O11 0.575368 0.023237 0.597031
O O12 0.192371 0.712858 0.740193
O O13 0.063084 0.818732 0.678512
#
# Coordination Sequence:
#
# PCOD9124249 Si02
#       8
#     4   4   4   2   2   4   4   2
#     4  11  22  46  73 104 142 188 247 298 366 439
#     4  12  28  46  71 109 146 195 251 307 367 439
#     4  12  25  47  73 106 146 198 245 305 368 446
#     4  12  24  48  76 104 152 186 246 320 364 424
#     4  10  20  42  72  90 140 190 228 296 360 428
#     4  11  25  45  67 104 144 188 243 300 362 441
#     4  12  25  45  73 102 147 193 243 297 376 433
#     4  10  26  44  76 104 140 198 244 296 380 436
#
# _framework density 20.507180000000002
#
# number of rings (size 3 to 8) (size 9 to 14) (size 15 to 20)
#    0.000    0.615    6.154    0.923    2.154    1.231 
#    0.000    0.769    0.000    0.000    0.000    0.000 
#    0.000    0.000    0.000    0.000    0.000    0.000 
#
# Total GULP energy -72411.135761 kJ/mol
# GULP energy per Si atom -5570.087366 kJ/mol
# Density = 2.046050 g / cm^3
# Si number density = 20.507180 Si / 1000 Ang^3
#
#
#
# Elastic Constant Matrix: (Units=GPa)
#
#
# Indices 1 2 3 4 5 6 
#
# 1 156.1244 38.0771 38.4087 0.0000 3.7707 0.0000
# 2 38.0771 96.0472 36.8876 0.0000 6.3181 0.0000
# 3 38.4087 36.8876 77.8348 0.0000 -5.9829 0.0000
# 4 0.0000 0.0000 0.0000 45.1206 0.0000 -3.9187
# 5 3.7707 6.3181 -5.9829 0.0000 35.0534 0.0000
# 6 0.0000 0.0000 0.0000 -3.9187 0.0000 29.9283
#
#
#
# Elastic Compliance Matrix: (Units=1/GPa)
#
#
# Indices 1 2 3 4 5 6 
#
# 1 0.007601 -0.001806 -0.002971 0.000000 -0.000999 0.000000
# 2 -0.001806 0.013562 -0.005785 0.000000 -0.003238 0.000000
# 3 -0.002971 -0.005785 0.017389 0.000000 0.004330 0.000000
# 4 0.000000 0.000000 0.000000 0.022418 0.000000 0.002935
# 5 -0.000999 -0.003238 0.004330 0.000000 0.029958 0.000000
# 6 0.000000 0.000000 0.000000 0.002935 0.000000 0.033798
#
#
# Mechanical properties :
#
#
# Convention : Reuss Voigt Hill
#
# Bulk Modulus (GPa) = 57.38520 61.86148 59.62334
# Shear Modulus (GPa) = 32.96859 36.46266 34.71562
#
# Velocity S-wave (km/s) = 4.01391 4.22126 4.11889
# Velocity P-wave (km/s) = 7.03745 7.34779 7.19429
#
# Compressibility (1/GPa) = 0.01742610
#
# Stress axis : x y z
#
# Youngs Moduli (GPa) = 131.56411 73.73324 57.50915
#
# Poissons Ratio (x) = 0.13319 0.17089
# Poissons Ratio (y) = 0.23765 0.33269
# Poissons Ratio (z) = 0.39094 0.42655
#
# Static dielectric constant tensor:
#      x y z
#    x 1.577180 0.000000 0.014810 
#    y 0.000000 1.810300 0.000000 
#    z 0.014810 0.000000 1.744350 
# 
# From -- ./inp_files/29043.got.cif
#   From: 2010.05.17/outbox.cif.g08.bks.cpg/sg5_15_cif.got.tgz:29043.got - 2010.06.03 18:56:24.
