data_PCOD9124958
_publ_section_title
;
Structure prediction by ZEFSAII (Michael W. Deem and Ramdas Pophale) SiO2 
 PCOD9124958
Probable space group: C 2
;
_chemical_formula_sum "Si O2"
_cell_formula_units_Z 28
_cell_length_a 14.192717
_cell_length_b 10.603741
_cell_length_c 9.755083
_cell_angle_alpha 90.000000
_cell_angle_beta 62.616327
_cell_angle_gamma 90.000000
_cell_volume 1303.594193
_symmetry_space_group_name_H-M "C 2"
_symmetry_group_IT_number 5
_symmetry_cell_setting 'monoclinic'
loop_
_space_group_symop_operation_xyz
x,y,z
-x,y,-z
1/2+x,1/2+y,z
1/2-x,1/2+y,-z
loop_
_atom_site_type_symbol
_atom_site_label
_atom_site_fract_x
_atom_site_fract_y
_atom_site_fract_z
Si Si1 0.939972 0.493260 0.256478
Si Si2 0.004860 0.754089 0.144731
Si Si3 0.746693 0.167812 0.000298
Si Si4 0.317897 0.918710 0.844099
Si Si5 0.266670 0.035345 0.582885
Si Si6 0.717831 0.782022 0.738700
Si Si7 0.908080 0.894797 0.473690
O O1 0.881625 0.531532 0.436295
O O2 0.867442 0.389867 0.230925
O O3 0.940707 0.623064 0.171274
O O4 0.058036 0.443538 0.207854
O O5 0.124480 0.710222 0.090207
O O6 0.960512 0.822351 0.309306
O O7 0.000000 0.823467 0.000000
O O8 0.800564 0.217560 0.103523
O O9 0.744469 0.014053 0.005962
O O10 0.794786 0.268675 0.861103
O O11 0.282056 0.972759 0.721000
O O12 0.213122 0.171423 0.631225
O O13 0.187147 0.965730 0.535735
O O14 0.841130 0.820074 0.634679
O O15 0.000000 0.961848 0.500000
#
# Coordination Sequence:
#
# PCOD9124958 Si02
#       7
#     4   4   4   4   4   4   4
#     4  10  22  37  66  92 124 165 212 259 322 380
#     4  11  22  37  64  95 123 164 213 261 313 377
#     4  10  22  39  62  93 129 168 214 262 319 383
#     4  10  22  41  64  95 131 169 216 267 323 379
#     4  10  21  41  64  92 124 165 212 265 317 382
#     4  10  21  39  62  91 126 165 212 259 319 382
#     4  11  21  40  64  90 123 163 213 258 316 379
#
# _framework density 21.479078000000001
#
# number of rings (size 3 to 8) (size 9 to 14) (size 15 to 20)
#    0.000    1.714    2.857    1.286    4.000    0.000 
#    2.571    2.857    0.000    0.000    0.000    0.000 
#    0.000    0.000    0.000    0.000    0.000    0.000 
#
# Total GULP energy -77971.656201 kJ/mol
# GULP energy per Si atom -5569.404014 kJ/mol
# Density = 2.143019 g / cm^3
# Si number density = 21.479078 Si / 1000 Ang^3
#
#
#
# Elastic Constant Matrix: (Units=GPa)
#
#
# Indices 1 2 3 4 5 6 
#
# 1 76.3664 18.8359 24.1358 0.0000 3.4179 0.0000
# 2 18.8359 40.5641 23.1495 0.0000 0.7376 0.0000
# 3 24.1358 23.1495 50.2026 0.0000 -2.5900 0.0000
# 4 0.0000 0.0000 0.0000 23.4811 0.0000 -3.5203
# 5 3.4179 0.7376 -2.5900 0.0000 21.6862 0.0000
# 6 0.0000 0.0000 0.0000 -3.5203 0.0000 22.9895
#
#
#
# Elastic Compliance Matrix: (Units=1/GPa)
#
#
# Indices 1 2 3 4 5 6 
#
# 1 0.016138 -0.003958 -0.006095 0.000000 -0.003137 0.000000
# 2 -0.003958 0.034622 -0.014178 0.000000 -0.002247 0.000000
# 3 -0.006095 -0.014178 0.029645 0.000000 0.004983 0.000000
# 4 0.000000 0.000000 0.000000 0.043588 0.000000 0.006674
# 5 -0.003137 -0.002247 0.004983 0.000000 0.047278 0.000000
# 6 0.000000 0.000000 0.000000 0.006674 0.000000 0.044520
#
#
# Mechanical properties :
#
#
# Convention : Reuss Voigt Hill
#
# Bulk Modulus (GPa) = 31.30678 33.26396 32.28537
# Shear Modulus (GPa) = 18.18835 20.36550 19.27693
#
# Velocity S-wave (km/s) = 2.91313 3.08255 2.99904
# Velocity P-wave (km/s) = 5.09139 5.30941 5.20154
#
# Compressibility (1/GPa) = 0.03194197
#
# Stress axis : x y z
#
# Youngs Moduli (GPa) = 61.96618 28.88305 33.73301
#
# Poissons Ratio (x) = 0.11432 0.20561
# Poissons Ratio (y) = 0.24527 0.47827
# Poissons Ratio (z) = 0.37770 0.40951
#
# Static dielectric constant tensor:
#      x y z
#    x 1.773660 0.000000 0.012070 
#    y 0.000000 1.851170 0.000000 
#    z 0.012070 0.000000 1.848860 
# 
# From -- ./inp_files/23794.got.cif
#   From: 2010.05.17/outbox.cif.g08.bks.cpg/sg5_12_cif.got.tgz:23794.got - 2010.06.03 18:56:24.
