data_PCOD9124642
_publ_section_title
;
Structure prediction by ZEFSAII (Michael W. Deem and Ramdas Pophale) SiO2 
 PCOD9124642
Probable space group: C 2
;
_chemical_formula_sum "Si O2"
_cell_formula_units_Z 30
_cell_length_a 25.023887
_cell_length_b 8.355530
_cell_length_c 14.005468
_cell_angle_alpha 90.000000
_cell_angle_beta 27.974299
_cell_angle_gamma 90.000000
_cell_volume 1373.627910
_symmetry_space_group_name_H-M "C 2"
_symmetry_group_IT_number 5
_symmetry_cell_setting 'monoclinic'
loop_
_space_group_symop_operation_xyz
x,y,z
-x,y,-z
1/2+x,1/2+y,z
1/2-x,1/2+y,-z
loop_
_atom_site_type_symbol
_atom_site_label
_atom_site_fract_x
_atom_site_fract_y
_atom_site_fract_z
Si Si1 0.152332 0.320200 0.682589
Si Si2 0.885402 0.813276 0.054929
Si Si3 0.288006 0.818031 0.036468
Si Si4 0.089763 0.833717 0.489473
Si Si5 0.500000 0.068794 0.000000
Si Si6 0.642191 0.166440 0.109895
Si Si7 0.794813 0.139624 0.214072
Si Si8 0.613765 0.498553 0.641313
O O1 0.140161 0.229407 0.804277
O O2 0.275757 0.402887 0.494519
O O3 0.132162 0.182121 0.638747
O O4 0.060129 0.460381 0.825859
O O5 0.855076 0.738219 0.000850
O O6 0.004037 0.912862 0.860762
O O7 0.904228 0.675482 0.101491
O O8 0.798655 0.951267 0.218700
O O9 0.169544 0.877812 0.274265
O O10 0.249584 0.717155 0.005358
O O11 0.336852 0.703418 0.043683
O O12 0.359709 0.974188 0.896086
O O13 0.164859 0.696572 0.422890
O O14 0.093338 0.975354 0.560613
O O15 0.967942 0.752323 0.668969
#
# Coordination Sequence:
#
# PCOD9124642 Si02
#       8
#     4   4   4   4   2   4   4   4
#     4  11  21  39  58  87 123 168 207 265 310 388
#     4  11  22  38  60  93 120 169 210 262 312 389
#     4  10  21  40  68  94 125 170 205 273 321 383
#     4   8  21  40  66  90 128 165 204 275 316 386
#     4  12  24  36  60  86 130 170 212 258 322 370
#     4  11  21  39  68  90 128 166 217 257 331 378
#     4   9  20  39  62  87 126 158 208 266 320 370
#     4  10  21  37  60  86 123 164 213 255 325 369
#
# _framework density 21.839974999999999
#
# number of rings (size 3 to 8) (size 9 to 14) (size 15 to 20)
#    0.800    1.067    0.000    4.400    0.000    0.000 
#    0.000    1.333    5.867    0.000    0.000    0.000 
#    0.000    0.000    0.000    0.000    0.000    0.000 
#
# Total GULP energy -83746.364171 kJ/mol
# GULP energy per Si atom -5583.090945 kJ/mol
# Density = 2.179027 g / cm^3
# Si number density = 21.839975 Si / 1000 Ang^3
#
#
#
# Elastic Constant Matrix: (Units=GPa)
#
#
# Indices 1 2 3 4 5 6 
#
# 1 78.7486 41.6552 8.9497 0.0000 1.5354 0.0000
# 2 41.6552 118.4500 6.9614 0.0000 -1.3459 0.0000
# 3 8.9497 6.9614 25.5454 0.0000 -1.3263 0.0000
# 4 0.0000 0.0000 0.0000 24.9413 0.0000 0.0254
# 5 1.5354 -1.3459 -1.3263 0.0000 20.0687 0.0000
# 6 0.0000 0.0000 0.0000 0.0254 0.0000 33.7350
#
#
#
# Elastic Compliance Matrix: (Units=1/GPa)
#
#
# Indices 1 2 3 4 5 6 
#
# 1 0.016091 -0.005430 -0.004255 0.000000 -0.001876 0.000000
# 2 -0.005430 0.010416 -0.000881 0.000000 0.001056 0.000000
# 3 -0.004255 -0.000881 0.041032 0.000000 0.002978 0.000000
# 4 0.000000 0.000000 0.000000 0.040094 0.000000 -0.000030
# 5 -0.001876 0.001056 0.002978 0.000000 0.050240 0.000000
# 6 0.000000 0.000000 0.000000 -0.000030 0.000000 0.029643
#
#
# Mechanical properties :
#
#
# Convention : Reuss Voigt Hill
#
# Bulk Modulus (GPa) = 21.54910 37.54186 29.54548
# Shear Modulus (GPa) = 22.30982 26.76085 24.53533
#
# Velocity S-wave (km/s) = 3.19958 3.50425 3.35537
# Velocity P-wave (km/s) = 4.85160 5.79654 5.34499
#
# Compressibility (1/GPa) = 0.04640565
#
# Stress axis : x y z
#
# Youngs Moduli (GPa) = 62.14614 96.00869 24.37151
#
# Poissons Ratio (x) = 0.52133 0.10370
# Poissons Ratio (y) = 0.33745 0.02148
# Poissons Ratio (z) = 0.26444 0.08460
#
# Static dielectric constant tensor:
#      x y z
#    x 1.790550 0.000000 0.013620 
#    y 0.000000 1.777560 0.000000 
#    z 0.013620 0.000000 1.854540 
# 
# From -- ./inp_files/57606.got.cif
#   From: 2010.05.17/outbox.cif.g08.bks.cpg/sg5_29_cif.got.tgz:57606.got - 2010.06.03 18:56:24.
