data_PCOD9124929
_publ_section_title
;
Structure prediction by ZEFSAII (Michael W. Deem and Ramdas Pophale) SiO2 
 PCOD9124929
Probable space group: C 2
;
_chemical_formula_sum "Si O2"
_cell_formula_units_Z 28
_cell_length_a 9.269637
_cell_length_b 32.129530
_cell_length_c 5.007021
_cell_angle_alpha 90.000000
_cell_angle_beta 116.725885
_cell_angle_gamma 90.000000
_cell_volume 1331.925139
_symmetry_space_group_name_H-M "C 2"
_symmetry_group_IT_number 5
_symmetry_cell_setting 'monoclinic'
loop_
_space_group_symop_operation_xyz
x,y,z
-x,y,-z
1/2+x,1/2+y,z
1/2-x,1/2+y,-z
loop_
_atom_site_type_symbol
_atom_site_label
_atom_site_fract_x
_atom_site_fract_y
_atom_site_fract_z
Si Si1 0.810160 0.975010 0.380218
Si Si2 0.322831 0.931058 0.226876
Si Si3 0.882142 0.206790 0.659740
Si Si4 0.192018 0.566512 0.119492
Si Si5 0.679540 0.614072 0.272739
Si Si6 0.804831 0.838016 0.837171
Si Si7 0.694180 0.286996 0.653178
O O1 0.772430 0.962571 0.653704
O O2 0.000000 0.967352 0.500000
O O3 0.766516 0.021447 0.247093
O O4 0.702260 0.946942 0.093870
O O5 0.500000 0.931271 0.500000
O O6 0.257403 0.884188 0.169676
O O7 0.795230 0.163399 0.664032
O O8 0.758762 0.244887 0.572184
O O9 0.000000 0.202403 0.500000
O O10 0.000000 0.216454 0.000000
O O11 0.285030 0.595520 0.408337
O O12 0.217112 0.587175 0.850592
O O13 0.000000 0.564358 0.000000
O O14 0.500000 0.610082 0.000000
O O15 0.753279 0.823318 0.503058
O O16 0.753050 0.803107 0.010928
O O17 0.000000 0.839304 0.000000
O O18 0.500000 0.284152 0.500000
#
# Coordination Sequence:
#
# PCOD9124929 Si02
#       7
#     4   4   4   4   4   4   4
#     4  12  25  44  67  92 126 172 212 254 316 387
#     4  12  25  42  65  96 129 164 211 269 316 367
#     4  11  23  41  64  92 125 164 209 261 314 375
#     4  12  25  42  65  96 128 162 210 269 317 368
#     4  11  23  43  65  91 127 170 211 254 316 388
#     4  10  21  39  61  89 124 167 210 255 313 381
#     4  10  22  39  62  90 124 163 210 260 311 372
#
# _framework density 21.022203999999999
#
# number of rings (size 3 to 8) (size 9 to 14) (size 15 to 20)
#    0.000    0.857    0.000    8.571    0.000    4.000 
#    0.000    1.429    0.000    0.000    0.000    0.000 
#    0.000    0.000    0.000    0.000    0.000    0.000 
#
# Total GULP energy -78183.852756 kJ/mol
# GULP energy per Si atom -5584.560911 kJ/mol
# Density = 2.097436 g / cm^3
# Si number density = 21.022204 Si / 1000 Ang^3
#
#
#
# Elastic Constant Matrix: (Units=GPa)
#
#
# Indices 1 2 3 4 5 6 
#
# 1 47.7521 12.7529 0.4523 0.0000 -13.7027 0.0000
# 2 12.7529 78.6185 4.0139 0.0000 4.4178 0.0000
# 3 0.4523 4.0139 56.6984 0.0000 -5.1371 0.0000
# 4 0.0000 0.0000 0.0000 41.4319 0.0000 -0.9878
# 5 -13.7027 4.4178 -5.1371 0.0000 31.6201 0.0000
# 6 0.0000 0.0000 0.0000 -0.9878 0.0000 26.7568
#
#
#
# Elastic Compliance Matrix: (Units=1/GPa)
#
#
# Indices 1 2 3 4 5 6 
#
# 1 0.025688 -0.004905 0.001231 0.000000 0.012017 0.000000
# 2 -0.004905 0.013823 -0.001327 0.000000 -0.004272 0.000000
# 3 0.001231 -0.001327 0.018052 0.000000 0.003652 0.000000
# 4 0.000000 0.000000 0.000000 0.024157 0.000000 0.000892
# 5 0.012017 -0.004272 0.003652 0.000000 0.038023 0.000000
# 6 0.000000 0.000000 0.000000 0.000892 0.000000 0.037407
#
#
# Mechanical properties :
#
#
# Convention : Reuss Voigt Hill
#
# Bulk Modulus (GPa) = 21.02499 24.16749 22.59624
# Shear Modulus (GPa) = 27.32150 31.01841 29.16995
#
# Velocity S-wave (km/s) = 3.60898 3.84540 3.72906
# Velocity P-wave (km/s) = 5.23348 5.58903 5.41417
#
# Compressibility (1/GPa) = 0.04756245
#
# Stress axis : x y z
#
# Youngs Moduli (GPa) = 38.92829 72.34248 55.39512
#
# Poissons Ratio (x) = 0.35485 -0.06820
# Poissons Ratio (y) = 0.19095 0.07349
# Poissons Ratio (z) = -0.04793 0.09597
#
# Static dielectric constant tensor:
#      x y z
#    x 1.753500 0.000000 -0.015150 
#    y 0.000000 1.756020 0.000000 
#    z -0.015150 0.000000 1.697080 
# 
# From -- ./inp_files/3980.got.cif
#   From: 2010.05.17/outbox.cif.g08.bks.cpg/sg5_2_cif.got.tgz:3980.got - 2010.06.03 18:56:24.
