data_PCOD9124409
_publ_section_title
;
Structure prediction by ZEFSAII (Michael W. Deem and Ramdas Pophale) SiO2 
 PCOD9124409
Probable space group: C 2
;
_chemical_formula_sum "Si O2"
_cell_formula_units_Z 24
_cell_length_a 8.195080
_cell_length_b 19.655679
_cell_length_c 8.874085
_cell_angle_alpha 90.000000
_cell_angle_beta 127.386061
_cell_angle_gamma 90.000000
_cell_volume 1135.776349
_symmetry_space_group_name_H-M "C 2"
_symmetry_group_IT_number 5
_symmetry_cell_setting 'monoclinic'
loop_
_space_group_symop_operation_xyz
x,y,z
-x,y,-z
1/2+x,1/2+y,z
1/2-x,1/2+y,-z
loop_
_atom_site_type_symbol
_atom_site_label
_atom_site_fract_x
_atom_site_fract_y
_atom_site_fract_z
Si Si1 0.000000 0.557150 0.500000
Si Si2 0.280547 0.476225 0.427917
Si Si3 0.609365 0.136345 0.851034
Si Si4 0.000000 0.521586 0.000000
Si Si5 0.578376 0.327663 0.388070
Si Si6 0.690945 0.776818 0.006665
Si Si7 0.800549 0.223451 0.323687
O O1 0.834125 0.513614 0.500088
O O2 0.902727 0.604131 0.318984
O O3 0.500000 0.506701 0.500000
O O4 0.336684 0.401116 0.519373
O O5 0.131025 0.480042 0.197385
O O6 0.643514 0.073437 0.983837
O O7 0.763323 0.198540 0.925487
O O8 0.394494 0.172757 0.782445
O O9 0.500000 0.295583 0.500000
O O10 0.387683 0.322552 0.164396
O O11 0.752646 0.281232 0.418177
O O12 0.500000 0.800985 0.000000
O O13 0.672843 0.764886 0.817361
O O14 0.000000 0.186156 0.500000
#
# Coordination Sequence:
#
# PCOD9124409 Si02
#       7
#     2   4   4   2   4   4   4
#     4  10  24  40  72  98 140 184 232 294 344 418
#     4  10  24  47  69  99 138 192 237 286 343 410
#     4  10  21  40  64  99 140 169 228 292 339 429
#     4  10  20  46  70  96 140 180 240 284 346 412
#     4  10  22  44  64  96 140 175 236 285 338 424
#     4  11  23  40  66 106 137 180 228 286 368 419
#     4  11  23  39  66 101 138 185 223 288 366 416
#
# _framework density 21.130921000000001
#
# number of rings (size 3 to 8) (size 9 to 14) (size 15 to 20)
#    0.000    1.667    1.667    2.500    8.167    4.000 
#   12.000    9.167    0.000    0.000    0.000    0.000 
#    0.000    0.000    0.000    0.000    0.000    0.000 
#
# Total GULP energy -66928.378700 kJ/mol
# GULP energy per Si atom -5577.364892 kJ/mol
# Density = 2.108283 g / cm^3
# Si number density = 21.130921 Si / 1000 Ang^3
#
#
#
# Elastic Constant Matrix: (Units=GPa)
#
#
# Indices 1 2 3 4 5 6 
#
# 1 115.1667 31.2222 50.6129 0.0000 -14.2171 0.0000
# 2 31.2222 89.1693 50.0195 0.0000 -7.8843 0.0000
# 3 50.6129 50.0195 135.8660 0.0000 -18.4944 0.0000
# 4 0.0000 0.0000 0.0000 28.5774 0.0000 -13.4785
# 5 -14.2171 -7.8843 -18.4944 0.0000 48.0637 0.0000
# 6 0.0000 0.0000 0.0000 -13.4785 0.0000 -9.0469
#
#
#
# Elastic Compliance Matrix: (Units=1/GPa)
#
#
# Indices 1 2 3 4 5 6 
#
# 1 0.010758 -0.001888 -0.003083 0.000000 0.001686 0.000000
# 2 -0.001888 0.014470 -0.004619 0.000000 0.000038 0.000000
# 3 -0.003083 -0.004619 0.010533 0.000000 0.002384 0.000000
# 4 0.000000 0.000000 0.000000 0.020552 0.000000 -0.030618
# 5 0.001686 0.000038 0.002384 0.000000 0.022228 0.000000
# 6 0.000000 0.000000 0.000000 -0.030618 0.000000 -0.064918
#
#
# Mechanical properties :
#
#
# Convention : Reuss Voigt Hill
#
# Bulk Modulus (GPa) = 60.30717 67.10125 63.70421
# Shear Modulus (GPa) = 130.44720 27.40866 78.92793
#
# Velocity S-wave (km/s) = 7.86555 3.60542 6.11825
# Velocity P-wave (km/s) = 10.53997 7.01113 8.95117
#
# Compressibility (1/GPa) = 0.01658178
#
# Stress axis : x y z
#
# Youngs Moduli (GPa) = 92.95395 69.10870 94.93619
#
# Poissons Ratio (x) = 0.13051 0.29267
# Poissons Ratio (y) = 0.17554 0.43846
# Poissons Ratio (z) = 0.28656 0.31918
#
# Static dielectric constant tensor:
#      x y z
#    x 1.756650 0.000000 0.028970 
#    y 0.000000 1.764390 0.000000 
#    z 0.028970 0.000000 1.852000 
# 
# From -- ./inp_files/16876.got.cif
#   From: 2010.05.17/outbox.cif.g08.bks.cpg/sg5_9_cif.got.tgz:16876.got - 2010.06.03 18:56:24.
