data_PCOD9124657
_publ_section_title
;
Structure prediction by ZEFSAII (Michael W. Deem and Ramdas Pophale) SiO2 
 PCOD9124657
Probable space group: C 2
;
_chemical_formula_sum "Si O2"
_cell_formula_units_Z 32
_cell_length_a 13.421925
_cell_length_b 7.553207
_cell_length_c 14.205839
_cell_angle_alpha 90.000000
_cell_angle_beta 105.839873
_cell_angle_gamma 90.000000
_cell_volume 1385.482104
_symmetry_space_group_name_H-M "C 2"
_symmetry_group_IT_number 5
_symmetry_cell_setting 'monoclinic'
loop_
_space_group_symop_operation_xyz
x,y,z
-x,y,-z
1/2+x,1/2+y,z
1/2-x,1/2+y,-z
loop_
_atom_site_type_symbol
_atom_site_label
_atom_site_fract_x
_atom_site_fract_y
_atom_site_fract_z
Si Si1 0.291799 0.086930 0.662806
Si Si2 0.098706 0.655936 0.670015
Si Si3 0.099947 0.242489 0.725479
Si Si4 0.404342 0.312537 0.821892
Si Si5 0.144874 0.750786 0.880266
Si Si6 0.218117 0.362426 0.921757
Si Si7 0.930119 0.965400 0.638665
Si Si8 0.293704 0.309068 0.473811
O O1 0.189166 0.137716 0.692972
O O2 0.379789 0.124593 0.763719
O O3 0.285716 0.221087 0.572879
O O4 0.294576 0.897972 0.612164
O O5 0.089365 0.448992 0.693150
O O6 0.160434 0.748725 0.771912
O O7 0.150598 0.676009 0.582478
O O8 0.998564 0.784769 0.642056
O O9 0.138292 0.236007 0.844599
O O10 0.999656 0.134887 0.672564
O O11 0.527758 0.317967 0.872602
O O12 0.323149 0.353493 0.883662
O O13 0.377066 0.441989 0.727395
O O14 0.156877 0.545532 0.909446
O O15 0.236990 0.835157 0.963117
O O16 0.865036 0.975089 0.526336
#
# Coordination Sequence:
#
# PCOD9124657 Si02
#       8
#     4   4   4   4   4   4   4   4
#     4  10  21  37  61  88 129 175 218 269 334 394
#     4  10  21  38  60  90 132 167 216 269 327 396
#     4  10  21  40  63  94 128 172 218 276 332 401
#     4   9  21  41  67  92 134 172 215 281 340 396
#     4  10  22  39  68  97 127 173 218 270 342 402
#     4  10  22  40  70  96 129 171 223 273 340 410
#     4  10  21  40  65  92 127 175 217 273 339 391
#     4  11  21  39  57  93 129 173 226 266 326 403
#
# _framework density 23.096653
#
# number of rings (size 3 to 8) (size 9 to 14) (size 15 to 20)
#    0.000    2.000    1.250    1.500    3.500    1.000 
#   13.500    0.000   13.750    0.000    0.000    0.000 
#    0.000    0.000    0.000    0.000    0.000    0.000 
#
# Total GULP energy -89150.160935 kJ/mol
# GULP energy per Si atom -5571.885058 kJ/mol
# Density = 2.304408 g / cm^3
# Si number density = 23.096653 Si / 1000 Ang^3
#
#
#
# Elastic Constant Matrix: (Units=GPa)
#
#
# Indices 1 2 3 4 5 6 
#
# 1 19.7305 13.5225 9.1261 0.0000 9.6211 0.0000
# 2 13.5225 57.9862 19.9289 0.0000 11.1249 0.0000
# 3 9.1261 19.9289 103.7191 0.0000 21.7591 0.0000
# 4 0.0000 0.0000 0.0000 42.2904 0.0000 9.3060
# 5 9.6211 11.1249 21.7591 0.0000 31.0196 0.0000
# 6 0.0000 0.0000 0.0000 9.3060 0.0000 18.7651
#
#
#
# Elastic Compliance Matrix: (Units=1/GPa)
#
#
# Indices 1 2 3 4 5 6 
#
# 1 0.067261 -0.012526 -0.000091 0.000000 -0.016306 0.000000
# 2 -0.012526 0.021441 -0.002602 0.000000 -0.001979 0.000000
# 3 -0.000091 -0.002602 0.011664 0.000000 -0.007221 0.000000
# 4 0.000000 0.000000 0.000000 0.026543 0.000000 -0.013163
# 5 -0.016306 -0.001979 -0.007221 0.000000 0.043070 0.000000
# 6 0.000000 0.000000 0.000000 -0.013163 0.000000 0.059818
#
#
# Mechanical properties :
#
#
# Convention : Reuss Voigt Hill
#
# Bulk Modulus (GPa) = 14.30042 29.62119 21.96081
# Shear Modulus (GPa) = 17.63400 27.67223 22.65312
#
# Velocity S-wave (km/s) = 2.76612 3.46512 3.13516
# Velocity P-wave (km/s) = 4.05055 5.37235 4.75758
#
# Compressibility (1/GPa) = 0.06992800
#
# Stress axis : x y z
#
# Youngs Moduli (GPa) = 14.86753 46.64052 85.73215
#
# Poissons Ratio (x) = 0.58421 0.00776
# Poissons Ratio (y) = 0.18623 0.22311
# Poissons Ratio (z) = 0.00135 0.12138
#
# Static dielectric constant tensor:
#      x y z
#    x 1.951240 0.000000 0.047380 
#    y 0.000000 1.994040 0.000000 
#    z 0.047380 0.000000 1.892210 
# 
# From -- ./inp_files/54203.got.cif
#   From: 2010.05.17/outbox.cif.g08.bks.cpg/sg5_28_cif.got.tgz:54203.got - 2010.06.03 18:56:24.
