data_PCOD9124759
_publ_section_title
;
Structure prediction by ZEFSAII (Michael W. Deem and Ramdas Pophale) SiO2 
 PCOD9124759
Probable space group: C 2
;
_chemical_formula_sum "Si O2"
_cell_formula_units_Z 30
_cell_length_a 8.574642
_cell_length_b 12.301996
_cell_length_c 16.133116
_cell_angle_alpha 90.000000
_cell_angle_beta 62.106960
_cell_angle_gamma 90.000000
_cell_volume 1504.093627
_symmetry_space_group_name_H-M "C 2"
_symmetry_group_IT_number 5
_symmetry_cell_setting 'monoclinic'
loop_
_space_group_symop_operation_xyz
x,y,z
-x,y,-z
1/2+x,1/2+y,z
1/2-x,1/2+y,-z
loop_
_atom_site_type_symbol
_atom_site_label
_atom_site_fract_x
_atom_site_fract_y
_atom_site_fract_z
Si Si1 0.854328 0.887880 0.918380
Si Si2 0.000000 0.363631 0.500000
Si Si3 0.358680 0.486340 0.740152
Si Si4 0.665276 0.678953 0.897351
Si Si5 0.083129 0.312453 0.754329
Si Si6 0.995387 0.186178 0.375950
Si Si7 0.366025 0.466604 0.458267
Si Si8 0.754033 0.935671 0.121801
O O1 0.842309 0.966928 0.841827
O O2 0.792970 0.768433 0.906329
O O3 0.054456 0.894456 0.898696
O O4 0.737209 0.922871 0.026270
O O5 0.926370 0.280790 0.587638
O O6 0.835572 0.427264 0.498881
O O7 0.207171 0.415657 0.736285
O O8 0.364766 0.610628 0.708056
O O9 0.538621 0.440293 0.653578
O O10 0.598778 0.734152 0.829561
O O11 0.755098 0.563653 0.857496
O O12 0.500000 0.658627 0.000000
O O13 0.124230 0.243707 0.663118
O O14 0.889131 0.362282 0.798316
O O15 0.880014 0.098434 0.455728
O O16 0.500000 0.430574 0.500000
#
# Coordination Sequence:
#
# PCOD9124759 Si02
#       8
#     4   2   4   4   4   4   4   4
#     4  10  21  38  60  90 123 170 211 268 316 364
#     4  12  24  44  78  96 128 182 210 262 354 396
#     4   9  22  42  61  92 133 159 210 275 311 383
#     4  11  21  38  59  84 122 167 214 266 320 364
#     4  11  23  40  64  90 126 174 209 261 327 377
#     4  10  23  42  66  98 132 164 210 276 322 389
#     4  10  23  48  66 101 137 162 219 276 319 409
#     4  11  23  37  62  88 127 167 223 263 306 392
#
# _framework density 19.945565999999999
#
# number of rings (size 3 to 8) (size 9 to 14) (size 15 to 20)
#    0.800    0.800    3.333    1.600    1.867    1.067 
#    6.000    4.000    0.000    0.000    0.000    0.000 
#    0.000    0.000    0.000    0.000    0.000    0.000 
#
# Total GULP energy -83577.879868 kJ/mol
# GULP energy per Si atom -5571.858658 kJ/mol
# Density = 1.990017 g / cm^3
# Si number density = 19.945566 Si / 1000 Ang^3
#
#
#
# Elastic Constant Matrix: (Units=GPa)
#
#
# Indices 1 2 3 4 5 6 
#
# 1 80.9767 52.0194 18.4065 0.0000 12.9136 0.0000
# 2 52.0194 101.5108 12.9217 0.0000 7.7185 0.0000
# 3 18.4065 12.9217 41.9466 0.0000 8.4191 0.0000
# 4 0.0000 0.0000 0.0000 50.3176 0.0000 -9.6593
# 5 12.9136 7.7185 8.4191 0.0000 26.2773 0.0000
# 6 0.0000 0.0000 0.0000 -9.6593 0.0000 23.1676
#
#
#
# Elastic Compliance Matrix: (Units=1/GPa)
#
#
# Indices 1 2 3 4 5 6 
#
# 1 0.020416 -0.009403 -0.004919 0.000000 -0.005695 0.000000
# 2 -0.009403 0.014698 -0.000494 0.000000 0.000462 0.000000
# 3 -0.004919 -0.000494 0.027398 0.000000 -0.006216 0.000000
# 4 0.000000 0.000000 0.000000 0.021603 0.000000 0.009007
# 5 -0.005695 0.000462 -0.006216 0.000000 0.042710 0.000000
# 6 0.000000 0.000000 0.000000 0.009007 0.000000 0.046919
#
#
# Mechanical properties :
#
#
# Convention : Reuss Voigt Hill
#
# Bulk Modulus (GPa) = 30.41443 43.45881 36.93662
# Shear Modulus (GPa) = 23.32784 29.35827 26.34305
#
# Velocity S-wave (km/s) = 3.42362 3.84072 3.63815
# Velocity P-wave (km/s) = 5.55968 6.44238 6.01723
#
# Compressibility (1/GPa) = 0.03287913
#
# Stress axis : x y z
#
# Youngs Moduli (GPa) = 48.98094 68.03856 36.49877
#
# Poissons Ratio (x) = 0.63977 0.17954
# Poissons Ratio (y) = 0.46057 0.01804
# Poissons Ratio (z) = 0.24094 0.03363
#
# Static dielectric constant tensor:
#      x y z
#    x 1.676310 0.000000 0.030490 
#    y 0.000000 1.697570 0.000000 
#    z 0.030490 0.000000 1.750550 
# 
# From -- ./inp_files/59579.got.cif
#   From: 2010.05.17/outbox.cif.g08.bks.cpg/sg5_30_cif.got.tgz:59579.got - 2010.06.03 18:56:24.
