data_PCOD9124313
_publ_section_title
;
Structure prediction by ZEFSAII (Michael W. Deem and Ramdas Pophale) SiO2 
 PCOD9124313
Probable space group: C 2
;
_chemical_formula_sum "Si O2"
_cell_formula_units_Z 16
_cell_length_a 6.707144
_cell_length_b 14.249837
_cell_length_c 7.266115
_cell_angle_alpha 90.000000
_cell_angle_beta 68.872759
_cell_angle_gamma 90.000000
_cell_volume 647.783792
_symmetry_space_group_name_H-M "C 2"
_symmetry_group_IT_number 5
_symmetry_cell_setting 'monoclinic'
loop_
_space_group_symop_operation_xyz
x,y,z
-x,y,-z
1/2+x,1/2+y,z
1/2-x,1/2+y,-z
loop_
_atom_site_type_symbol
_atom_site_label
_atom_site_fract_x
_atom_site_fract_y
_atom_site_fract_z
Si Si1 0.500000 0.040591 0.000000
Si Si2 0.500000 0.357792 0.000000
Si Si3 0.826557 0.203803 0.840685
Si Si4 0.763302 0.679214 0.561404
Si Si5 0.170903 0.468139 0.317058
O O1 0.708352 0.107988 0.935993
O O2 0.460618 0.983223 0.828441
O O3 0.304348 0.287901 0.024884
O O4 0.396480 0.421095 0.193512
O O5 0.789517 0.200521 0.632045
O O6 0.080963 0.210256 0.764693
O O7 0.781326 0.567265 0.598119
O O8 0.000000 0.719813 0.500000
O O9 0.000000 0.413383 0.500000
#
# Coordination Sequence:
#
# PCOD9124313 Si02
#       5
#     2   2   4   4   4
#     4  11  20  44  70 107 132 192 244 271 346 436
#     4  11  26  44  64 109 154 174 224 307 360 394
#     4  10  22  41  72 102 141 181 234 289 341 423
#     4  10  20  43  73  99 134 189 239 275 340 417
#     4  11  23  44  72 103 141 187 232 292 345 417
#
# _framework density 24.699601000000001
#
# number of rings (size 3 to 8) (size 9 to 14) (size 15 to 20)
#    0.000    1.500    5.000    1.500    3.500    0.000 
#    4.500    0.000    0.000    0.000    0.000    0.000 
#    0.000    0.000    0.000    0.000    0.000    0.000 
#
# Total GULP energy -44689.490468 kJ/mol
# GULP energy per Si atom -5586.186309 kJ/mol
# Density = 2.464338 g / cm^3
# Si number density = 24.699601 Si / 1000 Ang^3
#
#
#
# Elastic Constant Matrix: (Units=GPa)
#
#
# Indices 1 2 3 4 5 6 
#
# 1 95.6880 35.0072 61.9944 0.0000 -33.0161 0.0000
# 2 35.0072 74.7896 55.1001 0.0000 -9.7612 0.0000
# 3 61.9944 55.1001 184.2010 0.0000 -54.1419 0.0000
# 4 0.0000 0.0000 0.0000 37.2161 0.0000 -14.4208
# 5 -33.0161 -9.7612 -54.1419 0.0000 72.4149 0.0000
# 6 0.0000 0.0000 0.0000 -14.4208 0.0000 6.2292
#
#
#
# Elastic Compliance Matrix: (Units=1/GPa)
#
#
# Indices 1 2 3 4 5 6 
#
# 1 0.015330 -0.004832 -0.002373 0.000000 0.004564 0.000000
# 2 -0.004832 0.018892 -0.005029 0.000000 -0.003417 0.000000
# 3 -0.002373 -0.005029 0.009246 0.000000 0.005154 0.000000
# 4 0.000000 0.000000 0.000000 0.260990 0.000000 0.604199
# 5 0.004564 -0.003417 0.005154 0.000000 0.019283 0.000000
# 6 0.000000 0.000000 0.000000 0.604199 0.000000 1.559272
#
#
# Mechanical properties :
#
#
# Convention : Reuss Voigt Hill
#
# Bulk Modulus (GPa) = 52.62807 73.20912 62.91860
# Shear Modulus (GPa) = 2.61258 36.67719 19.64488
#
# Velocity S-wave (km/s) = 1.02958 3.85766 2.82326
# Velocity P-wave (km/s) = 4.77147 7.03891 6.01303
#
# Compressibility (1/GPa) = 0.01900127
#
# Stress axis : x y z
#
# Youngs Moduli (GPa) = 65.22951 52.93301 108.14907
#
# Poissons Ratio (x) = 0.25578 0.25659
# Poissons Ratio (y) = 0.31520 0.54389
# Poissons Ratio (z) = 0.15476 0.26620
#
# Static dielectric constant tensor:
#      x y z
#    x 2.150650 0.000000 -0.014100 
#    y 0.000000 2.014010 0.000000 
#    z -0.014100 0.000000 2.024550 
# 
# From -- ./inp_files/14521.got.cif
#   From: 2010.05.17/outbox.cif.g08.bks.cpg/sg5_8_cif.got.tgz:14521.got - 2010.06.03 18:56:24.
