data_PCOD9124584
_publ_section_title
;
Structure prediction by ZEFSAII (Michael W. Deem and Ramdas Pophale) SiO2 
 PCOD9124584
Probable space group: C 2
;
_chemical_formula_sum "Si O2"
_cell_formula_units_Z 32
_cell_length_a 14.662096
_cell_length_b 6.266477
_cell_length_c 24.225671
_cell_angle_alpha 90.000000
_cell_angle_beta 36.124453
_cell_angle_gamma 90.000000
_cell_volume 1312.228428
_symmetry_space_group_name_H-M "C 2"
_symmetry_group_IT_number 5
_symmetry_cell_setting 'monoclinic'
loop_
_space_group_symop_operation_xyz
x,y,z
-x,y,-z
1/2+x,1/2+y,z
1/2-x,1/2+y,-z
loop_
_atom_site_type_symbol
_atom_site_label
_atom_site_fract_x
_atom_site_fract_y
_atom_site_fract_z
Si Si1 0.697581 0.592980 0.011857
Si Si2 0.147010 0.091769 0.824575
Si Si3 0.334286 0.586710 0.382959
Si Si4 0.625997 0.728126 0.510843
Si Si5 0.329671 0.478081 0.786611
Si Si6 0.237859 0.391058 0.135160
Si Si7 0.786519 0.234803 0.694468
Si Si8 0.616127 0.000416 0.687134
O O1 0.721310 0.536314 0.936118
O O2 0.731542 0.339929 0.016296
O O3 0.521132 0.638770 0.115309
O O4 0.225174 0.281106 0.820722
O O5 0.133869 0.919167 0.880357
O O6 0.253102 0.978924 0.726893
O O7 0.360719 0.699174 0.429486
O O8 0.177237 0.460863 0.466549
O O9 0.485941 0.438027 0.299162
O O10 0.331879 0.754194 0.335083
O O11 0.447100 0.693462 0.584541
O O12 0.760702 0.587381 0.417695
O O13 0.279826 0.633429 0.861383
O O14 0.310224 0.618783 0.740880
O O15 0.065185 0.470371 0.238188
O O16 0.648802 0.130573 0.726813
#
# Coordination Sequence:
#
# PCOD9124584 Si02
#       8
#     4   4   4   4   4   4   4   4
#     4  12  30  51  80 116 158 199 249 318 391 459
#     4  11  24  46  76 104 144 194 244 312 373 465
#     4  10  21  36  65  97 133 186 244 303 360 443
#     4  11  21  37  63  97 134 187 248 303 367 437
#     4   9  22  41  71 103 139 187 244 303 376 446
#     4  10  24  46  74 107 142 193 253 302 378 456
#     4  10  24  40  63 101 146 188 243 309 376 444
#     4  11  22  41  65  96 147 187 244 307 374 443
#
# _framework density 24.385997
#
# number of rings (size 3 to 8) (size 9 to 14) (size 15 to 20)
#    0.000    1.500    1.250    3.000    8.750    1.000 
#    2.250    1.250    0.000    0.000    0.000    0.000 
#    0.000    0.000    0.000    0.000    0.000    0.000 
#
# Total GULP energy -89126.909455 kJ/mol
# GULP energy per Si atom -5570.431841 kJ/mol
# Density = 2.433049 g / cm^3
# Si number density = 24.385997 Si / 1000 Ang^3
#
#
#
# Elastic Constant Matrix: (Units=GPa)
#
#
# Indices 1 2 3 4 5 6 
#
# 1 68.4250 30.9090 -3.5393 0.0023 -7.8047 0.0117
# 2 30.9090 111.2361 30.3232 0.0029 -14.3559 0.0083
# 3 -3.5393 30.3232 59.3937 0.0029 -10.9361 0.0009
# 4 0.0023 0.0029 0.0029 26.4891 -0.0017 7.5181
# 5 -7.8047 -14.3559 -10.9361 -0.0017 35.8425 -0.0024
# 6 0.0117 0.0083 0.0009 7.5181 -0.0024 51.2931
#
#
#
# Elastic Compliance Matrix: (Units=1/GPa)
#
#
# Indices 1 2 3 4 5 6 
#
# 1 0.017815 -0.005817 0.004574 0.000000 0.002945 -0.000003
# 2 -0.005817 0.012597 -0.006444 0.000000 0.001813 -0.000001
# 3 0.004574 -0.006444 0.021304 -0.000002 0.004915 0.000000
# 4 0.000000 0.000000 -0.000002 0.039390 0.000001 -0.005773
# 5 0.002945 0.001813 0.004915 0.000001 0.030767 0.000000
# 6 -0.000003 -0.000001 0.000000 -0.005773 0.000000 0.020342
#
#
# Mechanical properties :
#
#
# Convention : Reuss Voigt Hill
#
# Bulk Modulus (GPa) = 27.51716 39.38228 33.44972
# Shear Modulus (GPa) = 29.46325 34.81574 32.13950
#
# Velocity S-wave (km/s) = 3.47969 3.78258 3.63429
# Velocity P-wave (km/s) = 5.23955 5.93817 5.59976
#
# Compressibility (1/GPa) = 0.03634096
#
# Stress axis : x y z
#
# Youngs Moduli (GPa) = 56.13383 79.38528 46.93874
#
# Poissons Ratio (x) = 0.46177 -0.21468
# Poissons Ratio (y) = 0.32652 0.30248
# Poissons Ratio (z) = -0.25673 0.51157
#
# Static dielectric constant tensor:
#      x y z
#    x 1.950150 -0.000010 0.033420 
#    y -0.000010 2.135900 0.000010 
#    z 0.033420 0.000010 1.915260 
# 
# From -- ./inp_files/72024.got.cif
#   From: 2010.05.17/outbox.cif.g08.bks.cpg/sg5_37_cif.got.tgz:72024.got - 2010.06.03 18:56:24.
