data_PCOD9124402
_publ_section_title
;
Structure prediction by ZEFSAII (Michael W. Deem and Ramdas Pophale) SiO2 
 PCOD9124402
Probable space group: C 2
;
_chemical_formula_sum "Si O2"
_cell_formula_units_Z 26
_cell_length_a 20.128114
_cell_length_b 7.284125
_cell_length_c 10.195703
_cell_angle_alpha 90.000000
_cell_angle_beta 131.467207
_cell_angle_gamma 90.000000
_cell_volume 1120.143281
_symmetry_space_group_name_H-M "C 2"
_symmetry_group_IT_number 5
_symmetry_cell_setting 'monoclinic'
loop_
_space_group_symop_operation_xyz
x,y,z
-x,y,-z
1/2+x,1/2+y,z
1/2-x,1/2+y,-z
loop_
_atom_site_type_symbol
_atom_site_label
_atom_site_fract_x
_atom_site_fract_y
_atom_site_fract_z
Si Si1 0.806490 0.034430 0.427783
Si Si2 0.809284 0.489232 0.246552
Si Si3 0.842538 0.454018 0.561996
Si Si4 0.787842 0.621940 0.934852
Si Si5 0.491702 0.423218 0.636511
Si Si6 0.024425 0.635983 0.883430
Si Si7 0.500000 0.787057 0.500000
O O1 0.831712 0.242325 0.503945
O O2 0.789140 0.020635 0.248724
O O3 0.720257 0.985713 0.396802
O O4 0.892954 0.916319 0.565949
O O5 0.803722 0.565413 0.385927
O O6 0.736675 0.328162 0.138410
O O7 0.910444 0.406620 0.376231
O O8 0.791131 0.607921 0.094875
O O9 0.943065 0.515080 0.722499
O O10 0.879747 0.542023 0.998773
O O11 0.500000 0.340733 0.500000
O O12 0.542964 0.307180 0.810331
O O13 0.509470 0.638765 0.631809
O O14 0.000000 0.688703 0.000000
#
# Coordination Sequence:
#
# PCOD9124402 Si02
#       7
#     4   4   4   4   4   4   2
#     4  11  23  45  69  92 136 172 221 268 328 392
#     4  11  25  42  70  94 134 168 225 266 332 384
#     4  11  23  45  67  94 129 182 215 265 334 399
#     4  11  25  42  66 100 131 165 220 286 317 381
#     4  10  23  42  71  91 129 177 221 257 330 394
#     4  12  26  43  64  97 135 169 221 276 328 383
#     4  10  20  46  68  92 128 178 216 260 318 410
#
# _framework density 23.211316
#
# number of rings (size 3 to 8) (size 9 to 14) (size 15 to 20)
#    0.462    0.615    4.615    1.846    8.615    1.231 
#    0.000    2.308    0.000    0.000    0.000    0.000 
#    0.000    0.000    0.000    0.000    0.000    0.000 
#
# Total GULP energy -72536.484491 kJ/mol
# GULP energy per Si atom -5579.729576 kJ/mol
# Density = 2.315849 g / cm^3
# Si number density = 23.211316 Si / 1000 Ang^3
#
#
#
# Elastic Constant Matrix: (Units=GPa)
#
#
# Indices 1 2 3 4 5 6 
#
# 1 70.5854 -0.2420 24.7234 0.0000 6.4859 0.0000
# 2 -0.2420 52.3968 26.8045 0.0000 0.4026 0.0000
# 3 24.7234 26.8045 137.8266 0.0000 -12.2602 0.0000
# 4 0.0000 0.0000 0.0000 29.2649 0.0000 -4.1066
# 5 6.4859 0.4026 -12.2602 0.0000 55.0103 0.0000
# 6 0.0000 0.0000 0.0000 -4.1066 0.0000 18.7679
#
#
#
# Elastic Compliance Matrix: (Units=1/GPa)
#
#
# Indices 1 2 3 4 5 6 
#
# 1 0.015599 0.001824 -0.003385 0.000000 -0.002607 0.000000
# 2 0.001824 0.021472 -0.004628 0.000000 -0.001404 0.000000
# 3 -0.003385 -0.004628 0.008979 0.000000 0.002434 0.000000
# 4 0.000000 0.000000 0.000000 0.035253 0.000000 0.007714
# 5 -0.002607 -0.001404 0.002434 0.000000 0.019039 0.000000
# 6 0.000000 0.000000 0.000000 0.007714 0.000000 0.054970
#
#
# Mechanical properties :
#
#
# Convention : Reuss Voigt Hill
#
# Bulk Modulus (GPa) = 29.69849 40.37560 35.03705
# Shear Modulus (GPa) = 27.94654 34.57681 31.26168
#
# Velocity S-wave (km/s) = 3.47364 3.86379 3.67390
# Velocity P-wave (km/s) = 5.37688 6.11046 5.75537
#
# Compressibility (1/GPa) = 0.03367174
#
# Stress axis : x y z
#
# Youngs Moduli (GPa) = 64.10863 46.57284 111.36907
#
# Poissons Ratio (x) = -0.08493 0.37694
# Poissons Ratio (y) = -0.11690 0.51539
# Poissons Ratio (z) = 0.21698 0.21553
#
# Static dielectric constant tensor:
#      x y z
#    x 1.887590 0.000000 -0.040340 
#    y 0.000000 1.919060 0.000000 
#    z -0.040340 0.000000 1.838070 
# 
# From -- ./inp_files/29025.got.cif
#   From: 2010.05.17/outbox.cif.g08.bks.cpg/sg5_15_cif.got.tgz:29025.got - 2010.06.03 18:56:24.
