data_PCOD9124040
_publ_section_title
;
Structure prediction by ZEFSAII (Michael W. Deem and Ramdas Pophale) SiO2 
 PCOD9124040
Probable space group: C 2
;
_chemical_formula_sum "Si O2"
_cell_formula_units_Z 28
_cell_length_a 32.541176
_cell_length_b 4.972186
_cell_length_c 9.327777
_cell_angle_alpha 90.000000
_cell_angle_beta 56.566366
_cell_angle_gamma 90.000000
_cell_volume 1259.499196
_symmetry_space_group_name_H-M "C 2"
_symmetry_group_IT_number 5
_symmetry_cell_setting 'monoclinic'
loop_
_space_group_symop_operation_xyz
x,y,z
-x,y,-z
1/2+x,1/2+y,z
1/2-x,1/2+y,-z
loop_
_atom_site_type_symbol
_atom_site_label
_atom_site_fract_x
_atom_site_fract_y
_atom_site_fract_z
Si Si1 0.094696 0.582000 0.954325
Si Si2 0.407976 0.554675 0.854820
Si Si3 0.500000 0.996810 0.000000
Si Si4 0.133426 0.748292 0.576838
Si Si5 0.000000 0.106904 0.500000
Si Si6 0.719645 0.166936 0.224459
Si Si7 0.186916 0.165394 0.111529
Si Si8 0.069417 0.274119 0.621719
O O1 0.039081 0.667402 0.015981
O O2 0.125987 0.638263 0.751960
O O3 0.088710 0.280815 0.026807
O O4 0.113685 0.782728 0.038364
O O5 0.458789 0.472979 0.680100
O O6 0.369927 0.682353 0.816193
O O7 0.533395 0.828791 0.826201
O O8 0.190478 0.744006 0.423280
O O9 0.104518 0.529973 0.537134
O O10 0.104597 0.023870 0.596357
O O11 0.034341 0.252373 0.551315
O O12 0.697177 0.369321 0.150426
O O13 0.705287 0.871060 0.197260
O O14 0.778238 0.204621 0.095192
#
# Coordination Sequence:
#
# PCOD9124040 Si02
#       8
#     4   4   2   4   2   4   4   4
#     4  11  25  40  63  83 128 166 213 247 311 374
#     4  12  25  41  58  94 126 161 204 267 317 366
#     4  10  22  46  60  84 124 184 210 248 304 390
#     4  11  23  41  64  90 118 165 214 254 298 386
#     4  12  26  38  60  92 122 160 202 264 312 362
#     4  10  20  41  67  93 118 165 207 257 316 389
#     4  10  22  40  66  91 128 158 203 263 328 368
#     4  11  25  38  64  88 126 160 212 256 308 371
#
# _framework density 22.231058999999998
#
# number of rings (size 3 to 8) (size 9 to 14) (size 15 to 20)
#    0.000    1.143    1.429    5.143    4.000    3.429 
#    0.000    1.429    0.000    0.000    0.000    0.000 
#    0.000    0.000    0.000    0.000    0.000    0.000 
#
# Total GULP energy -78149.083742 kJ/mol
# GULP energy per Si atom -5582.077410 kJ/mol
# Density = 2.218046 g / cm^3
# Si number density = 22.231059 Si / 1000 Ang^3
#
#
#
# Elastic Constant Matrix: (Units=GPa)
#
#
# Indices 1 2 3 4 5 6 
#
# 1 29.7609 -7.3662 13.6837 0.0000 -8.1926 0.0000
# 2 -7.3662 67.8802 8.0634 0.0000 1.2338 0.0000
# 3 13.6837 8.0634 147.6181 0.0000 -28.1613 0.0000
# 4 0.0000 0.0000 0.0000 19.6555 0.0000 -1.0250
# 5 -8.1926 1.2338 -28.1613 0.0000 40.7582 0.0000
# 6 0.0000 0.0000 0.0000 -1.0250 0.0000 21.0607
#
#
#
# Elastic Compliance Matrix: (Units=1/GPa)
#
#
# Indices 1 2 3 4 5 6 
#
# 1 0.037404 0.004271 -0.002639 0.000000 0.005566 0.000000
# 2 0.004271 0.015364 -0.001336 0.000000 -0.000530 0.000000
# 3 -0.002639 -0.001336 0.008061 0.000000 0.005080 0.000000
# 4 0.000000 0.000000 0.000000 0.051006 0.000000 0.002482
# 5 0.005566 -0.000530 0.005080 0.000000 0.029179 0.000000
# 6 0.000000 0.000000 0.000000 0.002482 0.000000 0.047603
#
#
# Mechanical properties :
#
#
# Convention : Reuss Voigt Hill
#
# Bulk Modulus (GPa) = 16.28106 30.44678 23.36392
# Shear Modulus (GPa) = 23.98115 31.68678 27.83396
#
# Velocity S-wave (km/s) = 3.28795 3.77946 3.54224
# Velocity P-wave (km/s) = 4.66408 5.72460 5.22134
#
# Compressibility (1/GPa) = 0.06142105
#
# Stress axis : x y z
#
# Youngs Moduli (GPa) = 26.73526 65.08847 124.05617
#
# Poissons Ratio (x) = -0.27801 0.32735
# Poissons Ratio (y) = -0.11419 0.16577
# Poissons Ratio (z) = 0.07055 0.08697
#
# Static dielectric constant tensor:
#      x y z
#    x 1.818620 0.000000 -0.014180 
#    y 0.000000 1.811840 0.000000 
#    z -0.014180 0.000000 1.894660 
# 
# From -- ./inp_files/31445.got.cif
#   From: 2010.05.17/outbox.cif.g08.bks.cpg/sg5_16_cif.got.tgz:31445.got - 2010.06.03 18:56:24.
