data_PCOD9124464
_publ_section_title
;
Structure prediction by ZEFSAII (Michael W. Deem and Ramdas Pophale) SiO2 
 PCOD9124464
Probable space group: C 2
;
_chemical_formula_sum "Si O2"
_cell_formula_units_Z 20
_cell_length_a 19.717449
_cell_length_b 5.093183
_cell_length_c 9.210748
_cell_angle_alpha 90.000000
_cell_angle_beta 124.525529
_cell_angle_gamma 90.000000
_cell_volume 762.071229
_symmetry_space_group_name_H-M "C 2"
_symmetry_group_IT_number 5
_symmetry_cell_setting 'monoclinic'
loop_
_space_group_symop_operation_xyz
x,y,z
-x,y,-z
1/2+x,1/2+y,z
1/2-x,1/2+y,-z
loop_
_atom_site_type_symbol
_atom_site_label
_atom_site_fract_x
_atom_site_fract_y
_atom_site_fract_z
Si Si1 0.468456 0.506020 0.127950
Si Si2 0.904975 0.312560 0.414001
Si Si3 0.807596 0.806174 0.280327
Si Si4 0.868554 0.518535 0.970344
Si Si5 0.380039 0.143692 0.641563
O O1 0.391584 0.307453 0.052807
O O2 0.456754 0.343392 0.707506
O O3 0.434300 0.801307 0.104925
O O4 0.500000 0.508397 0.000000
O O5 0.844768 0.531367 0.272826
O O6 0.894132 0.374464 0.571420
O O7 0.000000 0.352732 0.500000
O O8 0.874075 0.030512 0.333084
O O9 0.805623 0.768737 0.455896
O O10 0.721213 0.899152 0.116538
O O11 0.873275 0.570828 0.800743
#
# Coordination Sequence:
#
# PCOD9124464 Si02
#       5
#     4   4   4   4   4
#     4  10  21  35  54  85 124 158 185 226 298 370
#     4  10  22  39  62  87 113 157 210 252 283 344
#     4  10  23  36  62  87 120 153 200 250 301 339
#     4  11  22  35  57  91 125 147 185 245 305 361
#     4   9  24  35  63  86 119 159 196 235 297 358
#
# _framework density 26.244268999999999
#
# number of rings (size 3 to 8) (size 9 to 14) (size 15 to 20)
#    1.200    0.800    0.000    3.600   11.200    0.000 
#    0.000    0.000    0.000    4.800    0.000    0.000 
#    0.000    0.000    0.000    0.000    0.000    0.000 
#
# Total GULP energy -55912.819827 kJ/mol
# GULP energy per Si atom -5591.281983 kJ/mol
# Density = 2.618454 g / cm^3
# Si number density = 26.244269 Si / 1000 Ang^3
#
#
#
# Elastic Constant Matrix: (Units=GPa)
#
#
# Indices 1 2 3 4 5 6 
#
# 1 70.5451 23.8470 33.9039 0.0000 17.8258 0.0000
# 2 23.8470 166.1992 39.6165 0.0000 1.8638 0.0000
# 3 33.9039 39.6165 122.4998 0.0000 6.1043 0.0000
# 4 0.0000 0.0000 0.0000 41.6262 0.0000 2.6812
# 5 17.8258 1.8638 6.1043 0.0000 51.0799 0.0000
# 6 0.0000 0.0000 0.0000 2.6812 0.0000 44.2070
#
#
#
# Elastic Compliance Matrix: (Units=1/GPa)
#
#
# Indices 1 2 3 4 5 6 
#
# 1 0.018200 -0.001533 -0.004253 0.000000 -0.005787 0.000000
# 2 -0.001533 0.006649 -0.001751 0.000000 0.000502 0.000000
# 3 -0.004253 -0.001751 0.009888 0.000000 0.000366 0.000000
# 4 0.000000 0.000000 0.000000 0.024118 0.000000 -0.001463
# 5 -0.005787 0.000502 0.000366 0.000000 0.021535 0.000000
# 6 0.000000 0.000000 0.000000 -0.001463 0.000000 0.022710
#
#
# Mechanical properties :
#
#
# Convention : Reuss Voigt Hill
#
# Bulk Modulus (GPa) = 50.85605 61.55321 56.20463
# Shear Modulus (GPa) = 40.08777 44.84105 42.46441
#
# Velocity S-wave (km/s) = 3.91255 4.13801 4.02686
# Velocity P-wave (km/s) = 6.31116 6.80703 6.56378
#
# Compressibility (1/GPa) = 0.01966334
#
# Stress axis : x y z
#
# Youngs Moduli (GPa) = 54.94573 150.40904 101.12888
#
# Poissons Ratio (x) = 0.23053 0.43010
# Poissons Ratio (y) = 0.08422 0.17707
# Poissons Ratio (z) = 0.23369 0.26336
#
# Static dielectric constant tensor:
#      x y z
#    x 2.047220 0.000000 -0.078740 
#    y 0.000000 1.985950 0.000000 
#    z -0.078740 0.000000 2.193450 
# 
# From -- ./inp_files/43571.got.cif
#   From: 2010.05.17/outbox.cif.g08.bks.cpg/sg5_22_cif.got.tgz:43571.got - 2010.06.03 18:56:24.
