data_PCOD9124328
_publ_section_title
;
Structure prediction by ZEFSAII (Michael W. Deem and Ramdas Pophale) SiO2 
 PCOD9124328
Probable space group: C 2
;
_chemical_formula_sum "Si O2"
_cell_formula_units_Z 20
_cell_length_a 11.774550
_cell_length_b 8.370347
_cell_length_c 19.218808
_cell_angle_alpha 90.000000
_cell_angle_beta 25.899502
_cell_angle_gamma 90.000000
_cell_volume 827.353032
_symmetry_space_group_name_H-M "C 2"
_symmetry_group_IT_number 5
_symmetry_cell_setting 'monoclinic'
loop_
_space_group_symop_operation_xyz
x,y,z
-x,y,-z
1/2+x,1/2+y,z
1/2-x,1/2+y,-z
loop_
_atom_site_type_symbol
_atom_site_label
_atom_site_fract_x
_atom_site_fract_y
_atom_site_fract_z
Si Si1 0.652580 0.428210 0.095130
Si Si2 0.500000 0.455333 0.500000
Si Si3 0.384787 0.745223 0.218166
Si Si4 0.000000 0.657801 0.000000
Si Si5 0.539436 0.676789 0.342900
Si Si6 0.968141 0.843613 0.330960
O O1 0.440219 0.556263 0.187610
O O2 0.527462 0.302193 0.218447
O O3 0.836213 0.332354 0.941781
O O4 0.857253 0.536970 0.025570
O O5 0.739997 0.329615 0.363056
O O6 0.563330 0.573072 0.400959
O O7 0.198227 0.783298 0.254666
O O8 0.207341 0.746085 0.835590
O O9 0.455677 0.535061 0.337517
O O10 0.305448 0.791452 0.488565
#
# Coordination Sequence:
#
# PCOD9124328 Si02
#       6
#     4   2   4   2   4   4
#     4  11  22  45  70  93 143 180 229 291 345 409
#     4  10  22  42  62  98 138 174 236 282 348 408
#     4  11  24  43  68  99 135 185 230 286 348 413
#     4  10  20  44  64  94 132 184 212 286 348 392
#     4  10  22  42  70  91 139 182 222 290 349 402
#     4  10  23  45  68  97 139 182 226 290 344 409
#
# _framework density 24.173476999999998
#
# number of rings (size 3 to 8) (size 9 to 14) (size 15 to 20)
#    0.000    1.600    6.000    0.000   14.000    0.000 
#    7.200    0.000    0.000    0.000    0.000    0.000 
#    0.000    0.000    0.000    0.000    0.000    0.000 
#
# Total GULP energy -55772.959117 kJ/mol
# GULP energy per Si atom -5577.295912 kJ/mol
# Density = 2.411846 g / cm^3
# Si number density = 24.173477 Si / 1000 Ang^3
#
#
#
# Elastic Constant Matrix: (Units=GPa)
#
#
# Indices 1 2 3 4 5 6 
#
# 1 27.7136 51.4992 63.8712 -0.0019 20.3016 0.0002
# 2 51.4992 46.5513 33.7133 -0.0023 -13.2600 -0.0001
# 3 63.8712 33.7133 223.2850 -0.0146 19.2651 0.0002
# 4 -0.0019 -0.0023 -0.0146 51.9841 -0.0001 -6.5306
# 5 20.3016 -13.2600 19.2651 -0.0001 33.0249 0.0005
# 6 0.0002 -0.0001 0.0002 -6.5306 0.0005 22.2339
#
#
#
# Elastic Compliance Matrix: (Units=1/GPa)
#
#
# Indices 1 2 3 4 5 6 
#
# 1 -0.013997 0.020908 -0.000653 0.000000 0.017380 0.000000
# 2 0.020908 -0.001043 -0.004926 -0.000001 -0.010398 0.000000
# 3 -0.000653 -0.004926 0.005839 0.000001 -0.004983 0.000000
# 4 0.000000 -0.000001 0.000001 0.019974 -0.000001 0.005867
# 5 0.017380 -0.010398 -0.004983 -0.000001 0.018328 -0.000001
# 6 0.000000 0.000000 0.000000 0.005867 -0.000001 0.046699
#
#
# Mechanical properties :
#
#
# Convention : Reuss Voigt Hill
#
# Bulk Modulus (GPa) = 46.60334 66.19081 56.39708
# Shear Modulus (GPa) = 95.61247 31.34635 63.47941
#
# Velocity S-wave (km/s) = 6.29591 3.60491 5.13000
# Velocity P-wave (km/s) = 8.49540 6.69091 7.64657
#
# Compressibility (1/GPa) = 0.02145769
#
# Stress axis : x y z
#
# Youngs Moduli (GPa) = -71.44376 -959.04083 171.26338
#
# Poissons Ratio (x) = 20.05157 0.11175
# Poissons Ratio (y) = 1.49374 0.84368
# Poissons Ratio (z) = -0.04662 -4.72443
#
# Static dielectric constant tensor:
#      x y z
#    x 2.076030 0.000000 0.059460 
#    y 0.000000 1.901010 0.000000 
#    z 0.059460 0.000000 2.027250 
# 
# From -- ./inp_files/68619.got.cif
#   From: 2010.05.17/outbox.cif.g08.bks.cpg/sg5_35_cif.got.tgz:68619.got - 2010.06.03 18:56:24.
