data_PCOD9124210
_publ_section_title
;
Structure prediction by ZEFSAII (Michael W. Deem and Ramdas Pophale) SiO2 
 PCOD9124210
Probable space group: C 2
;
_chemical_formula_sum "Si O2"
_cell_formula_units_Z 30
_cell_length_a 16.569934
_cell_length_b 9.918083
_cell_length_c 9.131179
_cell_angle_alpha 90.000000
_cell_angle_beta 54.001676
_cell_angle_gamma 90.000000
_cell_volume 1214.065862
_symmetry_space_group_name_H-M "C 2"
_symmetry_group_IT_number 5
_symmetry_cell_setting 'monoclinic'
loop_
_space_group_symop_operation_xyz
x,y,z
-x,y,-z
1/2+x,1/2+y,z
1/2-x,1/2+y,-z
loop_
_atom_site_type_symbol
_atom_site_label
_atom_site_fract_x
_atom_site_fract_y
_atom_site_fract_z
Si Si1 0.918100 0.143120 0.782931
Si Si2 0.788874 0.148915 0.311947
Si Si3 0.247871 0.910295 0.467932
Si Si4 0.788855 0.531720 0.878219
Si Si5 0.519340 0.352731 0.644981
Si Si6 0.000000 0.162906 0.000000
Si Si7 0.722148 0.764968 0.259952
Si Si8 0.424308 0.133333 0.959514
O O1 0.888262 0.209218 0.659335
O O2 0.969098 0.217439 0.868841
O O3 0.804241 0.105200 0.947981
O O4 0.973524 0.002120 0.704642
O O5 0.807913 0.310332 0.295135
O O6 0.706439 0.110751 0.280218
O O7 0.756686 0.070210 0.494463
O O8 0.896012 0.086431 0.149447
O O9 0.136333 0.867406 0.546741
O O10 0.279184 0.847046 0.588848
O O11 0.760272 0.378666 0.882220
O O12 0.887245 0.537172 0.869719
O O13 0.500000 0.302784 0.500000
O O14 0.473420 0.259131 0.821005
O O15 0.821292 0.674823 0.148599
O O16 0.500000 0.080052 0.000000
#
# Coordination Sequence:
#
# PCOD9124210 Si02
#       8
#     4   4   4   4   4   2   4   4
#     4  10  21  36  64  96 125 170 239 274 332 412
#     4  10  22  41  70 100 141 189 230 291 353 419
#     4  11  23  41  67 101 141 180 230 288 361 401
#     4   9  20  40  62  92 132 179 221 289 345 409
#     4  12  24  37  65  98 134 172 231 283 335 417
#     4  10  20  42  68  96 132 186 242 274 348 424
#     4  10  21  39  64  94 135 177 223 287 346 411
#     4  11  21  39  65  95 128 177 237 276 338 420
#
# _framework density 24.710355
#
# number of rings (size 3 to 8) (size 9 to 14) (size 15 to 20)
#    0.000    1.600    4.000    0.800    2.800    0.000 
#    1.200    1.333    0.000    4.800    0.000    0.000 
#    0.000    0.000    0.000    0.000    0.000    0.000 
#
# Total GULP energy -83616.894285 kJ/mol
# GULP energy per Si atom -5574.459619 kJ/mol
# Density = 2.465411 g / cm^3
# Si number density = 24.710355 Si / 1000 Ang^3
#
#
#
# Elastic Constant Matrix: (Units=GPa)
#
#
# Indices 1 2 3 4 5 6 
#
# 1 198.9243 12.5949 24.7551 0.0000 30.5478 0.0000
# 2 12.5949 47.3932 4.3734 0.0000 -3.7062 0.0000
# 3 24.7551 4.3734 59.6315 0.0000 7.5814 0.0000
# 4 0.0000 0.0000 0.0000 19.1446 0.0000 4.8884
# 5 30.5478 -3.7062 7.5814 0.0000 26.4943 0.0000
# 6 0.0000 0.0000 0.0000 4.8884 0.0000 31.2623
#
#
#
# Elastic Compliance Matrix: (Units=1/GPa)
#
#
# Indices 1 2 3 4 5 6 
#
# 1 0.006487 -0.002148 -0.001605 0.000000 -0.007321 0.000000
# 2 -0.002148 0.022281 -0.001508 0.000000 0.006026 0.000000
# 3 -0.001605 -0.001508 0.017993 0.000000 -0.003509 0.000000
# 4 0.000000 0.000000 0.000000 0.054406 0.000000 -0.008507
# 5 -0.007321 0.006026 -0.003509 0.000000 0.048032 0.000000
# 6 0.000000 0.000000 0.000000 -0.008507 0.000000 0.033318
#
#
# Mechanical properties :
#
#
# Convention : Reuss Voigt Hill
#
# Bulk Modulus (GPa) = 27.59515 43.26622 35.43069
# Shear Modulus (GPa) = 24.37608 32.99527 28.68567
#
# Velocity S-wave (km/s) = 3.14422 3.65811 3.41086
# Velocity P-wave (km/s) = 4.93692 5.94893 5.46640
#
# Compressibility (1/GPa) = 0.03623825
#
# Stress axis : x y z
#
# Youngs Moduli (GPa) = 154.15507 44.88054 55.57839
#
# Poissons Ratio (x) = 0.09642 0.08918
# Poissons Ratio (y) = 0.33118 0.08383
# Poissons Ratio (z) = 0.24737 0.06769
#
# Static dielectric constant tensor:
#      x y z
#    x 1.962960 0.000000 0.073040 
#    y 0.000000 2.056720 0.000000 
#    z 0.073040 0.000000 2.061100 
# 
# From -- ./inp_files/23867.got.cif
#   From: 2010.05.17/outbox.cif.g08.bks.cpg/sg5_12_cif.got.tgz:23867.got - 2010.06.03 18:56:24.
