data_PCOD9124892
_publ_section_title
;
Structure prediction by ZEFSAII (Michael W. Deem and Ramdas Pophale) SiO2 
 PCOD9124892
Probable space group: C 2
;
_chemical_formula_sum "Si O2"
_cell_formula_units_Z 28
_cell_length_a 7.858630
_cell_length_b 28.908455
_cell_length_c 5.702385
_cell_angle_alpha 90.000000
_cell_angle_beta 120.644478
_cell_angle_gamma 90.000000
_cell_volume 1114.555523
_symmetry_space_group_name_H-M "C 2"
_symmetry_group_IT_number 5
_symmetry_cell_setting 'monoclinic'
loop_
_space_group_symop_operation_xyz
x,y,z
-x,y,-z
1/2+x,1/2+y,z
1/2-x,1/2+y,-z
loop_
_atom_site_type_symbol
_atom_site_label
_atom_site_fract_x
_atom_site_fract_y
_atom_site_fract_z
Si Si1 0.500000 0.254300 0.000000
Si Si2 0.209420 0.594491 0.774262
Si Si3 0.327020 0.781616 0.566098
Si Si4 0.238068 0.874295 0.697050
Si Si5 0.715009 0.198194 0.778371
Si Si6 0.218384 0.909072 0.184046
Si Si7 0.725191 0.006056 0.565630
Si Si8 0.500000 0.032226 0.000000
O O1 0.620997 0.282768 0.276322
O O2 0.336853 0.222360 0.012441
O O3 0.288369 0.645890 0.860960
O O4 0.320491 0.555766 0.693444
O O5 0.000000 0.602677 0.500000
O O6 0.142034 0.567164 0.957132
O O7 0.500000 0.789478 0.500000
O O8 0.300323 0.820749 0.744286
O O9 0.342526 0.731906 0.703237
O O10 0.313274 0.890525 0.492218
O O11 0.000000 0.880675 0.500000
O O12 0.303351 0.899121 0.984525
O O13 0.500000 0.197576 0.500000
O O14 0.192243 0.962802 0.239053
O O15 0.000000 0.887991 0.000000
O O16 0.500000 0.009151 0.500000
O O17 0.666386 0.001882 0.252514
#
# Coordination Sequence:
#
# PCOD9124892 Si02
#       8
#     2   4   4   4   4   4   4   2
#     4  10  21  38  70  92 130 178 220 278 343 404
#     4   8  15  29  54  88 124 166 216 266 323 403
#     4  11  25  42  66  98 133 175 229 287 345 418
#     4  10  23  43  68  93 128 177 228 281 343 408
#     4   9  18  35  61  95 129 171 226 271 336 407
#     4  10  23  41  67  91 126 176 226 276 336 414
#     4   9  19  33  58  89 130 165 213 276 333 400
#     4   8  15  28  54  92 132 166 216 266 335 400
#
# _framework density 25.122121
#
# number of rings (size 3 to 8) (size 9 to 14) (size 15 to 20)
#    0.000    2.857    0.000    1.714    9.000    2.286 
#    0.000    1.429    3.143    0.857    0.000    0.000 
#    0.000    0.000    0.000    0.000    0.000    0.000 
#
# Total GULP energy -78085.176861 kJ/mol
# GULP energy per Si atom -5577.512633 kJ/mol
# Density = 2.506494 g / cm^3
# Si number density = 25.122121 Si / 1000 Ang^3
#
#
#
# Elastic Constant Matrix: (Units=GPa)
#
#
# Indices 1 2 3 4 5 6 
#
# 1 91.7810 19.6420 41.4552 0.0000 -11.6669 0.0000
# 2 19.6420 161.3924 63.3086 0.0000 -22.9811 0.0000
# 3 41.4552 63.3086 162.0353 0.0000 -15.2078 0.0000
# 4 0.0000 0.0000 0.0000 236.7255 0.0000 -142.1624
# 5 -11.6669 -22.9811 -15.2078 0.0000 43.3955 0.0000
# 6 0.0000 0.0000 0.0000 -142.1624 0.0000 70.3999
#
#
#
# Elastic Compliance Matrix: (Units=1/GPa)
#
#
# Indices 1 2 3 4 5 6 
#
# 1 0.012542 -0.000028 -0.002981 0.000000 0.002313 0.000000
# 2 -0.000028 0.007708 -0.002711 0.000000 0.003124 0.000000
# 3 -0.002981 -0.002711 0.008048 0.000000 0.000583 0.000000
# 4 0.000000 0.000000 0.000000 -0.019861 0.000000 -0.040106
# 5 0.002313 0.003124 0.000583 0.000000 0.025525 0.000000
# 6 0.000000 0.000000 0.000000 -0.040106 0.000000 -0.066783
#
#
# Mechanical properties :
#
#
# Convention : Reuss Voigt Hill
#
# Bulk Modulus (GPa) = 59.31845 73.78004 66.54925
# Shear Modulus (GPa) = -317.20393 89.49103 -113.85645
#
# Velocity S-wave (km/s) = -11.24895 5.97493 -6.73940
# Velocity P-wave (km/s) = 12.04389 8.77679 5.83195
#
# Compressibility (1/GPa) = 0.01685816
#
# Stress axis : x y z
#
# Youngs Moduli (GPa) = 79.73364 129.73804 124.25260
#
# Poissons Ratio (x) = 0.00361 0.37037
# Poissons Ratio (y) = 0.00222 0.33687
# Poissons Ratio (z) = 0.23767 0.35174
#
# Static dielectric constant tensor:
#      x y z
#    x 1.929600 0.000000 -0.186570 
#    y 0.000000 2.096740 0.000000 
#    z -0.186570 0.000000 2.934950 
# 
# From -- ./inp_files/4026.got.cif
#   From: 2010.05.17/outbox.cif.g08.bks.cpg/sg5_3_cif.got.tgz:4026.got - 2010.06.03 18:56:24.
