data_PCOD9124786
_publ_section_title
;
Structure prediction by ZEFSAII (Michael W. Deem and Ramdas Pophale) SiO2 
 PCOD9124786
Probable space group: C 2
;
_chemical_formula_sum "Si O2"
_cell_formula_units_Z 28
_cell_length_a 9.262946
_cell_length_b 5.277191
_cell_length_c 25.186802
_cell_angle_alpha 90.000000
_cell_angle_beta 118.177954
_cell_angle_gamma 90.000000
_cell_volume 1085.275514
_symmetry_space_group_name_H-M "C 2"
_symmetry_group_IT_number 5
_symmetry_cell_setting 'monoclinic'
loop_
_space_group_symop_operation_xyz
x,y,z
-x,y,-z
1/2+x,1/2+y,z
1/2-x,1/2+y,-z
loop_
_atom_site_type_symbol
_atom_site_label
_atom_site_fract_x
_atom_site_fract_y
_atom_site_fract_z
Si Si1 0.968390 0.021750 0.133894
Si Si2 0.490386 0.988607 0.614797
Si Si3 0.896007 0.984217 0.428550
Si Si4 0.037553 0.775804 0.251807
Si Si5 0.139486 0.157907 0.724765
Si Si6 0.207682 0.406134 0.842541
Si Si7 0.806702 0.328908 0.978260
O O1 0.903633 0.305983 0.128955
O O2 0.806544 0.860144 0.093902
O O3 0.065167 0.959168 0.205185
O O4 0.104210 0.962029 0.113436
O O5 0.295176 0.007030 0.588809
O O6 0.539336 0.743240 0.587609
O O7 0.568158 0.908547 0.685099
O O8 0.567146 0.240216 0.602270
O O9 0.000000 0.944071 0.500000
O O10 0.197412 0.600519 0.280250
O O11 0.882139 0.624050 0.204877
O O12 0.001150 0.947617 0.295921
O O13 0.196419 0.181014 0.796104
O O14 0.746167 0.572401 0.001548
O O15 0.000000 0.342646 0.000000
#
# Coordination Sequence:
#
# PCOD9124786 Si02
#       7
#     4   4   4   4   4   4   4
#     4  10  23  39  61  93 120 175 218 266 339 394
#     4  12  26  44  74 100 142 182 226 293 344 403
#     4  12  26  47  71 102 136 185 238 285 342 405
#     4  10  21  38  62  88 130 165 217 266 324 414
#     4  10  23  37  58  98 125 170 217 267 338 395
#     4  10  21  38  64  87 129 166 216 267 323 415
#     4  12  28  47  73 102 138 177 231 294 343 404
#
# _framework density 25.799901999999999
#
# number of rings (size 3 to 8) (size 9 to 14) (size 15 to 20)
#    0.000    1.143    0.000    5.143    8.000    0.000 
#    0.000    0.000    0.000    0.000    0.000    0.000 
#    0.000    0.000    0.000    0.000    0.000    0.000 
#
# Total GULP energy -78339.087288 kJ/mol
# GULP energy per Si atom -5595.649092 kJ/mol
# Density = 2.574118 g / cm^3
# Si number density = 25.799902 Si / 1000 Ang^3
#
#
#
# Elastic Constant Matrix: (Units=GPa)
#
#
# Indices 1 2 3 4 5 6 
#
# 1 185.1971 61.8040 23.4211 0.0000 38.7330 0.0000
# 2 61.8040 146.8708 12.4465 0.0000 -11.0610 0.0000
# 3 23.4211 12.4465 113.9265 0.0000 6.6033 0.0000
# 4 0.0000 0.0000 0.0000 38.6550 0.0000 -8.8531
# 5 38.7330 -11.0610 6.6033 0.0000 42.1092 0.0000
# 6 0.0000 0.0000 0.0000 -8.8531 0.0000 55.0666
#
#
#
# Elastic Compliance Matrix: (Units=1/GPa)
#
#
# Indices 1 2 3 4 5 6 
#
# 1 0.008878 -0.004358 -0.000817 0.000000 -0.009183 0.000000
# 2 -0.004358 0.009173 -0.000483 0.000000 0.006494 0.000000
# 3 -0.000817 -0.000483 0.009044 0.000000 -0.000794 0.000000
# 4 0.000000 0.000000 0.000000 0.026859 0.000000 0.004318
# 5 -0.009183 0.006494 -0.000794 0.000000 0.034025 0.000000
# 6 0.000000 0.000000 0.000000 0.004318 0.000000 0.018854
#
#
# Mechanical properties :
#
#
# Convention : Reuss Voigt Hill
#
# Bulk Modulus (GPa) = 63.37239 71.25973 67.31606
# Shear Modulus (GPa) = 40.51630 50.38770 45.45200
#
# Velocity S-wave (km/s) = 3.96713 4.42409 4.20183
# Velocity P-wave (km/s) = 6.75282 7.33327 7.04902
#
# Compressibility (1/GPa) = 0.01577974
#
# Stress axis : x y z
#
# Youngs Moduli (GPa) = 112.63919 109.02007 110.56786
#
# Poissons Ratio (x) = 0.47513 0.09031
# Poissons Ratio (y) = 0.49091 0.05335
# Poissons Ratio (z) = 0.09200 0.05261
#
# Static dielectric constant tensor:
#      x y z
#    x 2.122680 0.000000 -0.079400 
#    y 0.000000 2.090840 0.000000 
#    z -0.079400 0.000000 2.091460 
# 
# From -- ./inp_files/71507.got.cif
#   From: 2010.05.17/outbox.cif.g08.bks.cpg/sg5_36_cif.got.tgz:71507.got - 2010.06.03 18:56:24.
