data_PCOD9124735
_publ_section_title
;
Structure prediction by ZEFSAII (Michael W. Deem and Ramdas Pophale) SiO2 
 PCOD9124735
Probable space group: C 2
;
_chemical_formula_sum "Si O2"
_cell_formula_units_Z 32
_cell_length_a 15.083691
_cell_length_b 9.325709
_cell_length_c 11.717693
_cell_angle_alpha 90.000000
_cell_angle_beta 102.817316
_cell_angle_gamma 90.000000
_cell_volume 1607.211010
_symmetry_space_group_name_H-M "C 2"
_symmetry_group_IT_number 5
_symmetry_cell_setting 'monoclinic'
loop_
_space_group_symop_operation_xyz
x,y,z
-x,y,-z
1/2+x,1/2+y,z
1/2-x,1/2+y,-z
loop_
_atom_site_type_symbol
_atom_site_label
_atom_site_fract_x
_atom_site_fract_y
_atom_site_fract_z
Si Si1 0.583145 0.723990 0.263399
Si Si2 0.145030 0.385425 0.067382
Si Si3 0.234431 0.555152 0.679405
Si Si4 0.402847 0.210525 0.017629
Si Si5 0.839772 0.827234 0.238223
Si Si6 0.899035 0.370075 0.505302
Si Si7 0.603450 0.627073 0.675383
Si Si8 0.777019 0.315878 0.141604
O O1 0.584174 0.796672 0.139125
O O2 0.659301 0.598696 0.295488
O O3 0.609210 0.846862 0.362771
O O4 0.485356 0.672575 0.278302
O O5 0.112750 0.543981 0.022406
O O6 0.244630 0.383762 0.156059
O O7 0.160220 0.306917 0.951741
O O8 0.184531 0.705944 0.678226
O O9 0.183935 0.462837 0.568183
O O10 0.216588 0.465546 0.790224
O O11 0.324419 0.295209 0.929646
O O12 0.500000 0.255227 0.000000
O O13 0.392173 0.251846 0.147624
O O14 0.889112 0.957603 0.314597
O O15 0.897970 0.212154 0.444715
O O16 0.000000 0.428700 0.500000
O O17 0.690547 0.694383 0.763276
#
# Coordination Sequence:
#
# PCOD9124735 Si02
#       8
#     4   4   4   4   4   4   4   4
#     4  10  23  37  64  93 117 158 208 254 301 367
#     4  10  21  38  58  85 123 157 204 238 303 366
#     4  10  21  40  65  83 123 155 206 250 302 364
#     4  11  23  34  56  87 126 153 201 249 291 359
#     4  10  21  39  58  89 118 161 195 248 310 353
#     4   9  21  43  63  85 117 162 203 246 308 370
#     4  10  21  40  65  84 123 159 204 247 305 366
#     4  10  21  40  57  85 118 171 188 244 304 362
#
# _framework density 19.910264999999999
#
# number of rings (size 3 to 8) (size 9 to 14) (size 15 to 20)
#    0.000    2.000    2.500    0.000    3.500    3.000 
#    0.000    3.125    0.000    0.000    0.000    0.000 
#    0.000    0.000    0.000    0.000    0.000    0.000 
#
# Total GULP energy -89241.382662 kJ/mol
# GULP energy per Si atom -5577.586416 kJ/mol
# Density = 1.986495 g / cm^3
# Si number density = 19.910265 Si / 1000 Ang^3
#
#
#
# Elastic Constant Matrix: (Units=GPa)
#
#
# Indices 1 2 3 4 5 6 
#
# 1 56.5207 12.6478 5.6839 0.0000 -8.9811 0.0000
# 2 12.6478 85.7015 5.1404 0.0000 3.5171 0.0000
# 3 5.6839 5.1404 47.6747 0.0000 -0.3758 0.0000
# 4 0.0000 0.0000 0.0000 23.1677 0.0000 7.9612
# 5 -8.9811 3.5171 -0.3758 0.0000 24.8639 0.0000
# 6 0.0000 0.0000 0.0000 7.9612 0.0000 12.7037
#
#
#
# Elastic Compliance Matrix: (Units=1/GPa)
#
#
# Indices 1 2 3 4 5 6 
#
# 1 0.019788 -0.003113 -0.001964 0.000000 0.007558 0.000000
# 2 -0.003113 0.012305 -0.000978 0.000000 -0.002880 0.000000
# 3 -0.001964 -0.000978 0.021313 0.000000 -0.000249 0.000000
# 4 0.000000 0.000000 0.000000 0.055010 0.000000 -0.034473
# 5 0.007558 -0.002880 -0.000249 0.000000 0.043353 0.000000
# 6 0.000000 0.000000 0.000000 -0.034473 0.000000 0.100321
#
#
# Mechanical properties :
#
#
# Convention : Reuss Voigt Hill
#
# Bulk Modulus (GPa) = 24.21566 26.31570 25.26568
# Shear Modulus (GPa) = 17.98796 23.24205 20.61501
#
# Velocity S-wave (km/s) = 3.00901 3.42034 3.22125
# Velocity P-wave (km/s) = 4.92554 5.37068 5.15292
#
# Compressibility (1/GPa) = 0.04129559
#
# Stress axis : x y z
#
# Youngs Moduli (GPa) = 50.53664 81.27023 46.91935
#
# Poissons Ratio (x) = 0.25296 0.09215
# Poissons Ratio (y) = 0.15730 0.04590
# Poissons Ratio (z) = 0.09925 0.07951
#
# Static dielectric constant tensor:
#      x y z
#    x 1.714140 0.000000 0.001780 
#    y 0.000000 1.712160 0.000000 
#    z 0.001780 0.000000 1.694090 
# 
# From -- ./inp_files/41981.got.cif
#   From: 2010.05.17/outbox.cif.g08.bks.cpg/sg5_21_cif.got.tgz:41981.got - 2010.06.03 18:56:24.
