data_PCOD9124736
_publ_section_title
;
Structure prediction by ZEFSAII (Michael W. Deem and Ramdas Pophale) SiO2 
 PCOD9124736
Probable space group: C 2
;
_chemical_formula_sum "Si O2"
_cell_formula_units_Z 28
_cell_length_a 15.242348
_cell_length_b 8.710093
_cell_length_c 22.275345
_cell_angle_alpha 90.000000
_cell_angle_beta 29.052901
_cell_angle_gamma 90.000000
_cell_volume 1436.127301
_symmetry_space_group_name_H-M "C 2"
_symmetry_group_IT_number 5
_symmetry_cell_setting 'monoclinic'
loop_
_space_group_symop_operation_xyz
x,y,z
-x,y,-z
1/2+x,1/2+y,z
1/2-x,1/2+y,-z
loop_
_atom_site_type_symbol
_atom_site_label
_atom_site_fract_x
_atom_site_fract_y
_atom_site_fract_z
Si Si1 0.606233 0.543950 0.798909
Si Si2 0.306009 0.047041 0.912569
Si Si3 0.624511 0.535709 0.274600
Si Si4 0.854352 0.395884 0.239529
Si Si5 0.706964 0.359461 0.855878
Si Si6 0.468134 0.328949 0.263985
Si Si7 0.851410 0.104305 0.542206
O O1 0.677158 0.715489 0.747657
O O2 0.697441 0.449809 0.798560
O O3 0.615752 0.448297 0.732544
O O4 0.393871 0.557493 0.941995
O O5 0.398182 0.212853 0.850732
O O6 0.438478 0.941167 0.872508
O O7 0.290403 0.969502 0.856481
O O8 0.787333 0.474684 0.218542
O O9 0.681394 0.702775 0.216582
O O10 0.572925 0.419548 0.252806
O O11 0.457293 0.548122 0.420672
O O12 0.743798 0.470803 0.361239
O O13 0.500000 0.325528 0.000000
O O14 0.303080 0.222841 0.384219
O O15 0.000000 0.172573 0.500000
#
# Coordination Sequence:
#
# PCOD9124736 Si02
#       7
#     4   4   4   4   4   4   4
#     4  11  21  37  59  87 118 154 190 233 285 338
#     4  10  21  38  58  86 120 151 190 237 281 336
#     4  11  23  40  60  85 116 152 190 236 287 338
#     4  10  21  38  60  84 116 153 192 236 282 335
#     4  10  22  38  60  87 117 151 191 234 284 340
#     4  11  23  37  60  88 114 152 192 232 287 341
#     4   9  21  42  59  79 114 151 193 242 282 332
#
# _framework density 19.496880000000001
#
# number of rings (size 3 to 8) (size 9 to 14) (size 15 to 20)
#    0.000    1.714    0.000    5.143    0.000    8.000 
#    0.000    7.857    0.000    0.000    0.000    0.000 
#    0.000    0.000    0.000    0.000    0.000    0.000 
#
# Total GULP energy -78237.234010 kJ/mol
# GULP energy per Si atom -5588.373858 kJ/mol
# Density = 1.945250 g / cm^3
# Si number density = 19.496880 Si / 1000 Ang^3
#
#
#
# Elastic Constant Matrix: (Units=GPa)
#
#
# Indices 1 2 3 4 5 6 
#
# 1 67.3329 10.4358 4.8635 0.0004 1.6403 -0.0001
# 2 10.4358 91.3209 6.2782 0.0006 4.1884 -0.0001
# 3 4.8635 6.2782 20.2393 0.0008 -4.6649 -0.0002
# 4 0.0004 0.0006 0.0008 7.1757 -0.0003 -1.2617
# 5 1.6403 4.1884 -4.6649 -0.0003 27.4651 0.0001
# 6 -0.0001 -0.0001 -0.0002 -1.2617 0.0001 38.0925
#
#
#
# Elastic Compliance Matrix: (Units=1/GPa)
#
#
# Indices 1 2 3 4 5 6 
#
# 1 0.015364 -0.001453 -0.003540 0.000000 -0.001297 0.000000
# 2 -0.001453 0.011479 -0.003742 0.000000 -0.002299 0.000000
# 3 -0.003540 -0.003742 0.053703 -0.000005 0.009903 0.000000
# 4 0.000000 0.000000 -0.000005 0.140175 0.000000 0.004643
# 5 -0.001297 -0.002299 0.009903 0.000000 0.038520 0.000000
# 6 0.000000 0.000000 0.000000 0.004643 0.000000 0.026406
#
#
# Mechanical properties :
#
#
# Convention : Reuss Voigt Hill
#
# Bulk Modulus (GPa) = 15.85377 24.67201 20.26289
# Shear Modulus (GPa) = 15.42533 25.03438 20.22986
#
# Velocity S-wave (km/s) = 2.81582 3.58721 3.22467
# Velocity P-wave (km/s) = 4.32677 5.46253 4.92748
#
# Compressibility (1/GPa) = 0.06307647
#
# Stress axis : x y z
#
# Youngs Moduli (GPa) = 65.08684 87.11482 18.62095
#
# Poissons Ratio (x) = 0.12656 0.06592
# Poissons Ratio (y) = 0.09456 0.06967
# Poissons Ratio (z) = 0.23043 0.32595
#
# Static dielectric constant tensor:
#      x y z
#    x 1.660880 0.000000 -0.013550 
#    y 0.000000 1.657580 0.000000 
#    z -0.013550 0.000000 1.681020 
# 
# From -- ./inp_files/41680.got.cif
#   From: 2010.05.17/outbox.cif.g08.bks.cpg/sg5_21_cif.got.tgz:41680.got - 2010.06.03 18:56:24.
