data_PCOD9124189
_publ_section_title
;
Structure prediction by ZEFSAII (Michael W. Deem and Ramdas Pophale) SiO2 
 PCOD9124189
Probable space group: C 2
;
_chemical_formula_sum "Si O2"
_cell_formula_units_Z 30
_cell_length_a 18.109984
_cell_length_b 13.596500
_cell_length_c 5.843938
_cell_angle_alpha 90.000000
_cell_angle_beta 109.988370
_cell_angle_gamma 90.000000
_cell_volume 1352.286415
_symmetry_space_group_name_H-M "C 2"
_symmetry_group_IT_number 5
_symmetry_cell_setting 'monoclinic'
loop_
_space_group_symop_operation_xyz
x,y,z
-x,y,-z
1/2+x,1/2+y,z
1/2-x,1/2+y,-z
loop_
_atom_site_type_symbol
_atom_site_label
_atom_site_fract_x
_atom_site_fract_y
_atom_site_fract_z
Si Si1 0.646020 0.375000 0.228203
Si Si2 0.366388 0.020731 0.584042
Si Si3 0.907179 0.321660 0.879856
Si Si4 0.539573 0.212259 0.299281
Si Si5 0.713390 0.531274 0.658665
Si Si6 0.207961 0.391340 0.888156
Si Si7 0.927230 0.155252 0.565122
Si Si8 0.000000 0.999750 0.000000
O O1 0.609795 0.288563 0.337732
O O2 0.679565 0.458505 0.429823
O O3 0.720681 0.338027 0.165032
O O4 0.573603 0.428311 0.017265
O O5 0.432063 0.101686 0.626474
O O6 0.291272 0.073939 0.620856
O O7 0.393817 0.931421 0.773388
O O8 0.340378 0.963692 0.328739
O O9 0.885473 0.237210 0.676769
O O10 0.852445 0.320324 0.045198
O O11 0.000000 0.306583 0.000000
O O12 0.500000 0.242894 0.500000
O O13 0.500000 0.212696 0.000000
O O14 0.642611 0.603161 0.648114
O O15 0.745113 0.464040 0.894130
O O16 0.000000 0.198913 0.500000
O O17 0.969539 0.071554 0.766963
#
# Coordination Sequence:
#
# PCOD9124189 Si02
#       8
#     4   4   4   4   4   4   4   2
#     4  10  22  44  70 103 136 183 236 293 364 426
#     4  10  25  45  69  97 136 187 238 293 356 423
#     4  11  25  43  67 102 135 180 238 289 356 423
#     4  12  29  47  74 111 144 191 242 299 364 431
#     4   9  22  43  67 101 136 182 234 292 360 425
#     4  10  23  45  73  94 140 189 230 298 356 423
#     4  11  23  39  67 103 137 180 229 291 359 426
#     4  10  20  42  68 100 140 174 228 288 362 428
#
# _framework density 22.184647999999999
#
# number of rings (size 3 to 8) (size 9 to 14) (size 15 to 20)
#    0.000    1.600    1.333    1.200    9.333    5.333 
#    0.000    2.667    0.000    0.000    0.000    0.000 
#    0.000    0.000    0.000    0.000    0.000    0.000 
#
# Total GULP energy -83726.150204 kJ/mol
# GULP energy per Si atom -5581.743347 kJ/mol
# Density = 2.213415 g / cm^3
# Si number density = 22.184648 Si / 1000 Ang^3
#
#
#
# Elastic Constant Matrix: (Units=GPa)
#
#
# Indices 1 2 3 4 5 6 
#
# 1 145.7093 43.0052 41.4245 0.0000 -35.3333 0.0000
# 2 43.0052 63.6526 -8.2915 0.0000 -14.9604 0.0000
# 3 41.4245 -8.2915 49.0280 0.0000 -11.8990 0.0000
# 4 0.0000 0.0000 0.0000 16.8082 0.0000 -12.7779
# 5 -35.3333 -14.9604 -11.8990 0.0000 33.6820 0.0000
# 6 0.0000 0.0000 0.0000 -12.7779 0.0000 20.4764
#
#
#
# Elastic Compliance Matrix: (Units=1/GPa)
#
#
# Indices 1 2 3 4 5 6 
#
# 1 0.015302 -0.010437 -0.013042 0.000000 0.006809 0.000000
# 2 -0.010437 0.026024 0.014621 0.000000 0.005776 0.000000
# 3 -0.013042 0.014621 0.035159 0.000000 0.005234 0.000000
# 4 0.000000 0.000000 0.000000 0.113194 0.000000 0.070637
# 5 0.006809 0.005776 0.005234 0.000000 0.041247 0.000000
# 6 0.000000 0.000000 0.000000 0.070637 0.000000 0.092916
#
#
# Mechanical properties :
#
#
# Convention : Reuss Voigt Hill
#
# Bulk Modulus (GPa) = 17.01553 45.62959 31.32256
# Shear Modulus (GPa) = 13.84477 26.34342 20.09410
#
# Velocity S-wave (km/s) = 2.50085 3.44970 3.01286
# Velocity P-wave (km/s) = 4.00320 6.03986 5.12375
#
# Compressibility (1/GPa) = 0.05876983
#
# Stress axis : x y z
#
# Youngs Moduli (GPa) = 65.34966 38.42641 28.44260
#
# Poissons Ratio (x) = 0.40106 0.37094
# Poissons Ratio (y) = 0.68205 -0.41586
# Poissons Ratio (z) = 0.85226 -0.56184
#
# Static dielectric constant tensor:
#      x y z
#    x 1.847490 0.000000 -0.011930 
#    y 0.000000 1.765170 0.000000 
#    z -0.011930 0.000000 1.878190 
# 
# From -- ./inp_files/8678.got.cif
#   From: 2010.05.17/outbox.cif.g08.bks.cpg/sg5_5_cif.got.tgz:8678.got - 2010.06.03 18:56:24.
