data_PCOD9124127
_publ_section_title
;
Structure prediction by ZEFSAII (Michael W. Deem and Ramdas Pophale) SiO2 
 PCOD9124127
Probable space group: C 2
;
_chemical_formula_sum "Si O2"
_cell_formula_units_Z 30
_cell_length_a 11.528805
_cell_length_b 10.425819
_cell_length_c 20.937331
_cell_angle_alpha 90.000000
_cell_angle_beta 28.990212
_cell_angle_gamma 90.000000
_cell_volume 1219.700355
_symmetry_space_group_name_H-M "C 2"
_symmetry_group_IT_number 5
_symmetry_cell_setting 'monoclinic'
loop_
_space_group_symop_operation_xyz
x,y,z
-x,y,-z
1/2+x,1/2+y,z
1/2-x,1/2+y,-z
loop_
_atom_site_type_symbol
_atom_site_label
_atom_site_fract_x
_atom_site_fract_y
_atom_site_fract_z
Si Si1 0.513696 0.290090 0.812387
Si Si2 0.000000 0.254396 0.000000
Si Si3 0.343109 0.958188 0.297395
Si Si4 0.780472 0.176398 0.360211
Si Si5 0.607266 0.459895 0.011168
Si Si6 0.096669 0.115793 0.323836
Si Si7 0.814778 0.201557 0.199371
Si Si8 0.697580 0.217312 0.602121
O O1 0.279455 0.233265 0.890972
O O2 0.447384 0.399685 0.894021
O O3 0.649257 0.187877 0.792777
O O4 0.672796 0.318549 0.672114
O O5 0.083612 0.319132 0.891024
O O6 0.297554 0.830981 0.359997
O O7 0.146729 0.982540 0.336439
O O8 0.310897 0.081469 0.357020
O O9 0.610609 0.959507 0.139388
O O10 0.500000 0.137800 0.500000
O O11 0.878330 0.169851 0.240451
O O12 0.958093 0.108738 0.324205
O O13 0.442149 0.591914 0.092775
O O14 0.500000 0.390277 0.000000
O O15 0.928425 0.209653 0.447496
O O16 0.532357 0.210955 0.332194
#
# Coordination Sequence:
#
# PCOD9124127 Si02
#       8
#     4   2   4   4   4   4   4   4
#     4  10  22  38  66 101 127 171 230 282 341 415
#     4  10  20  42  64  88 132 182 218 280 348 410
#     4  11  23  42  72 100 132 185 237 283 353 425
#     4  12  25  44  68 105 143 181 231 296 356 418
#     4  12  22  42  68  98 134 182 233 286 353 428
#     4  11  23  44  70 102 138 179 233 291 345 423
#     4  11  21  41  65  93 135 183 223 274 350 416
#     4  10  20  43  69  93 135 178 228 282 345 425
#
# _framework density 24.596205000000001
#
# number of rings (size 3 to 8) (size 9 to 14) (size 15 to 20)
#    0.000    1.067    3.333    5.600    0.000    0.000 
#    7.200    4.000    0.000    0.000    0.000    0.000 
#    0.000    0.000    0.000    0.000    0.000    0.000 
#
# Total GULP energy -83503.532100 kJ/mol
# GULP energy per Si atom -5566.902140 kJ/mol
# Density = 2.454022 g / cm^3
# Si number density = 24.596205 Si / 1000 Ang^3
#
#
#
# Elastic Constant Matrix: (Units=GPa)
#
#
# Indices 1 2 3 4 5 6 
#
# 1 201.3870 18.6265 50.8110 -0.0003 -5.7717 0.0000
# 2 18.6265 31.7863 -6.5853 -0.0004 -11.7798 0.0002
# 3 50.8110 -6.5853 98.9863 -0.0055 -3.6650 0.0019
# 4 -0.0003 -0.0004 -0.0055 18.4366 0.0005 12.8663
# 5 -5.7717 -11.7798 -3.6650 0.0005 51.2089 -0.0001
# 6 0.0000 0.0002 0.0019 12.8663 -0.0001 31.5289
#
#
#
# Elastic Compliance Matrix: (Units=1/GPa)
#
#
# Indices 1 2 3 4 5 6 
#
# 1 0.006273 -0.004639 -0.003551 -0.000002 -0.000614 0.000001
# 2 -0.004639 0.038497 0.005265 0.000003 0.008710 -0.000002
# 3 -0.003551 0.005265 0.012338 0.000006 0.001694 -0.000003
# 4 -0.000002 0.000003 0.000006 0.075837 0.000000 -0.030948
# 5 -0.000614 0.008710 0.001694 0.000000 0.021583 0.000000
# 6 0.000001 -0.000002 -0.000003 -0.030948 0.000000 0.044346
#
#
# Mechanical properties :
#
#
# Convention : Reuss Voigt Hill
#
# Bulk Modulus (GPa) = 19.50947 50.87379 35.19163
# Shear Modulus (GPa) = 22.54152 38.18871 30.36511
#
# Velocity S-wave (km/s) = 3.03060 3.94461 3.51742
# Velocity P-wave (km/s) = 4.49390 6.44012 5.55294
#
# Compressibility (1/GPa) = 0.05125715
#
# Stress axis : x y z
#
# Youngs Moduli (GPa) = 159.41022 25.97585 81.04764
#
# Poissons Ratio (x) = 0.12051 0.28784
# Poissons Ratio (y) = 0.73958 -0.42672
# Poissons Ratio (z) = 0.56614 -0.13677
#
# Static dielectric constant tensor:
#      x y z
#    x 2.000320 0.000000 0.025900 
#    y 0.000000 2.228590 0.000000 
#    z 0.025900 0.000000 1.994970 
# 
# From -- ./inp_files/65353.got.cif
#   From: 2010.05.17/outbox.cif.g08.bks.cpg/sg5_33_cif.got.tgz:65353.got - 2010.06.03 18:56:24.
