data_PCOD9124454
_publ_section_title
;
Structure prediction by ZEFSAII (Michael W. Deem and Ramdas Pophale) SiO2 
 PCOD9124454
Probable space group: C 2
;
_chemical_formula_sum "Si O2"
_cell_formula_units_Z 26
_cell_length_a 14.338885
_cell_length_b 5.900584
_cell_length_c 14.328201
_cell_angle_alpha 90.000000
_cell_angle_beta 119.212679
_cell_angle_gamma 90.000000
_cell_volume 1058.092891
_symmetry_space_group_name_H-M "C 2"
_symmetry_group_IT_number 5
_symmetry_cell_setting 'monoclinic'
loop_
_space_group_symop_operation_xyz
x,y,z
-x,y,-z
1/2+x,1/2+y,z
1/2-x,1/2+y,-z
loop_
_atom_site_type_symbol
_atom_site_label
_atom_site_fract_x
_atom_site_fract_y
_atom_site_fract_z
Si Si1 0.416870 0.552640 0.171950
Si Si2 0.000000 0.541731 0.500000
Si Si3 0.378735 0.820198 0.979393
Si Si4 0.814235 0.876243 0.460935
Si Si5 0.850404 0.237335 0.330120
Si Si6 0.875827 0.823044 0.972969
Si Si7 0.669686 0.525672 0.320180
O O1 0.387993 0.774627 0.095330
O O2 0.371788 0.579658 0.252748
O O3 0.374563 0.351348 0.085256
O O4 0.544807 0.523576 0.239339
O O5 0.095818 0.688708 0.507655
O O6 0.050084 0.405117 0.610408
O O7 0.333563 0.575221 0.922752
O O8 0.333635 0.068989 0.933271
O O9 0.500000 0.824241 0.000000
O O10 0.712321 0.781899 0.354285
O O11 0.854390 0.094409 0.426673
O O12 0.803363 0.924401 0.564218
O O13 0.740373 0.377754 0.283211
O O14 0.000000 0.822764 0.000000
#
# Coordination Sequence:
#
# PCOD9124454 Si02
#       7
#     4   2   4   4   4   4   4
#     4  10  21  34  58  90 117 151 208 258 302 367
#     4  10  22  36  58  74 106 152 208 248 306 360
#     4   8  16  33  58  91 117 152 194 242 307 373
#     4  11  22  39  54  75 115 158 199 252 303 366
#     4  11  23  37  55  86 112 157 209 251 314 362
#     4   8  16  33  58  91 117 152 194 242 307 375
#     4  11  23  37  57  81 116 162 201 252 308 360
#
# _framework density 24.572512
#
# number of rings (size 3 to 8) (size 9 to 14) (size 15 to 20)
#    0.923    1.231    1.538    2.308    2.154    4.923 
#    0.000    0.000    0.000    0.000   32.000    0.000 
#    0.000    0.000    0.000    0.000    0.000    0.000 
#
# Total GULP energy -72584.344614 kJ/mol
# GULP energy per Si atom -5583.411124 kJ/mol
# Density = 2.451658 g / cm^3
# Si number density = 24.572512 Si / 1000 Ang^3
#
#
#
# Elastic Constant Matrix: (Units=GPa)
#
#
# Indices 1 2 3 4 5 6 
#
# 1 85.9682 23.7850 39.7504 0.0000 10.4851 0.0000
# 2 23.7850 150.0834 30.3095 0.0000 13.7558 0.0000
# 3 39.7504 30.3095 68.8763 0.0000 -17.3572 0.0000
# 4 0.0000 0.0000 0.0000 35.2086 0.0000 -7.0939
# 5 10.4851 13.7558 -17.3572 0.0000 40.8062 0.0000
# 6 0.0000 0.0000 0.0000 -7.0939 0.0000 10.6417
#
#
#
# Elastic Compliance Matrix: (Units=1/GPa)
#
#
# Indices 1 2 3 4 5 6 
#
# 1 0.019522 0.000903 -0.014567 0.000000 -0.011517 0.000000
# 2 0.000903 0.008094 -0.005409 0.000000 -0.005262 0.000000
# 3 -0.014567 -0.005409 0.029916 0.000000 0.018291 0.000000
# 4 0.000000 0.000000 0.000000 0.032809 0.000000 0.021871
# 5 -0.011517 -0.005262 0.018291 0.000000 0.037019 0.000000
# 6 0.000000 0.000000 0.000000 0.021871 0.000000 0.108550
#
#
# Mechanical properties :
#
#
# Convention : Reuss Voigt Hill
#
# Bulk Modulus (GPa) = 51.58104 54.73530 53.15817
# Shear Modulus (GPa) = 17.82415 31.40350 24.61382
#
# Velocity S-wave (km/s) = 2.69619 3.57878 3.16837
# Velocity P-wave (km/s) = 5.54342 6.27696 5.92156
#
# Compressibility (1/GPa) = 0.01938697
#
# Stress axis : x y z
#
# Youngs Moduli (GPa) = 51.22332 123.54085 33.42733
#
# Poissons Ratio (x) = -0.11162 0.48693
# Poissons Ratio (y) = -0.04628 0.18082
# Poissons Ratio (z) = 0.74616 0.66829
#
# Static dielectric constant tensor:
#      x y z
#    x 1.885400 0.000000 -0.012950 
#    y 0.000000 2.005850 0.000000 
#    z -0.012950 0.000000 1.921660 
# 
# From -- ./inp_files/60988.got.cif
#   From: 2010.05.17/outbox.cif.g08.bks.cpg/sg5_31_cif.got.tgz:60988.got - 2010.06.03 18:56:24.
