data_PCOD9124311
_publ_section_title
;
Structure prediction by ZEFSAII (Michael W. Deem and Ramdas Pophale) SiO2 
 PCOD9124311
Probable space group: C 2
;
_chemical_formula_sum "Si O2"
_cell_formula_units_Z 28
_cell_length_a 5.289698
_cell_length_b 13.740433
_cell_length_c 18.198907
_cell_angle_alpha 90.000000
_cell_angle_beta 101.628194
_cell_angle_gamma 90.000000
_cell_volume 1295.598640
_symmetry_space_group_name_H-M "C 2"
_symmetry_group_IT_number 5
_symmetry_cell_setting 'monoclinic'
loop_
_space_group_symop_operation_xyz
x,y,z
-x,y,-z
1/2+x,1/2+y,z
1/2-x,1/2+y,-z
loop_
_atom_site_type_symbol
_atom_site_label
_atom_site_fract_x
_atom_site_fract_y
_atom_site_fract_z
Si Si1 0.479946 0.686980 0.352016
Si Si2 0.725521 0.830007 0.951587
Si Si3 0.125692 0.548999 0.927511
Si Si4 0.111845 0.185819 0.149051
Si Si5 0.275319 0.326050 0.273586
Si Si6 0.804165 0.044843 0.221916
Si Si7 0.028829 0.738180 0.418175
O O1 0.521080 0.781793 0.300725
O O2 0.319613 0.608251 0.296563
O O3 0.312458 0.702059 0.414877
O O4 0.782028 0.666190 0.388556
O O5 0.624377 0.758661 0.882092
O O6 0.752400 0.942352 0.927126
O O7 0.500000 0.833443 0.000000
O O8 0.000000 0.800101 0.000000
O O9 0.308207 0.639852 0.923234
O O10 0.918277 0.560483 0.850624
O O11 0.000000 0.553844 0.000000
O O12 0.309303 0.251164 0.207720
O O13 0.049063 0.090567 0.193723
O O14 0.283777 0.432857 0.242091
O O15 0.478754 0.317567 0.351597
O O16 0.000000 0.771342 0.500000
#
# Coordination Sequence:
#
# PCOD9124311 Si02
#       7
#     4   4   4   4   4   4   4
#     4   9  22  41  68 104 137 185 228 273 350 406
#     4  11  28  48  67  98 136 177 234 297 357 411
#     4  11  27  45  69 100 140 184 242 301 359 412
#     4  11  25  45  69  98 134 191 230 298 352 423
#     4   9  22  43  69 104 137 183 233 282 350 416
#     4  11  23  44  70 100 140 183 238 288 347 426
#     4  10  20  43  72 103 143 183 226 281 346 413
#
# _framework density 21.611630000000002
#
# number of rings (size 3 to 8) (size 9 to 14) (size 15 to 20)
#    0.857    0.857    1.429    1.286    8.000    1.143 
#    0.000    1.429    0.000    0.000    0.000    0.000 
#    0.000    0.000    0.000    0.000    0.000    0.000 
#
# Total GULP energy -78006.614979 kJ/mol
# GULP energy per Si atom -5571.901070 kJ/mol
# Density = 2.156244 g / cm^3
# Si number density = 21.611630 Si / 1000 Ang^3
#
#
#
# Elastic Constant Matrix: (Units=GPa)
#
#
# Indices 1 2 3 4 5 6 
#
# 1 71.0316 34.6456 23.6709 0.0000 -9.3462 0.0000
# 2 34.6456 141.7580 46.2518 0.0000 -8.7026 0.0000
# 3 23.6709 46.2518 113.9618 0.0000 4.0121 0.0000
# 4 0.0000 0.0000 0.0000 6.0390 0.0000 16.5837
# 5 -9.3462 -8.7026 4.0121 0.0000 35.2894 0.0000
# 6 0.0000 0.0000 0.0000 16.5837 0.0000 13.5775
#
#
#
# Elastic Compliance Matrix: (Units=1/GPa)
#
#
# Indices 1 2 3 4 5 6 
#
# 1 0.016916 -0.003109 -0.002392 0.000000 0.003985 0.000000
# 2 -0.003109 0.008908 -0.003030 0.000000 0.001718 0.000000
# 3 -0.002392 -0.003030 0.010593 0.000000 -0.002585 0.000000
# 4 0.000000 0.000000 0.000000 -0.070340 0.000000 0.085915
# 5 0.003985 0.001718 -0.002585 0.000000 0.030110 0.000000
# 6 0.000000 0.000000 0.000000 0.085915 0.000000 -0.031286
#
#
# Mechanical properties :
#
#
# Convention : Reuss Voigt Hill
#
# Bulk Modulus (GPa) = 51.66819 59.54309 55.60564
# Shear Modulus (GPa) = -431.60359 25.79339 -202.90510
#
# Velocity S-wave (km/s) = -14.14717 3.45845 -9.70004
# Velocity P-wave (km/s) = 15.58516 6.59993 9.98344
#
# Compressibility (1/GPa) = 0.01935427
#
# Stress axis : x y z
#
# Youngs Moduli (GPa) = 59.11459 112.25536 94.40628
#
# Poissons Ratio (x) = 0.34902 0.22583
# Poissons Ratio (y) = 0.18380 0.28606
# Poissons Ratio (z) = 0.14141 0.34015
#
# Static dielectric constant tensor:
#      x y z
#    x 2.042280 0.000000 0.058180 
#    y 0.000000 1.775700 0.000000 
#    z 0.058180 0.000000 1.857960 
# 
# From -- ./inp_files/58785.got.cif
#   From: 2010.05.17/outbox.cif.g08.bks.cpg/sg5_30_cif.got.tgz:58785.got - 2010.06.03 18:56:24.
