data_PCOD9124589
_publ_section_title
;
Structure prediction by ZEFSAII (Michael W. Deem and Ramdas Pophale) SiO2 
 PCOD9124589
Probable space group: C 2
;
_chemical_formula_sum "Si O2"
_cell_formula_units_Z 32
_cell_length_a 14.037371
_cell_length_b 5.407202
_cell_length_c 16.955319
_cell_angle_alpha 90.000000
_cell_angle_beta 79.051878
_cell_angle_gamma 90.000000
_cell_volume 1263.534676
_symmetry_space_group_name_H-M "C 2"
_symmetry_group_IT_number 5
_symmetry_cell_setting 'monoclinic'
loop_
_space_group_symop_operation_xyz
x,y,z
-x,y,-z
1/2+x,1/2+y,z
1/2-x,1/2+y,-z
loop_
_atom_site_type_symbol
_atom_site_label
_atom_site_fract_x
_atom_site_fract_y
_atom_site_fract_z
Si Si1 0.659104 0.747350 0.315081
Si Si2 0.352488 0.437964 0.542209
Si Si3 0.709545 0.125998 0.834488
Si Si4 0.400352 0.627559 0.105848
Si Si5 0.361564 0.734692 0.394191
Si Si6 0.521204 0.515579 0.750608
Si Si7 0.024206 0.632982 0.357022
Si Si8 0.305527 0.528381 0.970360
O O1 0.655359 0.695278 0.408170
O O2 0.754387 0.642883 0.260255
O O3 0.569864 0.615221 0.284519
O O4 0.627727 0.026844 0.308268
O O5 0.375431 0.497477 0.448649
O O6 0.246611 0.320497 0.570410
O O7 0.433789 0.292150 0.577663
O O8 0.673070 0.402006 0.860091
O O9 0.800428 0.070257 0.877918
O O10 0.635537 0.905258 0.867553
O O11 0.483016 0.561130 0.156205
O O12 0.396702 0.596816 0.011369
O O13 0.384873 0.651878 0.301456
O O14 0.445302 0.934838 0.400378
O O15 0.524809 0.241782 0.714588
O O16 0.272272 0.242739 0.989031
#
# Coordination Sequence:
#
# PCOD9124589 Si02
#       8
#     4   4   4   4   4   4   4   4
#     4  10  24  41  62  91 126 171 214 273 341 398
#     4  11  27  45  67  96 125 172 225 279 339 418
#     4  10  21  36  66  94 128 170 220 274 328 398
#     4  10  21  36  66  94 128 170 220 274 328 398
#     4  11  27  45  67  96 125 172 225 279 339 418
#     4  10  24  41  62  91 126 171 214 273 341 398
#     4  10  26  47  64  90 139 166 224 282 349 404
#     4   8  16  34  55  94 127 162 212 270 330 385
#
# _framework density 25.325776999999999
#
# number of rings (size 3 to 8) (size 9 to 14) (size 15 to 20)
#    0.000    2.000    0.000    0.750   14.000    5.500 
#    0.000    0.625    0.000    0.000    0.000    0.000 
#    0.000    0.000    0.000    0.000    0.000    0.000 
#
# Total GULP energy -89253.441522 kJ/mol
# GULP energy per Si atom -5578.340095 kJ/mol
# Density = 2.526813 g / cm^3
# Si number density = 25.325777 Si / 1000 Ang^3
#
#
#
# Elastic Constant Matrix: (Units=GPa)
#
#
# Indices 1 2 3 4 5 6 
#
# 1 101.5576 25.7046 4.8762 0.0000 23.2882 0.0000
# 2 25.7046 96.1810 7.9702 0.0000 -1.3490 0.0000
# 3 4.8762 7.9702 98.7024 0.0000 14.5189 0.0000
# 4 0.0000 0.0000 0.0000 26.2765 0.0000 14.3061
# 5 23.2882 -1.3490 14.5189 0.0000 35.3262 0.0000
# 6 0.0000 0.0000 0.0000 14.3061 0.0000 22.9316
#
#
#
# Elastic Compliance Matrix: (Units=1/GPa)
#
#
# Indices 1 2 3 4 5 6 
#
# 1 0.012770 -0.003620 0.000979 0.000000 -0.008959 0.000000
# 2 -0.003620 0.011514 -0.001242 0.000000 0.003336 0.000000
# 3 0.000979 -0.001242 0.010947 0.000000 -0.005192 0.000000
# 4 0.000000 0.000000 0.000000 0.057632 0.000000 -0.035954
# 5 -0.008959 0.003336 -0.005192 0.000000 0.036475 0.000000
# 6 0.000000 0.000000 0.000000 -0.035954 0.000000 0.066038
#
#
# Mechanical properties :
#
#
# Convention : Reuss Voigt Hill
#
# Bulk Modulus (GPa) = 36.40696 41.50477 38.95586
# Shear Modulus (GPa) = 23.55199 34.09954 28.82576
#
# Velocity S-wave (km/s) = 3.05283 3.67336 3.37738
# Velocity P-wave (km/s) = 5.18006 5.86646 5.53392
#
# Compressibility (1/GPa) = 0.02746728
#
# Stress axis : x y z
#
# Youngs Moduli (GPa) = 78.30735 86.84993 91.34825
#
# Poissons Ratio (x) = 0.31437 -0.08946
# Poissons Ratio (y) = 0.28345 0.11343
# Poissons Ratio (z) = -0.07669 0.10784
#
# Static dielectric constant tensor:
#      x y z
#    x 2.017180 0.000000 0.018420 
#    y 0.000000 2.197690 0.000000 
#    z 0.018420 0.000000 1.969310 
# 
# From -- ./inp_files/61219.got.cif
#   From: 2010.05.17/outbox.cif.g08.bks.cpg/sg5_31_cif.got.tgz:61219.got - 2010.06.03 18:56:24.
