data_PCOD9124586
_publ_section_title
;
Structure prediction by ZEFSAII (Michael W. Deem and Ramdas Pophale) SiO2 
 PCOD9124586
Probable space group: C 2
;
_chemical_formula_sum "Si O2"
_cell_formula_units_Z 28
_cell_length_a 13.563425
_cell_length_b 6.466014
_cell_length_c 13.909839
_cell_angle_alpha 90.000000
_cell_angle_beta 78.941858
_cell_angle_gamma 90.000000
_cell_volume 1197.260883
_symmetry_space_group_name_H-M "C 2"
_symmetry_group_IT_number 5
_symmetry_cell_setting 'monoclinic'
loop_
_space_group_symop_operation_xyz
x,y,z
-x,y,-z
1/2+x,1/2+y,z
1/2-x,1/2+y,-z
loop_
_atom_site_type_symbol
_atom_site_label
_atom_site_fract_x
_atom_site_fract_y
_atom_site_fract_z
Si Si1 0.000000 0.552650 0.500000
Si Si2 0.292305 0.554492 0.368899
Si Si3 0.840608 0.686735 0.067017
Si Si4 0.899724 0.821718 0.665140
Si Si5 0.840608 0.207712 0.567017
Si Si6 0.100276 0.072730 0.834860
Si Si7 0.292305 0.339956 0.868899
Si Si8 0.000000 0.341797 0.000000
O O1 0.012427 0.696091 0.403998
O O2 0.093487 0.399201 0.482732
O O3 0.204666 0.716088 0.354424
O O4 0.251256 0.321651 0.363354
O O5 0.312199 0.583080 0.477250
O O6 0.387296 0.587487 0.281650
O O7 0.748744 0.572797 0.136646
O O8 0.906513 0.495247 0.017268
O O9 0.898498 0.839798 0.126755
O O10 0.812199 0.811367 0.977250
O O11 0.887296 0.806960 0.781650
O O12 0.898498 0.054649 0.626755
O O13 0.204666 0.178360 0.854424
O O14 0.012427 0.198356 0.903998
#
# Coordination Sequence:
#
# PCOD9124586 Si02
#       8
#     2   4   4   4   4   4   4   2
#     4  10  24  38  58  86 128 156 190 240 298 344
#     4  10  21  36  66  87 115 156 200 240 294 341
#     4  11  20  40  61  89 119 155 195 246 288 351
#     4  10  21  40  58  90 120 154 196 244 287 355
#     4  11  20  40  61  89 119 155 195 246 288 351
#     4  10  21  40  58  90 120 154 196 244 287 355
#     4  10  21  36  66  87 115 156 200 240 294 341
#     4  10  24  38  58  86 128 156 190 240 298 344
#
# _framework density 23.386717000000001
#
# number of rings (size 3 to 8) (size 9 to 14) (size 15 to 20)
#    0.000    1.714    2.857    1.714    0.000    1.143 
#    0.000    5.714    0.000    0.000    0.000    0.000 
#    0.000    0.000    0.000    0.000    0.000    0.000 
#
# Total GULP energy -78273.752510 kJ/mol
# GULP energy per Si atom -5590.982322 kJ/mol
# Density = 2.333349 g / cm^3
# Si number density = 23.386717 Si / 1000 Ang^3
#
#
#
# Elastic Constant Matrix: (Units=GPa)
#
#
# Indices 1 2 3 4 5 6 
#
# 1 29.1206 9.3199 13.2018 0.0000 -4.3015 0.0000
# 2 9.3199 119.3143 34.5891 0.0000 -13.2157 0.0000
# 3 13.2018 34.5891 106.4615 0.0000 -19.5987 0.0000
# 4 0.0000 0.0000 0.0000 23.1518 0.0000 -8.5457
# 5 -4.3015 -13.2157 -19.5987 0.0000 28.9610 0.0000
# 6 0.0000 0.0000 0.0000 -8.5457 0.0000 26.7931
#
#
#
# Elastic Compliance Matrix: (Units=1/GPa)
#
#
# Indices 1 2 3 4 5 6 
#
# 1 0.036829 -0.001569 -0.003635 0.000000 0.002294 0.000000
# 2 -0.001569 0.009481 -0.002436 0.000000 0.002445 0.000000
# 3 -0.003635 -0.002436 0.011801 0.000000 0.006335 0.000000
# 4 0.000000 0.000000 0.000000 0.048957 0.000000 0.015615
# 5 0.002294 0.002445 0.006335 0.000000 0.040273 0.000000
# 6 0.000000 0.000000 0.000000 0.015615 0.000000 0.042303
#
#
# Mechanical properties :
#
#
# Convention : Reuss Voigt Hill
#
# Bulk Modulus (GPa) = 23.34691 41.01309 32.18000
# Shear Modulus (GPa) = 22.81022 28.96689 25.88856
#
# Velocity S-wave (km/s) = 3.12645 3.52320 3.33074
# Velocity P-wave (km/s) = 4.79974 5.84171 5.34617
#
# Compressibility (1/GPa) = 0.04283222
#
# Stress axis : x y z
#
# Youngs Moduli (GPa) = 27.15258 105.47779 84.73606
#
# Poissons Ratio (x) = 0.16548 0.30801
# Poissons Ratio (y) = 0.04260 0.20638
# Poissons Ratio (z) = 0.09870 0.25690
#
# Static dielectric constant tensor:
#      x y z
#    x 1.941860 0.000000 -0.063220 
#    y 0.000000 1.883890 0.000000 
#    z -0.063220 0.000000 1.875050 
# 
# From -- ./inp_files/55256.got.cif
#   From: 2010.05.17/outbox.cif.g08.bks.cpg/sg5_28_cif.got.tgz:55256.got - 2010.06.03 18:56:24.
