data_PCOD9124235
_publ_section_title
;
Structure prediction by ZEFSAII (Michael W. Deem and Ramdas Pophale) SiO2 
 PCOD9124235
Probable space group: C 2
;
_chemical_formula_sum "Si O2"
_cell_formula_units_Z 16
_cell_length_a 9.017187
_cell_length_b 11.041412
_cell_length_c 9.782789
_cell_angle_alpha 90.000000
_cell_angle_beta 46.905908
_cell_angle_gamma 90.000000
_cell_volume 711.245729
_symmetry_space_group_name_H-M "C 2"
_symmetry_group_IT_number 5
_symmetry_cell_setting 'monoclinic'
loop_
_space_group_symop_operation_xyz
x,y,z
-x,y,-z
1/2+x,1/2+y,z
1/2-x,1/2+y,-z
loop_
_atom_site_type_symbol
_atom_site_label
_atom_site_fract_x
_atom_site_fract_y
_atom_site_fract_z
Si Si1 0.795965 0.360240 0.187196
Si Si2 0.512067 0.604221 0.844292
Si Si3 0.305279 0.572247 0.552331
Si Si4 0.076545 0.719041 0.101922
O O1 0.869888 0.231438 0.200686
O O2 0.716081 0.446967 0.353300
O O3 0.649174 0.328477 0.153919
O O4 0.000000 0.420322 0.000000
O O5 0.635895 0.549785 0.641363
O O6 0.500000 0.541312 0.000000
O O7 0.280517 0.638147 0.952838
O O8 0.500000 0.637495 0.500000
O O9 0.100873 0.647515 0.706620
O O10 0.000000 0.752660 0.000000
#
# Coordination Sequence:
#
# PCOD9124235 Si02
#       4
#     4   4   4   4
#     4   9  23  43  72 100 136 180 224 280 335 399
#     4   9  22  44  69  98 140 177 223 281 334 397
#     4  12  23  37  74 104 132 178 225 274 338 396
#     4  10  20  42  70  96 141 180 219 280 334 398
#
# _framework density 22.495742
#
# number of rings (size 3 to 8) (size 9 to 14) (size 15 to 20)
#    0.000    2.500    2.500    0.750    3.500    3.000 
#    0.000    1.250   38.500    0.000    0.000    0.000 
#    0.000    0.000    0.000    0.000    0.000    0.000 
#
# Total GULP energy -44717.187218 kJ/mol
# GULP energy per Si atom -5589.648402 kJ/mol
# Density = 2.244454 g / cm^3
# Si number density = 22.495742 Si / 1000 Ang^3
#
#
#
# Elastic Constant Matrix: (Units=GPa)
#
#
# Indices 1 2 3 4 5 6 
#
# 1 166.2483 49.1137 88.4698 -0.0001 14.2418 0.0000
# 2 49.1137 60.2354 72.0235 0.0000 7.9306 0.0000
# 3 88.4698 72.0235 252.7117 -0.0001 25.5248 0.0001
# 4 -0.0001 0.0000 -0.0001 45.2662 0.0001 6.2666
# 5 14.2418 7.9306 25.5248 0.0001 44.1142 -0.0001
# 6 0.0000 0.0000 0.0001 6.2666 -0.0001 25.0138
#
#
#
# Elastic Compliance Matrix: (Units=1/GPa)
#
#
# Indices 1 2 3 4 5 6 
#
# 1 0.008312 -0.004986 -0.001389 0.000000 -0.000983 0.000000
# 2 -0.004986 0.028182 -0.006306 0.000000 0.000192 0.000000
# 3 -0.001389 -0.006306 0.006458 0.000000 -0.002155 0.000000
# 4 0.000000 0.000000 0.000000 0.022885 0.000000 -0.005733
# 5 -0.000983 0.000192 -0.002155 0.000000 0.024198 0.000000
# 6 0.000000 0.000000 0.000000 -0.005733 0.000000 0.041414
#
#
# Mechanical properties :
#
#
# Convention : Reuss Voigt Hill
#
# Bulk Modulus (GPa) = 56.85422 99.82328 78.33875
# Shear Modulus (GPa) = 30.73619 40.85139 35.79379
#
# Velocity S-wave (km/s) = 3.70038 4.26603 3.99323
# Velocity P-wave (km/s) = 6.60191 8.29072 7.49404
#
# Compressibility (1/GPa) = 0.01758884
#
# Stress axis : x y z
#
# Youngs Moduli (GPa) = 120.31116 35.48427 154.84209
#
# Poissons Ratio (x) = 0.17694 0.21513
# Poissons Ratio (y) = 0.59992 0.97636
# Poissons Ratio (z) = 0.16716 0.22375
#
# Static dielectric constant tensor:
#      x y z
#    x 1.866220 0.000000 0.013010 
#    y 0.000000 1.875130 0.000000 
#    z 0.013010 0.000000 1.838700 
# 
# From -- ./inp_files/14176.got.cif
#   From: 2010.05.17/outbox.cif.g08.bks.cpg/sg5_8_cif.got.tgz:14176.got - 2010.06.03 18:56:24.
