data_PCOD9124688
_publ_section_title
;
Structure prediction by ZEFSAII (Michael W. Deem and Ramdas Pophale) SiO2 
 PCOD9124688
Probable space group: C 2
;
_chemical_formula_sum "Si O2"
_cell_formula_units_Z 18
_cell_length_a 7.935325
_cell_length_b 23.756831
_cell_length_c 5.079197
_cell_angle_alpha 90.000000
_cell_angle_beta 65.579824
_cell_angle_gamma 90.000000
_cell_volume 871.859339
_symmetry_space_group_name_H-M "C 2"
_symmetry_group_IT_number 5
_symmetry_cell_setting 'monoclinic'
loop_
_space_group_symop_operation_xyz
x,y,z
-x,y,-z
1/2+x,1/2+y,z
1/2-x,1/2+y,-z
loop_
_atom_site_type_symbol
_atom_site_label
_atom_site_fract_x
_atom_site_fract_y
_atom_site_fract_z
Si Si1 0.784266 0.714060 0.606335
Si Si2 0.000000 0.305202 0.000000
Si Si3 0.000000 0.050330 0.500000
Si Si4 0.615589 0.439463 0.667546
Si Si5 0.716946 0.140139 0.895672
Si Si6 0.000000 0.380645 0.500000
O O1 0.658890 0.765180 0.780078
O O2 0.747761 0.690823 0.336972
O O3 0.000000 0.728914 0.500000
O O4 0.750602 0.663039 0.832718
O O5 0.943137 0.343412 0.789089
O O6 0.851982 0.089504 0.739176
O O7 0.894852 0.006763 0.375012
O O8 0.500000 0.413999 0.500000
O O9 0.822729 0.417675 0.539970
O O10 0.500000 0.425841 0.000000
O O11 0.500000 0.125155 0.000000
#
# Coordination Sequence:
#
# PCOD9124688 Si02
#       6
#     4   2   2   4   4   2
#     4  10  22  40  60  95 130 159 207 260 313 385
#     4  12  24  40  70  90 122 176 212 264 326 376
#     4  10  24  39  68  92 128 173 206 256 322 376
#     4  10  25  44  64  92 131 169 215 272 312 375
#     4  10  21  37  63  95 129 164 203 254 315 390
#     4  12  26  45  66  96 126 171 222 272 320 370
#
# _framework density 20.645534000000001
#
# number of rings (size 3 to 8) (size 9 to 14) (size 15 to 20)
#    0.667    0.889    0.000    4.000    3.111    4.444 
#    2.000    0.000    0.000    0.000    0.000    0.000 
#    0.000    0.000    0.000    0.000    0.000    0.000 
#
# Total GULP energy -50315.455504 kJ/mol
# GULP energy per Si atom -5590.606167 kJ/mol
# Density = 2.059854 g / cm^3
# Si number density = 20.645534 Si / 1000 Ang^3
#
#
#
# Elastic Constant Matrix: (Units=GPa)
#
#
# Indices 1 2 3 4 5 6 
#
# 1 104.5616 53.9928 39.1848 0.0000 -27.8464 0.0000
# 2 53.9928 82.7935 31.0680 0.0000 -28.9581 0.0000
# 3 39.1848 31.0680 112.5133 0.0000 -12.8263 0.0000
# 4 0.0000 0.0000 0.0000 -8.2966 0.0000 12.5041
# 5 -27.8464 -28.9581 -12.8263 0.0000 39.7324 0.0000
# 6 0.0000 0.0000 0.0000 12.5041 0.0000 9.1126
#
#
#
# Elastic Compliance Matrix: (Units=1/GPa)
#
#
# Indices 1 2 3 4 5 6 
#
# 1 0.015797 -0.007617 -0.002875 0.000000 0.004592 0.000000
# 2 -0.007617 0.021114 -0.002109 0.000000 0.009369 0.000000
# 3 -0.002875 -0.002109 0.010451 0.000000 -0.000178 0.000000
# 4 0.000000 0.000000 0.000000 -0.039286 0.000000 0.053907
# 5 0.004592 0.009369 -0.000178 0.000000 0.035157 0.000000
# 6 0.000000 0.000000 0.000000 0.053907 0.000000 0.035768
#
#
# Mechanical properties :
#
#
# Convention : Reuss Voigt Hill
#
# Bulk Modulus (GPa) = 45.12662 60.92885 53.02774
# Shear Modulus (GPa) = 44.80608 19.81786 32.31197
#
# Velocity S-wave (km/s) = 4.66365 3.10160 3.96040
# Velocity P-wave (km/s) = 7.13476 6.51172 6.83035
#
# Compressibility (1/GPa) = 0.02215987
#
# Stress axis : x y z
#
# Youngs Moduli (GPa) = 63.30191 47.36149 95.68293
#
# Poissons Ratio (x) = 0.36076 0.27508
# Poissons Ratio (y) = 0.48218 0.20183
# Poissons Ratio (z) = 0.18199 0.09990
#
# Static dielectric constant tensor:
#      x y z
#    x 1.724550 0.000000 0.017040 
#    y 0.000000 1.720410 0.000000 
#    z 0.017040 0.000000 1.706570 
# 
# From -- ./inp_files/2511.got.cif
#   From: 2010.05.17/outbox.cif.g08.bks.cpg/sg5_2_cif.got.tgz:2511.got - 2010.06.03 18:56:24.
