data_PCOD9124672
_publ_section_title
;
Structure prediction by ZEFSAII (Michael W. Deem and Ramdas Pophale) SiO2 
 PCOD9124672
Probable space group: C 2
;
_chemical_formula_sum "Si O2"
_cell_formula_units_Z 24
_cell_length_a 21.272835
_cell_length_b 8.341630
_cell_length_c 11.755922
_cell_angle_alpha 90.000000
_cell_angle_beta 32.206260
_cell_angle_gamma 90.000000
_cell_volume 1111.820598
_symmetry_space_group_name_H-M "C 2"
_symmetry_group_IT_number 5
_symmetry_cell_setting 'monoclinic'
loop_
_space_group_symop_operation_xyz
x,y,z
-x,y,-z
1/2+x,1/2+y,z
1/2-x,1/2+y,-z
loop_
_atom_site_type_symbol
_atom_site_label
_atom_site_fract_x
_atom_site_fract_y
_atom_site_fract_z
Si Si1 0.102503 0.372700 0.435771
Si Si2 0.403710 0.372501 0.239678
Si Si3 0.291040 0.319060 0.773063
Si Si4 0.246562 0.516013 0.036017
Si Si5 0.023621 0.031734 0.639520
Si Si6 0.215294 0.613584 0.422602
O O1 0.115445 0.512025 0.508754
O O2 0.000000 0.396994 0.500000
O O3 0.083367 0.203059 0.524284
O O4 0.218036 0.388051 0.179155
O O5 0.461987 0.471362 0.254158
O O6 0.309580 0.488936 0.324392
O O7 0.338270 0.221762 0.396363
O O8 0.500000 0.323486 0.000000
O O9 0.214597 0.445528 0.962129
O O10 0.405287 0.405035 0.546786
O O11 0.232109 0.231564 0.755513
O O12 0.315824 0.177873 0.826065
O O13 0.386503 0.545646 0.818613
#
# Coordination Sequence:
#
# PCOD9124672 Si02
#       6
#     4   4   4   4   4   4
#     4  11  23  42  65  94 132 165 204 261 319 379
#     4  11  23  44  68  89 124 169 215 264 315 369
#     4  10  21  37  62  93 127 164 204 250 308 374
#     4  11  22  39  62  93 131 169 204 248 316 380
#     4  11  23  41  66  94 128 167 208 261 315 372
#     4  10  24  43  64  95 126 164 217 266 310 372
#
# _framework density 21.586217000000001
#
# number of rings (size 3 to 8) (size 9 to 14) (size 15 to 20)
#    0.000    1.333    0.000    6.500    0.000    8.000 
#    0.000   21.667    0.000    0.000    0.000    0.000 
#    0.000    0.000    0.000    0.000    0.000    0.000 
#
# Total GULP energy -67083.010677 kJ/mol
# GULP energy per Si atom -5590.250890 kJ/mol
# Density = 2.153709 g / cm^3
# Si number density = 21.586217 Si / 1000 Ang^3
#
#
#
# Elastic Constant Matrix: (Units=GPa)
#
#
# Indices 1 2 3 4 5 6 
#
# 1 73.2494 30.8204 23.6500 0.0000 20.3347 0.0000
# 2 30.8204 100.3371 64.3606 0.0000 14.5366 0.0000
# 3 23.6500 64.3606 120.7904 0.0000 36.8118 0.0000
# 4 0.0000 0.0000 0.0000 39.7144 0.0000 15.9400
# 5 20.3347 14.5366 36.8118 0.0000 33.0956 0.0000
# 6 0.0000 0.0000 0.0000 15.9400 0.0000 44.7933
#
#
#
# Elastic Compliance Matrix: (Units=1/GPa)
#
#
# Indices 1 2 3 4 5 6 
#
# 1 0.018598 -0.006097 0.003440 0.000000 -0.012575 0.000000
# 2 -0.006097 0.017416 -0.010433 0.000000 0.007701 0.000000
# 3 0.003440 -0.010433 0.018777 0.000000 -0.018416 0.000000
# 4 0.000000 0.000000 0.000000 0.029376 0.000000 -0.010453
# 5 -0.012575 0.007701 -0.018416 0.000000 0.055043 0.000000
# 6 0.000000 0.000000 0.000000 -0.010453 0.000000 0.026045
#
#
# Mechanical properties :
#
#
# Convention : Reuss Voigt Hill
#
# Bulk Modulus (GPa) = 34.95329 59.11544 47.03437
# Shear Modulus (GPa) = 24.87931 35.22370 30.05151
#
# Velocity S-wave (km/s) = 3.39861 4.04390 3.73522
# Velocity P-wave (km/s) = 5.62391 7.01779 6.35915
#
# Compressibility (1/GPa) = 0.02860961
#
# Stress axis : x y z
#
# Youngs Moduli (GPa) = 53.76994 57.42001 53.25784
#
# Poissons Ratio (x) = 0.35010 -0.18319
# Poissons Ratio (y) = 0.32785 0.55562
# Poissons Ratio (z) = -0.18495 0.59904
#
# Static dielectric constant tensor:
#      x y z
#    x 1.788450 0.000000 0.009680 
#    y 0.000000 1.824230 0.000000 
#    z 0.009680 0.000000 1.790460 
# 
# From -- ./inp_files/47235.got.cif
#   From: 2010.05.17/outbox.cif.g08.bks.cpg/sg5_24_cif.got.tgz:47235.got - 2010.06.03 18:56:24.
