data_PCOD9124893
_publ_section_title
;
Structure prediction by ZEFSAII (Michael W. Deem and Ramdas Pophale) SiO2 
 PCOD9124893
Probable space group: C 2
;
_chemical_formula_sum "Si O2"
_cell_formula_units_Z 28
_cell_length_a 30.352584
_cell_length_b 5.572157
_cell_length_c 8.771153
_cell_angle_alpha 90.000000
_cell_angle_beta 123.229604
_cell_angle_gamma 90.000000
_cell_volume 1240.886125
_symmetry_space_group_name_H-M "C 2"
_symmetry_group_IT_number 5
_symmetry_cell_setting 'monoclinic'
loop_
_space_group_symop_operation_xyz
x,y,z
-x,y,-z
1/2+x,1/2+y,z
1/2-x,1/2+y,-z
loop_
_atom_site_type_symbol
_atom_site_label
_atom_site_fract_x
_atom_site_fract_y
_atom_site_fract_z
Si Si1 0.198064 0.548450 0.511266
Si Si2 0.042896 0.910794 0.828843
Si Si3 0.398619 0.794892 0.220209
Si Si4 0.098483 0.529523 0.109926
Si Si5 0.720986 0.885409 0.987555
Si Si6 0.271541 0.543437 0.374062
Si Si7 0.500000 0.742531 0.000000
Si Si8 0.500000 0.070321 0.500000
O O1 0.150131 0.511373 0.306536
O O2 0.251078 0.567819 0.508398
O O3 0.206253 0.306153 0.623084
O O4 0.190760 0.812505 0.568735
O O5 0.081511 0.026137 0.775365
O O6 0.007264 0.726734 0.666696
O O7 0.007519 0.091766 0.859315
O O8 0.080243 0.794188 0.027924
O O9 0.340028 0.839711 0.167756
O O10 0.446290 0.916499 0.402883
O O11 0.397978 0.902196 0.047433
O O12 0.051046 0.406911 0.109677
O O13 0.749150 0.124563 0.967966
O O14 0.724960 0.970325 0.171900
#
# Coordination Sequence:
#
# PCOD9124893 Si02
#       8
#     4   4   4   4   4   4   2   2
#     4  10  21  38  70  92 131 166 220 279 329 414
#     4  10  22  41  72  96 141 178 234 292 360 431
#     4  10  23  43  70  98 134 185 245 285 354 427
#     4  10  21  39  67  98 130 180 219 281 353 418
#     4  12  27  46  69 100 145 190 236 291 352 426
#     4  10  22  41  61 101 126 167 224 276 337 399
#     4  10  22  40  60 108 132 172 220 288 352 430
#     4  10  22  44  70 106 126 194 236 300 352 434
#
# _framework density 22.564522
#
# number of rings (size 3 to 8) (size 9 to 14) (size 15 to 20)
#    0.000    1.714    1.429    1.714    8.000    1.143 
#    2.571    8.571    0.000    0.000    0.000    0.000 
#    0.000    0.000    0.000    0.000    0.000    0.000 
#
# Total GULP energy -78077.949764 kJ/mol
# GULP energy per Si atom -5576.996412 kJ/mol
# Density = 2.251316 g / cm^3
# Si number density = 22.564522 Si / 1000 Ang^3
#
#
#
# Elastic Constant Matrix: (Units=GPa)
#
#
# Indices 1 2 3 4 5 6 
#
# 1 114.8650 57.0672 41.4464 0.0000 18.1146 0.0000
# 2 57.0672 148.4496 27.5595 0.0000 18.5174 0.0000
# 3 41.4464 27.5595 72.4966 0.0000 33.5967 0.0000
# 4 0.0000 0.0000 0.0000 -15.4508 0.0000 1.4733
# 5 18.1146 18.5174 33.5967 0.0000 38.2289 0.0000
# 6 0.0000 0.0000 0.0000 1.4733 0.0000 10.7469
#
#
#
# Elastic Compliance Matrix: (Units=1/GPa)
#
#
# Indices 1 2 3 4 5 6 
#
# 1 0.012747 -0.003883 -0.006553 0.000000 0.001599 0.000000
# 2 -0.003883 0.008508 0.000072 0.000000 -0.002345 0.000000
# 3 -0.006553 0.000072 0.027145 0.000000 -0.020786 0.000000
# 4 0.000000 0.000000 0.000000 -0.063886 0.000000 0.008759
# 5 0.001599 -0.002345 -0.020786 0.000000 0.044804 0.000000
# 6 0.000000 0.000000 0.000000 0.008759 0.000000 0.091850
#
#
# Mechanical properties :
#
#
# Convention : Reuss Voigt Hill
#
# Bulk Modulus (GPa) = 36.13579 65.32861 50.73220
# Shear Modulus (GPa) = 33.08647 20.68753 26.88700
#
# Velocity S-wave (km/s) = 3.83339 3.03118 3.45564
# Velocity P-wave (km/s) = 5.97012 6.42382 6.20112
#
# Compressibility (1/GPa) = 0.02767340
#
# Stress axis : x y z
#
# Youngs Moduli (GPa) = 78.44778 117.53383 36.83898
#
# Poissons Ratio (x) = 0.45643 0.24139
# Poissons Ratio (y) = 0.30464 -0.00266
# Poissons Ratio (z) = 0.51404 -0.00850
#
# Static dielectric constant tensor:
#      x y z
#    x 1.826020 0.000000 -0.035060 
#    y 0.000000 1.979600 0.000000 
#    z -0.035060 0.000000 1.830610 
# 
# From -- ./inp_files/31412.got.cif
#   From: 2010.05.17/outbox.cif.g08.bks.cpg/sg5_16_cif.got.tgz:31412.got - 2010.06.03 18:56:24.
