data_PCOD9124894
_publ_section_title
;
Structure prediction by ZEFSAII (Michael W. Deem and Ramdas Pophale) SiO2 
 PCOD9124894
Probable space group: C 2
;
_chemical_formula_sum "Si O2"
_cell_formula_units_Z 18
_cell_length_a 17.670623
_cell_length_b 6.946745
_cell_length_c 13.771844
_cell_angle_alpha 90.000000
_cell_angle_beta 22.874658
_cell_angle_gamma 90.000000
_cell_volume 657.140533
_symmetry_space_group_name_H-M "C 2"
_symmetry_group_IT_number 5
_symmetry_cell_setting 'monoclinic'
loop_
_space_group_symop_operation_xyz
x,y,z
-x,y,-z
1/2+x,1/2+y,z
1/2-x,1/2+y,-z
loop_
_atom_site_type_symbol
_atom_site_label
_atom_site_fract_x
_atom_site_fract_y
_atom_site_fract_z
Si Si1 0.545618 0.335720 0.307829
Si Si2 0.422335 0.275876 0.962490
Si Si3 0.742670 0.047213 0.382313
Si Si4 0.000000 0.191938 0.500000
Si Si5 0.475270 0.852112 0.848244
O O1 0.549814 0.331285 0.184999
O O2 0.374984 0.194802 0.546513
O O3 0.507218 0.545926 0.399042
O O4 0.761626 0.271695 0.082341
O O5 0.199271 0.312220 0.258121
O O6 0.596481 0.382387 0.810097
O O7 0.451135 0.046324 0.939591
O O8 0.565580 0.937474 0.643548
O O9 0.872629 0.203566 0.288537
#
# Coordination Sequence:
#
# PCOD9124894 Si02
#       5
#     4   4   4   2   4
#     4  10  23  43  79 110 156 201 250 324 379 453
#     4  10  23  45  78 111 152 206 254 314 387 454
#     4  11  21  40  76 112 151 203 256 309 390 454
#     4  10  24  50  82 114 150 210 260 310 392 456
#     4  10  21  38  71 114 146 198 258 306 381 452
#
# _framework density 27.391400000000001
#
# number of rings (size 3 to 8) (size 9 to 14) (size 15 to 20)
#    0.000    1.778    4.444    0.000    9.333    0.000 
#    0.000    8.889    9.778    8.000    0.000    0.000 
#    0.000    0.000    0.000    0.000    0.000    0.000 
#
# Total GULP energy -50364.694097 kJ/mol
# GULP energy per Si atom -5596.077122 kJ/mol
# Density = 2.732906 g / cm^3
# Si number density = 27.391400 Si / 1000 Ang^3
#
#
#
# Elastic Constant Matrix: (Units=GPa)
#
#
# Indices 1 2 3 4 5 6 
#
# 1 97.4458 14.5651 76.4579 0.0000 -5.5035 0.0000
# 2 14.5651 117.9571 64.8182 -0.0008 -27.7195 0.0000
# 3 76.4579 64.8182 227.8316 -0.0005 -16.8487 -0.0001
# 4 0.0000 -0.0008 -0.0005 84.6478 0.0001 11.8484
# 5 -5.5035 -27.7195 -16.8487 0.0001 45.4160 0.0002
# 6 0.0000 0.0000 -0.0001 11.8484 0.0002 40.7162
#
#
#
# Elastic Compliance Matrix: (Units=1/GPa)
#
#
# Indices 1 2 3 4 5 6 
#
# 1 0.014043 0.001139 -0.004997 0.000000 0.000543 0.000000
# 2 0.001139 0.011506 -0.003214 0.000000 0.005968 0.000000
# 3 -0.004997 -0.003214 0.006982 0.000000 0.000023 0.000000
# 4 0.000000 0.000000 0.000000 0.012315 0.000000 -0.003584
# 5 0.000543 0.005968 0.000023 0.000000 0.025736 0.000000
# 6 0.000000 0.000000 0.000000 -0.003584 0.000000 0.025603
#
#
# Mechanical properties :
#
#
# Convention : Reuss Voigt Hill
#
# Bulk Modulus (GPa) = 54.38426 83.87966 69.13196
# Shear Modulus (GPa) = 42.93411 53.31556 48.12483
#
# Velocity S-wave (km/s) = 3.96337 4.41663 4.19612
# Velocity P-wave (km/s) = 6.39078 7.52980 6.98355
#
# Compressibility (1/GPa) = 0.01838767
#
# Stress axis : x y z
#
# Youngs Moduli (GPa) = 71.21000 86.91273 143.22081
#
# Poissons Ratio (x) = -0.09903 0.71562
# Poissons Ratio (y) = -0.08114 0.46037
# Poissons Ratio (z) = 0.35581 0.27937
#
# Static dielectric constant tensor:
#      x y z
#    x 2.213290 0.000000 0.050740 
#    y 0.000000 2.182960 0.000000 
#    z 0.050740 0.000000 2.023190 
# 
# From -- ./inp_files/10639.got.cif
#   From: 2010.05.17/outbox.cif.g08.bks.cpg/sg5_6_cif.got.tgz:10639.got - 2010.06.03 18:56:24.
