data_PCOD9124148
_publ_section_title
;
Structure prediction by ZEFSAII (Michael W. Deem and Ramdas Pophale) SiO2 
 PCOD9124148
Probable space group: C 2
;
_chemical_formula_sum "Si O2"
_cell_formula_units_Z 28
_cell_length_a 12.596498
_cell_length_b 13.202170
_cell_length_c 8.267992
_cell_angle_alpha 90.000000
_cell_angle_beta 99.591949
_cell_angle_gamma 90.000000
_cell_volume 1355.753322
_symmetry_space_group_name_H-M "C 2"
_symmetry_group_IT_number 5
_symmetry_cell_setting 'monoclinic'
loop_
_space_group_symop_operation_xyz
x,y,z
-x,y,-z
1/2+x,1/2+y,z
1/2-x,1/2+y,-z
loop_
_atom_site_type_symbol
_atom_site_label
_atom_site_fract_x
_atom_site_fract_y
_atom_site_fract_z
Si Si1 0.854944 0.778520 0.073674
Si Si2 0.232812 0.935821 0.206701
Si Si3 0.518712 0.975218 0.675910
Si Si4 0.500000 0.100680 0.000000
Si Si5 0.487027 0.412434 0.679983
Si Si6 0.330894 0.662971 0.878676
Si Si7 0.447702 0.642940 0.241830
Si Si8 0.500000 0.788703 0.500000
O O1 0.765373 0.739988 0.176420
O O2 0.899922 0.677271 0.999035
O O3 0.953831 0.836238 0.182858
O O4 0.796271 0.855043 0.937922
O O5 0.357311 0.938280 0.285160
O O6 0.139892 0.919232 0.315727
O O7 0.210933 0.048970 0.140590
O O8 0.500000 0.034413 0.500000
O O9 0.457332 0.869290 0.622974
O O10 0.491326 0.033123 0.834262
O O11 0.500000 0.380056 0.500000
O O12 0.543088 0.523095 0.720150
O O13 0.431732 0.671321 0.785726
O O14 0.373472 0.672114 0.072983
O O15 0.420647 0.711069 0.389588
#
# Coordination Sequence:
#
# PCOD9124148 Si02
#       8
#     4   4   4   2   4   4   4   2
#     4  12  23  43  71 101 131 186 232 281 356 415
#     4  11  21  44  65  99 138 179 227 295 340 419
#     4  10  26  47  69  98 145 177 235 291 346 422
#     4  12  24  48  72 100 142 190 230 286 354 418
#     4  11  23  40  69 100 142 175 234 289 348 412
#     4  10  22  38  69  95 133 180 237 279 348 418
#     4  10  20  42  65  99 134 177 227 295 340 412
#     4  10  22  42  66  92 140 174 224 296 344 404
#
# _framework density 20.652723000000002
#
# number of rings (size 3 to 8) (size 9 to 14) (size 15 to 20)
#    0.429    0.857    5.000    0.857    0.000    4.000 
#    5.143    1.429    0.000    0.000    0.000    0.000 
#    0.000    0.000    0.000    0.000    0.000    0.000 
#
# Total GULP energy -78037.450611 kJ/mol
# GULP energy per Si atom -5574.103615 kJ/mol
# Density = 2.060572 g / cm^3
# Si number density = 20.652723 Si / 1000 Ang^3
#
#
#
# Elastic Constant Matrix: (Units=GPa)
#
#
# Indices 1 2 3 4 5 6 
#
# 1 85.9962 22.6196 33.6792 0.0000 4.4243 0.0000
# 2 22.6196 102.4885 52.1489 0.0000 -8.6897 0.0000
# 3 33.6792 52.1489 131.5915 0.0000 0.8297 0.0000
# 4 0.0000 0.0000 0.0000 30.0136 0.0000 -1.0546
# 5 4.4243 -8.6897 0.8297 0.0000 16.1842 0.0000
# 6 0.0000 0.0000 0.0000 -1.0546 0.0000 30.0970
#
#
#
# Elastic Compliance Matrix: (Units=1/GPa)
#
#
# Indices 1 2 3 4 5 6 
#
# 1 0.013419 -0.002031 -0.002601 0.000000 -0.004625 0.000000
# 2 -0.002031 0.013329 -0.004813 0.000000 0.007958 0.000000
# 3 -0.002601 -0.004813 0.010187 0.000000 -0.002395 0.000000
# 4 0.000000 0.000000 0.000000 0.033359 0.000000 0.001169
# 5 -0.004625 0.007958 -0.002395 0.000000 0.067449 0.000000
# 6 0.000000 0.000000 0.000000 0.001169 0.000000 0.033267
#
#
# Mechanical properties :
#
#
# Convention : Reuss Voigt Hill
#
# Bulk Modulus (GPa) = 55.40920 59.66350 57.53635
# Shear Modulus (GPa) = 25.52148 29.36755 27.44451
#
# Velocity S-wave (km/s) = 3.51913 3.77499 3.64930
# Velocity P-wave (km/s) = 6.58784 6.92477 6.75840
#
# Compressibility (1/GPa) = 0.01804754
#
# Stress axis : x y z
#
# Youngs Moduli (GPa) = 74.52146 75.02485 98.16255
#
# Poissons Ratio (x) = 0.15234 0.25528
# Poissons Ratio (y) = 0.15132 0.47242
# Poissons Ratio (z) = 0.19380 0.36107
#
# Static dielectric constant tensor:
#      x y z
#    x 1.764610 0.000000 0.003820 
#    y 0.000000 1.753510 0.000000 
#    z 0.003820 0.000000 1.902560 
# 
# From -- ./inp_files/23442.got.cif
#   From: 2010.05.17/outbox.cif.g08.bks.cpg/sg5_12_cif.got.tgz:23442.got - 2010.06.03 18:56:24.
