data_PCOD9124622
_publ_section_title
;
Structure prediction by ZEFSAII (Michael W. Deem and Ramdas Pophale) SiO2 
 PCOD9124622
Probable space group: C 2
;
_chemical_formula_sum "Si O2"
_cell_formula_units_Z 26
_cell_length_a 8.663706
_cell_length_b 10.114893
_cell_length_c 17.667828
_cell_angle_alpha 90.000000
_cell_angle_beta 133.852672
_cell_angle_gamma 90.000000
_cell_volume 1116.497853
_symmetry_space_group_name_H-M "C 2"
_symmetry_group_IT_number 5
_symmetry_cell_setting 'monoclinic'
loop_
_space_group_symop_operation_xyz
x,y,z
-x,y,-z
1/2+x,1/2+y,z
1/2-x,1/2+y,-z
loop_
_atom_site_type_symbol
_atom_site_label
_atom_site_fract_x
_atom_site_fract_y
_atom_site_fract_z
Si Si1 0.531654 0.451190 0.356940
Si Si2 0.184970 0.611507 0.001331
Si Si3 0.451689 0.857997 0.072762
Si Si4 0.597465 0.457429 0.207792
Si Si5 0.090539 0.238075 0.683638
Si Si6 0.500000 0.898352 0.500000
Si Si7 0.246130 0.729136 0.700851
O O1 0.506178 0.421465 0.259142
O O2 0.391509 0.581150 0.325611
O O3 0.785984 0.477359 0.450542
O O4 0.461725 0.320313 0.377916
O O5 0.256479 0.756211 0.004634
O O6 0.401009 0.532977 0.101100
O O7 0.095057 0.504719 0.911829
O O8 0.000000 0.628509 0.000000
O O9 0.626562 0.793498 0.185546
O O10 0.500000 0.870911 0.000000
O O11 0.713326 0.326185 0.216104
O O12 0.772093 0.574589 0.283355
O O13 0.048591 0.307591 0.589266
O O14 0.899950 0.242629 0.680393
#
# Coordination Sequence:
#
# PCOD9124622 Si02
#       7
#     4   4   4   4   4   2   4
#     4  10  21  40  64  88 117 153 191 238 293 350
#     4  10  21  37  58  85 119 157 197 243 289 337
#     4  10  22  37  56  87 120 154 197 243 286 337
#     4   9  21  40  58  86 123 153 193 245 290 338
#     4  10  23  40  62  88 116 154 193 238 292 350
#     4  10  24  40  60  92 122 144 186 246 296 346
#     4  10  22  39  60  87 119 156 195 238 289 345
#
# _framework density 23.287102000000001
#
# number of rings (size 3 to 8) (size 9 to 14) (size 15 to 20)
#    0.000    2.154    0.000    1.846    0.000   16.000 
#    0.000    0.000    0.000    0.923    0.000    0.000 
#    0.000    0.000    0.000    0.000    0.000    0.000 
#
# Total GULP energy -72482.963741 kJ/mol
# GULP energy per Si atom -5575.612595 kJ/mol
# Density = 2.323410 g / cm^3
# Si number density = 23.287102 Si / 1000 Ang^3
#
#
#
# Elastic Constant Matrix: (Units=GPa)
#
#
# Indices 1 2 3 4 5 6 
#
# 1 47.0833 50.7543 17.1840 0.0000 11.9635 0.0000
# 2 50.7543 151.9655 6.4959 0.0000 36.5599 0.0000
# 3 17.1840 6.4959 61.0994 0.0000 11.2976 0.0000
# 4 0.0000 0.0000 0.0000 28.1056 0.0000 8.2851
# 5 11.9635 36.5599 11.2976 0.0000 34.7876 0.0000
# 6 0.0000 0.0000 0.0000 8.2851 0.0000 33.7423
#
#
#
# Elastic Compliance Matrix: (Units=1/GPa)
#
#
# Indices 1 2 3 4 5 6 
#
# 1 0.038258 -0.013344 -0.010109 0.000000 0.004150 0.000000
# 2 -0.013344 0.013501 0.004354 0.000000 -0.011013 0.000000
# 3 -0.010109 0.004354 0.020161 0.000000 -0.007647 0.000000
# 4 0.000000 0.000000 0.000000 0.038356 0.000000 -0.009418
# 5 0.004150 -0.011013 -0.007647 0.000000 0.041377 0.000000
# 6 0.000000 0.000000 0.000000 -0.009418 0.000000 0.031949
#
#
# Mechanical properties :
#
#
# Convention : Reuss Voigt Hill
#
# Bulk Modulus (GPa) = 29.65358 45.44630 37.54994
# Shear Modulus (GPa) = 21.45557 31.70803 26.58180
#
# Velocity S-wave (km/s) = 3.03867 3.69401 3.38225
# Velocity P-wave (km/s) = 5.00728 6.14429 5.60469
#
# Compressibility (1/GPa) = 0.03372275
#
# Stress axis : x y z
#
# Youngs Moduli (GPa) = 26.13814 74.07066 49.60110
#
# Poissons Ratio (x) = 0.98839 0.50140
# Poissons Ratio (y) = 0.34879 -0.21597
# Poissons Ratio (z) = 0.26422 -0.32251
#
# Static dielectric constant tensor:
#      x y z
#    x 1.855590 0.000000 0.066890 
#    y 0.000000 1.933560 0.000000 
#    z 0.066890 0.000000 2.016730 
# 
# From -- ./inp_files/50104.got.cif
#   From: 2010.05.17/outbox.cif.g08.bks.cpg/sg5_26_cif.got.tgz:50104.got - 2010.06.03 18:56:24.
