data_PCOD9124295
_publ_section_title
;
Structure prediction by ZEFSAII (Michael W. Deem and Ramdas Pophale) SiO2 
 PCOD9124295
Probable space group: C 2
;
_chemical_formula_sum "Si O2"
_cell_formula_units_Z 22
_cell_length_a 5.608468
_cell_length_b 12.952298
_cell_length_c 14.296002
_cell_angle_alpha 90.000000
_cell_angle_beta 115.922777
_cell_angle_gamma 90.000000
_cell_volume 934.008574
_symmetry_space_group_name_H-M "C 2"
_symmetry_group_IT_number 5
_symmetry_cell_setting 'monoclinic'
loop_
_space_group_symop_operation_xyz
x,y,z
-x,y,-z
1/2+x,1/2+y,z
1/2-x,1/2+y,-z
loop_
_atom_site_type_symbol
_atom_site_label
_atom_site_fract_x
_atom_site_fract_y
_atom_site_fract_z
Si Si1 0.056839 0.760720 0.618827
Si Si2 0.463344 0.878550 0.209052
Si Si3 0.684582 0.472277 0.439828
Si Si4 0.500000 0.360146 0.000000
Si Si5 0.773175 0.074130 0.730685
Si Si6 0.733930 0.019223 0.095612
O O1 0.345994 0.806553 0.696476
O O2 0.047661 0.659669 0.681594
O O3 0.000000 0.735708 0.500000
O O4 0.866287 0.856470 0.605913
O O5 0.233579 0.819861 0.109848
O O6 0.336440 0.964385 0.254790
O O7 0.632273 0.951779 0.166443
O O8 0.500000 0.481012 0.500000
O O9 0.605116 0.557860 0.351249
O O10 0.000000 0.484651 0.500000
O O11 0.335532 0.433219 0.041209
O O12 0.020777 0.093011 0.839934
O O13 0.500000 0.075800 0.000000
#
# Coordination Sequence:
#
# PCOD9124295 Si02
#       6
#     4   4   4   2   4   4
#     4  11  24  43  64 102 136 179 233 275 337 418
#     4  10  20  43  67  97 135 175 223 289 340 403
#     4  11  24  46  69  97 142 187 233 289 341 404
#     4   8  18  36  76  92 124 178 218 278 356 402
#     4  11  22  42  66  95 135 181 227 280 345 403
#     4   9  18  38  69  94 127 172 221 284 348 403
#
# _framework density 23.554389
#
# number of rings (size 3 to 8) (size 9 to 14) (size 15 to 20)
#    0.000    1.818    1.818    2.727    0.000    0.000 
#   11.455    3.636   32.000    0.000    0.000    0.000 
#    0.000    0.000    0.000    0.000    0.000    0.000 
#
# Total GULP energy -61323.444387 kJ/mol
# GULP energy per Si atom -5574.858581 kJ/mol
# Density = 2.350078 g / cm^3
# Si number density = 23.554389 Si / 1000 Ang^3
#
#
#
# Elastic Constant Matrix: (Units=GPa)
#
#
# Indices 1 2 3 4 5 6 
#
# 1 90.4539 3.0927 37.9955 0.0000 -7.4729 0.0000
# 2 3.0927 55.6228 32.2327 0.0000 2.5497 0.0000
# 3 37.9955 32.2327 162.4442 0.0000 38.5040 0.0000
# 4 0.0000 0.0000 0.0000 26.6118 0.0000 13.3827
# 5 -7.4729 2.5497 38.5040 0.0000 51.3108 0.0000
# 6 0.0000 0.0000 0.0000 13.3827 0.0000 20.0520
#
#
#
# Elastic Compliance Matrix: (Units=1/GPa)
#
#
# Indices 1 2 3 4 5 6 
#
# 1 0.013463 0.001782 -0.004800 0.000000 0.005474 0.000000
# 2 0.001782 0.020807 -0.005305 0.000000 0.003207 0.000000
# 3 -0.004800 -0.005305 0.010259 0.000000 -0.008134 0.000000
# 4 0.000000 0.000000 0.000000 0.056561 0.000000 -0.037749
# 5 0.005474 0.003207 -0.008134 0.000000 0.026231 0.000000
# 6 0.000000 0.000000 0.000000 -0.037749 0.000000 0.075064
#
#
# Mechanical properties :
#
#
# Convention : Reuss Voigt Hill
#
# Bulk Modulus (GPa) = 35.86534 50.57365 43.21950
# Shear Modulus (GPa) = 21.89850 35.27490 28.58670
#
# Velocity S-wave (km/s) = 3.05240 3.87407 3.48752
# Velocity P-wave (km/s) = 5.26142 6.44429 5.88266
#
# Compressibility (1/GPa) = 0.02788207
#
# Stress axis : x y z
#
# Youngs Moduli (GPa) = 74.27757 48.06169 97.47065
#
# Poissons Ratio (x) = -0.08565 0.46787
# Poissons Ratio (y) = -0.13237 0.51713
# Poissons Ratio (z) = 0.35654 0.25499
#
# Static dielectric constant tensor:
#      x y z
#    x 1.935400 0.000000 0.020200 
#    y 0.000000 1.873360 0.000000 
#    z 0.020200 0.000000 2.049050 
# 
# From -- ./inp_files/48998.got.cif
#   From: 2010.05.17/outbox.cif.g08.bks.cpg/sg5_25_cif.got.tgz:48998.got - 2010.06.03 18:56:24.
