data_PCOD9124570
_publ_section_title
;
Structure prediction by ZEFSAII (Michael W. Deem and Ramdas Pophale) SiO2 
 PCOD9124570
Probable space group: C 2
;
_chemical_formula_sum "Si O2"
_cell_formula_units_Z 28
_cell_length_a 19.700261
_cell_length_b 11.809011
_cell_length_c 6.148968
_cell_angle_alpha 90.000000
_cell_angle_beta 55.589567
_cell_angle_gamma 90.000000
_cell_volume 1180.177345
_symmetry_space_group_name_H-M "C 2"
_symmetry_group_IT_number 5
_symmetry_cell_setting 'monoclinic'
loop_
_space_group_symop_operation_xyz
x,y,z
-x,y,-z
1/2+x,1/2+y,z
1/2-x,1/2+y,-z
loop_
_atom_site_type_symbol
_atom_site_label
_atom_site_fract_x
_atom_site_fract_y
_atom_site_fract_z
Si Si1 0.403890 0.306050 0.680124
Si Si2 0.076123 0.610788 0.008674
Si Si3 0.245092 0.421646 0.077000
Si Si4 0.302657 0.139781 0.576520
Si Si5 0.409787 0.869311 0.938160
Si Si6 0.829821 0.260769 0.449775
Si Si7 0.484473 0.642320 0.290060
O O1 0.500000 0.336032 0.500000
O O2 0.364928 0.235921 0.549719
O O3 0.400996 0.210925 0.873008
O O4 0.339205 0.407087 0.835034
O O5 0.153947 0.587389 0.713627
O O6 0.050311 0.492345 0.167440
O O7 0.000000 0.646710 0.000000
O O8 0.218879 0.544908 0.207799
O O9 0.177372 0.381307 0.025895
O O10 0.232350 0.331398 0.293452
O O11 0.218790 0.195451 0.648131
O O12 0.461213 0.757849 0.786926
O O13 0.391693 0.848937 0.224901
O O14 0.888087 0.173506 0.466793
O O15 0.500000 0.583793 0.500000
O O16 0.500000 0.602832 0.000000
#
# Coordination Sequence:
#
# PCOD9124570 Si02
#       7
#     4   4   4   4   4   4   4
#     4  12  26  44  69 105 145 189 238 302 369 442
#     4  12  23  38  66 105 138 179 239 302 366 439
#     4  12  24  41  70 104 139 184 239 303 366 437
#     4  12  25  41  69 101 140 191 246 294 360 442
#     4  11  22  37  66 102 143 175 228 306 377 436
#     4  11  22  40  63  96 143 186 230 296 369 439
#     4  10  21  36  63 101 140 183 226 293 377 441
#
# _framework density 23.725245000000001
#
# number of rings (size 3 to 8) (size 9 to 14) (size 15 to 20)
#    0.000    0.571    8.571    1.286    0.000    0.571 
#    0.000    0.000    0.000   21.429    0.000    0.000 
#    0.000    0.000    0.000    0.000    0.000    0.000 
#
# Total GULP energy -78161.923732 kJ/mol
# GULP energy per Si atom -5582.994552 kJ/mol
# Density = 2.367125 g / cm^3
# Si number density = 23.725245 Si / 1000 Ang^3
#
#
#
# Elastic Constant Matrix: (Units=GPa)
#
#
# Indices 1 2 3 4 5 6 
#
# 1 148.1224 25.3901 22.2098 0.0000 -3.7666 0.0000
# 2 25.3901 67.8351 27.8737 0.0000 -3.8810 0.0000
# 3 22.2098 27.8737 88.8011 0.0000 -6.8901 0.0000
# 4 0.0000 0.0000 0.0000 16.5332 0.0000 -4.7164
# 5 -3.7666 -3.8810 -6.8901 0.0000 43.6183 0.0000
# 6 0.0000 0.0000 0.0000 -4.7164 0.0000 22.8026
#
#
#
# Elastic Compliance Matrix: (Units=1/GPa)
#
#
# Indices 1 2 3 4 5 6 
#
# 1 0.007311 -0.002272 -0.001096 0.000000 0.000256 0.000000
# 2 -0.002272 0.017650 -0.004926 0.000000 0.000596 0.000000
# 3 -0.001096 -0.004926 0.013202 0.000000 0.001553 0.000000
# 4 0.000000 0.000000 0.000000 0.064277 0.000000 0.013295
# 5 0.000256 0.000596 0.001553 0.000000 0.023247 0.000000
# 6 0.000000 0.000000 0.000000 0.013295 0.000000 0.046605
#
#
# Mechanical properties :
#
#
# Convention : Reuss Voigt Hill
#
# Bulk Modulus (GPa) = 46.34583 50.63399 48.48991
# Shear Modulus (GPa) = 25.50114 31.87649 28.68881
#
# Velocity S-wave (km/s) = 3.28205 3.66945 3.48114
# Velocity P-wave (km/s) = 5.82574 6.27226 6.05312
#
# Compressibility (1/GPa) = 0.02157691
#
# Stress axis : x y z
#
# Youngs Moduli (GPa) = 136.77312 56.65714 75.74753
#
# Poissons Ratio (x) = 0.12871 0.08300
# Poissons Ratio (y) = 0.31071 0.37311
# Poissons Ratio (z) = 0.14986 0.27908
#
# Static dielectric constant tensor:
#      x y z
#    x 1.905610 0.000000 0.014670 
#    y 0.000000 1.907430 0.000000 
#    z 0.014670 0.000000 2.003480 
# 
# From -- ./inp_files/8610.got.cif
#   From: 2010.05.17/outbox.cif.g08.bks.cpg/sg5_5_cif.got.tgz:8610.got - 2010.06.03 18:56:24.
