data_PCOD9124030
_publ_section_title
;
Structure prediction by ZEFSAII (Michael W. Deem and Ramdas Pophale) SiO2 
 PCOD9124030
Probable space group: C 2
;
_chemical_formula_sum "Si O2"
_cell_formula_units_Z 26
_cell_length_a 12.049563
_cell_length_b 14.740579
_cell_length_c 7.943158
_cell_angle_alpha 90.000000
_cell_angle_beta 126.194964
_cell_angle_gamma 90.000000
_cell_volume 1138.568467
_symmetry_space_group_name_H-M "C 2"
_symmetry_group_IT_number 5
_symmetry_cell_setting 'monoclinic'
loop_
_space_group_symop_operation_xyz
x,y,z
-x,y,-z
1/2+x,1/2+y,z
1/2-x,1/2+y,-z
loop_
_atom_site_type_symbol
_atom_site_label
_atom_site_fract_x
_atom_site_fract_y
_atom_site_fract_z
Si Si1 0.498277 0.201100 0.186907
Si Si2 0.766583 0.102267 0.547532
Si Si3 0.650100 0.851320 0.725710
Si Si4 0.987236 0.237859 0.797259
Si Si5 0.868121 0.550931 0.250343
Si Si6 0.500000 0.323551 0.500000
Si Si7 0.760885 0.392062 0.546053
O O1 0.650372 0.169618 0.375879
O O2 0.405088 0.111559 0.124895
O O3 0.450780 0.265063 0.295894
O O4 0.500000 0.236136 0.000000
O O5 0.908325 0.154500 0.635832
O O6 0.748657 0.091614 0.733788
O O7 0.728345 0.001201 0.449930
O O8 0.500000 0.851015 0.500000
O O9 0.628529 0.768431 0.832847
O O10 0.754844 0.858825 0.663637
O O11 0.661817 0.948024 0.826842
O O12 0.887710 0.328227 0.716558
O O13 0.000000 0.210658 0.000000
O O14 0.000000 0.551104 0.500000
O O15 0.629659 0.375189 0.542747
#
# Coordination Sequence:
#
# PCOD9124030 Si02
#       7
#     4   4   4   4   4   2   4
#     4  11  20  36  69  98 126 176 232 272 333 404
#     4  10  20  41  66  94 134 175 223 278 345 398
#     4   8  17  34  60  90 125 169 219 268 331 394
#     4  11  21  39  69 101 136 175 223 285 344 403
#     4   8  14  32  59  88 128 167 214 281 319 383
#     4  12  22  46  64  92 140 174 224 284 332 406
#     4  10  22  43  68  90 130 186 215 281 347 397
#
# _framework density 22.835692999999999
#
# number of rings (size 3 to 8) (size 9 to 14) (size 15 to 20)
#    0.000    2.154    3.846    2.769    0.000    2.462 
#    9.692    0.769    3.385    0.000    0.000    0.000 
#    0.000    0.000    0.000    0.000    0.000    0.000 
#
# Total GULP energy -72471.195246 kJ/mol
# GULP energy per Si atom -5574.707327 kJ/mol
# Density = 2.278372 g / cm^3
# Si number density = 22.835693 Si / 1000 Ang^3
#
#
#
# Elastic Constant Matrix: (Units=GPa)
#
#
# Indices 1 2 3 4 5 6 
#
# 1 124.0390 34.5314 15.2440 0.0000 -18.5328 0.0000
# 2 34.5314 91.5747 10.2734 0.0000 7.8314 0.0000
# 3 15.2440 10.2734 26.5040 0.0000 -6.1257 0.0000
# 4 0.0000 0.0000 0.0000 1.2576 0.0000 -10.4493
# 5 -18.5328 7.8314 -6.1257 0.0000 21.0899 0.0000
# 6 0.0000 0.0000 0.0000 -10.4493 0.0000 37.0681
#
#
#
# Elastic Compliance Matrix: (Units=1/GPa)
#
#
# Indices 1 2 3 4 5 6 
#
# 1 0.011401 -0.005044 -0.001987 0.000000 0.011314 0.000000
# 2 -0.005044 0.014382 -0.005288 0.000000 -0.011309 0.000000
# 3 -0.001987 -0.005288 0.043921 0.000000 0.012974 0.000000
# 4 0.000000 0.000000 0.000000 -0.592434 0.000000 -0.167003
# 5 0.011314 -0.011309 0.012974 0.000000 0.065326 0.000000
# 6 0.000000 0.000000 0.000000 -0.167003 0.000000 -0.020100
#
#
# Mechanical properties :
#
#
# Convention : Reuss Voigt Hill
#
# Bulk Modulus (GPa) = 22.18900 40.24613 31.21756
# Shear Modulus (GPa) = -11.41959 24.02108 6.30074
#
# Velocity S-wave (km/s) = -2.23867 3.24683 1.66288
# Velocity P-wave (km/s) = 1.74807 5.63191 4.16978
#
# Compressibility (1/GPa) = 0.04506738
#
# Stress axis : x y z
#
# Youngs Moduli (GPa) = 87.71342 69.53033 22.76797
#
# Poissons Ratio (x) = 0.35069 0.04525
# Poissons Ratio (y) = 0.44240 0.12039
# Poissons Ratio (z) = 0.17431 0.36764
#
# Static dielectric constant tensor:
#      x y z
#    x 1.893980 0.000000 0.010110 
#    y 0.000000 1.915700 0.000000 
#    z 0.010110 0.000000 1.894470 
# 
# From -- ./inp_files/20493.got.cif
#   From: 2010.05.17/outbox.cif.g08.bks.cpg/sg5_11_cif.got.tgz:20493.got - 2010.06.03 18:56:24.
