data_PCOD9124834
_publ_section_title
;
Structure prediction by ZEFSAII (Michael W. Deem and Ramdas Pophale) SiO2 
 PCOD9124834
Probable space group: C 2
;
_chemical_formula_sum "Si O2"
_cell_formula_units_Z 22
_cell_length_a 8.045265
_cell_length_b 13.597156
_cell_length_c 10.614762
_cell_angle_alpha 90.000000
_cell_angle_beta 65.226478
_cell_angle_gamma 90.000000
_cell_volume 1054.315956
_symmetry_space_group_name_H-M "C 2"
_symmetry_group_IT_number 5
_symmetry_cell_setting 'monoclinic'
loop_
_space_group_symop_operation_xyz
x,y,z
-x,y,-z
1/2+x,1/2+y,z
1/2-x,1/2+y,-z
loop_
_atom_site_type_symbol
_atom_site_label
_atom_site_fract_x
_atom_site_fract_y
_atom_site_fract_z
Si Si1 0.927618 0.013540 0.380904
Si Si2 0.210401 0.326701 0.453815
Si Si3 0.132795 0.935218 0.072440
Si Si4 0.500000 0.049550 0.000000
Si Si5 0.810456 0.685673 0.622411
Si Si6 0.511422 0.224277 0.182733
O O1 0.858204 0.120039 0.364849
O O2 0.000000 0.012559 0.500000
O O3 0.754616 0.940719 0.427370
O O4 0.062423 0.972386 0.231171
O O5 0.276098 0.291522 0.570529
O O6 0.338423 0.269193 0.313375
O O7 0.000000 0.305256 0.500000
O O8 0.109609 0.816184 0.081384
O O9 0.000000 0.969483 0.000000
O O10 0.335657 0.980932 0.001052
O O11 0.551090 0.129181 0.875440
O O12 0.843546 0.689736 0.758929
O O13 0.000000 0.648758 0.500000
#
# Coordination Sequence:
#
# PCOD9124834 Si02
#       6
#     4   4   4   2   4   4
#     4  11  23  41  66  99 137 171 228 289 340 418
#     4  10  21  39  65  99 132 174 216 281 358 408
#     4  11  25  49  69 102 143 185 238 290 344 422
#     4  12  26  46  74  98 138 196 232 286 354 410
#     4  10  21  38  64  97 132 169 218 278 354 409
#     4  10  23  47  65  99 140 173 236 294 329 431
#
# _framework density 20.866610000000001
#
# number of rings (size 3 to 8) (size 9 to 14) (size 15 to 20)
#    0.000    1.455    0.909    4.909    7.636    0.000 
#   21.273    0.000    0.000    0.000    0.000    0.000 
#    0.000    0.000    0.000    0.000    0.000    0.000 
#
# Total GULP energy -61397.176551 kJ/mol
# GULP energy per Si atom -5581.561505 kJ/mol
# Density = 2.081912 g / cm^3
# Si number density = 20.866610 Si / 1000 Ang^3
#
#
#
# Elastic Constant Matrix: (Units=GPa)
#
#
# Indices 1 2 3 4 5 6 
#
# 1 128.8986 33.3097 31.3645 0.0000 13.4373 0.0000
# 2 33.3097 78.8363 13.1321 0.0000 -1.1165 0.0000
# 3 31.3645 13.1321 53.1406 0.0000 27.5538 0.0000
# 4 0.0000 0.0000 0.0000 17.4219 0.0000 9.3675
# 5 13.4373 -1.1165 27.5538 0.0000 30.7235 0.0000
# 6 0.0000 0.0000 0.0000 9.3675 0.0000 23.4842
#
#
#
# Elastic Compliance Matrix: (Units=1/GPa)
#
#
# Indices 1 2 3 4 5 6 
#
# 1 0.009829 -0.003314 -0.005030 0.000000 0.000092 0.000000
# 2 -0.003314 0.015051 -0.005231 0.000000 0.006688 0.000000
# 3 -0.005030 -0.005231 0.041192 0.000000 -0.034933 0.000000
# 4 0.000000 0.000000 0.000000 0.073071 0.000000 -0.029147
# 5 0.000092 0.006688 -0.034933 0.000000 0.064080 0.000000
# 6 0.000000 0.000000 0.000000 -0.029147 0.000000 0.054208
#
#
# Mechanical properties :
#
#
# Convention : Reuss Voigt Hill
#
# Bulk Modulus (GPa) = 25.69200 46.27645 35.98422
# Shear Modulus (GPa) = 16.80366 26.53055 21.66711
#
# Velocity S-wave (km/s) = 2.84084 3.56959 3.22586
# Velocity P-wave (km/s) = 4.80622 6.26216 5.58186
#
# Compressibility (1/GPa) = 0.03892263
#
# Stress axis : x y z
#
# Youngs Moduli (GPa) = 101.74347 66.44224 24.27635
#
# Poissons Ratio (x) = 0.22017 0.12210
# Poissons Ratio (y) = 0.33714 0.12699
# Poissons Ratio (z) = 0.51174 0.34757
#
# Static dielectric constant tensor:
#      x y z
#    x 1.715170 0.000000 0.012610 
#    y 0.000000 1.731680 0.000000 
#    z 0.012610 0.000000 1.778800 
# 
# From -- ./inp_files/35180.got.cif
#   From: 2010.05.17/outbox.cif.g08.bks.cpg/sg5_18_cif.got.tgz:35180.got - 2010.06.03 18:56:24.
