data_PCOD9124306
_publ_section_title
;
Structure prediction by ZEFSAII (Michael W. Deem and Ramdas Pophale) SiO2 
 PCOD9124306
Probable space group: C 2
;
_chemical_formula_sum "Si O2"
_cell_formula_units_Z 30
_cell_length_a 7.311157
_cell_length_b 11.857853
_cell_length_c 22.027297
_cell_angle_alpha 90.000000
_cell_angle_beta 138.054114
_cell_angle_gamma 90.000000
_cell_volume 1276.463187
_symmetry_space_group_name_H-M "C 2"
_symmetry_group_IT_number 5
_symmetry_cell_setting 'monoclinic'
loop_
_space_group_symop_operation_xyz
x,y,z
-x,y,-z
1/2+x,1/2+y,z
1/2-x,1/2+y,-z
loop_
_atom_site_type_symbol
_atom_site_label
_atom_site_fract_x
_atom_site_fract_y
_atom_site_fract_z
Si Si1 0.137872 0.057150 0.377042
Si Si2 0.336744 0.104752 0.558373
Si Si3 0.754113 0.721071 0.765994
Si Si4 0.451465 0.815374 0.155223
Si Si5 0.773439 0.364206 0.603697
Si Si6 0.825546 0.571288 0.085159
Si Si7 0.500000 0.154938 0.000000
Si Si8 0.019044 0.818771 0.343497
O O1 0.165633 0.085668 0.454640
O O2 0.361593 0.124264 0.393797
O O3 0.861716 0.096923 0.278718
O O4 0.202562 0.927851 0.378741
O O5 0.302820 0.212472 0.592663
O O6 0.322387 0.990494 0.592547
O O7 0.665103 0.775531 0.807818
O O8 0.563085 0.796070 0.672923
O O9 0.066811 0.682535 0.851552
O O10 0.780294 0.793545 0.236306
O O11 0.395058 0.947157 0.129200
O O12 0.267396 0.735938 0.066988
O O13 0.500000 0.323103 0.500000
O O14 0.662298 0.364524 0.644586
O O15 0.500000 0.575989 0.000000
O O16 0.968885 0.582539 0.053902
#
# Coordination Sequence:
#
# PCOD9124306 Si02
#       8
#     4   4   4   4   4   4   2   4
#     4  11  21  39  64  94 134 180 225 278 331 398
#     4  11  24  39  61  95 135 180 231 273 329 403
#     4  10  22  41  72  99 135 187 229 285 357 411
#     4  10  20  43  70  96 137 170 225 296 349 413
#     4  11  21  43  65  94 139 184 227 282 336 393
#     4  11  23  47  75 104 139 183 235 292 363 435
#     4  10  24  46  70 102 138 178 226 294 364 428
#     4  11  22  42  64  91 134 179 220 282 337 396
#
# _framework density 23.502438999999999
#
# number of rings (size 3 to 8) (size 9 to 14) (size 15 to 20)
#    0.000    1.333    6.000    0.800    0.000    0.000 
#   13.200    0.000    0.000    0.000    0.000    0.000 
#    0.000    0.000    0.000    0.000    0.000    0.000 
#
# Total GULP energy -83636.075546 kJ/mol
# GULP energy per Si atom -5575.738370 kJ/mol
# Density = 2.344895 g / cm^3
# Si number density = 23.502439 Si / 1000 Ang^3
#
#
#
# Elastic Constant Matrix: (Units=GPa)
#
#
# Indices 1 2 3 4 5 6 
#
# 1 42.5150 23.5573 20.6800 0.0000 -6.3771 0.0000
# 2 23.5573 152.0603 51.7022 0.0000 -13.0754 0.0000
# 3 20.6800 51.7022 124.9084 0.0001 10.2131 0.0000
# 4 0.0000 0.0000 0.0001 21.1659 0.0000 -11.0644
# 5 -6.3771 -13.0754 10.2131 0.0000 36.9530 0.0000
# 6 0.0000 0.0000 0.0000 -11.0644 0.0000 33.8993
#
#
#
# Elastic Compliance Matrix: (Units=1/GPa)
#
#
# Indices 1 2 3 4 5 6 
#
# 1 0.027566 -0.002508 -0.003931 0.000000 0.004956 0.000000
# 2 -0.002508 0.008400 -0.003345 0.000000 0.003464 0.000000
# 3 -0.003931 -0.003345 0.010429 0.000000 -0.004744 0.000000
# 4 0.000000 0.000000 0.000000 0.056965 0.000000 0.018593
# 5 0.004956 0.003464 -0.004744 0.000000 0.030454 0.000000
# 6 0.000000 0.000000 0.000000 0.018593 0.000000 0.035568
#
#
# Mechanical properties :
#
#
# Convention : Reuss Voigt Hill
#
# Bulk Modulus (GPa) = 37.27492 56.81807 47.04650
# Shear Modulus (GPa) = 25.26626 33.30659 29.28642
#
# Velocity S-wave (km/s) = 3.28235 3.76860 3.53385
# Velocity P-wave (km/s) = 5.50087 6.56995 6.05904
#
# Compressibility (1/GPa) = 0.02682769
#
# Stress axis : x y z
#
# Youngs Moduli (GPa) = 36.27624 119.04714 95.88460
#
# Poissons Ratio (x) = 0.29854 0.37694
# Poissons Ratio (y) = 0.09097 0.32073
# Poissons Ratio (z) = 0.14261 0.39821
#
# Static dielectric constant tensor:
#      x y z
#    x 1.913760 0.000000 -0.020850 
#    y 0.000000 1.903670 0.000000 
#    z -0.020850 0.000000 1.951720 
# 
# From -- ./inp_files/67976.got.cif
#   From: 2010.05.17/outbox.cif.g08.bks.cpg/sg5_34_cif.got.tgz:67976.got - 2010.06.03 18:56:24.
