data_PCOD9124300
_publ_section_title
;
Structure prediction by ZEFSAII (Michael W. Deem and Ramdas Pophale) SiO2 
 PCOD9124300
Probable space group: C 2
;
_chemical_formula_sum "Si O2"
_cell_formula_units_Z 24
_cell_length_a 9.100091
_cell_length_b 12.048665
_cell_length_c 8.429181
_cell_angle_alpha 90.000000
_cell_angle_beta 97.223279
_cell_angle_gamma 90.000000
_cell_volume 916.873883
_symmetry_space_group_name_H-M "C 2"
_symmetry_group_IT_number 5
_symmetry_cell_setting 'monoclinic'
loop_
_space_group_symop_operation_xyz
x,y,z
-x,y,-z
1/2+x,1/2+y,z
1/2-x,1/2+y,-z
loop_
_atom_site_type_symbol
_atom_site_label
_atom_site_fract_x
_atom_site_fract_y
_atom_site_fract_z
Si Si1 0.031795 0.891260 0.665333
Si Si2 0.000000 0.629936 0.000000
Si Si3 0.791290 0.346072 0.276163
Si Si4 0.206336 0.434237 0.082844
Si Si5 0.500000 0.988280 0.500000
Si Si6 0.150492 0.670094 0.716115
Si Si7 0.540222 0.709775 0.178491
O O1 0.881725 0.842117 0.716822
O O2 0.000000 0.958594 0.500000
O O3 0.134905 0.945757 0.812210
O O4 0.124782 0.783476 0.621192
O O5 0.101766 0.695531 0.890603
O O6 0.883107 0.546626 0.904353
O O7 0.865706 0.405883 0.438857
O O8 0.893429 0.237977 0.257473
O O9 0.797533 0.410673 0.106492
O O10 0.117365 0.331126 0.151724
O O11 0.538922 0.076870 0.641884
O O12 0.323821 0.640057 0.730877
O O13 0.500000 0.663990 0.000000
#
# Coordination Sequence:
#
# PCOD9124300 Si02
#       7
#     4   2   4   4   2   4   4
#     4  11  26  42  69 100 136 179 233 282 331 417
#     4  12  22  42  70  98 138 186 216 298 332 398
#     4  11  23  42  72  94 132 189 228 280 330 417
#     4  10  20  43  68  98 129 180 236 263 333 412
#     4  12  24  42  66  98 138 172 226 282 354 376
#     4  11  25  41  66  98 138 174 223 288 344 399
#     4   9  20  42  70  94 126 174 237 271 326 417
#
# _framework density 26.175902000000001
#
# number of rings (size 3 to 8) (size 9 to 14) (size 15 to 20)
#    0.000    1.333    5.000    0.500   14.000    0.000 
#    3.000    0.000    0.000    0.000    0.000    0.000 
#    0.000    0.000    0.000    0.000    0.000    0.000 
#
# Total GULP energy -67014.154269 kJ/mol
# GULP energy per Si atom -5584.512856 kJ/mol
# Density = 2.611632 g / cm^3
# Si number density = 26.175902 Si / 1000 Ang^3
#
#
#
# Elastic Constant Matrix: (Units=GPa)
#
#
# Indices 1 2 3 4 5 6 
#
# 1 190.8390 16.9314 85.4073 0.0000 30.6418 0.0000
# 2 16.9314 48.7534 24.8949 0.0000 5.1987 0.0000
# 3 85.4073 24.8949 112.3135 0.0000 33.2066 0.0000
# 4 0.0000 0.0000 0.0000 31.4576 0.0000 6.7103
# 5 30.6418 5.1987 33.2066 0.0000 54.1476 0.0000
# 6 0.0000 0.0000 0.0000 6.7103 0.0000 25.0164
#
#
#
# Elastic Compliance Matrix: (Units=1/GPa)
#
#
# Indices 1 2 3 4 5 6 
#
# 1 0.007989 0.000322 -0.005864 0.000000 -0.000956 0.000000
# 2 0.000322 0.023199 -0.005710 0.000000 0.001092 0.000000
# 3 -0.005864 -0.005710 0.016472 0.000000 -0.006235 0.000000
# 4 0.000000 0.000000 0.000000 0.033718 0.000000 -0.009044
# 5 -0.000956 0.001092 -0.006235 0.000000 0.022728 0.000000
# 6 0.000000 0.000000 0.000000 -0.009044 0.000000 0.042400
#
#
# Mechanical properties :
#
#
# Convention : Reuss Voigt Hill
#
# Bulk Modulus (GPa) = 39.75215 67.37477 53.56346
# Shear Modulus (GPa) = 28.18569 37.10249 32.64409
#
# Velocity S-wave (km/s) = 3.28499 3.76896 3.53527
# Velocity P-wave (km/s) = 5.44130 6.68844 6.09684
#
# Compressibility (1/GPa) = 0.02515587
#
# Stress axis : x y z
#
# Youngs Moduli (GPa) = 125.16689 43.10581 60.70933
#
# Poissons Ratio (x) = -0.01387 0.35601
# Poissons Ratio (y) = -0.04027 0.34663
# Poissons Ratio (z) = 0.73399 0.24612
#
# Static dielectric constant tensor:
#      x y z
#    x 2.036040 0.000000 0.037780 
#    y 0.000000 2.101740 0.000000 
#    z 0.037780 0.000000 2.104560 
# 
# From -- ./inp_files/15110.got.cif
#   From: 2010.05.17/outbox.cif.g08.bks.cpg/sg5_8_cif.got.tgz:15110.got - 2010.06.03 18:56:24.
