data_PCOD9124676
_publ_section_title
;
Structure prediction by ZEFSAII (Michael W. Deem and Ramdas Pophale) SiO2 
 PCOD9124676
Probable space group: C 2
;
_chemical_formula_sum "Si O2"
_cell_formula_units_Z 28
_cell_length_a 15.616656
_cell_length_b 10.413501
_cell_length_c 18.965622
_cell_angle_alpha 90.000000
_cell_angle_beta 158.038740
_cell_angle_gamma 90.000000
_cell_volume 1153.452757
_symmetry_space_group_name_H-M "C 2"
_symmetry_group_IT_number 5
_symmetry_cell_setting 'monoclinic'
loop_
_space_group_symop_operation_xyz
x,y,z
-x,y,-z
1/2+x,1/2+y,z
1/2-x,1/2+y,-z
loop_
_atom_site_type_symbol
_atom_site_label
_atom_site_fract_x
_atom_site_fract_y
_atom_site_fract_z
Si Si1 0.000000 0.458771 0.000000
Si Si2 0.942276 0.481318 0.259080
Si Si3 0.092898 0.687507 0.177979
Si Si4 0.968209 0.856888 0.391004
Si Si5 0.157144 0.578879 0.551355
Si Si6 0.500000 0.405601 0.000000
Si Si7 0.191618 0.121670 0.522656
Si Si8 0.070488 0.215359 0.813646
O O1 0.220111 0.368899 0.166139
O O2 0.076564 0.556428 0.120506
O O3 0.692003 0.481871 0.103304
O O4 0.111519 0.471483 0.457170
O O5 0.047760 0.606809 0.304326
O O6 0.953129 0.369885 0.207917
O O7 0.119795 0.808293 0.146645
O O8 0.286697 0.684075 0.384828
O O9 0.839633 0.694794 0.017630
O O10 0.000000 0.871564 0.500000
O O11 0.057772 0.714516 0.447460
O O12 0.103167 0.976465 0.462675
O O13 0.425415 0.624745 0.756769
O O14 0.000000 0.551031 0.500000
O O15 0.028574 0.181740 0.339906
#
# Coordination Sequence:
#
# PCOD9124676 Si02
#       8
#     2   4   4   4   4   2   4   4
#     4  11  20  35  60  96 126 157 203 268 316 362
#     4  10  22  41  63  86 128 168 202 253 313 366
#     4  10  21  37  62  97 120 159 207 262 315 356
#     4  11  21  37  61  92 127 161 206 258 317 373
#     4  10  23  40  62  89 127 173 205 249 317 375
#     4   9  22  41  60  90 132 159 209 262 302 378
#     4  11  21  38  64  93 122 160 206 257 318 361
#     4  10  21  41  63  90 126 157 212 263 300 373
#
# _framework density 24.274941999999999
#
# number of rings (size 3 to 8) (size 9 to 14) (size 15 to 20)
#    0.000    1.714    4.286    0.000    0.000    2.857 
#    0.000   14.286    0.000    0.000    0.000    0.000 
#    0.000    0.000    0.000    0.000    0.000    0.000 
#
# Total GULP energy -78070.001193 kJ/mol
# GULP energy per Si atom -5576.428657 kJ/mol
# Density = 2.421969 g / cm^3
# Si number density = 24.274942 Si / 1000 Ang^3
#
#
#
# Elastic Constant Matrix: (Units=GPa)
#
#
# Indices 1 2 3 4 5 6 
#
# 1 95.1880 -1.1945 24.6552 0.0068 1.4344 -0.0003
# 2 -1.1945 21.4346 9.2059 0.0098 -5.6857 0.0008
# 3 24.6552 9.2059 79.2181 0.0215 -0.3523 0.0026
# 4 0.0068 0.0098 0.0215 0.9872 0.0048 0.5366
# 5 1.4344 -5.6857 -0.3523 0.0048 49.4268 -0.0006
# 6 -0.0003 0.0008 0.0026 0.5366 -0.0006 17.5738
#
#
#
# Elastic Compliance Matrix: (Units=1/GPa)
#
#
# Indices 1 2 3 4 5 6 
#
# 1 0.011534 0.002271 -0.003854 -0.000018 -0.000101 0.000001
# 2 0.002271 0.051157 -0.006626 -0.000413 0.005772 0.000011
# 3 -0.003854 -0.006626 0.014591 -0.000226 -0.000546 0.000005
# 4 -0.000018 -0.000413 -0.000226 1.030066 -0.000149 -0.031453
# 5 -0.000101 0.005772 -0.000546 -0.000149 0.020895 0.000005
# 6 0.000001 0.000011 0.000005 -0.031453 0.000005 0.057863
#
#
# Mechanical properties :
#
#
# Convention : Reuss Voigt Hill
#
# Bulk Modulus (GPa) = 16.43016 29.01933 22.72475
# Shear Modulus (GPa) = 4.08894 24.47585 14.28239
#
# Velocity S-wave (km/s) = 1.29926 3.17878 2.42824
# Velocity P-wave (km/s) = 3.00563 5.04512 4.15254
#
# Compressibility (1/GPa) = 0.06086367
#
# Stress axis : x y z
#
# Youngs Moduli (GPa) = 86.70157 19.54765 68.53766
#
# Poissons Ratio (x) = -0.04440 0.26415
# Poissons Ratio (y) = -0.19692 0.45413
# Poissons Ratio (z) = 0.33415 0.12952
#
# Static dielectric constant tensor:
#      x y z
#    x 2.095340 -0.000010 0.019340 
#    y -0.000010 1.929170 0.000000 
#    z 0.019340 0.000000 1.997980 
# 
# From -- ./inp_files/29435.got.cif
#   From: 2010.05.17/outbox.cif.g08.bks.cpg/sg5_15_cif.got.tgz:29435.got - 2010.06.03 18:56:24.
