data_PCOD9124280
_publ_section_title
;
Structure prediction by ZEFSAII (Michael W. Deem and Ramdas Pophale) SiO2 
 PCOD9124280
Probable space group: C 2
;
_chemical_formula_sum "Si O2"
_cell_formula_units_Z 32
_cell_length_a 12.546114
_cell_length_b 10.988361
_cell_length_c 12.683427
_cell_angle_alpha 90.000000
_cell_angle_beta 113.366952
_cell_angle_gamma 90.000000
_cell_volume 1605.142741
_symmetry_space_group_name_H-M "C 2"
_symmetry_group_IT_number 5
_symmetry_cell_setting 'monoclinic'
loop_
_space_group_symop_operation_xyz
x,y,z
-x,y,-z
1/2+x,1/2+y,z
1/2-x,1/2+y,-z
loop_
_atom_site_type_symbol
_atom_site_label
_atom_site_fract_x
_atom_site_fract_y
_atom_site_fract_z
Si Si1 0.794622 0.586720 0.287548
Si Si2 0.872423 0.080572 0.973674
Si Si3 0.997976 0.772879 0.627135
Si Si4 0.264404 0.853341 0.427768
Si Si5 0.425676 0.654181 0.382339
Si Si6 0.154676 0.973171 0.805326
Si Si7 0.123021 0.283471 0.325502
Si Si8 0.600218 0.854300 0.094255
O O1 0.729556 0.550939 0.151539
O O2 0.777967 0.473918 0.361803
O O3 0.718650 0.693940 0.311978
O O4 0.923764 0.647824 0.325941
O O5 0.886666 0.225445 0.961531
O O6 0.000000 0.025855 0.000000
O O7 0.858778 0.040787 0.088623
O O8 0.862741 0.790757 0.609308
O O9 0.000000 0.791409 0.500000
O O10 0.061677 0.875396 0.724399
O O11 0.353301 0.758410 0.410313
O O12 0.314422 0.870234 0.565838
O O13 0.500000 0.584246 0.500000
O O14 0.340660 0.571678 0.284362
O O15 0.522513 0.707388 0.342366
O O16 0.274663 0.907328 0.861055
O O17 0.066527 0.344463 0.202618
O O18 0.500000 0.929660 0.000000
#
# Coordination Sequence:
#
# PCOD9124280 Si02
#       8
#     4   4   4   4   4   4   4   4
#     4  11  23  44  68 102 136 185 225 287 360 413
#     4  10  21  40  64  91 127 176 232 273 333 429
#     4  12  23  45  69 104 141 180 228 293 356 422
#     4  11  24  42  67 104 138 176 228 285 352 422
#     4  10  23  40  63 100 129 172 228 285 340 422
#     4  12  22  41  69  92 129 180 226 287 346 415
#     4  10  20  43  64  92 133 172 230 270 340 424
#     4  10  21  40  61  92 127 172 223 273 338 413
#
# _framework density 19.935921
#
# number of rings (size 3 to 8) (size 9 to 14) (size 15 to 20)
#    0.000    1.250    3.750    4.125    0.000    6.500 
#    4.500    0.000    0.000    0.000    0.000    0.000 
#    0.000    0.000    0.000    0.000    0.000    0.000 
#
# Total GULP energy -89107.484327 kJ/mol
# GULP energy per Si atom -5569.217770 kJ/mol
# Density = 1.989055 g / cm^3
# Si number density = 19.935921 Si / 1000 Ang^3
#
#
#
# Elastic Constant Matrix: (Units=GPa)
#
#
# Indices 1 2 3 4 5 6 
#
# 1 39.4028 7.9160 17.8394 0.0000 2.5887 0.0000
# 2 7.9160 48.2646 51.5383 0.0000 2.1869 0.0000
# 3 17.8394 51.5383 170.6087 0.0000 6.5627 0.0000
# 4 0.0000 0.0000 0.0000 29.1660 0.0000 -17.2480
# 5 2.5887 2.1869 6.5627 0.0000 33.1865 0.0000
# 6 0.0000 0.0000 0.0000 -17.2480 0.0000 -36.9583
#
#
#
# Elastic Compliance Matrix: (Units=1/GPa)
#
#
# Indices 1 2 3 4 5 6 
#
# 1 0.026857 -0.002066 -0.002125 0.000000 -0.001539 0.000000
# 2 -0.002066 0.030745 -0.009069 0.000000 -0.000071 0.000000
# 3 -0.002125 -0.009069 0.008861 0.000000 -0.000989 0.000000
# 4 0.000000 0.000000 0.000000 0.026871 0.000000 -0.012540
# 5 -0.001539 -0.000071 -0.000989 0.000000 0.030453 0.000000
# 6 0.000000 0.000000 0.000000 -0.012540 0.000000 -0.021205
#
#
# Mechanical properties :
#
#
# Convention : Reuss Voigt Hill
#
# Bulk Modulus (GPa) = 25.03527 45.87372 35.45450
# Shear Modulus (GPa) = 35.10837 17.14435 26.12636
#
# Velocity S-wave (km/s) = 4.20105 2.93571 3.62403
# Velocity P-wave (km/s) = 6.00973 5.87807 5.94427
#
# Compressibility (1/GPa) = 0.03994365
#
# Stress axis : x y z
#
# Youngs Moduli (GPa) = 37.23407 32.52543 112.85201
#
# Poissons Ratio (x) = 0.06720 0.23980
# Poissons Ratio (y) = 0.07693 1.02344
# Poissons Ratio (z) = 0.07912 0.29497
#
# Static dielectric constant tensor:
#      x y z
#    x 1.650540 0.000000 0.093210 
#    y 0.000000 1.723680 0.000000 
#    z 0.093210 0.000000 1.691720 
# 
# From -- ./inp_files/39430.got.cif
#   From: 2010.05.17/outbox.cif.g08.bks.cpg/sg5_20_cif.got.tgz:39430.got - 2010.06.03 18:56:24.
