data_PCOD9124473
_publ_section_title
;
Structure prediction by ZEFSAII (Michael W. Deem and Ramdas Pophale) SiO2 
 PCOD9124473
Probable space group: C 2
;
_chemical_formula_sum "Si O2"
_cell_formula_units_Z 24
_cell_length_a 25.862242
_cell_length_b 8.790550
_cell_length_c 9.311492
_cell_angle_alpha 90.000000
_cell_angle_beta 151.881502
_cell_angle_gamma 90.000000
_cell_volume 997.690528
_symmetry_space_group_name_H-M "C 2"
_symmetry_group_IT_number 5
_symmetry_cell_setting 'monoclinic'
loop_
_space_group_symop_operation_xyz
x,y,z
-x,y,-z
1/2+x,1/2+y,z
1/2-x,1/2+y,-z
loop_
_atom_site_type_symbol
_atom_site_label
_atom_site_fract_x
_atom_site_fract_y
_atom_site_fract_z
Si Si1 0.698039 0.163200 0.756322
Si Si2 0.609895 0.140455 0.844361
Si Si3 0.790202 0.852989 0.482613
Si Si4 0.041831 0.608620 0.963198
Si Si5 0.394316 0.661703 0.831966
Si Si6 0.906185 0.996214 0.158428
O O1 0.696021 0.159379 0.924781
O O2 0.729843 0.308467 0.734340
O O3 0.573150 0.139263 0.399866
O O4 0.785076 0.039029 0.916590
O O5 0.500000 0.078239 0.500000
O O6 0.616891 0.053493 0.013210
O O7 0.588878 0.314664 0.843616
O O8 0.690427 0.795995 0.339229
O O9 0.833671 0.022205 0.605205
O O10 0.889022 0.743795 0.789383
O O11 0.000000 0.516578 0.000000
O O12 0.500000 0.700077 0.000000
O O13 0.426822 0.586453 0.063555
O O14 0.000000 0.041010 0.500000
#
# Coordination Sequence:
#
# PCOD9124473 Si02
#       6
#     4   4   4   4   4   4
#     4   9  19  34  54  82 117 155 203 256 307 369
#     4   9  17  30  53  79 102 146 195 240 298 361
#     4  10  21  38  63  94 123 162 213 260 316 379
#     4   9  16  32  58  82 112 150 198 257 298 368
#     4  11  23  41  65  95 127 168 209 263 322 374
#     4  10  21  35  56  84 118 157 206 256 308 377
#
# _framework density 24.055557
#
# number of rings (size 3 to 8) (size 9 to 14) (size 15 to 20)
#    0.000    2.333    1.667    1.500    4.667    1.333 
#    0.000    5.000    3.667    0.000    0.000    0.000 
#    0.000    0.000    0.000    0.000    0.000    0.000 
#
# Total GULP energy -66903.993863 kJ/mol
# GULP energy per Si atom -5575.332822 kJ/mol
# Density = 2.400081 g / cm^3
# Si number density = 24.055557 Si / 1000 Ang^3
#
#
#
# Elastic Constant Matrix: (Units=GPa)
#
#
# Indices 1 2 3 4 5 6 
#
# 1 250.7006 38.3780 43.6707 0.0000 9.6540 0.0000
# 2 38.3780 93.2912 24.8520 0.0000 18.3450 0.0000
# 3 43.6707 24.8520 81.6146 0.0000 30.3289 0.0000
# 4 0.0000 0.0000 0.0000 31.4693 0.0000 -5.6227
# 5 9.6540 18.3450 30.3289 0.0000 47.1139 0.0000
# 6 0.0000 0.0000 0.0000 -5.6227 0.0000 15.5880
#
#
#
# Elastic Compliance Matrix: (Units=1/GPa)
#
#
# Indices 1 2 3 4 5 6 
#
# 1 0.004597 -0.001474 -0.002463 0.000000 0.001218 0.000000
# 2 -0.001474 0.012462 -0.001728 0.000000 -0.003438 0.000000
# 3 -0.002463 -0.001728 0.017954 0.000000 -0.010380 0.000000
# 4 0.000000 0.000000 0.000000 0.033966 0.000000 0.012252
# 5 0.001218 -0.003438 -0.010380 0.000000 0.028996 0.000000
# 6 0.000000 0.000000 0.000000 0.012252 0.000000 0.068571
#
#
# Mechanical properties :
#
#
# Convention : Reuss Voigt Hill
#
# Bulk Modulus (GPa) = 42.22732 71.04529 56.63630
# Shear Modulus (GPa) = 26.91463 40.08129 33.49796
#
# Velocity S-wave (km/s) = 3.34855 4.08634 3.73570
# Velocity P-wave (km/s) = 5.70461 7.20154 6.49634
#
# Compressibility (1/GPa) = 0.02368135
#
# Stress axis : x y z
#
# Youngs Moduli (GPa) = 217.54750 80.24377 55.69641
#
# Poissons Ratio (x) = 0.11830 0.13719
# Poissons Ratio (y) = 0.32072 0.09627
# Poissons Ratio (z) = 0.53588 0.13869
#
# Static dielectric constant tensor:
#      x y z
#    x 1.959670 0.000000 -0.045160 
#    y 0.000000 1.930290 0.000000 
#    z -0.045160 0.000000 1.892160 
# 
# From -- ./inp_files/29540.got.cif
#   From: 2010.05.17/outbox.cif.g08.bks.cpg/sg5_15_cif.got.tgz:29540.got - 2010.06.03 18:56:24.
