data_PCOD9124174
_publ_section_title
;
Structure prediction by ZEFSAII (Michael W. Deem and Ramdas Pophale) SiO2 
 PCOD9124174
Probable space group: C 2
;
_chemical_formula_sum "Si O2"
_cell_formula_units_Z 28
_cell_length_a 13.117486
_cell_length_b 8.856226
_cell_length_c 19.084930
_cell_angle_alpha 90.000000
_cell_angle_beta 37.085411
_cell_angle_gamma 90.000000
_cell_volume 1336.936253
_symmetry_space_group_name_H-M "C 2"
_symmetry_group_IT_number 5
_symmetry_cell_setting 'monoclinic'
loop_
_space_group_symop_operation_xyz
x,y,z
-x,y,-z
1/2+x,1/2+y,z
1/2-x,1/2+y,-z
loop_
_atom_site_type_symbol
_atom_site_label
_atom_site_fract_x
_atom_site_fract_y
_atom_site_fract_z
Si Si1 0.920529 0.306110 0.932259
Si Si2 0.666569 0.921833 0.445806
Si Si3 0.997898 0.100828 0.758514
Si Si4 0.166186 0.576229 0.123230
Si Si5 0.299217 0.131033 0.305820
Si Si6 0.070038 0.410476 0.657125
Si Si7 0.339916 0.042753 0.130106
O O1 0.980169 0.191202 0.840129
O O2 0.825667 0.441064 0.939640
O O3 0.071333 0.392048 0.888615
O O4 0.813964 0.196271 0.040584
O O5 0.500000 0.986475 0.500000
O O6 0.810263 0.476664 0.346012
O O7 0.641626 0.943288 0.542039
O O8 0.842654 0.993698 0.326702
O O9 0.042815 0.233726 0.679314
O O10 0.819001 0.028672 0.834178
O O11 0.109006 0.492919 0.226197
O O12 0.998554 0.672471 0.196488
O O13 0.187622 0.249324 0.408572
O O14 0.265625 0.116995 0.241844
O O15 0.500000 0.117676 0.000000
#
# Coordination Sequence:
#
# PCOD9124174 Si02
#       7
#     4   4   4   4   4   4   4
#     4  10  20  42  67 103 140 188 225 290 362 424
#     4  12  25  43  68  95 136 191 240 296 365 411
#     4  11  23  43  69  99 145 177 236 294 351 427
#     4   8  19  36  68  97 139 170 229 283 353 422
#     4   9  21  42  67  98 135 178 242 284 357 422
#     4   9  21  44  67 101 134 187 235 297 352 420
#     4  11  23  42  71 105 137 186 233 280 366 433
#
# _framework density 20.943406
#
# number of rings (size 3 to 8) (size 9 to 14) (size 15 to 20)
#    0.857    1.143    1.429    3.429    4.000    0.000 
#    7.714    0.714    0.000    0.000    0.000    0.000 
#    0.000    0.000    0.000    0.000    0.000    0.000 
#
# Total GULP energy -77941.437590 kJ/mol
# GULP energy per Si atom -5567.245542 kJ/mol
# Density = 2.089574 g / cm^3
# Si number density = 20.943406 Si / 1000 Ang^3
#
#
#
# Elastic Constant Matrix: (Units=GPa)
#
#
# Indices 1 2 3 4 5 6 
#
# 1 69.2695 26.5978 29.9343 0.0000 7.0913 0.0000
# 2 26.5978 89.2810 38.0111 0.0000 -8.8156 0.0000
# 3 29.9343 38.0111 48.6464 -0.0001 8.3596 0.0000
# 4 0.0000 0.0000 -0.0001 35.2165 0.0000 -3.8370
# 5 7.0913 -8.8156 8.3596 0.0000 46.3749 0.0000
# 6 0.0000 0.0000 0.0000 -3.8370 0.0000 7.6978
#
#
#
# Elastic Compliance Matrix: (Units=1/GPa)
#
#
# Indices 1 2 3 4 5 6 
#
# 1 0.019806 -0.001412 -0.010854 0.000000 -0.001340 0.000000
# 2 -0.001412 0.018504 -0.014686 0.000000 0.006381 0.000000
# 3 -0.010854 -0.014686 0.040149 0.000000 -0.008369 0.000000
# 4 0.000000 0.000000 0.000000 0.030026 0.000000 0.014967
# 5 -0.001340 0.006381 -0.008369 0.000000 0.024490 0.000000
# 6 0.000000 0.000000 0.000000 0.014967 0.000000 0.137367
#
#
# Mechanical properties :
#
#
# Convention : Reuss Voigt Hill
#
# Bulk Modulus (GPa) = 40.72494 44.03149 42.37822
# Shear Modulus (GPa) = 15.04066 25.36809 20.20438
#
# Velocity S-wave (km/s) = 2.68275 3.48410 3.10935
# Velocity P-wave (km/s) = 5.39293 6.10369 5.75928
#
# Compressibility (1/GPa) = 0.02455498
#
# Stress axis : x y z
#
# Youngs Moduli (GPa) = 50.48920 54.04304 24.90701
#
# Poissons Ratio (x) = 0.07629 0.27035
# Poissons Ratio (y) = 0.07127 0.36579
# Poissons Ratio (z) = 0.54802 0.79369
#
# Static dielectric constant tensor:
#      x y z
#    x 1.797670 0.000000 0.021330 
#    y 0.000000 1.771110 0.000000 
#    z 0.021330 0.000000 1.809450 
# 
# From -- ./inp_files/65972.got.cif
#   From: 2010.05.17/outbox.cif.g08.bks.cpg/sg5_33_cif.got.tgz:65972.got - 2010.06.03 18:56:24.
