data_PCOD9124415
_publ_section_title
;
Structure prediction by ZEFSAII (Michael W. Deem and Ramdas Pophale) SiO2 
 PCOD9124415
Probable space group: C 2
;
_chemical_formula_sum "Si O2"
_cell_formula_units_Z 14
_cell_length_a 17.845716
_cell_length_b 6.868501
_cell_length_c 7.093747
_cell_angle_alpha 90.000000
_cell_angle_beta 135.370931
_cell_angle_gamma 90.000000
_cell_volume 610.838991
_symmetry_space_group_name_H-M "C 2"
_symmetry_group_IT_number 5
_symmetry_cell_setting 'monoclinic'
loop_
_space_group_symop_operation_xyz
x,y,z
-x,y,-z
1/2+x,1/2+y,z
1/2-x,1/2+y,-z
loop_
_atom_site_type_symbol
_atom_site_label
_atom_site_fract_x
_atom_site_fract_y
_atom_site_fract_z
Si Si1 0.000000 0.489161 0.500000
Si Si2 0.351739 0.127669 0.545010
Si Si3 0.321649 0.696539 0.036212
Si Si4 0.195496 0.802950 0.160548
O O1 0.950014 0.616000 0.578321
O O2 0.912222 0.347498 0.250101
O O3 0.365964 0.198368 0.782077
O O4 0.297907 0.912977 0.438332
O O5 0.259623 0.254002 0.276322
O O6 0.245539 0.675544 0.083119
O O7 0.363822 0.485325 0.045032
#
# Coordination Sequence:
#
# PCOD9124415 Si02
#       4
#     2   4   4   4
#     4  10  20  46  76  92 136 174 228 266 336 382
#     4   9  21  39  73  97 129 182 212 279 324 398
#     4   9  21  40  72  96 131 177 216 279 315 405
#     4   9  20  37  71  95 139 170 222 268 340 373
#
# _framework density 22.919297
#
# number of rings (size 3 to 8) (size 9 to 14) (size 15 to 20)
#    1.714    1.143    0.000    0.000    4.000    0.000 
#    0.000   14.286   31.429    0.000    0.000    0.000 
#    0.000    0.000    0.000    0.000    0.000    0.000 
#
# Total GULP energy -39019.808956 kJ/mol
# GULP energy per Si atom -5574.258422 kJ/mol
# Density = 2.286713 g / cm^3
# Si number density = 22.919297 Si / 1000 Ang^3
#
#
#
# Elastic Constant Matrix: (Units=GPa)
#
#
# Indices 1 2 3 4 5 6 
#
# 1 143.4310 24.0121 56.9772 0.0000 -36.2398 0.0000
# 2 24.0121 52.8633 41.2114 0.0000 -12.7656 0.0000
# 3 56.9772 41.2114 117.0604 0.0000 -17.5092 0.0000
# 4 0.0000 0.0000 0.0000 31.3367 0.0000 -15.7949
# 5 -36.2398 -12.7656 -17.5092 0.0000 44.3738 0.0000
# 6 0.0000 0.0000 0.0000 -15.7949 0.0000 44.5251
#
#
#
# Elastic Compliance Matrix: (Units=1/GPa)
#
#
# Indices 1 2 3 4 5 6 
#
# 1 0.010278 0.000118 -0.004021 0.000000 0.006841 0.000000
# 2 0.000118 0.026803 -0.008848 0.000000 0.004316 0.000000
# 3 -0.004021 -0.008848 0.013542 0.000000 -0.000486 0.000000
# 4 0.000000 0.000000 0.000000 0.038860 0.000000 0.013785
# 5 0.006841 0.004316 -0.000486 0.000000 0.029173 0.000000
# 6 0.000000 0.000000 0.000000 0.013785 0.000000 0.027349
#
#
# Mechanical properties :
#
#
# Convention : Reuss Voigt Hill
#
# Bulk Modulus (GPa) = 39.80655 61.97292 50.88973
# Shear Modulus (GPa) = 27.79615 36.79073 32.29344
#
# Velocity S-wave (km/s) = 3.48628 4.01088 3.75775
# Velocity P-wave (km/s) = 5.79753 6.96763 6.40934
#
# Compressibility (1/GPa) = 0.02512149
#
# Stress axis : x y z
#
# Youngs Moduli (GPa) = 97.29409 37.30913 73.84391
#
# Poissons Ratio (x) = -0.00441 0.29693
# Poissons Ratio (y) = -0.01150 0.65338
# Poissons Ratio (z) = 0.39122 0.33011
#
# Static dielectric constant tensor:
#      x y z
#    x 1.838470 0.000000 0.023610 
#    y 0.000000 1.888850 0.000000 
#    z 0.023610 0.000000 1.894190 
# 
# From -- ./inp_files/4160.got.cif
#   From: 2010.05.17/outbox.cif.g08.bks.cpg/sg5_3_cif.got.tgz:4160.got - 2010.06.03 18:56:24.
