data_PCOD9124156
_publ_section_title
;
Structure prediction by ZEFSAII (Michael W. Deem and Ramdas Pophale) SiO2 
 PCOD9124156
Probable space group: C 2
;
_chemical_formula_sum "Si O2"
_cell_formula_units_Z 32
_cell_length_a 10.393587
_cell_length_b 9.240462
_cell_length_c 27.278593
_cell_angle_alpha 90.000000
_cell_angle_beta 33.648135
_cell_angle_gamma 90.000000
_cell_volume 1451.651222
_symmetry_space_group_name_H-M "C 2"
_symmetry_group_IT_number 5
_symmetry_cell_setting 'monoclinic'
loop_
_space_group_symop_operation_xyz
x,y,z
-x,y,-z
1/2+x,1/2+y,z
1/2-x,1/2+y,-z
loop_
_atom_site_type_symbol
_atom_site_label
_atom_site_fract_x
_atom_site_fract_y
_atom_site_fract_z
Si Si1 0.009725 0.058150 0.102137
Si Si2 0.389637 0.020795 0.843189
Si Si3 0.432342 0.335356 0.782000
Si Si4 0.381437 0.716689 0.369769
Si Si5 0.840486 0.492486 0.701298
Si Si6 0.440908 0.218153 0.437850
Si Si7 0.074523 0.396648 0.060334
Si Si8 0.618662 0.421495 0.308110
O O1 0.085633 0.223307 0.066215
O O2 0.850405 0.992085 0.108822
O O3 0.840685 0.058038 0.202408
O O4 0.231488 0.955393 0.037723
O O5 0.437450 0.186043 0.810801
O O6 0.376733 0.986869 0.905065
O O7 0.616407 0.926813 0.757237
O O8 0.668027 0.418604 0.717176
O O9 0.410997 0.320514 0.730034
O O10 0.192726 0.418347 0.870596
O O11 0.515122 0.865398 0.319194
O O12 0.164201 0.706434 0.402450
O O13 0.550650 0.580541 0.311440
O O14 0.280938 0.712374 0.457116
O O15 0.015968 0.596714 0.616995
O O16 0.455403 0.367275 0.403215
#
# Coordination Sequence:
#
# PCOD9124156 Si02
#       8
#     4   4   4   4   4   4   4   4
#     4  11  25  42  67  97 134 175 227 274 326 397
#     4  10  20  42  66  89 128 174 221 265 330 383
#     4  10  22  39  69  94 127 178 216 271 325 390
#     4  11  24  42  67  97 130 174 215 276 336 393
#     4  12  23  43  66 100 132 176 221 269 336 392
#     4  11  24  42  65  98 134 164 222 277 329 399
#     4  10  24  44  63  98 132 176 224 275 325 383
#     4  11  21  42  67  94 130 173 220 268 333 394
#
# _framework density 22.043863999999999
#
# number of rings (size 3 to 8) (size 9 to 14) (size 15 to 20)
#    0.000    1.250    2.500    4.125    1.750    0.500 
#    6.750    0.000    0.000    0.000    0.000    0.000 
#    0.000    0.000    0.000    0.000    0.000    0.000 
#
# Total GULP energy -89363.626022 kJ/mol
# GULP energy per Si atom -5585.226626 kJ/mol
# Density = 2.199369 g / cm^3
# Si number density = 22.043864 Si / 1000 Ang^3
#
#
#
# Elastic Constant Matrix: (Units=GPa)
#
#
# Indices 1 2 3 4 5 6 
#
# 1 80.9856 11.7939 4.3998 0.0000 9.2538 0.0000
# 2 11.7939 73.1928 19.5208 0.0000 13.2095 0.0000
# 3 4.3998 19.5208 76.0398 0.0005 11.3031 -0.0002
# 4 0.0000 0.0000 0.0005 39.1403 0.0000 3.2123
# 5 9.2538 13.2095 11.3031 0.0000 32.0648 0.0000
# 6 0.0000 0.0000 -0.0002 3.2123 0.0000 24.6509
#
#
#
# Elastic Compliance Matrix: (Units=1/GPa)
#
#
# Indices 1 2 3 4 5 6 
#
# 1 0.012925 -0.001548 0.000115 0.000000 -0.003133 0.000000
# 2 -0.001548 0.015645 -0.003203 0.000000 -0.004869 0.000000
# 3 0.000115 -0.003203 0.014537 0.000000 -0.003838 0.000000
# 4 0.000000 0.000000 0.000000 0.025825 0.000000 -0.003365
# 5 -0.003133 -0.004869 -0.003838 0.000000 0.035450 0.000000
# 6 0.000000 0.000000 0.000000 -0.003365 0.000000 0.041005
#
#
# Mechanical properties :
#
#
# Convention : Reuss Voigt Hill
#
# Bulk Modulus (GPa) = 29.55450 33.51635 31.53542
# Shear Modulus (GPa) = 30.13181 32.13812 31.13496
#
# Velocity S-wave (km/s) = 3.70118 3.82241 3.76228
# Velocity P-wave (km/s) = 5.63038 5.89224 5.76280
#
# Compressibility (1/GPa) = 0.03383580
#
# Stress axis : x y z
#
# Youngs Moduli (GPa) = 77.36925 63.91811 68.78929
#
# Poissons Ratio (x) = 0.09894 -0.00793
# Poissons Ratio (y) = 0.11977 0.22033
# Poissons Ratio (z) = -0.00892 0.20473
#
# Static dielectric constant tensor:
#      x y z
#    x 1.791110 0.000000 0.032630 
#    y 0.000000 1.820030 0.000000 
#    z 0.032630 0.000000 1.837840 
# 
# From -- ./inp_files/71747.got.cif
#   From: 2010.05.17/outbox.cif.g08.bks.cpg/sg5_36_cif.got.tgz:71747.got - 2010.06.03 18:56:24.
