data_PCOD9124358
_publ_section_title
;
Structure prediction by ZEFSAII (Michael W. Deem and Ramdas Pophale) SiO2 
 PCOD9124358
Probable space group: C 2
;
_chemical_formula_sum "Si O2"
_cell_formula_units_Z 30
_cell_length_a 18.668488
_cell_length_b 10.724931
_cell_length_c 11.704787
_cell_angle_alpha 90.000000
_cell_angle_beta 148.224515
_cell_angle_gamma 90.000000
_cell_volume 1234.074877
_symmetry_space_group_name_H-M "C 2"
_symmetry_group_IT_number 5
_symmetry_cell_setting 'monoclinic'
loop_
_space_group_symop_operation_xyz
x,y,z
-x,y,-z
1/2+x,1/2+y,z
1/2-x,1/2+y,-z
loop_
_atom_site_type_symbol
_atom_site_label
_atom_site_fract_x
_atom_site_fract_y
_atom_site_fract_z
Si Si1 0.947595 0.765060 0.680304
Si Si2 0.841350 0.292314 0.288173
Si Si3 0.768056 0.124583 0.490470
Si Si4 0.449952 0.552288 0.172302
Si Si5 0.000000 0.772619 0.500000
Si Si6 0.653338 0.462127 0.189106
Si Si7 0.758062 0.928113 0.071298
Si Si8 0.653476 0.093040 0.096501
O O1 0.802045 0.740318 0.540450
O O2 0.986023 0.911139 0.727491
O O3 0.966409 0.709739 0.577136
O O4 0.050201 0.692490 0.903118
O O5 0.760173 0.370888 0.274667
O O6 0.799913 0.152362 0.262272
O O7 0.000000 0.313446 0.500000
O O8 0.788519 0.337683 0.093288
O O9 0.668253 0.080566 0.252365
O O10 0.788942 0.023399 0.619036
O O11 0.500000 0.406734 0.000000
O O12 0.578983 0.642595 0.350560
O O13 0.328751 0.542793 0.097909
O O14 0.381213 0.564106 0.955161
O O15 0.129641 0.858042 0.701979
O O16 0.643397 0.971902 0.004009
#
# Coordination Sequence:
#
# PCOD9124358 Si02
#       8
#     4   4   4   4   2   4   4   4
#     4  11  23  42  67  97 127 177 228 274 340 410
#     4  11  25  43  68  99 138 176 221 292 341 400
#     4  11  25  35  66  99 126 170 224 280 320 411
#     4   9  20  45  68  89 127 180 219 274 341 404
#     4  10  20  44  70  90 132 184 218 282 340 412
#     4   9  20  43  66  91 131 179 222 263 342 409
#     4  10  22  44  66  96 132 172 226 280 340 398
#     4  12  24  41  66  99 131 176 228 274 340 411
#
# _framework density 24.309709999999999
#
# number of rings (size 3 to 8) (size 9 to 14) (size 15 to 20)
#    0.000    1.600    4.000    2.000    8.400    2.133 
#    0.000    1.333    0.000    3.200    0.000    0.000 
#    0.000    0.000    0.000    0.000    0.000    0.000 
#
# Total GULP energy -83756.260025 kJ/mol
# GULP energy per Si atom -5583.750668 kJ/mol
# Density = 2.425438 g / cm^3
# Si number density = 24.309710 Si / 1000 Ang^3
#
#
#
# Elastic Constant Matrix: (Units=GPa)
#
#
# Indices 1 2 3 4 5 6 
#
# 1 113.9098 23.2446 50.6404 0.0000 -33.9021 0.0000
# 2 23.2446 36.8913 14.5661 0.0000 -7.8647 0.0000
# 3 50.6404 14.5661 116.2748 0.0000 -27.2152 0.0000
# 4 0.0000 0.0000 0.0000 20.2951 0.0000 3.0390
# 5 -33.9021 -7.8647 -27.2152 0.0000 57.9285 0.0000
# 6 0.0000 0.0000 0.0000 3.0390 0.0000 48.1808
#
#
#
# Elastic Compliance Matrix: (Units=1/GPa)
#
#
# Indices 1 2 3 4 5 6 
#
# 1 0.013168 -0.005693 -0.003819 0.000000 0.005139 0.000000
# 2 -0.005693 0.031295 -0.001378 0.000000 0.000269 0.000000
# 3 -0.003819 -0.001378 0.011089 0.000000 0.002787 0.000000
# 4 0.000000 0.000000 0.000000 0.049743 0.000000 -0.003137
# 5 0.005139 0.000269 0.002787 0.000000 0.021617 0.000000
# 6 0.000000 0.000000 0.000000 -0.003137 0.000000 0.020953
#
#
# Mechanical properties :
#
#
# Convention : Reuss Voigt Hill
#
# Bulk Modulus (GPa) = 29.61044 49.33092 39.47068
# Shear Modulus (GPa) = 27.63929 37.18919 32.41424
#
# Velocity S-wave (km/s) = 3.37555 3.91552 3.65552
# Velocity P-wave (km/s) = 5.23444 6.38580 5.83857
#
# Compressibility (1/GPa) = 0.03377187
#
# Stress axis : x y z
#
# Youngs Moduli (GPa) = 75.94165 31.95351 90.18327
#
# Poissons Ratio (x) = 0.18193 0.34439
# Poissons Ratio (y) = 0.43237 0.12425
# Poissons Ratio (z) = 0.29001 0.04402
#
# Static dielectric constant tensor:
#      x y z
#    x 2.044510 0.000000 -0.001120 
#    y 0.000000 1.971990 0.000000 
#    z -0.001120 0.000000 1.937010 
# 
# From -- ./inp_files/39845.got.cif
#   From: 2010.05.17/outbox.cif.g08.bks.cpg/sg5_20_cif.got.tgz:39845.got - 2010.06.03 18:56:24.
