data_PCOD9124229
_publ_section_title
;
Structure prediction by ZEFSAII (Michael W. Deem and Ramdas Pophale) SiO2 
 PCOD9124229
Probable space group: C 2
;
_chemical_formula_sum "Si O2"
_cell_formula_units_Z 26
_cell_length_a 11.848728
_cell_length_b 20.524790
_cell_length_c 8.548463
_cell_angle_alpha 90.000000
_cell_angle_beta 40.622263
_cell_angle_gamma 90.000000
_cell_volume 1353.522982
_symmetry_space_group_name_H-M "C 2"
_symmetry_group_IT_number 5
_symmetry_cell_setting 'monoclinic'
loop_
_space_group_symop_operation_xyz
x,y,z
-x,y,-z
1/2+x,1/2+y,z
1/2-x,1/2+y,-z
loop_
_atom_site_type_symbol
_atom_site_label
_atom_site_fract_x
_atom_site_fract_y
_atom_site_fract_z
Si Si1 0.544821 0.223690 0.270590
Si Si2 0.500000 0.658921 0.500000
Si Si3 0.076883 0.460524 0.093267
Si Si4 0.000000 0.405427 0.500000
Si Si5 0.340282 0.828522 0.902971
Si Si6 0.249842 0.094677 0.993219
Si Si7 0.332239 0.741416 0.422195
Si Si8 0.000000 0.141402 0.000000
O O1 0.500000 0.221971 0.500000
O O2 0.602075 0.150696 0.162645
O O3 0.371384 0.251613 0.375222
O O4 0.706691 0.271123 0.070196
O O5 0.372403 0.706106 0.541856
O O6 0.390029 0.615716 0.731762
O O7 0.187153 0.393320 0.965342
O O8 0.178068 0.524582 0.039591
O O9 0.966415 0.444277 0.371958
O O10 0.000000 0.471154 0.000000
O O11 0.846862 0.357571 0.720053
O O12 0.533012 0.800740 0.736205
O O13 0.142440 0.100092 0.944558
O O14 0.393675 0.689003 0.227033
#
# Coordination Sequence:
#
# PCOD9124229 Si02
#       8
#     4   2   4   2   4   4   4   2
#     4  12  24  36  75 109 134 176 243 292 344 432
#     4  10  23  42  62  92 149 176 220 298 353 408
#     4  10  25  44  71  98 143 192 234 287 357 424
#     4   8  23  44  70  90 141 198 224 280 351 428
#     4  10  22  46  67 100 145 185 229 288 356 420
#     4  11  24  44  64 104 135 187 237 283 362 418
#     4  11  21  39  68 102 135 178 221 291 349 403
#     4  10  20  42  70  92 144 178 218 300 350 406
#
# _framework density 19.209130999999999
#
# number of rings (size 3 to 8) (size 9 to 14) (size 15 to 20)
#    0.923    0.615    4.615    0.462    6.462    0.000 
#    4.154    1.538    0.000    0.000    0.000    0.000 
#    0.000    0.000    0.000    0.000    0.000    0.000 
#
# Total GULP energy -72377.618035 kJ/mol
# GULP energy per Si atom -5567.509080 kJ/mol
# Density = 1.916541 g / cm^3
# Si number density = 19.209131 Si / 1000 Ang^3
#
#
#
# Elastic Constant Matrix: (Units=GPa)
#
#
# Indices 1 2 3 4 5 6 
#
# 1 103.6522 53.3555 37.3031 0.0000 0.9622 0.0000
# 2 53.3555 145.5717 26.3818 0.0000 -11.7521 0.0000
# 3 37.3031 26.3818 65.0400 0.0000 -2.1095 0.0000
# 4 0.0000 0.0000 0.0000 4.9761 0.0000 -9.1077
# 5 0.9622 -11.7521 -2.1095 0.0000 41.3328 0.0000
# 6 0.0000 0.0000 0.0000 -9.1077 0.0000 6.5586
#
#
#
# Elastic Compliance Matrix: (Units=1/GPa)
#
#
# Indices 1 2 3 4 5 6 
#
# 1 0.014137 -0.004155 -0.006482 0.000000 -0.001841 0.000000
# 2 -0.004155 0.008798 -0.001103 0.000000 0.002542 0.000000
# 3 -0.006482 -0.001103 0.019567 0.000000 0.000836 0.000000
# 4 0.000000 0.000000 0.000000 -0.130351 0.000000 -0.181016
# 5 -0.001841 0.002542 0.000836 0.000000 0.025002 0.000000
# 6 0.000000 0.000000 0.000000 -0.181016 0.000000 -0.098900
#
#
# Mechanical properties :
#
#
# Convention : Reuss Voigt Hill
#
# Bulk Modulus (GPa) = 52.57353 60.92719 56.75036
# Shear Modulus (GPa) = -37.89975 23.72172 -7.08901
#
# Velocity S-wave (km/s) = -4.44667 3.51795 -1.92314
# Velocity P-wave (km/s) = 1.03178 6.94896 4.96752
#
# Compressibility (1/GPa) = 0.01902098
#
# Stress axis : x y z
#
# Youngs Moduli (GPa) = 70.73869 113.66803 51.10546
#
# Poissons Ratio (x) = 0.47232 0.33127
# Poissons Ratio (y) = 0.29394 0.05636
# Poissons Ratio (z) = 0.45854 0.12536
#
# Static dielectric constant tensor:
#      x y z
#    x 1.992200 0.000000 -0.036540 
#    y 0.000000 1.677150 0.000000 
#    z -0.036540 0.000000 1.708070 
# 
# From -- ./inp_files/21908.got.cif
#   From: 2010.05.17/outbox.cif.g08.bks.cpg/sg5_11_cif.got.tgz:21908.got - 2010.06.03 18:56:24.
