data_PCOD9124859
_publ_section_title
;
Structure prediction by ZEFSAII (Michael W. Deem and Ramdas Pophale) SiO2 
 PCOD9124859
Probable space group: C 2
;
_chemical_formula_sum "Si O2"
_cell_formula_units_Z 26
_cell_length_a 8.249760
_cell_length_b 18.220502
_cell_length_c 15.606685
_cell_angle_alpha 90.000000
_cell_angle_beta 34.748509
_cell_angle_gamma 90.000000
_cell_volume 1337.113935
_symmetry_space_group_name_H-M "C 2"
_symmetry_group_IT_number 5
_symmetry_cell_setting 'monoclinic'
loop_
_space_group_symop_operation_xyz
x,y,z
-x,y,-z
1/2+x,1/2+y,z
1/2-x,1/2+y,-z
loop_
_atom_site_type_symbol
_atom_site_label
_atom_site_fract_x
_atom_site_fract_y
_atom_site_fract_z
Si Si1 0.500000 0.142790 0.000000
Si Si2 0.000000 0.532061 0.500000
Si Si3 0.905022 0.537106 0.888833
Si Si4 0.034587 0.236470 0.822264
Si Si5 0.738108 0.387758 0.556550
Si Si6 0.000000 0.808659 0.500000
Si Si7 0.901502 0.387847 0.133508
Si Si8 0.221738 0.087937 0.793100
O O1 0.548232 0.090519 0.896559
O O2 0.770742 0.194914 0.894706
O O3 0.789672 0.475087 0.542315
O O4 0.841410 0.574526 0.645440
O O5 0.920799 0.565384 0.785017
O O6 0.027438 0.455176 0.835843
O O7 0.572511 0.542686 0.063994
O O8 0.282538 0.260122 0.649280
O O9 0.949842 0.312222 0.904618
O O10 0.156285 0.174025 0.831706
O O11 0.695264 0.357365 0.479362
O O12 0.431702 0.371267 0.729081
O O13 0.000000 0.356644 0.500000
O O14 0.000000 0.415830 0.000000
#
# Coordination Sequence:
#
# PCOD9124859 Si02
#       8
#     2   2   4   4   4   2   4   4
#     4  10  22  40  62  98 128 162 216 268 320 382
#     4  10  21  38  66  90 127 166 220 260 325 376
#     4  10  22  40  66  92 131 164 219 269 317 385
#     4  10  24  39  64  91 131 166 204 271 323 385
#     4   9  23  38  62  95 127 166 208 279 311 381
#     4  10  21  46  62  86 139 168 218 254 339 376
#     4  11  22  38  65  95 124 167 214 262 322 382
#     4  10  22  41  64  95 129 172 212 269 326 386
#
# _framework density 19.444865
#
# number of rings (size 3 to 8) (size 9 to 14) (size 15 to 20)
#    0.462    1.538    0.769    1.385   10.769    2.462 
#    2.769    0.000    0.000    0.000    0.000    0.000 
#    0.000    0.000    0.000    0.000    0.000    0.000 
#
# Total GULP energy -72409.195685 kJ/mol
# GULP energy per Si atom -5569.938130 kJ/mol
# Density = 1.940061 g / cm^3
# Si number density = 19.444865 Si / 1000 Ang^3
#
#
#
# Elastic Constant Matrix: (Units=GPa)
#
#
# Indices 1 2 3 4 5 6 
#
# 1 127.2396 70.6937 20.4048 0.0021 -0.9210 -0.0019
# 2 70.6937 122.3784 9.9488 -0.0017 -11.6766 0.0068
# 3 20.4048 9.9488 45.3541 -0.0108 13.0800 0.0123
# 4 0.0021 -0.0017 -0.0108 24.0756 0.0008 8.3295
# 5 -0.9210 -11.6766 13.0800 0.0008 19.9368 -0.0027
# 6 -0.0019 0.0068 0.0123 8.3295 -0.0027 -8.7532
#
#
#
# Elastic Compliance Matrix: (Units=1/GPa)
#
#
# Indices 1 2 3 4 5 6 
#
# 1 0.012273 -0.006886 -0.003714 0.000001 -0.001029 -0.000012
# 2 -0.006886 0.013200 -0.002387 -0.000001 0.008979 0.000004
# 3 -0.003714 -0.002387 0.030459 -0.000002 -0.021553 0.000047
# 4 0.000001 -0.000001 -0.000002 0.031248 0.000003 0.029736
# 5 -0.001029 0.008979 -0.021553 0.000003 0.069510 -0.000042
# 6 -0.000012 0.000004 0.000047 0.029736 -0.000042 -0.085948
#
#
# Mechanical properties :
#
#
# Convention : Reuss Voigt Hill
#
# Bulk Modulus (GPa) = 33.38054 55.22965 44.30510
# Shear Modulus (GPa) = 46.85866 19.98015 33.41940
#
# Velocity S-wave (km/s) = 4.91432 3.20899 4.15019
# Velocity P-wave (km/s) = 7.02885 6.49577 6.76756
#
# Compressibility (1/GPa) = 0.02995757
#
# Stress axis : x y z
#
# Youngs Moduli (GPa) = 81.47787 75.75769 32.83075
#
# Poissons Ratio (x) = 0.52167 0.12195
# Poissons Ratio (y) = 0.56106 0.07837
# Poissons Ratio (z) = 0.30264 0.18083
#
# Static dielectric constant tensor:
#      x y z
#    x 1.765450 0.000000 0.003020 
#    y 0.000000 1.682690 0.000000 
#    z 0.003020 0.000000 1.706420 
# 
# From -- ./inp_files/59859.got.cif
#   From: 2010.05.17/outbox.cif.g08.bks.cpg/sg5_30_cif.got.tgz:59859.got - 2010.06.03 18:56:24.
