data_PCOD9124972
_publ_section_title
;
Structure prediction by ZEFSAII (Michael W. Deem and Ramdas Pophale) SiO2 
 PCOD9124972
Probable space group: C 2
;
_chemical_formula_sum "Si O2"
_cell_formula_units_Z 24
_cell_length_a 22.504338
_cell_length_b 8.687691
_cell_length_c 9.017592
_cell_angle_alpha 90.000000
_cell_angle_beta 147.276749
_cell_angle_gamma 90.000000
_cell_volume 953.065135
_symmetry_space_group_name_H-M "C 2"
_symmetry_group_IT_number 5
_symmetry_cell_setting 'monoclinic'
loop_
_space_group_symop_operation_xyz
x,y,z
-x,y,-z
1/2+x,1/2+y,z
1/2-x,1/2+y,-z
loop_
_atom_site_type_symbol
_atom_site_label
_atom_site_fract_x
_atom_site_fract_y
_atom_site_fract_z
Si Si1 0.369480 0.772490 0.094259
Si Si2 0.104547 0.776488 0.799882
Si Si3 0.491212 0.524427 0.209665
Si Si4 0.830086 0.127188 0.605211
Si Si5 0.259225 0.026966 0.017566
Si Si6 0.879385 0.448633 0.799437
O O1 0.269553 0.645654 0.907361
O O2 0.370238 0.874130 0.945333
O O3 0.473126 0.659949 0.291433
O O4 0.352665 0.894799 0.192522
O O5 0.054986 0.861272 0.836781
O O6 0.200248 0.652713 0.017710
O O7 0.000000 0.702391 0.500000
O O8 0.152403 0.916813 0.799658
O O9 0.614938 0.531150 0.411918
O O10 0.409527 0.579437 0.907879
O O11 0.844391 0.309079 0.616819
O O12 0.707677 0.083553 0.387731
O O13 0.000000 0.494569 0.000000
#
# Coordination Sequence:
#
# PCOD9124972 Si02
#       6
#     4   4   4   4   4   4
#     4   9  18  39  64  86 134 164 208 268 308 389
#     4  10  21  39  63  89 125 168 210 261 317 374
#     4   9  19  41  62  92 132 168 208 266 325 379
#     4  10  21  41  65  91 132 168 209 267 324 380
#     4   9  20  37  59  93 120 163 211 251 315 371
#     4  11  22  43  66  95 130 170 215 266 328 377
#
# _framework density 25.181909000000001
#
# number of rings (size 3 to 8) (size 9 to 14) (size 15 to 20)
#    0.000    2.333    3.333    0.000    4.667    1.333 
#    6.000    7.500    0.000    0.000    0.000    0.000 
#    0.000    0.000    0.000    0.000    0.000    0.000 
#
# Total GULP energy -66861.348416 kJ/mol
# GULP energy per Si atom -5571.779035 kJ/mol
# Density = 2.512459 g / cm^3
# Si number density = 25.181909 Si / 1000 Ang^3
#
#
#
# Elastic Constant Matrix: (Units=GPa)
#
#
# Indices 1 2 3 4 5 6 
#
# 1 120.8573 40.9425 44.7785 0.0000 37.9062 0.0000
# 2 40.9425 78.0432 38.8220 0.0000 24.8983 0.0000
# 3 44.7785 38.8220 105.8989 0.0000 44.0753 0.0000
# 4 0.0000 0.0000 0.0000 36.0978 0.0000 17.4800
# 5 37.9062 24.8983 44.0753 0.0000 49.4921 0.0000
# 6 0.0000 0.0000 0.0000 17.4800 0.0000 36.7148
#
#
#
# Elastic Compliance Matrix: (Units=1/GPa)
#
#
# Indices 1 2 3 4 5 6 
#
# 1 0.011898 -0.003708 -0.001041 0.000000 -0.006320 0.000000
# 2 -0.003708 0.017453 -0.003747 0.000000 -0.002604 0.000000
# 3 -0.001041 -0.003747 0.016112 0.000000 -0.011666 0.000000
# 4 0.000000 0.000000 0.000000 0.036003 0.000000 -0.017141
# 5 -0.006320 -0.002604 -0.011666 0.000000 0.036746 0.000000
# 6 0.000000 0.000000 0.000000 -0.017141 0.000000 0.035398
#
#
# Mechanical properties :
#
#
# Convention : Reuss Voigt Hill
#
# Bulk Modulus (GPa) = 35.12173 61.54284 48.33228
# Shear Modulus (GPa) = 27.76351 36.47805 32.12078
#
# Velocity S-wave (km/s) = 3.32402 3.81015 3.57536
# Velocity P-wave (km/s) = 5.35814 6.62184 6.02322
#
# Compressibility (1/GPa) = 0.02847240
#
# Stress axis : x y z
#
# Youngs Moduli (GPa) = 84.04451 57.29685 62.06385
#
# Poissons Ratio (x) = 0.21244 0.06463
# Poissons Ratio (y) = 0.31161 0.23254
# Poissons Ratio (z) = 0.08752 0.21468
#
# Static dielectric constant tensor:
#      x y z
#    x 2.116930 0.000000 -0.082400 
#    y 0.000000 1.962630 0.000000 
#    z -0.082400 0.000000 1.991530 
# 
# From -- ./inp_files/38437.got.cif
#   From: 2010.05.17/outbox.cif.g08.bks.cpg/sg5_20_cif.got.tgz:38437.got - 2010.06.03 18:56:24.
