data_PCOD9124818
_publ_section_title
;
Structure prediction by ZEFSAII (Michael W. Deem and Ramdas Pophale) SiO2 
 PCOD9124818
Probable space group: C 2
;
_chemical_formula_sum "Si O2"
_cell_formula_units_Z 28
_cell_length_a 7.307887
_cell_length_b 33.684211
_cell_length_c 5.342859
_cell_angle_alpha 90.000000
_cell_angle_beta 69.339481
_cell_angle_gamma 90.000000
_cell_volume 1230.616368
_symmetry_space_group_name_H-M "C 2"
_symmetry_group_IT_number 5
_symmetry_cell_setting 'monoclinic'
loop_
_space_group_symop_operation_xyz
x,y,z
-x,y,-z
1/2+x,1/2+y,z
1/2-x,1/2+y,-z
loop_
_atom_site_type_symbol
_atom_site_label
_atom_site_fract_x
_atom_site_fract_y
_atom_site_fract_z
Si Si1 0.739906 0.191710 0.898857
Si Si2 0.271676 0.145405 0.594902
Si Si3 0.869261 0.971185 0.313547
Si Si4 0.694604 0.309564 0.774682
Si Si5 0.712471 0.885910 0.504946
Si Si6 0.369944 0.556788 0.311743
Si Si7 0.000000 0.255017 0.500000
Si Si8 0.000000 0.346047 0.000000
O O1 0.784266 0.160400 0.653779
O O2 0.885266 0.227829 0.758205
O O3 0.500000 0.199899 0.000000
O O4 0.792676 0.172004 0.138526
O O5 0.500000 0.151326 0.500000
O O6 0.235779 0.098767 0.644058
O O7 0.755695 0.930249 0.404407
O O8 0.000000 0.972746 0.500000
O O9 0.761020 0.013956 0.359906
O O10 0.000000 0.968128 0.000000
O O11 0.646850 0.352184 0.672404
O O12 0.809911 0.282115 0.518934
O O13 0.865791 0.317961 0.892832
O O14 0.500000 0.293763 0.000000
O O15 0.500000 0.875422 0.500000
O O16 0.667112 0.876192 0.813145
O O17 0.500000 0.557395 0.500000
O O18 0.500000 0.555796 0.000000
#
# Coordination Sequence:
#
# PCOD9124818 Si02
#       8
#     4   4   4   4   4   4   2   2
#     4  10  24  42  66  98 133 176 224 284 340 406
#     4  10  22  42  66  95 129 172 222 269 345 410
#     4  10  23  39  62  97 133 174 224 276 340 407
#     4  11  24  44  68  97 135 180 231 291 349 409
#     4  10  22  40  62  94 132 174 232 279 340 413
#     4  10  21  38  63  96 131 171 220 276 334 406
#     4  12  24  46  64 100 136 174 240 280 340 416
#     4  10  22  42  66  98 128 184 234 282 352 420
#
# _framework density 22.752825999999999
#
# number of rings (size 3 to 8) (size 9 to 14) (size 15 to 20)
#    0.000    1.714    2.143    1.714    9.000    1.714 
#    0.000    1.429    4.714    0.000    0.000    0.000 
#    0.000    0.000    0.000    0.000    0.000    0.000 
#
# Total GULP energy -77988.412703 kJ/mol
# GULP energy per Si atom -5570.600907 kJ/mol
# Density = 2.270104 g / cm^3
# Si number density = 22.752826 Si / 1000 Ang^3
#
#
#
# Elastic Constant Matrix: (Units=GPa)
#
#
# Indices 1 2 3 4 5 6 
#
# 1 55.1229 13.8372 41.1031 0.0000 -26.4350 0.0000
# 2 13.8372 155.2641 58.2729 0.0000 -25.9404 0.0000
# 3 41.1031 58.2729 145.2290 0.0000 -16.3517 0.0000
# 4 0.0000 0.0000 0.0000 228.3946 0.0000 99.0502
# 5 -26.4350 -25.9404 -16.3517 0.0000 43.0372 0.0000
# 6 0.0000 0.0000 0.0000 99.0502 0.0000 98.5361
#
#
#
# Elastic Compliance Matrix: (Units=1/GPa)
#
#
# Indices 1 2 3 4 5 6 
#
# 1 0.032693 0.003439 -0.008502 0.000000 0.018924 0.000000
# 2 0.003439 0.008507 -0.003731 0.000000 0.005822 0.000000
# 3 -0.008502 -0.003731 0.010392 0.000000 -0.003523 0.000000
# 4 0.000000 0.000000 0.000000 0.007762 0.000000 -0.007803
# 5 0.018924 0.005822 -0.003523 0.000000 0.037030 0.000000
# 6 0.000000 0.000000 0.000000 -0.007803 0.000000 0.017992
#
#
# Mechanical properties :
#
#
# Convention : Reuss Voigt Hill
#
# Bulk Modulus (GPa) = 29.40844 64.67136 47.03990
# Shear Modulus (GPa) = 34.89174 90.15378 62.52276
#
# Velocity S-wave (km/s) = 3.92026 6.30152 5.24774
# Velocity P-wave (km/s) = 5.78312 9.02389 7.57876
#
# Compressibility (1/GPa) = 0.03400385
#
# Stress axis : x y z
#
# Youngs Moduli (GPa) = 30.58784 117.54574 96.22340
#
# Poissons Ratio (x) = -0.40423 0.81809
# Poissons Ratio (y) = -0.10519 0.35904
# Poissons Ratio (z) = 0.26006 0.43860
#
# Static dielectric constant tensor:
#      x y z
#    x 1.851960 0.000000 -0.005860 
#    y 0.000000 1.947150 0.000000 
#    z -0.005860 0.000000 1.589750 
# 
# From -- ./inp_files/3910.got.cif
#   From: 2010.05.17/outbox.cif.g08.bks.cpg/sg5_2_cif.got.tgz:3910.got - 2010.06.03 18:56:24.
