data_PCOD9124516
_publ_section_title
;
Structure prediction by ZEFSAII (Michael W. Deem and Ramdas Pophale) SiO2 
 PCOD9124516
Probable space group: C 2
;
_chemical_formula_sum "Si O2"
_cell_formula_units_Z 32
_cell_length_a 12.671171
_cell_length_b 5.256137
_cell_length_c 28.200839
_cell_angle_alpha 90.000000
_cell_angle_beta 56.155444
_cell_angle_gamma 90.000000
_cell_volume 1559.955051
_symmetry_space_group_name_H-M "C 2"
_symmetry_group_IT_number 5
_symmetry_cell_setting 'monoclinic'
loop_
_space_group_symop_operation_xyz
x,y,z
-x,y,-z
1/2+x,1/2+y,z
1/2-x,1/2+y,-z
loop_
_atom_site_type_symbol
_atom_site_label
_atom_site_fract_x
_atom_site_fract_y
_atom_site_fract_z
Si Si1 0.804179 0.890330 0.914129
Si Si2 0.179994 0.386069 0.661241
Si Si3 0.787188 0.886955 0.290271
Si Si4 0.011520 0.382667 0.609883
Si Si5 0.922230 0.830489 0.159801
Si Si6 0.615048 0.199585 0.002672
Si Si7 0.021412 0.882044 0.438717
Si Si8 0.423218 0.829869 0.095189
O O1 0.837614 0.814042 0.959860
O O2 0.689068 0.771574 0.913591
O O3 0.934461 0.829511 0.854807
O O4 0.739009 0.166601 0.938807
O O5 0.157737 0.645479 0.695379
O O6 0.327594 0.380888 0.608931
O O7 0.096633 0.372409 0.635141
O O8 0.159234 0.145518 0.700557
O O9 0.635755 0.885309 0.336731
O O10 0.822455 0.863821 0.226557
O O11 0.034768 0.636022 0.573536
O O12 0.031880 0.137185 0.571878
O O13 0.895780 0.576738 0.135692
O O14 0.932367 0.080647 0.124569
O O15 0.548719 0.931573 0.036267
O O16 0.500000 0.318181 0.000000
O O17 0.000000 0.875069 0.500000
#
# Coordination Sequence:
#
# PCOD9124516 Si02
#       8
#     4   4   4   4   4   4   4   4
#     4  10  21  36  59  83 112 146 181 226 279 330
#     4  10  21  38  59  83 112 151 188 225 280 329
#     4  10  22  38  57  82 112 145 189 233 271 328
#     4  10  21  37  57  81 114 152 187 228 278 327
#     4  11  23  39  58  84 112 143 186 232 275 326
#     4   9  19  36  56  83 112 145 181 223 276 338
#     4  10  21  36  56  86 117 146 188 233 272 327
#     4  10  23  38  57  84 111 142 183 226 277 335
#
# _framework density 20.513413
#
# number of rings (size 3 to 8) (size 9 to 14) (size 15 to 20)
#    0.000    2.000    0.000    2.625    0.000    8.000 
#    0.000    3.125    0.000    0.000    0.000    0.000 
#    0.000    0.000    0.000    0.000    0.000    0.000 
#
# Total GULP energy -89271.075964 kJ/mol
# GULP energy per Si atom -5579.442248 kJ/mol
# Density = 2.046672 g / cm^3
# Si number density = 20.513413 Si / 1000 Ang^3
#
#
#
# Elastic Constant Matrix: (Units=GPa)
#
#
# Indices 1 2 3 4 5 6 
#
# 1 97.5092 34.0036 -3.8813 0.0003 32.2899 0.0003
# 2 34.0036 118.9294 21.3132 0.0007 9.7351 -0.0002
# 3 -3.8813 21.3132 77.1312 -0.0009 7.6421 0.0000
# 4 0.0003 0.0007 -0.0009 27.1484 0.0002 14.6504
# 5 32.2899 9.7351 7.6421 0.0002 22.6596 -0.0003
# 6 0.0003 -0.0002 0.0000 14.6504 -0.0003 14.0552
#
#
#
# Elastic Compliance Matrix: (Units=1/GPa)
#
#
# Indices 1 2 3 4 5 6 
#
# 1 0.022999 -0.004939 0.005751 0.000002 -0.032592 -0.000004
# 2 -0.004939 0.010120 -0.003426 -0.000001 0.003845 0.000002
# 3 0.005751 -0.003426 0.015381 0.000002 -0.011911 -0.000002
# 4 0.000002 -0.000001 0.000002 0.084192 -0.000005 -0.087757
# 5 -0.032592 0.003845 -0.011911 -0.000005 0.092940 0.000008
# 6 -0.000004 0.000002 -0.000002 -0.087757 0.000008 0.162622
#
#
# Mechanical properties :
#
#
# Convention : Reuss Voigt Hill
#
# Bulk Modulus (GPa) = 23.10888 44.04899 33.57894
# Shear Modulus (GPa) = 12.25778 28.91492 20.58635
#
# Velocity S-wave (km/s) = 2.44713 3.75849 3.17133
# Velocity P-wave (km/s) = 4.39025 6.35255 5.46027
#
# Compressibility (1/GPa) = 0.04327341
#
# Stress axis : x y z
#
# Youngs Moduli (GPa) = 43.47958 98.81862 65.01496
#
# Poissons Ratio (x) = 0.48803 -0.37391
# Poissons Ratio (y) = 0.21473 0.22273
# Poissons Ratio (z) = -0.25006 0.33853
#
# Static dielectric constant tensor:
#      x y z
#    x 1.726180 0.000000 -0.025040 
#    y 0.000000 1.779600 0.000000 
#    z -0.025040 0.000000 1.720360 
# 
# From -- ./inp_files/68182.got.cif
#   From: 2010.05.17/outbox.cif.g08.bks.cpg/sg5_35_cif.got.tgz:68182.got - 2010.06.03 18:56:24.
