data_PCOD9124532
_publ_section_title
;
Structure prediction by ZEFSAII (Michael W. Deem and Ramdas Pophale) SiO2 
 PCOD9124532
Probable space group: C 2
;
_chemical_formula_sum "Si O2"
_cell_formula_units_Z 32
_cell_length_a 12.043896
_cell_length_b 8.461057
_cell_length_c 30.662375
_cell_angle_alpha 90.000000
_cell_angle_beta 29.670665
_cell_angle_gamma 90.000000
_cell_volume 1546.730953
_symmetry_space_group_name_H-M "C 2"
_symmetry_group_IT_number 5
_symmetry_cell_setting 'monoclinic'
loop_
_space_group_symop_operation_xyz
x,y,z
-x,y,-z
1/2+x,1/2+y,z
1/2-x,1/2+y,-z
loop_
_atom_site_type_symbol
_atom_site_label
_atom_site_fract_x
_atom_site_fract_y
_atom_site_fract_z
Si Si1 0.766168 0.226200 0.484682
Si Si2 0.516597 0.632500 0.045380
Si Si3 0.734880 0.876953 0.599305
Si Si4 0.910422 0.860864 0.810427
Si Si5 0.456523 0.347483 0.895020
Si Si6 0.374058 0.432980 0.398648
Si Si7 0.894733 0.131479 0.745231
Si Si8 0.769515 0.209420 0.629156
O O1 0.855964 0.352869 0.418708
O O2 0.581387 0.307767 0.578067
O O3 0.973366 0.186996 0.445419
O O4 0.719001 0.068172 0.473506
O O5 0.304100 0.748209 0.124064
O O6 0.521282 0.486529 0.077205
O O7 0.500000 0.580797 0.000000
O O8 0.740497 0.736177 0.976476
O O9 0.616420 0.740866 0.667645
O O10 0.000000 0.856836 0.500000
O O11 0.688351 0.045190 0.636213
O O12 0.929168 0.906229 0.854562
O O13 0.124018 0.763032 0.720012
O O14 0.891620 0.014755 0.786921
O O15 0.679145 0.241225 0.819461
O O16 0.583850 0.524089 0.305950
O O17 0.262236 0.343226 0.396564
#
# Coordination Sequence:
#
# PCOD9124532 Si02
#       8
#     4   4   4   4   4   4   4   4
#     4  11  22  38  58  82 115 161 209 258 309 354
#     4  10  23  41  68  97 123 156 195 244 300 367
#     4  11  23  40  60  86 121 163 212 259 303 355
#     4  10  22  40  62  91 125 159 198 247 302 361
#     4  11  22  43  67  93 125 158 198 243 304 368
#     4  10  21  36  58  85 115 158 209 255 300 352
#     4  10  23  40  60  90 125 160 205 253 301 364
#     4  11  22  40  61  84 122 163 204 257 306 355
#
# _framework density 20.688794000000001
#
# number of rings (size 3 to 8) (size 9 to 14) (size 15 to 20)
#    0.000    1.500    0.000    5.625    0.000    7.000 
#    0.000   15.000    0.000    0.000    0.000    0.000 
#    0.000    0.000    0.000    0.000    0.000    0.000 
#
# Total GULP energy -89392.082469 kJ/mol
# GULP energy per Si atom -5587.005154 kJ/mol
# Density = 2.064171 g / cm^3
# Si number density = 20.688794 Si / 1000 Ang^3
#
#
#
# Elastic Constant Matrix: (Units=GPa)
#
#
# Indices 1 2 3 4 5 6 
#
# 1 105.5367 84.7171 49.0218 -0.0004 24.7500 -0.0007
# 2 84.7171 133.4118 69.3881 -0.0012 24.8348 -0.0022
# 3 49.0218 69.3881 119.7870 0.0004 12.4718 -0.0009
# 4 -0.0004 -0.0012 0.0004 40.8801 -0.0001 15.3880
# 5 24.7500 24.8348 12.4718 -0.0001 35.8191 -0.0003
# 6 -0.0007 -0.0022 -0.0009 15.3880 -0.0003 38.4111
#
#
#
# Elastic Compliance Matrix: (Units=1/GPa)
#
#
# Indices 1 2 3 4 5 6 
#
# 1 0.020472 -0.011252 -0.001245 0.000000 -0.005911 0.000000
# 2 -0.011252 0.018056 -0.005562 0.000000 -0.002807 0.000001
# 3 -0.001245 -0.005562 0.012024 0.000000 0.000530 0.000000
# 4 0.000000 0.000000 0.000000 0.028806 0.000000 -0.011540
# 5 -0.005911 -0.002807 0.000530 0.000000 0.033764 0.000000
# 6 0.000000 0.000001 0.000000 -0.011540 0.000000 0.030657
#
#
# Mechanical properties :
#
#
# Convention : Reuss Voigt Hill
#
# Bulk Modulus (GPa) = 69.27768 84.99882 77.13825
# Shear Modulus (GPa) = 27.06950 33.39597 30.23273
#
# Velocity S-wave (km/s) = 3.62112 4.02208 3.82685
# Velocity P-wave (km/s) = 7.14435 7.92106 7.54271
#
# Compressibility (1/GPa) = 0.01443466
#
# Stress axis : x y z
#
# Youngs Moduli (GPa) = 48.84668 55.38203 83.16499
#
# Poissons Ratio (x) = 0.62318 0.10351
# Poissons Ratio (y) = 0.54964 0.46258
# Poissons Ratio (z) = 0.06080 0.30804
#
# Static dielectric constant tensor:
#      x y z
#    x 1.761750 0.000000 0.009040 
#    y 0.000000 1.753650 0.000000 
#    z 0.009040 0.000000 1.744240 
# 
# From -- ./inp_files/71756.got.cif
#   From: 2010.05.17/outbox.cif.g08.bks.cpg/sg5_36_cif.got.tgz:71756.got - 2010.06.03 18:56:24.
