data_PCOD9124253
_publ_section_title
;
Structure prediction by ZEFSAII (Michael W. Deem and Ramdas Pophale) SiO2 
 PCOD9124253
Probable space group: C 2
;
_chemical_formula_sum "Si O2"
_cell_formula_units_Z 28
_cell_length_a 23.950799
_cell_length_b 5.780166
_cell_length_c 14.811413
_cell_angle_alpha 90.000000
_cell_angle_beta 147.144273
_cell_angle_gamma 90.000000
_cell_volume 1112.440955
_symmetry_space_group_name_H-M "C 2"
_symmetry_group_IT_number 5
_symmetry_cell_setting 'monoclinic'
loop_
_space_group_symop_operation_xyz
x,y,z
-x,y,-z
1/2+x,1/2+y,z
1/2-x,1/2+y,-z
loop_
_atom_site_type_symbol
_atom_site_label
_atom_site_fract_x
_atom_site_fract_y
_atom_site_fract_z
Si Si1 0.500000 0.813591 0.500000
Si Si2 0.701831 0.922691 0.501328
Si Si3 0.999630 0.705447 0.198999
Si Si4 0.782683 0.458053 0.152635
Si Si5 0.587340 0.526798 0.453022
Si Si6 0.291480 0.805121 0.698162
Si Si7 0.798294 0.454413 0.959963
Si Si8 0.000000 0.601033 0.000000
O O1 0.534173 0.648226 0.464842
O O2 0.403277 0.968642 0.339897
O O3 0.610271 0.103572 0.369158
O O4 0.791477 0.026659 0.686258
O O5 0.646971 0.713696 0.474984
O O6 0.727401 0.869943 0.433247
O O7 0.996279 0.747126 0.087440
O O8 0.918180 0.508281 0.112213
O O9 0.998729 0.912566 0.269752
O O10 0.747390 0.201803 0.139117
O O11 0.727777 0.695107 0.109642
O O12 0.768997 0.449496 0.025890
O O13 0.688017 0.369512 0.613125
O O14 0.397161 0.936621 0.864715
#
# Coordination Sequence:
#
# PCOD9124253 Si02
#       8
#     2   4   4   4   4   4   4   2
#     4  12  28  46  72 120 156 216 266 336 390 498
#     4  10  20  42  73 100 143 206 251 316 400 471
#     4  10  24  43  73 106 151 201 255 327 406 473
#     4  10  25  45  73 109 151 206 269 312 389 463
#     4  11  25  45  73 110 158 208 263 321 405 486
#     4  10  21  42  71 109 147 198 261 324 393 477
#     4  10  23  47  76 104 151 211 254 329 388 471
#     4  10  24  44  72 118 152 188 268 344 402 476
#
# _framework density 25.169875000000001
#
# number of rings (size 3 to 8) (size 9 to 14) (size 15 to 20)
#    0.000    1.714    1.429    0.857   10.000    1.714 
#    2.571    6.429    0.000    0.000    0.000    0.000 
#    0.000    0.000    0.000    0.000    0.000    0.000 
#
# Total GULP energy -78174.705028 kJ/mol
# GULP energy per Si atom -5583.907502 kJ/mol
# Density = 2.511259 g / cm^3
# Si number density = 25.169875 Si / 1000 Ang^3
#
#
#
# Elastic Constant Matrix: (Units=GPa)
#
#
# Indices 1 2 3 4 5 6 
#
# 1 104.8505 45.4465 23.5439 0.0000 -1.4115 0.0000
# 2 45.4465 118.2451 69.0876 0.0000 -2.3606 0.0000
# 3 23.5439 69.0876 116.6430 0.0000 16.3439 0.0000
# 4 0.0000 0.0000 0.0000 34.4348 0.0000 15.9907
# 5 -1.4115 -2.3606 16.3439 0.0000 48.5270 0.0000
# 6 0.0000 0.0000 0.0000 15.9907 0.0000 33.0714
#
#
#
# Elastic Compliance Matrix: (Units=1/GPa)
#
#
# Indices 1 2 3 4 5 6 
#
# 1 0.011459 -0.004676 0.000464 0.000000 -0.000050 0.000000
# 2 -0.004676 0.015387 -0.008665 0.000000 0.003531 0.000000
# 3 0.000464 -0.008665 0.014346 0.000000 -0.005240 0.000000
# 4 0.000000 0.000000 0.000000 0.037449 0.000000 -0.018107
# 5 -0.000050 0.003531 -0.005240 0.000000 0.022542 0.000000
# 6 0.000000 0.000000 0.000000 -0.018107 0.000000 0.038993
#
#
# Mechanical properties :
#
#
# Convention : Reuss Voigt Hill
#
# Bulk Modulus (GPa) = 64.77470 68.43272 66.60371
# Shear Modulus (GPa) = 29.22652 36.65070 32.93861
#
# Velocity S-wave (km/s) = 3.41129 3.82007 3.62145
# Velocity P-wave (km/s) = 6.42703 6.83408 6.63368
#
# Compressibility (1/GPa) = 0.01543813
#
# Stress axis : x y z
#
# Youngs Moduli (GPa) = 87.26400 64.98813 69.70640
#
# Poissons Ratio (x) = 0.30391 -0.03233
# Poissons Ratio (y) = 0.40808 0.60399
# Poissons Ratio (z) = -0.04047 0.56311
#
# Static dielectric constant tensor:
#      x y z
#    x 2.011890 0.000000 -0.038750 
#    y 0.000000 2.400180 0.000000 
#    z -0.038750 0.000000 2.041670 
# 
# From -- ./inp_files/63538.got.cif
#   From: 2010.05.17/outbox.cif.g08.bks.cpg/sg5_32_cif.got.tgz:63538.got - 2010.06.03 18:56:24.
