data_PCOD9124522
_publ_section_title
;
Structure prediction by ZEFSAII (Michael W. Deem and Ramdas Pophale) SiO2 
 PCOD9124522
Probable space group: C 2
;
_chemical_formula_sum "Si O2"
_cell_formula_units_Z 28
_cell_length_a 12.748994
_cell_length_b 8.280339
_cell_length_c 13.657389
_cell_angle_alpha 90.000000
_cell_angle_beta 65.205235
_cell_angle_gamma 90.000000
_cell_volume 1308.848713
_symmetry_space_group_name_H-M "C 2"
_symmetry_group_IT_number 5
_symmetry_cell_setting 'monoclinic'
loop_
_space_group_symop_operation_xyz
x,y,z
-x,y,-z
1/2+x,1/2+y,z
1/2-x,1/2+y,-z
loop_
_atom_site_type_symbol
_atom_site_label
_atom_site_fract_x
_atom_site_fract_y
_atom_site_fract_z
Si Si1 0.367703 0.773960 0.047575
Si Si2 0.991971 0.856583 0.209041
Si Si3 0.914132 0.362326 0.315151
Si Si4 0.780690 0.100194 0.276400
Si Si5 0.357257 0.666939 0.839257
Si Si6 0.017627 0.626286 0.386386
Si Si7 0.120791 0.598218 0.855163
O O1 0.303897 0.688233 0.162543
O O2 0.376809 0.966627 0.059147
O O3 0.500000 0.711663 0.000000
O O4 0.321080 0.733389 0.959455
O O5 0.977024 0.732676 0.124257
O O6 0.002879 0.754396 0.304651
O O7 0.873726 0.959548 0.253475
O O8 0.096356 0.983866 0.164566
O O9 0.812874 0.231595 0.347759
O O10 0.891520 0.485004 0.234941
O O11 0.032863 0.268004 0.242550
O O12 0.932359 0.475123 0.401244
O O13 0.647492 0.058214 0.330696
O O14 0.247594 0.675623 0.812008
O O15 0.000000 0.699856 0.500000
#
# Coordination Sequence:
#
# PCOD9124522 Si02
#       7
#     4   4   4   4   4   4   4
#     4  11  20  42  57  88 130 162 194 246 294 358
#     4  10  21  40  63  87 119 156 201 254 293 355
#     4   9  20  40  61  84 124 152 193 252 301 359
#     4  10  21  41  62  85 127 159 194 249 302 351
#     4  11  21  40  62  89 125 161 200 239 295 360
#     4  11  24  41  63  91 117 156 208 254 306 358
#     4  10  21  36  57  85 118 160 197 239 294 346
#
# _framework density 21.392848000000001
#
# number of rings (size 3 to 8) (size 9 to 14) (size 15 to 20)
#    0.000    1.714    4.286    2.571    0.000    3.429 
#    5.143    2.857    0.000    0.000    0.000    0.000 
#    0.000    0.000    0.000    0.000    0.000    0.000 
#
# Total GULP energy -78160.616737 kJ/mol
# GULP energy per Si atom -5582.901195 kJ/mol
# Density = 2.134416 g / cm^3
# Si number density = 21.392848 Si / 1000 Ang^3
#
#
#
# Elastic Constant Matrix: (Units=GPa)
#
#
# Indices 1 2 3 4 5 6 
#
# 1 145.8592 -21.1936 49.5751 0.0000 29.9798 0.0000
# 2 -21.1936 133.5599 1.3720 0.0000 12.7469 0.0000
# 3 49.5751 1.3720 75.3023 0.0000 27.7090 0.0000
# 4 0.0000 0.0000 0.0000 11.9917 0.0000 5.2058
# 5 29.9798 12.7469 27.7090 0.0000 22.3622 0.0000
# 6 0.0000 0.0000 0.0000 5.2058 0.0000 30.5167
#
#
#
# Elastic Compliance Matrix: (Units=1/GPa)
#
#
# Indices 1 2 3 4 5 6 
#
# 1 0.010821 0.003027 -0.002217 0.000000 -0.013486 0.000000
# 2 0.003027 0.009096 0.002284 0.000000 -0.012074 0.000000
# 3 -0.002217 0.002284 0.025886 0.000000 -0.030405 0.000000
# 4 0.000000 0.000000 0.000000 0.090060 0.000000 -0.015363
# 5 -0.013486 -0.012074 -0.030405 0.000000 0.107356 0.000000
# 6 0.000000 0.000000 0.000000 -0.015363 0.000000 0.035390
#
#
# Mechanical properties :
#
#
# Convention : Reuss Voigt Hill
#
# Bulk Modulus (GPa) = 19.23364 46.02537 32.62951
# Shear Modulus (GPa) = 17.25617 34.63864 25.94741
#
# Velocity S-wave (km/s) = 2.84321 4.02826 3.48645
# Velocity P-wave (km/s) = 4.44844 6.57243 5.61184
#
# Compressibility (1/GPa) = 0.05199223
#
# Stress axis : x y z
#
# Youngs Moduli (GPa) = 92.41239 109.93308 38.63100
#
# Poissons Ratio (x) = -0.33276 0.08564
# Poissons Ratio (y) = -0.27973 -0.08824
# Poissons Ratio (z) = 0.20486 -0.25111
#
# Static dielectric constant tensor:
#      x y z
#    x 1.785730 0.000000 -0.001250 
#    y 0.000000 1.805560 0.000000 
#    z -0.001250 0.000000 1.783620 
# 
# From -- ./inp_files/52237.got.cif
#   From: 2010.05.17/outbox.cif.g08.bks.cpg/sg5_27_cif.got.tgz:52237.got - 2010.06.03 18:56:24.
