data_PCOD9124947
_publ_section_title
;
Structure prediction by ZEFSAII (Michael W. Deem and Ramdas Pophale) SiO2 
 PCOD9124947
Probable space group: C 2
;
_chemical_formula_sum "Si O2"
_cell_formula_units_Z 32
_cell_length_a 27.571087
_cell_length_b 9.046641
_cell_length_c 9.048364
_cell_angle_alpha 90.000000
_cell_angle_beta 48.994657
_cell_angle_gamma 90.000000
_cell_volume 1703.162014
_symmetry_space_group_name_H-M "C 2"
_symmetry_group_IT_number 5
_symmetry_cell_setting 'monoclinic'
loop_
_space_group_symop_operation_xyz
x,y,z
-x,y,-z
1/2+x,1/2+y,z
1/2-x,1/2+y,-z
loop_
_atom_site_type_symbol
_atom_site_label
_atom_site_fract_x
_atom_site_fract_y
_atom_site_fract_z
Si Si1 0.246284 0.263540 0.848094
Si Si2 0.871616 0.414039 0.079995
Si Si3 0.379655 0.264813 0.063631
Si Si4 0.371191 0.910093 0.429479
Si Si5 0.999522 0.232124 0.177615
Si Si6 0.502249 0.414805 0.671797
Si Si7 0.121966 0.759035 0.583323
Si Si8 0.239800 0.910249 0.862441
O O1 0.182975 0.337603 0.907452
O O2 0.306783 0.290685 0.619258
O O3 0.236343 0.087605 0.882034
O O4 0.261875 0.334408 0.974787
O O5 0.872619 0.589429 0.052744
O O6 0.857659 0.389585 0.282091
O O7 0.940842 0.341033 0.911438
O O8 0.383442 0.291732 0.231862
O O9 0.318797 0.349260 0.117486
O O10 0.444076 0.321392 0.857467
O O11 0.432343 0.811547 0.347609
O O12 0.307731 0.874445 0.648726
O O13 0.388384 0.082917 0.416314
O O14 0.005706 0.081706 0.254951
O O15 0.000000 0.200615 0.000000
O O16 0.500000 0.408299 0.500000
O O17 0.568929 0.349486 0.599968
#
# Coordination Sequence:
#
# PCOD9124947 Si02
#       8
#     4   4   4   4   4   4   4   4
#     4  11  23  39  59  87 123 156 193 239 292 347
#     4  10  21  39  63  88 115 152 198 245 290 343
#     4  11  22  40  64  87 115 153 198 242 290 345
#     4   9  21  40  62  87 115 153 198 243 291 343
#     4  10  21  39  62  87 116 153 199 244 288 343
#     4  12  25  39  58  88 122 154 192 239 293 349
#     4  10  22  41  63  86 115 154 197 242 290 345
#     4  11  23  39  59  88 123 157 193 238 292 347
#
# _framework density 18.788581000000001
#
# number of rings (size 3 to 8) (size 9 to 14) (size 15 to 20)
#    0.000    1.500    0.000    4.875    0.000    8.000 
#    0.000    1.250    0.000    0.000    0.000    0.000 
#    0.000    0.000    0.000    0.000    0.000    0.000 
#
# Total GULP energy -89479.274471 kJ/mol
# GULP energy per Si atom -5592.454654 kJ/mol
# Density = 1.874582 g / cm^3
# Si number density = 18.788581 Si / 1000 Ang^3
#
#
#
# Elastic Constant Matrix: (Units=GPa)
#
#
# Indices 1 2 3 4 5 6 
#
# 1 134.2233 77.8553 61.3058 0.0000 -2.8827 0.0000
# 2 77.8553 81.8305 43.4006 0.0000 3.4544 0.0000
# 3 61.3058 43.4006 56.6334 0.0000 -0.8345 0.0000
# 4 0.0000 0.0000 0.0000 28.3010 0.0000 -2.3912
# 5 -2.8827 3.4544 -0.8345 0.0000 20.9061 0.0000
# 6 0.0000 0.0000 0.0000 -2.3912 0.0000 36.5953
#
#
#
# Elastic Compliance Matrix: (Units=1/GPa)
#
#
# Indices 1 2 3 4 5 6 
#
# 1 0.021181 -0.013862 -0.012236 0.000000 0.004723 0.000000
# 2 -0.013862 0.030006 -0.008096 0.000000 -0.007193 0.000000
# 3 -0.012236 -0.008096 0.037123 0.000000 0.001132 0.000000
# 4 0.000000 0.000000 0.000000 0.035531 0.000000 0.002322
# 5 0.004723 -0.007193 0.001132 0.000000 0.049718 0.000000
# 6 0.000000 0.000000 0.000000 0.002322 0.000000 0.027478
#
#
# Mechanical properties :
#
#
# Convention : Reuss Voigt Hill
#
# Bulk Modulus (GPa) = 50.19078 70.86786 60.52932
# Shear Modulus (GPa) = 18.11179 23.16884 20.64031
#
# Velocity S-wave (km/s) = 3.10817 3.51541 3.31804
# Velocity P-wave (km/s) = 6.29701 7.36736 6.85311
#
# Compressibility (1/GPa) = 0.01992398
#
# Stress axis : x y z
#
# Youngs Moduli (GPa) = 47.21294 33.32678 26.93719
#
# Poissons Ratio (x) = 0.46196 0.32960
# Poissons Ratio (y) = 0.65444 0.21807
# Poissons Ratio (z) = 0.57769 0.26980
#
# Static dielectric constant tensor:
#      x y z
#    x 1.613010 0.000000 0.004720 
#    y 0.000000 1.623060 0.000000 
#    z 0.004720 0.000000 1.626850 
# 
# From -- ./inp_files/31647.got.cif
#   From: 2010.05.17/outbox.cif.g08.bks.cpg/sg5_16_cif.got.tgz:31647.got - 2010.06.03 18:56:24.
