data_PCOD9124900
_publ_section_title
;
Structure prediction by ZEFSAII (Michael W. Deem and Ramdas Pophale) SiO2 
 PCOD9124900
Probable space group: C 2
;
_chemical_formula_sum "Si O2"
_cell_formula_units_Z 32
_cell_length_a 7.941109
_cell_length_b 18.986413
_cell_length_c 9.551643
_cell_angle_alpha 90.000000
_cell_angle_beta 59.816634
_cell_angle_gamma 90.000000
_cell_volume 1244.879662
_symmetry_space_group_name_H-M "C 2"
_symmetry_group_IT_number 5
_symmetry_cell_setting 'monoclinic'
loop_
_space_group_symop_operation_xyz
x,y,z
-x,y,-z
1/2+x,1/2+y,z
1/2-x,1/2+y,-z
loop_
_atom_site_type_symbol
_atom_site_label
_atom_site_fract_x
_atom_site_fract_y
_atom_site_fract_z
Si Si1 0.698463 0.581830 0.347129
Si Si2 0.767160 0.942958 0.568893
Si Si3 0.207809 0.804554 0.928334
Si Si4 0.184308 0.205212 0.687740
Si Si5 0.901052 0.076583 0.900779
Si Si6 0.303107 0.308897 0.386093
Si Si7 0.723303 0.840979 0.821102
Si Si8 0.426216 0.165696 0.838034
O O1 0.500000 0.609017 0.500000
O O2 0.791064 0.524472 0.414560
O O3 0.642783 0.539835 0.227653
O O4 0.802287 0.602968 0.953632
O O5 0.727601 0.885678 0.465483
O O6 0.681299 0.905573 0.740363
O O7 0.000000 0.945666 0.500000
O O8 0.268626 0.794099 0.742362
O O9 0.148712 0.732190 0.037292
O O10 0.311481 0.851154 0.001624
O O11 0.000000 0.843026 0.000000
O O12 0.027530 0.143631 0.786635
O O13 0.238049 0.246077 0.520304
O O14 0.115948 0.271872 0.807542
O O15 0.367752 0.176360 0.700512
O O16 0.649171 0.142557 0.751741
O O17 0.000000 0.046222 0.000000
O O18 0.540553 0.320690 0.295812
#
# Coordination Sequence:
#
# PCOD9124900 Si02
#       8
#     4   4   4   4   4   4   4   4
#     4  11  23  38  59  88 123 167 212 249 291 360
#     4   8  16  33  53  79 116 158 211 254 295 362
#     4   9  16  27  52  88 120 154 193 242 313 373
#     4   9  18  33  59  90 120 157 201 252 314 373
#     4  10  22  39  57  84 121 160 203 251 305 368
#     4   9  16  30  57  92 124 159 201 253 313 369
#     4   8  15  29  52  85 121 157 197 252 318 370
#     4  10  21  39  58  84 128 166 198 247 309 369
#
# _framework density 25.705293999999999
#
# number of rings (size 3 to 8) (size 9 to 14) (size 15 to 20)
#    0.000    2.750    0.000    2.250    0.000    6.000 
#    0.000    6.250    0.000   24.000    0.000   42.000 
#    0.000    0.000    0.000    0.000    0.000    0.000 
#
# Total GULP energy -89185.366766 kJ/mol
# GULP energy per Si atom -5574.085423 kJ/mol
# Density = 2.564679 g / cm^3
# Si number density = 25.705294 Si / 1000 Ang^3
#
#
#
# Elastic Constant Matrix: (Units=GPa)
#
#
# Indices 1 2 3 4 5 6 
#
# 1 52.4309 12.1232 39.0440 0.0000 -15.1621 0.0000
# 2 12.1232 75.0989 33.5291 0.0000 -2.7880 0.0000
# 3 39.0440 33.5291 204.5629 0.0000 16.6672 0.0000
# 4 0.0000 0.0000 0.0000 29.0066 0.0000 0.4249
# 5 -15.1621 -2.7880 16.6672 0.0000 37.1147 0.0000
# 6 0.0000 0.0000 0.0000 0.4249 0.0000 15.6492
#
#
#
# Elastic Compliance Matrix: (Units=1/GPa)
#
#
# Indices 1 2 3 4 5 6 
#
# 1 0.028211 -0.001187 -0.006354 0.000000 0.014289 0.000000
# 2 -0.001187 0.014595 -0.002300 0.000000 0.001644 0.000000
# 3 -0.006354 -0.002300 0.006958 0.000000 -0.005893 0.000000
# 4 0.000000 0.000000 0.000000 0.034489 0.000000 -0.000936
# 5 0.014289 0.001644 -0.005893 0.000000 0.035551 0.000000
# 6 0.000000 0.000000 0.000000 -0.000936 0.000000 0.063926
#
#
# Mechanical properties :
#
#
# Convention : Reuss Voigt Hill
#
# Bulk Modulus (GPa) = 33.24096 55.72058 44.48077
# Shear Modulus (GPa) = 23.42580 32.84720 28.13650
#
# Velocity S-wave (km/s) = 3.02209 3.57856 3.31203
# Velocity P-wave (km/s) = 5.01368 6.22885 5.65401
#
# Compressibility (1/GPa) = 0.03008337
#
# Stress axis : x y z
#
# Youngs Moduli (GPa) = 35.44696 68.51599 143.71125
#
# Poissons Ratio (x) = 0.08131 0.91318
# Poissons Ratio (y) = 0.04206 0.33049
# Poissons Ratio (z) = 0.22524 0.15757
#
# Static dielectric constant tensor:
#      x y z
#    x 2.227710 0.000000 0.041770 
#    y 0.000000 2.023920 0.000000 
#    z 0.041770 0.000000 2.073800 
# 
# From -- ./inp_files/25288.got.cif
#   From: 2010.05.17/outbox.cif.g08.bks.cpg/sg5_13_cif.got.tgz:25288.got - 2010.06.03 18:56:24.
