data_PCOD9124397
_publ_section_title
;
Structure prediction by ZEFSAII (Michael W. Deem and Ramdas Pophale) SiO2 
 PCOD9124397
Probable space group: C 2
;
_chemical_formula_sum "Si O2"
_cell_formula_units_Z 28
_cell_length_a 20.022607
_cell_length_b 11.058503
_cell_length_c 6.493640
_cell_angle_alpha 90.000000
_cell_angle_beta 63.170738
_cell_angle_gamma 90.000000
_cell_volume 1283.048409
_symmetry_space_group_name_H-M "C 2"
_symmetry_group_IT_number 5
_symmetry_cell_setting 'monoclinic'
loop_
_space_group_symop_operation_xyz
x,y,z
-x,y,-z
1/2+x,1/2+y,z
1/2-x,1/2+y,-z
loop_
_atom_site_type_symbol
_atom_site_label
_atom_site_fract_x
_atom_site_fract_y
_atom_site_fract_z
Si Si1 0.618093 0.560460 0.635199
Si Si2 0.882393 0.600348 0.950070
Si Si3 0.500000 0.712706 0.000000
Si Si4 0.725252 0.462696 0.137369
Si Si5 0.728685 0.769120 0.603029
Si Si6 0.000000 0.475211 0.500000
Si Si7 0.850847 0.844959 0.136176
Si Si8 0.593566 0.911842 0.749198
O O1 0.658178 0.524079 0.365004
O O2 0.681331 0.646154 0.657105
O O3 0.606338 0.438385 0.779788
O O4 0.539324 0.632085 0.768354
O O5 0.935171 0.551663 0.697638
O O6 0.797695 0.550418 0.033549
O O7 0.892274 0.743431 0.948673
O O8 0.908173 0.536759 0.128005
O O9 0.433224 0.808695 0.050516
O O10 0.748941 0.335745 0.216469
O O11 0.696735 0.426042 0.954220
O O12 0.800329 0.763592 0.359115
O O13 0.676003 0.872303 0.573728
O O14 0.041674 0.404690 0.623632
#
# Coordination Sequence:
#
# PCOD9124397 Si02
#       8
#     4   4   2   4   4   2   4   4
#     4  10  22  41  63  90 122 162 202 254 307 357
#     4  11  23  41  59  92 127 158 203 259 303 363
#     4  10  20  46  64  88 124 158 202 258 306 360
#     4  10  22  40  64  92 120 162 205 246 310 365
#     4   9  20  39  67  88 125 157 199 261 304 359
#     4  12  22  38  64  94 118 162 210 250 304 366
#     4  11  23  40  61  95 124 163 205 250 305 366
#     4  10  21  42  65  93 119 157 207 257 313 355
#
# _framework density 21.823028000000001
#
# number of rings (size 3 to 8) (size 9 to 14) (size 15 to 20)
#    0.000    1.714    2.857    0.857    2.000    2.286 
#   10.286    0.000    0.000    0.000    0.000    0.000 
#    0.000    0.000    0.000    0.000    0.000    0.000 
#
# Total GULP energy -78003.762131 kJ/mol
# GULP energy per Si atom -5571.697295 kJ/mol
# Density = 2.177336 g / cm^3
# Si number density = 21.823028 Si / 1000 Ang^3
#
#
#
# Elastic Constant Matrix: (Units=GPa)
#
#
# Indices 1 2 3 4 5 6 
#
# 1 41.5823 9.3714 24.3561 0.0000 -1.8241 0.0000
# 2 9.3714 94.9117 27.3701 0.0000 -1.7156 0.0000
# 3 24.3561 27.3701 77.4828 0.0000 -13.3183 0.0000
# 4 0.0000 0.0000 0.0000 33.6913 0.0000 -12.9156
# 5 -1.8241 -1.7156 -13.3183 0.0000 28.6704 0.0000
# 6 0.0000 0.0000 0.0000 -12.9156 0.0000 26.3362
#
#
#
# Elastic Compliance Matrix: (Units=1/GPa)
#
#
# Indices 1 2 3 4 5 6 
#
# 1 0.029663 -0.000175 -0.009716 0.000000 -0.002637 0.000000
# 2 -0.000175 0.011779 -0.004333 0.000000 -0.001319 0.000000
# 3 -0.009716 -0.004333 0.018844 0.000000 0.007876 0.000000
# 4 0.000000 0.000000 0.000000 0.036553 0.000000 0.017926
# 5 -0.002637 -0.001319 0.007876 0.000000 0.038291 0.000000
# 6 0.000000 0.000000 0.000000 0.017926 0.000000 0.046762
#
#
# Mechanical properties :
#
#
# Convention : Reuss Voigt Hill
#
# Bulk Modulus (GPa) = 31.40668 37.35243 34.37955
# Shear Modulus (GPa) = 22.62926 27.93154 25.28040
#
# Velocity S-wave (km/s) = 3.22366 3.58147 3.40726
# Velocity P-wave (km/s) = 5.31777 5.85284 5.59171
#
# Compressibility (1/GPa) = 0.03184036
#
# Stress axis : x y z
#
# Youngs Moduli (GPa) = 33.71169 84.89742 53.06595
#
# Poissons Ratio (x) = 0.01484 0.51558
# Poissons Ratio (y) = 0.00589 0.22991
# Poissons Ratio (z) = 0.32754 0.36782
#
# Static dielectric constant tensor:
#      x y z
#    x 1.844390 0.000000 -0.024740 
#    y 0.000000 1.825920 0.000000 
#    z -0.024740 0.000000 1.815350 
# 
# From -- ./inp_files/9560.got.cif
#   From: 2010.05.17/outbox.cif.g08.bks.cpg/sg5_5_cif.got.tgz:9560.got - 2010.06.03 18:56:24.
