data_PCOD9124628
_publ_section_title
;
Structure prediction by ZEFSAII (Michael W. Deem and Ramdas Pophale) SiO2 
 PCOD9124628
Probable space group: C 2
;
_chemical_formula_sum "Si O2"
_cell_formula_units_Z 20
_cell_length_a 7.889744
_cell_length_b 28.480985
_cell_length_c 7.326092
_cell_angle_alpha 90.000000
_cell_angle_beta 142.033263
_cell_angle_gamma 90.000000
_cell_volume 1012.766576
_symmetry_space_group_name_H-M "C 2"
_symmetry_group_IT_number 5
_symmetry_cell_setting 'monoclinic'
loop_
_space_group_symop_operation_xyz
x,y,z
-x,y,-z
1/2+x,1/2+y,z
1/2-x,1/2+y,-z
loop_
_atom_site_type_symbol
_atom_site_label
_atom_site_fract_x
_atom_site_fract_y
_atom_site_fract_z
Si Si1 0.500000 0.048510 0.500000
Si Si2 0.086426 0.628423 0.863519
Si Si3 0.081527 0.188670 0.359056
Si Si4 0.500000 0.337974 0.500000
Si Si5 0.500000 0.768696 0.000000
Si Si6 0.000000 0.984131 0.000000
Si Si7 0.811638 0.928251 0.185564
O O1 0.539247 0.082524 0.705742
O O2 0.231085 0.016386 0.289351
O O3 0.896157 0.671082 0.625401
O O4 0.399874 0.645366 0.131615
O O5 0.000000 0.621001 0.000000
O O6 0.000000 0.196853 0.500000
O O7 0.995113 0.233217 0.167157
O O8 0.753543 0.303402 0.739001
O O9 0.545999 0.376364 0.700698
O O10 0.844677 0.953482 0.021580
O O11 0.000000 0.953315 0.500000
O O12 0.500000 0.924513 0.000000
#
# Coordination Sequence:
#
# PCOD9124628 Si02
#       7
#     2   4   4   2   2   2   4
#     4  12  24  37  62 100 116 156 218 255 294 370
#     4  10  21  39  58  84 127 164 195 245 306 359
#     4  10  21  37  59  85 122 165 197 239 307 358
#     4  10  22  41  62  88 120 162 204 249 322 362
#     4  12  20  37  60  92 120 150 210 261 280 366
#     4  12  26  41  68  94 122 162 216 255 316 376
#     4  10  22  46  64  86 124 167 202 255 324 373
#
# _framework density 19.747889000000001
#
# number of rings (size 3 to 8) (size 9 to 14) (size 15 to 20)
#    0.600    0.800    1.000    4.800    0.000    2.400 
#    3.600    0.000    0.000    0.000    0.000    0.000 
#    0.000    0.000    0.000    0.000    0.000    0.000 
#
# Total GULP energy -55761.226122 kJ/mol
# GULP energy per Si atom -5576.122612 kJ/mol
# Density = 1.970294 g / cm^3
# Si number density = 19.747889 Si / 1000 Ang^3
#
#
#
# Elastic Constant Matrix: (Units=GPa)
#
#
# Indices 1 2 3 4 5 6 
#
# 1 84.3592 47.5182 38.6968 0.0000 -21.8182 0.0000
# 2 47.5182 114.5987 43.7276 0.0000 -18.1611 0.0000
# 3 38.6968 43.7276 127.6822 0.0000 1.0783 0.0000
# 4 0.0000 0.0000 0.0000 536.7691 0.0000 -228.2921
# 5 -21.8182 -18.1611 1.0783 0.0000 25.5232 0.0000
# 6 0.0000 0.0000 0.0000 -228.2921 0.0000 115.6733
#
#
#
# Elastic Compliance Matrix: (Units=1/GPa)
#
#
# Indices 1 2 3 4 5 6 
#
# 1 0.020172 -0.004257 -0.004778 0.000000 0.014417 0.000000
# 2 -0.004257 0.012504 -0.003038 0.000000 0.005387 0.000000
# 3 -0.004778 -0.003038 0.010377 0.000000 -0.006684 0.000000
# 4 0.000000 0.000000 0.000000 0.011599 0.000000 0.022892
# 5 0.014417 0.005387 -0.006684 0.000000 0.055619 0.000000
# 6 0.000000 0.000000 0.000000 0.022892 0.000000 0.053825
#
#
# Mechanical properties :
#
#
# Convention : Reuss Voigt Hill
#
# Bulk Modulus (GPa) = 52.88522 65.16946 59.02734
# Shear Modulus (GPa) = 25.70140 148.70629 87.20385
#
# Velocity S-wave (km/s) = 3.61151 8.68711 6.65240
# Velocity P-wave (km/s) = 6.65049 11.56259 9.43193
#
# Compressibility (1/GPa) = 0.01890887
#
# Stress axis : x y z
#
# Youngs Moduli (GPa) = 49.57388 79.97533 96.37035
#
# Poissons Ratio (x) = 0.34042 0.46041
# Poissons Ratio (y) = 0.21102 0.29274
# Poissons Ratio (z) = 0.23684 0.24294
#
# Static dielectric constant tensor:
#      x y z
#    x 1.689810 0.000000 -0.001450 
#    y 0.000000 1.696170 0.000000 
#    z -0.001450 0.000000 1.703070 
# 
# From -- ./inp_files/17344.got.cif
#   From: 2010.05.17/outbox.cif.g08.bks.cpg/sg5_9_cif.got.tgz:17344.got - 2010.06.03 18:56:24.
