data_PCOD9124474
_publ_section_title
;
Structure prediction by ZEFSAII (Michael W. Deem and Ramdas Pophale) SiO2 
 PCOD9124474
Probable space group: C 2
;
_chemical_formula_sum "Si O2"
_cell_formula_units_Z 24
_cell_length_a 23.227850
_cell_length_b 5.213723
_cell_length_c 26.961009
_cell_angle_alpha 90.000000
_cell_angle_beta 160.240377
_cell_angle_gamma 90.000000
_cell_volume 1103.839398
_symmetry_space_group_name_H-M "C 2"
_symmetry_group_IT_number 5
_symmetry_cell_setting 'monoclinic'
loop_
_space_group_symop_operation_xyz
x,y,z
-x,y,-z
1/2+x,1/2+y,z
1/2-x,1/2+y,-z
loop_
_atom_site_type_symbol
_atom_site_label
_atom_site_fract_x
_atom_site_fract_y
_atom_site_fract_z
Si Si1 0.894505 0.880080 0.657081
Si Si2 0.157377 0.124795 0.938490
Si Si3 0.380473 0.577705 0.355108
Si Si4 0.299677 0.601674 0.827263
Si Si5 0.673552 0.021529 0.832474
Si Si6 0.070316 0.128316 0.411965
O O1 0.721819 0.822721 0.546014
O O2 0.034773 0.666383 0.754468
O O3 0.841248 0.960355 0.558475
O O4 0.991770 0.078587 0.771392
O O5 0.161488 0.023105 0.998398
O O6 0.290255 0.922036 0.021075
O O7 0.500000 0.594370 0.500000
O O8 0.245888 0.344228 0.244231
O O9 0.505751 0.518177 0.410514
O O10 0.285871 0.845328 0.265101
O O11 0.218822 0.648232 0.816713
O O12 0.500000 0.568031 0.000000
O O13 0.588505 0.755850 0.746222
#
# Coordination Sequence:
#
# PCOD9124474 Si02
#       6
#     4   4   4   4   4   4
#     4  11  20  36  58  94 123 164 208 253 322 387
#     4  10  21  35  56  85 124 160 200 251 306 375
#     4  11  25  46  68  98 135 175 225 282 332 387
#     4  11  24  44  70  95 128 177 229 276 332 395
#     4  10  21  38  59  87 128 164 208 263 321 382
#     4  11  21  37  63  91 129 169 211 262 321 395
#
# _framework density 21.742291000000002
#
# number of rings (size 3 to 8) (size 9 to 14) (size 15 to 20)
#    0.000    1.333    5.000    1.000    0.000    1.333 
#    0.000    8.333    0.000    0.000    0.000    0.000 
#    0.000    0.000    0.000    0.000    0.000    0.000 
#
# Total GULP energy -66846.609748 kJ/mol
# GULP energy per Si atom -5570.550812 kJ/mol
# Density = 2.169280 g / cm^3
# Si number density = 21.742291 Si / 1000 Ang^3
#
#
#
# Elastic Constant Matrix: (Units=GPa)
#
#
# Indices 1 2 3 4 5 6 
#
# 1 72.6457 16.2486 49.5678 -0.0031 -22.1742 -0.0095
# 2 16.2486 66.9485 30.4221 -0.0320 -9.2510 0.0251
# 3 49.5678 30.4221 128.2974 0.0077 -26.0592 0.0101
# 4 -0.0031 -0.0320 0.0077 26.5827 -0.0046 -4.5313
# 5 -22.1742 -9.2510 -26.0592 -0.0046 36.2689 0.0114
# 6 -0.0095 0.0251 0.0101 -4.5313 0.0114 13.0002
#
#
#
# Elastic Compliance Matrix: (Units=1/GPa)
#
#
# Indices 1 2 3 4 5 6 
#
# 1 0.020584 -0.001141 -0.006071 0.000007 0.007932 0.000017
# 2 -0.001141 0.016890 -0.003314 0.000017 0.001229 -0.000026
# 3 -0.006071 -0.003314 0.011709 -0.000010 0.003856 -0.000014
# 4 0.000007 0.000017 -0.000010 0.039995 0.000002 0.013940
# 5 0.007932 0.001229 0.003856 0.000002 0.035505 -0.000030
# 6 0.000017 -0.000026 -0.000014 0.013940 -0.000030 0.081781
#
#
# Mechanical properties :
#
#
# Convention : Reuss Voigt Hill
#
# Bulk Modulus (GPa) = 35.54955 51.15206 43.35081
# Shear Modulus (GPa) = 21.10657 26.61392 23.86025
#
# Velocity S-wave (km/s) = 3.11908 3.50246 3.31631
# Velocity P-wave (km/s) = 5.41826 6.31932 5.88606
#
# Compressibility (1/GPa) = 0.02812975
#
# Stress axis : x y z
#
# Youngs Moduli (GPa) = 48.58107 59.20752 85.40407
#
# Poissons Ratio (x) = 0.06756 0.51849
# Poissons Ratio (y) = 0.05543 0.28307
# Poissons Ratio (z) = 0.29494 0.19624
#
# Static dielectric constant tensor:
#      x y z
#    x 1.784410 -0.000010 -0.001170 
#    y -0.000010 1.922970 0.000000 
#    z -0.001170 0.000000 1.879030 
# 
# From -- ./inp_files/30299.got.cif
#   From: 2010.05.17/outbox.cif.g08.bks.cpg/sg5_16_cif.got.tgz:30299.got - 2010.06.03 18:56:24.
