data_PCOD9124157
_publ_section_title
;
Structure prediction by ZEFSAII (Michael W. Deem and Ramdas Pophale) SiO2 
 PCOD9124157
Probable space group: C 2
;
_chemical_formula_sum "Si O2"
_cell_formula_units_Z 26
_cell_length_a 19.277721
_cell_length_b 7.664106
_cell_length_c 12.569677
_cell_angle_alpha 90.000000
_cell_angle_beta 139.048733
_cell_angle_gamma 90.000000
_cell_volume 1217.191549
_symmetry_space_group_name_H-M "C 2"
_symmetry_group_IT_number 5
_symmetry_cell_setting 'monoclinic'
loop_
_space_group_symop_operation_xyz
x,y,z
-x,y,-z
1/2+x,1/2+y,z
1/2-x,1/2+y,-z
loop_
_atom_site_type_symbol
_atom_site_label
_atom_site_fract_x
_atom_site_fract_y
_atom_site_fract_z
Si Si1 0.073301 0.914050 0.315046
Si Si2 0.113824 0.200909 0.190791
Si Si3 0.355901 0.380044 0.161111
Si Si4 0.831756 0.786556 0.361381
Si Si5 0.500000 0.992431 0.500000
Si Si6 0.120818 0.466937 0.836252
Si Si7 0.031400 0.544104 0.157991
O O1 0.139331 0.890061 0.498807
O O2 0.066159 0.722807 0.252762
O O3 0.953422 0.966727 0.212282
O O4 0.119104 0.049834 0.284062
O O5 0.214043 0.207003 0.229015
O O6 0.115850 0.389759 0.249742
O O7 0.000000 0.185584 0.000000
O O8 0.348832 0.410882 0.279193
O O9 0.378039 0.174005 0.182625
O O10 0.241449 0.408677 0.978295
O O11 0.911900 0.622482 0.447380
O O12 0.553601 0.890429 0.660061
O O13 0.063383 0.456653 0.883283
O O14 0.000000 0.583157 0.000000
#
# Coordination Sequence:
#
# PCOD9124157 Si02
#       7
#     4   4   4   4   2   4   4
#     4  11  23  41  66  99 130 176 225 273 333 406
#     4  11  26  40  69  97 132 175 227 273 334 406
#     4  10  21  39  68  91 131 170 221 274 337 391
#     4  11  21  44  64  94 134 180 212 279 346 392
#     4  10  20  42  66  90 132 176 214 272 346 382
#     4  10  21  38  66  91 122 174 214 270 333 394
#     4  10  21  42  62  93 138 169 213 274 339 394
#
# _framework density 21.360648000000001
#
# number of rings (size 3 to 8) (size 9 to 14) (size 15 to 20)
#    0.000    1.538    4.615    2.308    8.615    0.000 
#    0.000    1.538    0.000    0.000    0.000    0.000 
#    0.000    0.000    0.000    0.000    0.000    0.000 
#
# Total GULP energy -72582.040882 kJ/mol
# GULP energy per Si atom -5583.233914 kJ/mol
# Density = 2.131203 g / cm^3
# Si number density = 21.360648 Si / 1000 Ang^3
#
#
#
# Elastic Constant Matrix: (Units=GPa)
#
#
# Indices 1 2 3 4 5 6 
#
# 1 84.9441 17.6269 21.6142 0.0000 12.8780 0.0000
# 2 17.6269 52.9543 5.7351 0.0000 -9.5030 0.0000
# 3 21.6142 5.7351 101.4804 0.0000 -3.5838 0.0000
# 4 0.0000 0.0000 0.0000 15.4848 0.0000 6.8577
# 5 12.8780 -9.5030 -3.5838 0.0000 42.8180 0.0000
# 6 0.0000 0.0000 0.0000 6.8577 0.0000 17.3725
#
#
#
# Elastic Compliance Matrix: (Units=1/GPa)
#
#
# Indices 1 2 3 4 5 6 
#
# 1 0.014585 -0.005585 -0.002998 0.000000 -0.005877 0.000000
# 2 -0.005585 0.021900 0.000183 0.000000 0.006556 0.000000
# 3 -0.002998 0.000183 0.010547 0.000000 0.001825 0.000000
# 4 0.000000 0.000000 0.000000 0.078261 0.000000 -0.030893
# 5 -0.005877 0.006556 0.001825 0.000000 0.026730 0.000000
# 6 0.000000 0.000000 0.000000 -0.030893 0.000000 0.069757
#
#
# Mechanical properties :
#
#
# Convention : Reuss Voigt Hill
#
# Bulk Modulus (GPa) = 33.07753 36.59235 34.83494
# Shear Modulus (GPa) = 20.10801 28.09524 24.10163
#
# Velocity S-wave (km/s) = 3.07148 3.63061 3.36269
# Velocity P-wave (km/s) = 5.30071 5.89432 5.60538
#
# Compressibility (1/GPa) = 0.03023200
#
# Stress axis : x y z
#
# Youngs Moduli (GPa) = 68.56185 45.66240 94.81507
#
# Poissons Ratio (x) = 0.25502 0.28430
# Poissons Ratio (y) = 0.38292 -0.01739
# Poissons Ratio (z) = 0.20558 -0.00837
#
# Static dielectric constant tensor:
#      x y z
#    x 1.851140 0.000000 -0.015090 
#    y 0.000000 1.751920 0.000000 
#    z -0.015090 0.000000 1.824390 
# 
# From -- ./inp_files/46178.got.cif
#   From: 2010.05.17/outbox.cif.g08.bks.cpg/sg5_24_cif.got.tgz:46178.got - 2010.06.03 18:56:24.
