data_PCOD9124989
_publ_section_title
;
Structure prediction by ZEFSAII (Michael W. Deem and Ramdas Pophale) SiO2 
 PCOD9124989
Probable space group: C 2
;
_chemical_formula_sum "Si O2"
_cell_formula_units_Z 26
_cell_length_a 15.698845
_cell_length_b 13.282141
_cell_length_c 5.315292
_cell_angle_alpha 90.000000
_cell_angle_beta 76.726706
_cell_angle_gamma 90.000000
_cell_volume 1078.706734
_symmetry_space_group_name_H-M "C 2"
_symmetry_group_IT_number 5
_symmetry_cell_setting 'monoclinic'
loop_
_space_group_symop_operation_xyz
x,y,z
-x,y,-z
1/2+x,1/2+y,z
1/2-x,1/2+y,-z
loop_
_atom_site_type_symbol
_atom_site_label
_atom_site_fract_x
_atom_site_fract_y
_atom_site_fract_z
Si Si1 0.752945 0.794130 0.764913
Si Si2 0.906805 0.458756 0.699698
Si Si3 0.420062 0.748318 0.892159
Si Si4 0.000000 0.604691 0.000000
Si Si5 0.746032 0.008964 0.936947
Si Si6 0.832381 0.710947 0.208819
Si Si7 0.450959 0.520137 0.780569
O O1 0.718058 0.908009 0.807835
O O2 0.795875 0.769465 0.472113
O O3 0.665156 0.729812 0.878682
O O4 0.817923 0.769787 0.954831
O O5 0.897291 0.337967 0.715966
O O6 0.000000 0.475867 0.500000
O O7 0.932370 0.527690 0.921081
O O8 0.806669 0.501503 0.758852
O O9 0.451313 0.642400 0.767386
O O10 0.500000 0.791831 0.000000
O O11 0.067487 0.677202 0.808825
O O12 0.724885 0.110411 0.801605
O O13 0.849573 0.995794 0.880065
O O14 0.500000 0.480486 0.500000
O O15 0.500000 0.488833 0.000000
#
# Coordination Sequence:
#
# PCOD9124989 Si02
#       7
#     4   4   4   2   4   4   4
#     4  11  26  46  71 103 138 189 231 290 357 414
#     4  10  21  40  69 104 135 176 228 291 370 416
#     4  10  21  39  64 101 135 171 226 286 355 422
#     4  10  24  42  64 100 132 182 230 296 346 418
#     4  10  25  48  71 108 143 188 238 298 350 435
#     4  11  26  46  72 100 142 180 238 291 357 415
#     4  11  25  43  68  97 138 188 234 284 343 408
#
# _framework density 24.102936
#
# number of rings (size 3 to 8) (size 9 to 14) (size 15 to 20)
#    0.000    1.538    2.308    0.462    8.615    4.923 
#    6.923    0.000    0.000    0.000    0.000    0.000 
#    0.000    0.000    0.000    0.000    0.000    0.000 
#
# Total GULP energy -72488.752268 kJ/mol
# GULP energy per Si atom -5576.057867 kJ/mol
# Density = 2.404808 g / cm^3
# Si number density = 24.102936 Si / 1000 Ang^3
#
#
#
# Elastic Constant Matrix: (Units=GPa)
#
#
# Indices 1 2 3 4 5 6 
#
# 1 98.6182 -11.2415 51.7761 0.0000 -32.6861 0.0000
# 2 -11.2415 67.2589 27.6203 0.0000 6.0020 0.0000
# 3 51.7761 27.6203 133.1451 0.0000 -14.1443 0.0000
# 4 0.0000 0.0000 0.0000 23.7429 0.0000 -16.6852
# 5 -32.6861 6.0020 -14.1443 0.0000 35.0792 0.0000
# 6 0.0000 0.0000 0.0000 -16.6852 0.0000 29.6368
#
#
#
# Elastic Compliance Matrix: (Units=1/GPa)
#
#
# Indices 1 2 3 4 5 6 
#
# 1 0.018941 0.004722 -0.006849 0.000000 0.014079 0.000000
# 2 0.004722 0.018083 -0.005693 0.000000 -0.000989 0.000000
# 3 -0.006849 -0.005693 0.011263 0.000000 -0.000867 0.000000
# 4 0.000000 0.000000 0.000000 0.069690 0.000000 0.039235
# 5 0.014079 -0.000989 -0.000867 0.000000 0.041445 0.000000
# 6 0.000000 0.000000 0.000000 0.039235 0.000000 0.055831
#
#
# Mechanical properties :
#
#
# Convention : Reuss Voigt Hill
#
# Bulk Modulus (GPa) = 30.63065 48.37023 39.50044
# Shear Modulus (GPa) = 20.68039 33.08293 26.88166
#
# Velocity S-wave (km/s) = 2.93235 3.70884 3.34321
# Velocity P-wave (km/s) = 4.91942 6.20100 5.59701
#
# Compressibility (1/GPa) = 0.03264703
#
# Stress axis : x y z
#
# Youngs Moduli (GPa) = 52.79603 55.29994 88.78648
#
# Poissons Ratio (x) = -0.26113 0.60814
# Poissons Ratio (y) = -0.24931 0.50543
# Poissons Ratio (z) = 0.36162 0.31480
#
# Static dielectric constant tensor:
#      x y z
#    x 1.884270 0.000000 -0.080990 
#    y 0.000000 1.933920 0.000000 
#    z -0.080990 0.000000 2.035240 
# 
# From -- ./inp_files/8495.got.cif
#   From: 2010.05.17/outbox.cif.g08.bks.cpg/sg5_5_cif.got.tgz:8495.got - 2010.06.03 18:56:24.
