data_PCOD9124432
_publ_section_title
;
Structure prediction by ZEFSAII (Michael W. Deem and Ramdas Pophale) SiO2 
 PCOD9124432
Probable space group: C 2
;
_chemical_formula_sum "Si O2"
_cell_formula_units_Z 24
_cell_length_a 23.213612
_cell_length_b 5.366984
_cell_length_c 11.683448
_cell_angle_alpha 90.000000
_cell_angle_beta 60.321740
_cell_angle_gamma 90.000000
_cell_volume 1264.659424
_symmetry_space_group_name_H-M "C 2"
_symmetry_group_IT_number 5
_symmetry_cell_setting 'monoclinic'
loop_
_space_group_symop_operation_xyz
x,y,z
-x,y,-z
1/2+x,1/2+y,z
1/2-x,1/2+y,-z
loop_
_atom_site_type_symbol
_atom_site_label
_atom_site_fract_x
_atom_site_fract_y
_atom_site_fract_z
Si Si1 0.312871 0.079030 0.047265
Si Si2 0.688515 0.061336 0.449573
Si Si3 0.966590 0.505007 0.407628
Si Si4 0.732815 0.061089 0.668226
Si Si5 0.661760 0.579189 0.110967
Si Si6 0.521646 0.505387 0.346087
O O1 0.318940 0.059118 0.177351
O O2 0.221950 0.813202 0.369676
O O3 0.338861 0.338727 0.971229
O O4 0.341950 0.839571 0.953511
O O5 0.610941 0.050825 0.501054
O O6 0.699743 0.060196 0.575553
O O7 0.724265 0.814476 0.366581
O O8 0.982422 0.241195 0.334160
O O9 0.000000 0.483533 0.500000
O O10 0.000024 0.742135 0.314777
O O11 0.733189 0.574739 0.102103
O O12 0.599466 0.553600 0.256292
O O13 0.500000 0.484849 0.500000
#
# Coordination Sequence:
#
# PCOD9124432 Si02
#       6
#     4   4   4   4   4   4
#     4  10  21  35  57  79 109 157 174 240 271 330
#     4  10  21  36  55  87 115 142 193 231 279 334
#     4  10  21  32  53  83 110 148 172 231 286 323
#     4  10  21  36  59  80 113 154 182 238 278 323
#     4  10  21  36  53  83 114 139 196 220 283 333
#     4  10  21  35  53  82 109 150 175 234 281 325
#
# _framework density 18.977440000000001
#
# number of rings (size 3 to 8) (size 9 to 14) (size 15 to 20)
#    0.000    2.000    0.000    3.000    9.333    0.000 
#    0.000    0.000    0.000    6.000    0.000    0.000 
#    0.000    0.000    0.000    0.000    0.000    0.000 
#
# Total GULP energy -66973.683600 kJ/mol
# GULP energy per Si atom -5581.140300 kJ/mol
# Density = 1.893425 g / cm^3
# Si number density = 18.977440 Si / 1000 Ang^3
#
#
#
# Elastic Constant Matrix: (Units=GPa)
#
#
# Indices 1 2 3 4 5 6 
#
# 1 41.3500 -2.5220 1.0605 0.0000 -12.1106 0.0000
# 2 -2.5220 122.5115 -3.3406 0.0000 13.7039 0.0000
# 3 1.0605 -3.3406 73.7295 0.0000 -2.0339 0.0000
# 4 0.0000 0.0000 0.0000 21.3300 0.0000 -9.8184
# 5 -12.1106 13.7039 -2.0339 0.0000 18.8956 0.0000
# 6 0.0000 0.0000 0.0000 -9.8184 0.0000 11.4804
#
#
#
# Elastic Compliance Matrix: (Units=1/GPa)
#
#
# Indices 1 2 3 4 5 6 
#
# 1 0.030085 -0.001672 0.000057 0.000000 0.020501 0.000000
# 2 -0.001672 0.008980 0.000222 0.000000 -0.007560 0.000000
# 3 0.000057 0.000222 0.013609 0.000000 0.001340 0.000000
# 4 0.000000 0.000000 0.000000 0.077322 0.000000 0.066128
# 5 0.020501 -0.007560 0.001340 0.000000 0.071689 0.000000
# 6 0.000000 0.000000 0.000000 0.066128 0.000000 0.143660
#
#
# Mechanical properties :
#
#
# Convention : Reuss Voigt Hill
#
# Bulk Modulus (GPa) = 20.04493 25.33185 22.68839
# Shear Modulus (GPa) = 13.70764 26.50074 20.10419
#
# Velocity S-wave (km/s) = 2.69050 3.74094 3.25833
# Velocity P-wave (km/s) = 4.49857 5.66012 5.11244
#
# Compressibility (1/GPa) = 0.04988793
#
# Stress axis : x y z
#
# Youngs Moduli (GPa) = 33.23959 111.36056 73.47904
#
# Poissons Ratio (x) = 0.18623 -0.00419
# Poissons Ratio (y) = 0.05559 -0.01634
# Poissons Ratio (z) = -0.00190 -0.02476
#
# Static dielectric constant tensor:
#      x y z
#    x 1.622950 0.000000 -0.008300 
#    y 0.000000 1.743660 0.000000 
#    z -0.008300 0.000000 1.626970 
# 
# From -- ./inp_files/46763.got.cif
#   From: 2010.05.17/outbox.cif.g08.bks.cpg/sg5_24_cif.got.tgz:46763.got - 2010.06.03 18:56:24.
