data_PCOD9124200
_publ_section_title
;
Structure prediction by ZEFSAII (Michael W. Deem and Ramdas Pophale) SiO2 
 PCOD9124200
Probable space group: C 2
;
_chemical_formula_sum "Si O2"
_cell_formula_units_Z 32
_cell_length_a 12.187431
_cell_length_b 7.459946
_cell_length_c 19.417488
_cell_angle_alpha 90.000000
_cell_angle_beta 131.011055
_cell_angle_gamma 90.000000
_cell_volume 1332.133978
_symmetry_space_group_name_H-M "C 2"
_symmetry_group_IT_number 5
_symmetry_cell_setting 'monoclinic'
loop_
_space_group_symop_operation_xyz
x,y,z
-x,y,-z
1/2+x,1/2+y,z
1/2-x,1/2+y,-z
loop_
_atom_site_type_symbol
_atom_site_label
_atom_site_fract_x
_atom_site_fract_y
_atom_site_fract_z
Si Si1 0.435691 0.575840 0.682863
Si Si2 0.891004 0.465265 0.697179
Si Si3 0.363899 0.547875 0.492756
Si Si4 0.649808 0.969360 0.017208
Si Si5 0.292770 0.629653 0.265397
Si Si6 0.353046 0.131693 0.132800
Si Si7 0.640207 0.904587 0.592362
Si Si8 0.157441 0.822816 0.094370
O O1 0.464245 0.773636 0.725622
O O2 0.391036 0.546864 0.584411
O O3 0.603609 0.518887 0.743239
O O4 0.292535 0.506268 0.662536
O O5 0.790857 0.460996 0.588309
O O6 0.774403 0.491455 0.709257
O O7 0.003489 0.625981 0.759485
O O8 0.500000 0.482317 0.500000
O O9 0.339194 0.748992 0.455571
O O10 0.768166 0.812124 0.076532
O O11 0.712290 0.159973 0.069150
O O12 0.500000 0.936882 0.000000
O O13 0.614303 0.013032 0.922776
O O14 0.376339 0.785888 0.344302
O O15 0.167692 0.734685 0.173441
O O16 0.242656 0.005979 0.128778
O O17 0.500000 0.004415 0.500000
O O18 0.000000 0.861501 0.000000
#
# Coordination Sequence:
#
# PCOD9124200 Si02
#       8
#     4   4   4   4   4   4   4   4
#     4  12  22  42  68  93 137 181 225 286 348 410
#     4  11  24  42  69 102 133 180 235 286 342 428
#     4  10  20  42  68  90 137 182 223 284 350 404
#     4  11  25  47  73 105 143 189 235 288 358 429
#     4  11  24  48  65  95 141 174 230 292 350 407
#     4  12  24  47  74 106 145 186 239 291 359 428
#     4  10  22  43  66  99 134 180 230 285 343 419
#     4  11  24  47  75 102 144 190 229 304 358 414
#
# _framework density 24.021606999999999
#
# number of rings (size 3 to 8) (size 9 to 14) (size 15 to 20)
#    0.000    1.000    6.250    2.625    0.000    2.500 
#    9.000    0.000    0.000    0.000    0.000    0.000 
#    0.000    0.000    0.000    0.000    0.000    0.000 
#
# Total GULP energy -89128.299557 kJ/mol
# GULP energy per Si atom -5570.518722 kJ/mol
# Density = 2.396693 g / cm^3
# Si number density = 24.021607 Si / 1000 Ang^3
#
#
#
# Elastic Constant Matrix: (Units=GPa)
#
#
# Indices 1 2 3 4 5 6 
#
# 1 82.4239 24.3369 13.8324 0.0000 14.2027 0.0000
# 2 24.3369 43.5699 -12.7104 0.0000 12.0045 0.0000
# 3 13.8324 -12.7104 100.9919 0.0000 7.4150 0.0000
# 4 0.0000 0.0000 0.0000 34.3699 0.0000 9.2836
# 5 14.2027 12.0045 7.4150 0.0000 41.7931 0.0000
# 6 0.0000 0.0000 0.0000 9.2836 0.0000 33.9355
#
#
#
# Elastic Compliance Matrix: (Units=1/GPa)
#
#
# Indices 1 2 3 4 5 6 
#
# 1 0.015720 -0.009098 -0.003139 0.000000 -0.002172 0.000000
# 2 -0.009098 0.031642 0.005744 0.000000 -0.007016 0.000000
# 3 -0.003139 0.005744 0.011244 0.000000 -0.002578 0.000000
# 4 0.000000 0.000000 0.000000 0.031417 0.000000 -0.008594
# 5 -0.002172 -0.007016 -0.002578 0.000000 0.027138 0.000000
# 6 0.000000 0.000000 0.000000 -0.008594 0.000000 0.031819
#
#
# Mechanical properties :
#
#
# Convention : Reuss Voigt Hill
#
# Bulk Modulus (GPa) = 21.92028 30.87816 26.39922
# Shear Modulus (GPa) = 28.22133 35.45483 31.83808
#
# Velocity S-wave (km/s) = 3.43130 3.84598 3.64454
# Velocity P-wave (km/s) = 4.98432 5.71002 5.35947
#
# Compressibility (1/GPa) = 0.04561986
#
# Stress axis : x y z
#
# Youngs Moduli (GPa) = 63.61482 31.60368 88.93789
#
# Poissons Ratio (x) = 0.28752 0.27914
# Poissons Ratio (y) = 0.57875 -0.51082
# Poissons Ratio (z) = 0.19966 -0.18152
#
# Static dielectric constant tensor:
#      x y z
#    x 1.997690 0.000000 0.071790 
#    y 0.000000 1.938980 0.000000 
#    z 0.071790 0.000000 2.114400 
# 
# From -- ./inp_files/65131.got.cif
#   From: 2010.05.17/outbox.cif.g08.bks.cpg/sg5_33_cif.got.tgz:65131.got - 2010.06.03 18:56:24.
