data_PCOD9124321
_publ_section_title
;
Structure prediction by ZEFSAII (Michael W. Deem and Ramdas Pophale) SiO2 
 PCOD9124321
Probable space group: C 2
;
_chemical_formula_sum "Si O2"
_cell_formula_units_Z 22
_cell_length_a 9.889398
_cell_length_b 9.595513
_cell_length_c 12.473289
_cell_angle_alpha 90.000000
_cell_angle_beta 58.259496
_cell_angle_gamma 90.000000
_cell_volume 1006.612744
_symmetry_space_group_name_H-M "C 2"
_symmetry_group_IT_number 5
_symmetry_cell_setting 'monoclinic'
loop_
_space_group_symop_operation_xyz
x,y,z
-x,y,-z
1/2+x,1/2+y,z
1/2-x,1/2+y,-z
loop_
_atom_site_type_symbol
_atom_site_label
_atom_site_fract_x
_atom_site_fract_y
_atom_site_fract_z
Si Si1 0.172048 0.614750 0.657502
Si Si2 0.500000 0.954865 0.000000
Si Si3 0.871797 0.202841 0.187986
Si Si4 0.172780 0.522014 0.122380
Si Si5 0.220270 0.314485 0.564250
Si Si6 0.877176 0.227387 0.762364
O O1 0.247857 0.477752 0.570429
O O2 0.191145 0.745067 0.570778
O O3 0.260874 0.649273 0.731488
O O4 0.989995 0.577985 0.756085
O O5 0.581520 0.853009 0.879436
O O6 0.367614 0.034412 0.986639
O O7 0.810195 0.111819 0.117354
O O8 0.748425 0.233800 0.336044
O O9 0.026188 0.144265 0.185911
O O10 0.198473 0.361850 0.147624
O O11 0.029358 0.288026 0.631298
#
# Coordination Sequence:
#
# PCOD9124321 Si02
#       6
#     4   2   4   4   4   4
#     4  11  20  41  65  93 130 167 203 254 316 369
#     4  10  20  44  62  84 128 164 206 262 310 360
#     4   9  21  43  60  90 121 161 208 254 311 362
#     4  10  22  41  65  90 121 163 211 264 306 368
#     4   9  22  39  62  92 129 164 201 255 308 375
#     4   8  20  40  59  88 127 164 198 250 313 365
#
# _framework density 21.855475999999999
#
# number of rings (size 3 to 8) (size 9 to 14) (size 15 to 20)
#    1.091    1.455    1.818    0.545    2.545    3.636 
#    9.818    0.000    0.000    0.000    0.000    0.000 
#    0.000    0.000    0.000    0.000    0.000    0.000 
#
# Total GULP energy -61335.947036 kJ/mol
# GULP energy per Si atom -5575.995185 kJ/mol
# Density = 2.180573 g / cm^3
# Si number density = 21.855476 Si / 1000 Ang^3
#
#
#
# Elastic Constant Matrix: (Units=GPa)
#
#
# Indices 1 2 3 4 5 6 
#
# 1 137.9045 62.7631 34.1868 0.0000 35.3171 0.0000
# 2 62.7631 71.0524 11.1510 0.0000 18.3819 0.0000
# 3 34.1868 11.1510 76.8752 0.0000 29.1019 0.0000
# 4 0.0000 0.0000 0.0000 27.9522 0.0000 17.6087
# 5 35.3171 18.3819 29.1019 0.0000 31.2839 0.0000
# 6 0.0000 0.0000 0.0000 17.6087 0.0000 36.6519
#
#
#
# Elastic Compliance Matrix: (Units=1/GPa)
#
#
# Indices 1 2 3 4 5 6 
#
# 1 0.014678 -0.010396 -0.001635 0.000000 -0.008941 0.000000
# 2 -0.010396 0.024158 0.003164 0.000000 -0.005402 0.000000
# 3 -0.001635 0.003164 0.020501 0.000000 -0.019085 0.000000
# 4 0.000000 0.000000 0.000000 0.051302 0.000000 -0.024647
# 5 -0.008941 -0.005402 -0.019085 0.000000 0.062987 0.000000
# 6 0.000000 0.000000 0.000000 -0.024647 0.000000 0.039125
#
#
# Mechanical properties :
#
#
# Convention : Reuss Voigt Hill
#
# Bulk Modulus (GPa) = 24.03633 55.78154 39.90894
# Shear Modulus (GPa) = 20.46240 31.02635 25.74438
#
# Velocity S-wave (km/s) = 3.06316 3.77186 3.43583
# Velocity P-wave (km/s) = 4.85101 6.67440 5.83438
#
# Compressibility (1/GPa) = 0.04160368
#
# Stress axis : x y z
#
# Youngs Moduli (GPa) = 68.13072 41.39415 48.77875
#
# Poissons Ratio (x) = 0.43032 0.07973
# Poissons Ratio (y) = 0.70826 -0.15433
# Poissons Ratio (z) = 0.11136 -0.13096
#
# Static dielectric constant tensor:
#      x y z
#    x 1.801850 0.000000 0.000970 
#    y 0.000000 1.786540 0.000000 
#    z 0.000970 0.000000 1.840460 
# 
# From -- ./inp_files/49989.got.cif
#   From: 2010.05.17/outbox.cif.g08.bks.cpg/sg5_25_cif.got.tgz:49989.got - 2010.06.03 18:56:24.
