data_PCOD9124944
_publ_section_title
;
Structure prediction by ZEFSAII (Michael W. Deem and Ramdas Pophale) SiO2 
 PCOD9124944
Probable space group: C 2
;
_chemical_formula_sum "Si O2"
_cell_formula_units_Z 22
_cell_length_a 25.888200
_cell_length_b 7.381384
_cell_length_c 16.235884
_cell_angle_alpha 90.000000
_cell_angle_beta 160.920030
_cell_angle_gamma 90.000000
_cell_volume 1014.177460
_symmetry_space_group_name_H-M "C 2"
_symmetry_group_IT_number 5
_symmetry_cell_setting 'monoclinic'
loop_
_space_group_symop_operation_xyz
x,y,z
-x,y,-z
1/2+x,1/2+y,z
1/2-x,1/2+y,-z
loop_
_atom_site_type_symbol
_atom_site_label
_atom_site_fract_x
_atom_site_fract_y
_atom_site_fract_z
Si Si1 0.500000 0.696890 0.000000
Si Si2 0.144740 0.303778 0.770645
Si Si3 0.339509 0.354306 0.798124
Si Si4 0.545995 0.549641 0.760410
Si Si5 0.547882 0.794306 0.242315
Si Si6 0.746113 0.550824 0.784805
O O1 0.384735 0.564035 0.877398
O O2 0.411137 0.795771 0.793024
O O3 0.086349 0.235545 0.771377
O O4 0.186544 0.121271 0.782797
O O5 0.000000 0.389013 0.500000
O O6 0.299115 0.426765 0.006608
O O7 0.294380 0.232800 0.807341
O O8 0.198827 0.357728 0.520852
O O9 0.500000 0.274010 0.000000
O O10 0.492965 0.606283 0.771871
O O11 0.397894 0.468926 0.486060
O O12 0.394617 0.921277 0.017244
#
# Coordination Sequence:
#
# PCOD9124944 Si02
#       6
#     2   4   4   4   4   4
#     4  10  24  36  56  86 112 154 198 234 282 336
#     4  10  21  39  62  84 117 150 187 234 290 342
#     4   9  23  39  57  82 119 153 193 236 287 333
#     4  10  22  39  59  89 114 150 191 235 287 345
#     4  11  23  38  60  87 117 151 198 235 286 340
#     4  10  22  38  59  86 117 152 189 237 287 341
#
# _framework density 21.692456
#
# number of rings (size 3 to 8) (size 9 to 14) (size 15 to 20)
#    0.545    1.455    0.000    2.182    3.818    4.364 
#    0.000    0.000    0.000    0.000    0.000    0.000 
#    0.000    0.000    0.000    0.000    0.000    0.000 
#
# Total GULP energy -61355.997838 kJ/mol
# GULP energy per Si atom -5577.817985 kJ/mol
# Density = 2.164308 g / cm^3
# Si number density = 21.692456 Si / 1000 Ang^3
#
#
#
# Elastic Constant Matrix: (Units=GPa)
#
#
# Indices 1 2 3 4 5 6 
#
# 1 80.0472 -7.3038 15.4388 0.0000 -21.0273 0.0000
# 2 -7.3038 18.5238 31.6883 0.0000 -6.7276 0.0000
# 3 15.4388 31.6883 174.1326 0.0000 -7.6867 0.0000
# 4 0.0000 0.0000 0.0000 18.6997 0.0000 4.5104
# 5 -21.0273 -6.7276 -7.6867 0.0000 36.7760 0.0000
# 6 0.0000 0.0000 0.0000 4.5104 0.0000 17.1221
#
#
#
# Elastic Compliance Matrix: (Units=1/GPa)
#
#
# Indices 1 2 3 4 5 6 
#
# 1 0.018863 0.020612 -0.004825 0.000000 0.013547 0.000000
# 2 0.020612 0.106011 -0.019927 0.000000 0.027013 0.000000
# 3 -0.004825 -0.019927 0.009603 0.000000 -0.004397 0.000000
# 4 0.000000 0.000000 0.000000 0.057105 0.000000 -0.015043
# 5 0.013547 0.027013 -0.004397 0.000000 0.038960 0.000000
# 6 0.000000 0.000000 0.000000 -0.015043 0.000000 0.062367
#
#
# Mechanical properties :
#
#
# Convention : Reuss Voigt Hill
#
# Bulk Modulus (GPa) = 7.92415 39.15002 23.53708
# Shear Modulus (GPa) = 14.56650 30.04493 22.30571
#
# Velocity S-wave (km/s) = 2.59414 3.72565 3.21014
# Velocity P-wave (km/s) = 3.55439 6.04932 4.96124
#
# Compressibility (1/GPa) = 0.12619653
#
# Stress axis : x y z
#
# Youngs Moduli (GPa) = 53.01480 9.43298 104.13755
#
# Poissons Ratio (x) = -0.19443 0.50250
# Poissons Ratio (y) = -1.09275 2.07512
# Poissons Ratio (z) = 0.25581 0.18797
#
# Static dielectric constant tensor:
#      x y z
#    x 1.785670 0.000000 0.018590 
#    y 0.000000 1.801950 0.000000 
#    z 0.018590 0.000000 1.797030 
# 
# From -- ./inp_files/52063.got.cif
#   From: 2010.05.17/outbox.cif.g08.bks.cpg/sg5_27_cif.got.tgz:52063.got - 2010.06.03 18:56:24.
