data_PCOD9124623
_publ_section_title
;
Structure prediction by ZEFSAII (Michael W. Deem and Ramdas Pophale) SiO2 
 PCOD9124623
Probable space group: C 2
;
_chemical_formula_sum "Si O2"
_cell_formula_units_Z 28
_cell_length_a 5.460035
_cell_length_b 26.395802
_cell_length_c 9.086989
_cell_angle_alpha 90.000000
_cell_angle_beta 122.115458
_cell_angle_gamma 90.000000
_cell_volume 1109.232764
_symmetry_space_group_name_H-M "C 2"
_symmetry_group_IT_number 5
_symmetry_cell_setting 'monoclinic'
loop_
_space_group_symop_operation_xyz
x,y,z
-x,y,-z
1/2+x,1/2+y,z
1/2-x,1/2+y,-z
loop_
_atom_site_type_symbol
_atom_site_label
_atom_site_fract_x
_atom_site_fract_y
_atom_site_fract_z
Si Si1 0.163177 0.068430 0.402977
Si Si2 0.654463 0.833595 0.393377
Si Si3 0.290381 0.179260 0.543173
Si Si4 0.646313 0.934645 0.208140
Si Si5 0.360127 0.480540 0.797460
Si Si6 0.173258 0.262607 0.911583
Si Si7 0.801889 0.648946 0.052565
O O1 0.500000 0.055239 0.500000
O O2 0.171631 0.129588 0.416364
O O3 0.000000 0.053376 0.500000
O O4 0.050770 0.036447 0.230214
O O5 0.500000 0.844284 0.500000
O O6 0.598244 0.879861 0.263062
O O7 0.503227 0.784080 0.278995
O O8 0.000000 0.827876 0.500000
O O9 0.500000 0.207704 0.500000
O O10 0.491408 0.162001 0.743672
O O11 0.000000 0.205505 0.500000
O O12 0.476903 0.971000 0.270253
O O13 0.983845 0.946276 0.278602
O O14 0.500000 0.938529 0.000000
O O15 0.500000 0.469797 0.000000
O O16 0.500000 0.281921 0.000000
O O17 0.204730 0.201747 0.941679
O O18 0.000000 0.279803 0.000000
O O19 0.500000 0.624746 0.000000
O O20 0.000000 0.619621 0.000000
#
# Coordination Sequence:
#
# PCOD9124623 Si02
#       7
#     4   4   4   4   4   4   4
#     4  10  21  37  58  86 123 162 200 261 322 367
#     4  12  25  40  62  96 129 164 213 268 322 373
#     4  10  21  40  63  94 126 160 208 264 324 375
#     4  10  22  39  61  87 123 169 213 256 308 379
#     4  10  21  38  60  88 120 165 216 257 308 376
#     4  10  22  43  65  89 125 171 210 255 317 382
#     4  10  21  41  66  92 123 167 213 255 315 388
#
# _framework density 25.242674999999998
#
# number of rings (size 3 to 8) (size 9 to 14) (size 15 to 20)
#    0.000    1.714    0.000    3.857    0.000    5.143 
#    0.000   25.714    0.000    0.000    0.000    0.000 
#    0.000    0.000    0.000    0.000    0.000    0.000 
#
# Total GULP energy -78239.930030 kJ/mol
# GULP energy per Si atom -5588.566431 kJ/mol
# Density = 2.518522 g / cm^3
# Si number density = 25.242675 Si / 1000 Ang^3
#
#
#
# Elastic Constant Matrix: (Units=GPa)
#
#
# Indices 1 2 3 4 5 6 
#
# 1 305.1721 37.9482 73.6458 0.0000 -22.3800 0.0000
# 2 37.9482 98.1006 37.5197 0.0000 -19.9355 0.0000
# 3 73.6458 37.5197 44.8083 0.0000 -16.8029 0.0000
# 4 0.0000 0.0000 0.0000 42.8697 0.0000 -23.7895
# 5 -22.3800 -19.9355 -16.8029 0.0000 45.9912 0.0000
# 6 0.0000 0.0000 0.0000 -23.7895 0.0000 49.5279
#
#
#
# Elastic Compliance Matrix: (Units=1/GPa)
#
#
# Indices 1 2 3 4 5 6 
#
# 1 0.005700 0.001987 -0.011204 0.000000 -0.000458 0.000000
# 2 0.001987 0.015886 -0.015786 0.000000 0.002086 0.000000
# 3 -0.011204 -0.015786 0.057173 0.000000 0.008593 0.000000
# 4 0.000000 0.000000 0.000000 0.031804 0.000000 0.015276
# 5 -0.000458 0.002086 0.008593 0.000000 0.025564 0.000000
# 6 0.000000 0.000000 0.000000 0.015276 0.000000 0.027528
#
#
# Mechanical properties :
#
#
# Convention : Reuss Voigt Hill
#
# Bulk Modulus (GPa) = 34.77903 82.92315 58.85109
# Shear Modulus (GPa) = 22.39695 47.60891 35.00293
#
# Velocity S-wave (km/s) = 2.98193 4.34758 3.72782
# Velocity P-wave (km/s) = 5.06593 7.62388 6.47253
#
# Compressibility (1/GPa) = 0.02875296
#
# Stress axis : x y z
#
# Youngs Moduli (GPa) = 175.44021 62.94716 17.49090
#
# Poissons Ratio (x) = -0.12508 0.19597
# Poissons Ratio (y) = -0.34861 0.27611
# Poissons Ratio (z) = 1.96563 0.99368
#
# Static dielectric constant tensor:
#      x y z
#    x 2.128320 0.000000 -0.032890 
#    y 0.000000 1.975450 0.000000 
#    z -0.032890 0.000000 2.053660 
# 
# From -- ./inp_files/13381.got.cif
#   From: 2010.05.17/outbox.cif.g08.bks.cpg/sg5_7_cif.got.tgz:13381.got - 2010.06.03 18:56:24.
