data_PCOD9124709
_publ_section_title
;
Structure prediction by ZEFSAII (Michael W. Deem and Ramdas Pophale) SiO2 
 PCOD9124709
Probable space group: C 2
;
_chemical_formula_sum "Si O2"
_cell_formula_units_Z 26
_cell_length_a 10.819044
_cell_length_b 20.511845
_cell_length_c 5.848080
_cell_angle_alpha 90.000000
_cell_angle_beta 68.417240
_cell_angle_gamma 90.000000
_cell_volume 1206.805255
_symmetry_space_group_name_H-M "C 2"
_symmetry_group_IT_number 5
_symmetry_cell_setting 'monoclinic'
loop_
_space_group_symop_operation_xyz
x,y,z
-x,y,-z
1/2+x,1/2+y,z
1/2-x,1/2+y,-z
loop_
_atom_site_type_symbol
_atom_site_label
_atom_site_fract_x
_atom_site_fract_y
_atom_site_fract_z
Si Si1 0.857638 0.201630 0.967602
Si Si2 0.758099 0.843991 0.948838
Si Si3 0.799484 0.082371 0.311438
Si Si4 0.000000 0.893415 0.500000
Si Si5 0.000000 0.130182 0.500000
Si Si6 0.500000 0.926885 0.000000
Si Si7 0.950176 0.556102 0.277780
Si Si8 0.354639 0.446027 0.208685
O O1 0.890835 0.176339 0.691167
O O2 0.780018 0.268929 0.011571
O O3 0.784454 0.144544 0.160041
O O4 0.000000 0.212133 0.000000
O O5 0.631704 0.882684 0.928465
O O6 0.901106 0.851686 0.726078
O O7 0.779761 0.882421 0.172118
O O8 0.944226 0.088654 0.327772
O O9 0.702268 0.075790 0.591813
O O10 0.784606 0.013520 0.194045
O O11 0.108059 0.938298 0.553658
O O12 0.523189 0.978762 0.777371
O O13 0.000000 0.574959 0.500000
O O14 0.000000 0.584601 0.000000
O O15 0.500000 0.448016 0.000000
#
# Coordination Sequence:
#
# PCOD9124709 Si02
#       8
#     4   4   4   2   2   2   4   4
#     4  10  23  42  65  97 137 179 233 288 358 436
#     4  11  22  43  65  99 136 184 235 292 355 432
#     4  11  22  41  67  96 139 173 231 292 362 423
#     4  10  23  40  66  96 131 176 230 294 357 426
#     4  10  23  40  66  98 127 186 226 296 363 428
#     4  10  22  38  70  98 146 180 234 302 356 426
#     4  10  24  42  65 103 140 184 235 291 364 416
#     4  10  21  37  66  99 130 171 228 293 359 419
#
# _framework density 21.544487
#
# number of rings (size 3 to 8) (size 9 to 14) (size 15 to 20)
#    0.462    1.231    0.769    3.692    2.154    4.923 
#    5.538    0.000    0.000    0.000    0.000    0.000 
#    0.000    0.000    0.000    0.000    0.000    0.000 
#
# Total GULP energy -72427.370331 kJ/mol
# GULP energy per Si atom -5571.336179 kJ/mol
# Density = 2.149545 g / cm^3
# Si number density = 21.544487 Si / 1000 Ang^3
#
#
#
# Elastic Constant Matrix: (Units=GPa)
#
#
# Indices 1 2 3 4 5 6 
#
# 1 68.2896 38.4767 19.5753 0.0000 -4.1047 0.0000
# 2 38.4767 163.3117 52.5157 0.0000 -6.0309 0.0000
# 3 19.5753 52.5157 89.7800 0.0000 -10.0591 0.0000
# 4 0.0000 0.0000 0.0000 17.1244 0.0000 -2.7418
# 5 -4.1047 -6.0309 -10.0591 0.0000 39.6531 0.0000
# 6 0.0000 0.0000 0.0000 -2.7418 0.0000 30.5138
#
#
#
# Elastic Compliance Matrix: (Units=1/GPa)
#
#
# Indices 1 2 3 4 5 6 
#
# 1 0.017117 -0.003488 -0.001598 0.000000 0.000836 0.000000
# 2 -0.003488 0.008253 -0.004083 0.000000 -0.000142 0.000000
# 3 -0.001598 -0.004083 0.014190 0.000000 0.002813 0.000000
# 4 0.000000 0.000000 0.000000 0.059248 0.000000 0.005324
# 5 0.000836 -0.000142 0.002813 0.000000 0.025997 0.000000
# 6 0.000000 0.000000 0.000000 0.005324 0.000000 0.033250
#
#
# Mechanical properties :
#
#
# Convention : Reuss Voigt Hill
#
# Bulk Modulus (GPa) = 47.12060 60.27965 53.70013
# Shear Modulus (GPa) = 27.25270 31.51252 29.38261
#
# Velocity S-wave (km/s) = 3.56047 3.82864 3.69699
# Velocity P-wave (km/s) = 6.23068 6.89815 6.57290
#
# Compressibility (1/GPa) = 0.02122214
#
# Stress axis : x y z
#
# Youngs Moduli (GPa) = 58.42084 121.17293 70.47165
#
# Poissons Ratio (x) = 0.42266 0.11263
# Poissons Ratio (y) = 0.20377 0.28771
# Poissons Ratio (z) = 0.09337 0.49471
#
# Static dielectric constant tensor:
#      x y z
#    x 1.899200 0.000000 0.006680 
#    y 0.000000 1.754200 0.000000 
#    z 0.006680 0.000000 1.878050 
# 
# From -- ./inp_files/5453.got.cif
#   From: 2010.05.17/outbox.cif.g08.bks.cpg/sg5_3_cif.got.tgz:5453.got - 2010.06.03 18:56:24.
