data_PCOD9124225
_publ_section_title
;
Structure prediction by ZEFSAII (Michael W. Deem and Ramdas Pophale) SiO2 
 PCOD9124225
Probable space group: C 2
;
_chemical_formula_sum "Si O2"
_cell_formula_units_Z 20
_cell_length_a 7.705049
_cell_length_b 16.929019
_cell_length_c 8.362338
_cell_angle_alpha 90.000000
_cell_angle_beta 57.631713
_cell_angle_gamma 90.000000
_cell_volume 921.294599
_symmetry_space_group_name_H-M "C 2"
_symmetry_group_IT_number 5
_symmetry_cell_setting 'monoclinic'
loop_
_space_group_symop_operation_xyz
x,y,z
-x,y,-z
1/2+x,1/2+y,z
1/2-x,1/2+y,-z
loop_
_atom_site_type_symbol
_atom_site_label
_atom_site_fract_x
_atom_site_fract_y
_atom_site_fract_z
Si Si1 0.365521 0.161130 0.214509
Si Si2 0.500000 0.127348 0.500000
Si Si3 0.000000 0.256256 0.500000
Si Si4 0.156751 0.873423 0.540658
Si Si5 0.825621 0.004853 0.213742
Si Si6 0.930216 0.478069 0.195944
O O1 0.465263 0.168917 0.343992
O O2 0.357652 0.066891 0.194786
O O3 0.142303 0.200298 0.321779
O O4 0.500000 0.193269 0.000000
O O5 0.709751 0.073590 0.374366
O O6 0.835379 0.313725 0.500490
O O7 0.000000 0.829989 0.500000
O O8 0.096572 0.929403 0.721084
O O9 0.249123 0.936484 0.373616
O O10 0.628510 0.977354 0.209976
O O11 0.000000 0.030916 0.000000
O O12 0.000000 0.437146 0.000000
#
# Coordination Sequence:
#
# PCOD9124225 Si02
#       6
#     4   2   2   4   4   4
#     4  10  24  44  73 102 144 183 238 286 353 422
#     4  10  21  44  70 105 142 174 236 296 345 420
#     4  12  27  48  68  99 150 190 224 296 349 430
#     4  12  24  44  69 103 141 186 232 291 354 410
#     4  11  20  39  69 105 143 171 229 300 345 407
#     4  10  20  42  70 109 131 180 242 290 345 421
#
# _framework density 21.708582
#
# number of rings (size 3 to 8) (size 9 to 14) (size 15 to 20)
#    0.000    1.200    6.000    1.200    2.800    5.600 
#    3.600    0.000    0.000    0.000    0.000    0.000 
#    0.000    0.000    0.000    0.000    0.000    0.000 
#
# Total GULP energy -55737.338642 kJ/mol
# GULP energy per Si atom -5573.733864 kJ/mol
# Density = 2.165917 g / cm^3
# Si number density = 21.708582 Si / 1000 Ang^3
#
#
#
# Elastic Constant Matrix: (Units=GPa)
#
#
# Indices 1 2 3 4 5 6 
#
# 1 99.8709 24.9574 25.7766 0.0000 0.6439 0.0000
# 2 24.9574 55.3228 34.6833 0.0000 -8.3993 0.0000
# 3 25.7766 34.6833 161.9880 0.0000 -2.1920 0.0000
# 4 0.0000 0.0000 0.0000 11.0598 0.0000 -12.7327
# 5 0.6439 -8.3993 -2.1920 0.0000 36.0430 0.0000
# 6 0.0000 0.0000 0.0000 -12.7327 0.0000 14.2105
#
#
#
# Elastic Compliance Matrix: (Units=1/GPa)
#
#
# Indices 1 2 3 4 5 6 
#
# 1 0.011446 -0.004875 -0.000796 0.000000 -0.001389 0.000000
# 2 -0.004875 0.023745 -0.004236 0.000000 0.005363 0.000000
# 3 -0.000796 -0.004236 0.007200 0.000000 -0.000535 0.000000
# 4 0.000000 0.000000 0.000000 -2.867777 0.000000 -2.569545
# 5 -0.001389 0.005363 -0.000535 0.000000 0.028987 0.000000
# 6 0.000000 0.000000 0.000000 -2.569545 0.000000 -2.231958
#
#
# Mechanical properties :
#
#
# Convention : Reuss Voigt Hill
#
# Bulk Modulus (GPa) = 44.29494 54.22403 49.25949
# Shear Modulus (GPa) = -0.99980 27.71362 13.35691
#
# Velocity S-wave (km/s) = -0.67938 3.57686 2.48318
# Velocity P-wave (km/s) = 4.45345 6.48775 5.56436
#
# Compressibility (1/GPa) = 0.02257594
#
# Stress axis : x y z
#
# Youngs Moduli (GPa) = 87.36923 42.11473 138.89526
#
# Poissons Ratio (x) = 0.20531 0.11060
# Poissons Ratio (y) = 0.42593 0.58831
# Poissons Ratio (z) = 0.06957 0.17838
#
# Static dielectric constant tensor:
#      x y z
#    x 1.379970 0.000000 0.072040 
#    y 0.000000 1.829670 0.000000 
#    z 0.072040 0.000000 1.817620 
# 
# From -- ./inp_files/16030.got.cif
#   From: 2010.05.17/outbox.cif.g08.bks.cpg/sg5_9_cif.got.tgz:16030.got - 2010.06.03 18:56:24.
