data_PCOD9124038
_publ_section_title
;
Structure prediction by ZEFSAII (Michael W. Deem and Ramdas Pophale) SiO2 
 PCOD9124038
Probable space group: C 2
;
_chemical_formula_sum "Si O2"
_cell_formula_units_Z 24
_cell_length_a 14.647483
_cell_length_b 11.518882
_cell_length_c 10.845882
_cell_angle_alpha 90.000000
_cell_angle_beta 138.739068
_cell_angle_gamma 90.000000
_cell_volume 1206.829535
_symmetry_space_group_name_H-M "C 2"
_symmetry_group_IT_number 5
_symmetry_cell_setting 'monoclinic'
loop_
_space_group_symop_operation_xyz
x,y,z
-x,y,-z
1/2+x,1/2+y,z
1/2-x,1/2+y,-z
loop_
_atom_site_type_symbol
_atom_site_label
_atom_site_fract_x
_atom_site_fract_y
_atom_site_fract_z
Si Si1 0.919278 0.653360 0.036901
Si Si2 0.000000 0.278627 0.500000
Si Si3 0.079284 0.105608 0.186618
Si Si4 0.796345 0.867066 0.756350
Si Si5 0.615444 0.574580 0.784930
Si Si6 0.152124 0.735361 0.444191
Si Si7 0.000000 0.873735 0.500000
O O1 0.868005 0.778575 0.927442
O O2 0.779610 0.594299 0.943559
O O3 0.000000 0.599593 0.000000
O O4 0.027907 0.660154 0.258563
O O5 0.133090 0.356030 0.609923
O O6 0.044501 0.188483 0.651839
O O7 0.206266 0.168755 0.382747
O O8 0.964575 0.065130 0.168216
O O9 0.145670 0.995571 0.184130
O O10 0.000000 0.177870 0.000000
O O11 0.821666 0.822181 0.642964
O O12 0.584222 0.460364 0.673855
O O13 0.097123 0.797336 0.510878
#
# Coordination Sequence:
#
# PCOD9124038 Si02
#       7
#     4   2   4   4   4   4   2
#     4   9  21  40  68  91 121 163 208 252 292 369
#     4   9  18  39  68  92 114 165 210 249 282 378
#     4  12  25  41  63  92 126 162 203 259 309 359
#     4  10  20  41  67  92 121 164 209 246 304 366
#     4  10  21  41  67  89 119 164 214 240 303 370
#     4  11  23  41  62  93 130 154 203 262 311 351
#     4  11  24  39  66  88 126 169 196 253 318 360
#
# _framework density 19.886818999999999
#
# number of rings (size 3 to 8) (size 9 to 14) (size 15 to 20)
#    0.000    1.667    3.333    1.500    4.667    0.667 
#    0.000    2.500    0.000    0.000    0.000    0.000 
#    0.000    0.000    0.000    0.000    0.000    0.000 
#
# Total GULP energy -66933.505593 kJ/mol
# GULP energy per Si atom -5577.792133 kJ/mol
# Density = 1.984156 g / cm^3
# Si number density = 19.886819 Si / 1000 Ang^3
#
#
#
# Elastic Constant Matrix: (Units=GPa)
#
#
# Indices 1 2 3 4 5 6 
#
# 1 148.9093 39.9295 76.8571 0.0000 18.3470 0.0000
# 2 39.9295 35.6294 26.4774 0.0000 2.8732 0.0000
# 3 76.8571 26.4774 153.7798 0.0000 12.6971 0.0000
# 4 0.0000 0.0000 0.0000 -3.2321 0.0000 31.7163
# 5 18.3470 2.8732 12.6971 0.0000 43.1808 0.0000
# 6 0.0000 0.0000 0.0000 31.7163 0.0000 -277.8007
#
#
#
# Elastic Compliance Matrix: (Units=1/GPa)
#
#
# Indices 1 2 3 4 5 6 
#
# 1 0.011839 -0.010101 -0.003913 0.000000 -0.003208 0.000000
# 2 -0.010101 0.040815 -0.002162 0.000000 0.002212 0.000000
# 3 -0.003913 -0.002162 0.008897 0.000000 -0.000810 0.000000
# 4 0.000000 0.000000 0.000000 2.571142 0.000000 0.293545
# 5 -0.003208 0.002212 -0.000810 0.000000 0.024612 0.000000
# 6 0.000000 0.000000 0.000000 0.293545 0.000000 0.029914
#
#
# Mechanical properties :
#
#
# Convention : Reuss Voigt Hill
#
# Bulk Modulus (GPa) = 34.24657 69.42740 51.83698
# Shear Modulus (GPa) = 1.83197 -34.56676 -16.36739
#
# Velocity S-wave (km/s) = 0.96083 -4.17366 -2.87196
# Velocity P-wave (km/s) = 4.29989 3.42944 3.88910
#
# Compressibility (1/GPa) = 0.02920000
#
# Stress axis : x y z
#
# Youngs Moduli (GPa) = 84.46745 24.50070 112.39176
#
# Poissons Ratio (x) = 0.24749 0.43977
# Poissons Ratio (y) = 0.85323 0.24294
# Poissons Ratio (z) = 0.33051 0.05296
#
# Static dielectric constant tensor:
#      x y z
#    x 1.747170 0.000000 -0.211960 
#    y 0.000000 1.694810 0.000000 
#    z -0.211960 0.000000 2.470020 
# 
# From -- ./inp_files/42559.got.cif
#   From: 2010.05.17/outbox.cif.g08.bks.cpg/sg5_22_cif.got.tgz:42559.got - 2010.06.03 18:56:24.
