data_PCOD9124787
_publ_section_title
;
Structure prediction by ZEFSAII (Michael W. Deem and Ramdas Pophale) SiO2 
 PCOD9124787
Probable space group: C 2
;
_chemical_formula_sum "Si O2"
_cell_formula_units_Z 20
_cell_length_a 8.160275
_cell_length_b 24.421103
_cell_length_c 8.319404
_cell_angle_alpha 90.000000
_cell_angle_beta 145.352346
_cell_angle_gamma 90.000000
_cell_volume 942.571427
_symmetry_space_group_name_H-M "C 2"
_symmetry_group_IT_number 5
_symmetry_cell_setting 'monoclinic'
loop_
_space_group_symop_operation_xyz
x,y,z
-x,y,-z
1/2+x,1/2+y,z
1/2-x,1/2+y,-z
loop_
_atom_site_type_symbol
_atom_site_label
_atom_site_fract_x
_atom_site_fract_y
_atom_site_fract_z
Si Si1 0.310313 0.256660 0.690230
Si Si2 0.692733 0.050585 0.802400
Si Si3 0.324695 0.346672 0.200702
Si Si4 0.692725 0.133616 0.314672
Si Si5 0.317680 0.465717 0.187194
O O1 0.501661 0.297345 0.739452
O O2 0.263038 0.195479 0.582368
O O3 0.000000 0.278570 0.500000
O O4 0.500000 0.248730 0.000000
O O5 0.500000 0.025250 0.500000
O O6 0.472915 0.094874 0.697116
O O7 0.000000 0.076542 0.000000
O O8 0.800211 0.009547 0.029803
O O9 0.500000 0.359721 0.500000
O O10 0.356051 0.405241 0.137795
O O11 0.000000 0.333815 0.000000
O O12 0.000000 0.112584 0.500000
O O13 0.500000 0.135451 0.000000
O O14 0.500000 0.477061 0.500000
O O15 0.000000 0.463101 0.000000
#
# Coordination Sequence:
#
# PCOD9124787 Si02
#       5
#     4   4   4   4   4
#     4  10  21  38  62  91 121 157 199 246 304 363
#     4  12  25  39  61  95 125 156 207 268 311 344
#     4  10  21  38  62  89 119 158 204 248 300 361
#     4  10  22  41  63  86 120 167 205 238 302 384
#     4  10  22  42  63  85 121 172 210 240 301 382
#
# _framework density 21.21855
#
# number of rings (size 3 to 8) (size 9 to 14) (size 15 to 20)
#    0.000    1.600    0.000    4.200    0.000    4.000 
#    0.000    2.000    0.000    0.000    0.000    0.000 
#    0.000    0.000    0.000    0.000    0.000    0.000 
#
# Total GULP energy -55711.211796 kJ/mol
# GULP energy per Si atom -5571.121180 kJ/mol
# Density = 2.117026 g / cm^3
# Si number density = 21.218550 Si / 1000 Ang^3
#
#
#
# Elastic Constant Matrix: (Units=GPa)
#
#
# Indices 1 2 3 4 5 6 
#
# 1 89.8715 80.9300 23.4299 0.0000 29.7064 0.0000
# 2 80.9300 123.6789 18.1093 0.0000 14.8402 0.0000
# 3 23.4299 18.1093 118.8158 0.0000 25.3364 0.0000
# 4 0.0000 0.0000 0.0000 25.1543 0.0000 -6.8798
# 5 29.7064 14.8402 25.3364 0.0000 48.9709 0.0000
# 6 0.0000 0.0000 0.0000 -6.8798 0.0000 75.8724
#
#
#
# Elastic Compliance Matrix: (Units=1/GPa)
#
#
# Indices 1 2 3 4 5 6 
#
# 1 0.035196 -0.021189 -0.000593 0.000000 -0.014622 0.000000
# 2 -0.021189 0.021221 -0.000478 0.000000 0.006671 0.000000
# 3 -0.000593 -0.000478 0.009552 0.000000 -0.004438 0.000000
# 4 0.000000 0.000000 0.000000 0.040766 0.000000 0.003696
# 5 -0.014622 0.006671 -0.004438 0.000000 0.029565 0.000000
# 6 0.000000 0.000000 0.000000 0.003696 0.000000 0.013515
#
#
# Mechanical properties :
#
#
# Convention : Reuss Voigt Hill
#
# Bulk Modulus (GPa) = 46.62432 64.14495 55.38464
# Shear Modulus (GPa) = 24.81566 43.99265 34.40416
#
# Velocity S-wave (km/s) = 3.42354 4.55830 4.03105
# Velocity P-wave (km/s) = 6.13585 7.61580 6.91553
#
# Compressibility (1/GPa) = 0.02144803
#
# Stress axis : x y z
#
# Youngs Moduli (GPa) = 28.41214 47.12414 104.68476
#
# Poissons Ratio (x) = 0.99854 0.06206
# Poissons Ratio (y) = 0.60204 0.05007
# Poissons Ratio (z) = 0.01684 0.02254
#
# Static dielectric constant tensor:
#      x y z
#    x 1.746880 0.000000 -0.011970 
#    y 0.000000 1.960670 0.000000 
#    z -0.011970 0.000000 1.704400 
# 
# From -- ./inp_files/17269.got.cif
#   From: 2010.05.17/outbox.cif.g08.bks.cpg/sg5_9_cif.got.tgz:17269.got - 2010.06.03 18:56:24.
