data_PCOD9124486
_publ_section_title
;
Structure prediction by ZEFSAII (Michael W. Deem and Ramdas Pophale) SiO2 
 PCOD9124486
Probable space group: C 2
;
_chemical_formula_sum "Si O2"
_cell_formula_units_Z 24
_cell_length_a 25.256365
_cell_length_b 8.208259
_cell_length_c 5.419543
_cell_angle_alpha 90.000000
_cell_angle_beta 112.318991
_cell_angle_gamma 90.000000
_cell_volume 1039.359245
_symmetry_space_group_name_H-M "C 2"
_symmetry_group_IT_number 5
_symmetry_cell_setting 'monoclinic'
loop_
_space_group_symop_operation_xyz
x,y,z
-x,y,-z
1/2+x,1/2+y,z
1/2-x,1/2+y,-z
loop_
_atom_site_type_symbol
_atom_site_label
_atom_site_fract_x
_atom_site_fract_y
_atom_site_fract_z
Si Si1 0.435147 0.799560 0.371838
Si Si2 0.731882 0.525184 0.021243
Si Si3 0.340594 0.308547 0.789657
Si Si4 0.222963 0.330454 0.283746
Si Si5 0.649850 0.993110 0.480832
Si Si6 0.933874 0.088449 0.867247
O O1 0.500000 0.863163 0.500000
O O2 0.392965 0.946046 0.377253
O O3 0.429448 0.672897 0.590426
O O4 0.428586 0.709126 0.097190
O O5 0.685619 0.382060 0.996349
O O6 0.709008 0.703066 0.041949
O O7 0.787633 0.520794 0.292279
O O8 0.760457 0.502474 0.809094
O O9 0.281131 0.304700 0.534573
O O10 0.386509 0.446810 0.801181
O O11 0.367140 0.136504 0.740946
O O12 0.166937 0.337142 0.347670
O O13 0.000000 0.025785 0.000000
#
# Coordination Sequence:
#
# PCOD9124486 Si02
#       6
#     4   4   4   4   4   4
#     4  10  23  44  68  94 125 169 222 265 323 386
#     4  10  21  35  60  92 129 171 211 262 322 395
#     4  10  22  39  60  95 128 167 213 269 324 386
#     4  10  21  37  59  93 130 168 213 258 326 391
#     4  10  22  39  61  93 130 165 215 267 326 384
#     4  10  23  44  68  95 124 170 220 267 321 388
#
# _framework density 23.091149000000001
#
# number of rings (size 3 to 8) (size 9 to 14) (size 15 to 20)
#    0.000    2.000    0.000    2.000    7.000    2.667 
#    0.000    5.000    0.000    0.000    0.000    0.000 
#    0.000    0.000    0.000    0.000    0.000    0.000 
#
# Total GULP energy -66814.943550 kJ/mol
# GULP energy per Si atom -5567.911963 kJ/mol
# Density = 2.303859 g / cm^3
# Si number density = 23.091149 Si / 1000 Ang^3
#
#
#
# Elastic Constant Matrix: (Units=GPa)
#
#
# Indices 1 2 3 4 5 6 
#
# 1 136.3015 38.5295 18.4729 0.0000 -24.2655 0.0000
# 2 38.5295 59.9324 14.1185 0.0000 -3.5577 0.0000
# 3 18.4729 14.1185 83.4837 0.0000 -16.2437 0.0000
# 4 0.0000 0.0000 0.0000 30.9422 0.0000 -7.3825
# 5 -24.2655 -3.5577 -16.2437 0.0000 34.3526 0.0000
# 6 0.0000 0.0000 0.0000 -7.3825 0.0000 36.1574
#
#
#
# Elastic Compliance Matrix: (Units=1/GPa)
#
#
# Indices 1 2 3 4 5 6 
#
# 1 0.010269 -0.006225 0.000073 0.000000 0.006644 0.000000
# 2 -0.006225 0.021157 -0.002896 0.000000 -0.003575 0.000000
# 3 0.000073 -0.002896 0.013661 0.000000 0.006211 0.000000
# 4 0.000000 0.000000 0.000000 0.033973 0.000000 0.006937
# 5 0.006644 -0.003575 0.006211 0.000000 0.036369 0.000000
# 6 0.000000 0.000000 0.000000 0.006937 0.000000 0.029073
#
#
# Mechanical properties :
#
#
# Convention : Reuss Voigt Hill
#
# Bulk Modulus (GPa) = 37.04935 46.88438 41.96686
# Shear Modulus (GPa) = 29.13824 34.19687 31.66756
#
# Velocity S-wave (km/s) = 3.55615 3.85249 3.70728
# Velocity P-wave (km/s) = 5.73945 6.33538 6.04476
#
# Compressibility (1/GPa) = 0.02699103
#
# Stress axis : x y z
#
# Youngs Moduli (GPa) = 97.37930 47.26506 73.20346
#
# Poissons Ratio (x) = 0.29421 -0.00535
# Poissons Ratio (y) = 0.60616 0.21202
# Poissons Ratio (z) = -0.00712 0.13690
#
# Static dielectric constant tensor:
#      x y z
#    x 1.860790 0.000000 -0.001350 
#    y 0.000000 2.004940 0.000000 
#    z -0.001350 0.000000 1.952390 
# 
# From -- ./inp_files/10149.got.cif
#   From: 2010.05.17/outbox.cif.g08.bks.cpg/sg5_6_cif.got.tgz:10149.got - 2010.06.03 18:56:24.
