data_PCOD9124371
_publ_section_title
;
Structure prediction by ZEFSAII (Michael W. Deem and Ramdas Pophale) SiO2 
 PCOD9124371
Probable space group: C 2
;
_chemical_formula_sum "Si O2"
_cell_formula_units_Z 20
_cell_length_a 17.924360
_cell_length_b 5.838170
_cell_length_c 7.487667
_cell_angle_alpha 90.000000
_cell_angle_beta 90.638239
_cell_angle_gamma 90.000000
_cell_volume 783.501751
_symmetry_space_group_name_H-M "C 2"
_symmetry_group_IT_number 5
_symmetry_cell_setting 'monoclinic'
loop_
_space_group_symop_operation_xyz
x,y,z
-x,y,-z
1/2+x,1/2+y,z
1/2-x,1/2+y,-z
loop_
_atom_site_type_symbol
_atom_site_label
_atom_site_fract_x
_atom_site_fract_y
_atom_site_fract_z
Si Si1 0.572014 0.610660 0.282741
Si Si2 0.655939 0.129071 0.915577
Si Si3 0.500000 0.259911 0.000000
Si Si4 0.131867 0.825665 0.578731
Si Si5 0.781498 0.866654 0.755658
Si Si6 0.500000 0.974438 0.500000
O O1 0.524936 0.428980 0.163845
O O2 0.412380 0.533204 0.511519
O O3 0.657032 0.574301 0.210899
O O4 0.529016 0.841700 0.323184
O O5 0.656202 0.348456 0.782043
O O6 0.699434 0.947152 0.798498
O O7 0.570351 0.103142 0.959718
O O8 0.696631 0.175673 0.101190
O O9 0.200917 0.788213 0.444800
O O10 0.071867 0.623408 0.557037
#
# Coordination Sequence:
#
# PCOD9124371 Si02
#       6
#     4   4   2   4   4   2
#     4   9  22  44  64 108 136 176 224 291 334 414
#     4  11  22  47  71  96 143 188 215 300 336 406
#     4  10  20  44  74 102 146 168 234 290 340 404
#     4  10  24  44  68 102 142 176 236 286 332 415
#     4   9  25  43  65  99 146 175 232 274 351 405
#     4  12  20  40  74  98 134 182 232 276 354 398
#
# _framework density 25.526429
#
# number of rings (size 3 to 8) (size 9 to 14) (size 15 to 20)
#    1.200    0.800    0.000    3.000    0.000    4.800 
#   14.400    0.000    0.000    0.000    0.000    0.000 
#    0.000    0.000    0.000    0.000    0.000    0.000 
#
# Total GULP energy -55817.171992 kJ/mol
# GULP energy per Si atom -5581.717199 kJ/mol
# Density = 2.546833 g / cm^3
# Si number density = 25.526429 Si / 1000 Ang^3
#
#
#
# Elastic Constant Matrix: (Units=GPa)
#
#
# Indices 1 2 3 4 5 6 
#
# 1 144.2428 40.7639 32.6258 0.0000 -32.3820 0.0000
# 2 40.7639 40.6087 -0.5969 0.0000 -20.5678 0.0000
# 3 32.6258 -0.5969 90.7438 0.0000 -31.6030 0.0000
# 4 0.0000 0.0000 0.0000 41.8991 0.0000 -15.8425
# 5 -32.3820 -20.5678 -31.6030 0.0000 44.5500 0.0000
# 6 0.0000 0.0000 0.0000 -15.8425 0.0000 34.4391
#
#
#
# Elastic Compliance Matrix: (Units=1/GPa)
#
#
# Indices 1 2 3 4 5 6 
#
# 1 0.010970 -0.011058 -0.004008 0.000000 0.000025 0.000000
# 2 -0.011058 0.047200 0.012054 0.000000 0.022304 0.000000
# 3 -0.004008 0.012054 0.017882 0.000000 0.015337 0.000000
# 4 0.000000 0.000000 0.000000 0.028892 0.000000 0.013291
# 5 0.000025 0.022304 0.015337 0.000000 0.043642 0.000000
# 6 0.000000 0.000000 0.000000 0.013291 0.000000 0.035151
#
#
# Mechanical properties :
#
#
# Convention : Reuss Voigt Hill
#
# Bulk Modulus (GPa) = 14.28015 46.79787 30.53901
# Shear Modulus (GPa) = 23.46278 37.69781 30.58029
#
# Velocity S-wave (km/s) = 3.03505 3.84710 3.46495
# Velocity P-wave (km/s) = 4.22947 6.17305 5.29126
#
# Compressibility (1/GPa) = 0.07002728
#
# Stress axis : x y z
#
# Youngs Moduli (GPa) = 91.15681 21.18654 55.92313
#
# Poissons Ratio (x) = 0.23428 0.22415
# Poissons Ratio (y) = 1.00803 -0.67411
# Poissons Ratio (z) = 0.36537 -0.25539
#
# Static dielectric constant tensor:
#      x y z
#    x 2.031810 0.000000 -0.005850 
#    y 0.000000 2.093070 0.000000 
#    z -0.005850 0.000000 2.050440 
# 
# From -- ./inp_files/25971.got.cif
#   From: 2010.05.17/outbox.cif.g08.bks.cpg/sg5_13_cif.got.tgz:25971.got - 2010.06.03 18:56:24.
