data_PCOD9124903
_publ_section_title
;
Structure prediction by ZEFSAII (Michael W. Deem and Ramdas Pophale) SiO2 
 PCOD9124903
Probable space group: C 2
;
_chemical_formula_sum "Si O2"
_cell_formula_units_Z 20
_cell_length_a 11.616624
_cell_length_b 8.828566
_cell_length_c 15.627546
_cell_angle_alpha 90.000000
_cell_angle_beta 38.769773
_cell_angle_gamma 90.000000
_cell_volume 1003.618830
_symmetry_space_group_name_H-M "C 2"
_symmetry_group_IT_number 5
_symmetry_cell_setting 'monoclinic'
loop_
_space_group_symop_operation_xyz
x,y,z
-x,y,-z
1/2+x,1/2+y,z
1/2-x,1/2+y,-z
loop_
_atom_site_type_symbol
_atom_site_label
_atom_site_fract_x
_atom_site_fract_y
_atom_site_fract_z
Si Si1 0.718772 0.836280 0.722874
Si Si2 0.821454 0.675598 0.312977
Si Si3 0.240800 0.113321 0.556993
Si Si4 0.500000 0.884364 0.500000
Si Si5 0.594410 0.396799 0.225842
Si Si6 0.000000 0.350731 0.000000
O O1 0.747106 0.752092 0.618772
O O2 0.895538 0.831925 0.682572
O O3 0.668387 0.011735 0.735548
O O4 0.564218 0.766122 0.876311
O O5 0.757392 0.653714 0.448527
O O6 0.659387 0.778988 0.367593
O O7 0.009682 0.770661 0.211976
O O8 0.397731 0.992506 0.491864
O O9 0.046515 0.033064 0.689244
O O10 0.809146 0.434193 0.086306
#
# Coordination Sequence:
#
# PCOD9124903 Si02
#       6
#     4   4   4   2   4   2
#     4  10  21  39  59  83 119 152 195 240 275 354
#     4  11  21  35  61  87 116 150 187 245 303 332
#     4  11  21  35  61  87 116 150 187 245 303 332
#     4  10  22  34  52  90 118 138 188 232 296 358
#     4   9  21  39  56  84 119 154 193 238 281 344
#     4   8  22  42  56  82 116 166 198 222 280 340
#
# _framework density 19.927883000000001
#
# number of rings (size 3 to 8) (size 9 to 14) (size 15 to 20)
#    1.200    0.800    0.000    4.800    0.000    4.000 
#    0.000    0.000    0.000    3.600    0.000    0.000 
#    0.000    0.000    0.000    0.000    0.000    0.000 
#
# Total GULP energy -55670.562184 kJ/mol
# GULP energy per Si atom -5567.056218 kJ/mol
# Density = 1.988253 g / cm^3
# Si number density = 19.927883 Si / 1000 Ang^3
#
#
#
# Elastic Constant Matrix: (Units=GPa)
#
#
# Indices 1 2 3 4 5 6 
#
# 1 70.5965 17.5225 34.1508 0.0000 -27.9770 0.0000
# 2 17.5225 66.8732 20.1523 0.0000 -14.3761 0.0000
# 3 34.1508 20.1523 89.9399 -0.0001 -13.0954 0.0000
# 4 0.0000 0.0000 -0.0001 -17.1139 0.0000 -2.0838
# 5 -27.9770 -14.3761 -13.0954 0.0000 46.5366 0.0000
# 6 0.0000 0.0000 0.0000 -2.0838 0.0000 26.9125
#
#
#
# Elastic Compliance Matrix: (Units=1/GPa)
#
#
# Indices 1 2 3 4 5 6 
#
# 1 0.021975 -0.001469 -0.006421 0.000000 0.010951 0.000000
# 2 -0.001469 0.016926 -0.002713 0.000000 0.003582 0.000000
# 3 -0.006421 -0.002713 0.014056 0.000000 -0.000743 0.000000
# 4 0.000000 0.000000 0.000000 -0.057886 0.000000 -0.004482
# 5 0.010951 0.003582 -0.000743 0.000000 0.028969 0.000000
# 6 0.000000 0.000000 0.000000 -0.004482 0.000000 0.036810
#
#
# Mechanical properties :
#
#
# Convention : Reuss Voigt Hill
#
# Bulk Modulus (GPa) = 31.49402 41.22900 36.36151
# Shear Modulus (GPa) = 53.97187 21.63931 37.80559
#
# Velocity S-wave (km/s) = 5.20984 3.29885 4.36032
# Velocity P-wave (km/s) = 7.21305 5.93665 6.60576
#
# Compressibility (1/GPa) = 0.03175206
#
# Stress axis : x y z
#
# Youngs Moduli (GPa) = 45.50587 59.07958 71.14268
#
# Poissons Ratio (x) = 0.08680 0.45677
# Poissons Ratio (y) = 0.06685 0.19302
# Poissons Ratio (z) = 0.29217 0.16029
#
# Static dielectric constant tensor:
#      x y z
#    x 1.766940 0.000000 -0.028710 
#    y 0.000000 1.722200 0.000000 
#    z -0.028710 0.000000 1.726370 
# 
# From -- ./inp_files/37915.got.cif
#   From: 2010.05.17/outbox.cif.g08.bks.cpg/sg5_19_cif.got.tgz:37915.got - 2010.06.03 18:56:24.
