data_PCOD9124832
_publ_section_title
;
Structure prediction by ZEFSAII (Michael W. Deem and Ramdas Pophale) SiO2 
 PCOD9124832
Probable space group: C 2
;
_chemical_formula_sum "Si O2"
_cell_formula_units_Z 30
_cell_length_a 17.255598
_cell_length_b 5.129190
_cell_length_c 18.932677
_cell_angle_alpha 90.000000
_cell_angle_beta 57.178833
_cell_angle_gamma 90.000000
_cell_volume 1408.184364
_symmetry_space_group_name_H-M "C 2"
_symmetry_group_IT_number 5
_symmetry_cell_setting 'monoclinic'
loop_
_space_group_symop_operation_xyz
x,y,z
-x,y,-z
1/2+x,1/2+y,z
1/2-x,1/2+y,-z
loop_
_atom_site_type_symbol
_atom_site_label
_atom_site_fract_x
_atom_site_fract_y
_atom_site_fract_z
Si Si1 0.136378 0.216130 0.692437
Si Si2 0.344167 0.651620 0.152426
Si Si3 0.364978 0.956359 0.009987
Si Si4 0.553892 0.215477 0.656553
Si Si5 0.359935 0.076753 0.798882
Si Si6 0.288962 0.117898 0.516403
Si Si7 0.160415 0.082988 0.096286
Si Si8 0.500000 0.311998 0.000000
O O1 0.132074 0.188769 0.778141
O O2 0.100262 0.494770 0.683663
O O3 0.242403 0.175642 0.614299
O O4 0.078203 0.992581 0.680213
O O5 0.350092 0.906626 0.100376
O O6 0.238436 0.564428 0.191761
O O7 0.420093 0.472280 0.077628
O O8 0.271305 0.094303 0.032388
O O9 0.376889 0.690763 0.959752
O O10 0.453680 0.132838 0.962807
O O11 0.446132 0.152164 0.707800
O O12 0.606608 0.186147 0.555688
O O13 0.358948 0.303488 0.859607
O O14 0.371896 0.802200 0.832294
O O15 0.232086 0.318745 0.493625
#
# Coordination Sequence:
#
# PCOD9124832 Si02
#       8
#     4   4   4   4   4   4   4   2
#     4  10  22  39  65  92 124 161 202 250 308 369
#     4  11  26  42  57  91 125 163 199 265 318 368
#     4  11  25  44  61  86 120 166 220 261 314 369
#     4  10  21  38  64  95 120 161 205 252 296 372
#     4  11  24  41  63  90 125 156 209 257 310 364
#     4   8  16  35  60  90 123 154 198 247 298 359
#     4  11  24  42  65  83 114 169 211 258 303 361
#     4  12  26  42  60  86 126 164 210 266 320 372
#
# _framework density 21.304029
#
# number of rings (size 3 to 8) (size 9 to 14) (size 15 to 20)
#    0.000    1.600    1.333    2.800    5.600    2.133 
#    0.000    0.667    0.000    0.000    0.000   13.067 
#    0.000    0.000    0.000    0.000    0.000    0.000 
#
# Total GULP energy -83792.338897 kJ/mol
# GULP energy per Si atom -5586.155926 kJ/mol
# Density = 2.125554 g / cm^3
# Si number density = 21.304029 Si / 1000 Ang^3
#
#
#
# Elastic Constant Matrix: (Units=GPa)
#
#
# Indices 1 2 3 4 5 6 
#
# 1 79.6646 15.6640 42.9862 0.0056 -26.9178 0.0244
# 2 15.6640 93.0713 8.8523 0.0236 3.4391 0.0081
# 3 42.9862 8.8523 62.7132 0.0049 -24.6500 -0.0012
# 4 0.0056 0.0236 0.0049 23.7156 -0.0018 -2.7821
# 5 -26.9178 3.4391 -24.6500 -0.0018 39.4055 0.0038
# 6 0.0244 0.0081 -0.0012 -2.7821 0.0038 32.7461
#
#
#
# Elastic Compliance Matrix: (Units=1/GPa)
#
#
# Indices 1 2 3 4 5 6 
#
# 1 0.022103 -0.002923 -0.011540 -0.000001 0.008135 -0.000017
# 2 -0.002923 0.011472 -0.001053 -0.000011 -0.003657 -0.000001
# 3 -0.011540 -0.001053 0.027770 0.000000 0.009580 0.000009
# 4 -0.000001 -0.000011 0.000000 0.042591 0.000002 0.003618
# 5 0.008135 -0.003657 0.009580 0.000002 0.037246 -0.000009
# 6 -0.000017 -0.000001 0.000009 0.003618 -0.000009 0.030845
#
#
# Mechanical properties :
#
#
# Convention : Reuss Voigt Hill
#
# Bulk Modulus (GPa) = 32.99013 41.16158 37.07585
# Shear Modulus (GPa) = 23.45619 30.36988 26.91304
#
# Velocity S-wave (km/s) = 3.32176 3.77974 3.55813
# Velocity P-wave (km/s) = 5.49829 6.19770 5.85844
#
# Compressibility (1/GPa) = 0.03031210
#
# Stress axis : x y z
#
# Youngs Moduli (GPa) = 45.24280 87.17146 36.01003
#
# Poissons Ratio (x) = 0.25479 0.41557
# Poissons Ratio (y) = 0.13224 0.03792
# Poissons Ratio (z) = 0.52212 0.09180
#
# Static dielectric constant tensor:
#      x y z
#    x 1.797930 0.000000 -0.043510 
#    y 0.000000 1.807830 -0.000010 
#    z -0.043510 -0.000010 1.788970 
# 
# From -- ./inp_files/61205.got.cif
#   From: 2010.05.17/outbox.cif.g08.bks.cpg/sg5_31_cif.got.tgz:61205.got - 2010.06.03 18:56:24.
