data_PCOD9124769
_publ_section_title
;
Structure prediction by ZEFSAII (Michael W. Deem and Ramdas Pophale) SiO2 
 PCOD9124769
Probable space group: C 2
;
_chemical_formula_sum "Si O2"
_cell_formula_units_Z 28
_cell_length_a 20.812016
_cell_length_b 8.024046
_cell_length_c 16.634836
_cell_angle_alpha 90.000000
_cell_angle_beta 151.453917
_cell_angle_gamma 90.000000
_cell_volume 1327.491368
_symmetry_space_group_name_H-M "C 2"
_symmetry_group_IT_number 5
_symmetry_cell_setting 'monoclinic'
loop_
_space_group_symop_operation_xyz
x,y,z
-x,y,-z
1/2+x,1/2+y,z
1/2-x,1/2+y,-z
loop_
_atom_site_type_symbol
_atom_site_label
_atom_site_fract_x
_atom_site_fract_y
_atom_site_fract_z
Si Si1 0.645153 0.405170 0.660751
Si Si2 0.799386 0.418141 0.671027
Si Si3 0.710121 0.123311 0.846250
Si Si4 0.382859 0.843760 0.146548
Si Si5 0.082346 0.559110 0.971446
Si Si6 0.371672 0.630303 0.630789
Si Si7 0.967297 0.948115 0.058766
O O1 0.500000 0.492312 0.500000
O O2 0.700593 0.365742 0.633520
O O3 0.627178 0.241820 0.696424
O O4 0.771269 0.506385 0.835488
O O5 0.733277 0.568126 0.549385
O O6 0.811771 0.271651 0.621158
O O7 0.948858 0.472465 0.862388
O O8 0.646340 0.951688 0.807032
O O9 0.756492 0.239296 0.972579
O O10 0.845318 0.071848 0.947354
O O11 0.502044 0.709680 0.278096
O O12 0.420660 0.982715 0.121440
O O13 0.068704 0.755742 0.966557
O O14 0.422145 0.495013 0.751952
O O15 0.000000 0.971681 0.000000
#
# Coordination Sequence:
#
# PCOD9124769 Si02
#       7
#     4   4   4   4   4   4   4
#     4  11  25  41  61  89 125 168 209 258 317 373
#     4  11  22  42  64  92 128 164 212 258 311 374
#     4  10  21  38  61  88 124 167 204 259 317 371
#     4   9  20  38  62  92 121 159 213 257 311 374
#     4  10  22  41  66  90 123 168 207 260 315 370
#     4  10  23  37  63  96 124 163 211 264 305 364
#     4  11  21  37  63  95 128 165 209 254 311 376
#
# _framework density 21.092414999999999
#
# number of rings (size 3 to 8) (size 9 to 14) (size 15 to 20)
#    0.000    1.714    0.000    4.714    0.000    9.143 
#    0.000    3.571    0.000    0.000    0.000    0.000 
#    0.000    0.000    0.000    0.000    0.000    0.000 
#
# Total GULP energy -78162.495804 kJ/mol
# GULP energy per Si atom -5583.035415 kJ/mol
# Density = 2.104441 g / cm^3
# Si number density = 21.092415 Si / 1000 Ang^3
#
#
#
# Elastic Constant Matrix: (Units=GPa)
#
#
# Indices 1 2 3 4 5 6 
#
# 1 68.4072 28.4400 48.3015 0.0000 11.7551 0.0000
# 2 28.4400 91.0957 30.9419 0.0000 -3.9355 0.0000
# 3 48.3015 30.9419 110.0129 0.0000 10.3834 0.0000
# 4 0.0000 0.0000 0.0000 11.5853 0.0000 8.9144
# 5 11.7551 -3.9355 10.3834 0.0000 22.2420 0.0000
# 6 0.0000 0.0000 0.0000 8.9144 0.0000 27.7050
#
#
#
# Elastic Compliance Matrix: (Units=1/GPa)
#
#
# Indices 1 2 3 4 5 6 
#
# 1 0.024339 -0.005214 -0.008284 0.000000 -0.009919 0.000000
# 2 -0.005214 0.013588 -0.002113 0.000000 0.006146 0.000000
# 3 -0.008284 -0.002113 0.013540 0.000000 -0.002317 0.000000
# 4 0.000000 0.000000 0.000000 0.114719 0.000000 -0.036912
# 5 -0.009919 0.006146 -0.002317 0.000000 0.052371 0.000000
# 6 0.000000 0.000000 0.000000 -0.036912 0.000000 0.047971
#
#
# Mechanical properties :
#
#
# Convention : Reuss Voigt Hill
#
# Bulk Modulus (GPa) = 49.38978 53.87585 51.63281
# Shear Modulus (GPa) = 16.42046 23.09527 19.75787
#
# Velocity S-wave (km/s) = 2.79319 3.31260 3.06392
# Velocity P-wave (km/s) = 5.81973 6.34266 6.08681
#
# Compressibility (1/GPa) = 0.02024710
#
# Stress axis : x y z
#
# Youngs Moduli (GPa) = 41.08567 73.59262 73.85645
#
# Poissons Ratio (x) = 0.38368 0.61181
# Poissons Ratio (y) = 0.21420 0.15605
# Poissons Ratio (z) = 0.34034 0.15549
#
# Static dielectric constant tensor:
#      x y z
#    x 1.783380 0.000000 -0.000410 
#    y 0.000000 1.737450 0.000000 
#    z -0.000410 0.000000 1.788960 
# 
# From -- ./inp_files/56935.got.cif
#   From: 2010.05.17/outbox.cif.g08.bks.cpg/sg5_29_cif.got.tgz:56935.got - 2010.06.03 18:56:24.
