data_PCOD9124919
_publ_section_title
;
Structure prediction by ZEFSAII (Michael W. Deem and Ramdas Pophale) SiO2 
 PCOD9124919
Probable space group: C 2
;
_chemical_formula_sum "Si O2"
_cell_formula_units_Z 32
_cell_length_a 7.524982
_cell_length_b 15.909854
_cell_length_c 20.170073
_cell_angle_alpha 90.000000
_cell_angle_beta 143.306956
_cell_angle_gamma 90.000000
_cell_volume 1442.903369
_symmetry_space_group_name_H-M "C 2"
_symmetry_group_IT_number 5
_symmetry_cell_setting 'monoclinic'
loop_
_space_group_symop_operation_xyz
x,y,z
-x,y,-z
1/2+x,1/2+y,z
1/2-x,1/2+y,-z
loop_
_atom_site_type_symbol
_atom_site_label
_atom_site_fract_x
_atom_site_fract_y
_atom_site_fract_z
Si Si1 0.656077 0.008110 0.743381
Si Si2 0.256238 0.205081 0.752550
Si Si3 0.273234 0.765095 0.994939
Si Si4 0.549450 0.852622 0.405351
Si Si5 0.723470 0.957125 0.004728
Si Si6 0.025719 0.854167 0.353358
Si Si7 0.755678 0.691924 0.222406
Si Si8 0.308966 0.020807 0.772735
O O1 0.701565 0.102421 0.730308
O O2 0.417032 0.015469 0.729942
O O3 0.548490 0.936772 0.661583
O O4 0.959652 0.981717 0.871003
O O5 0.452404 0.238900 0.872321
O O6 0.003635 0.271361 0.656760
O O7 0.502055 0.197384 0.765845
O O8 0.153371 0.110321 0.735680
O O9 0.500000 0.766234 0.000000
O O10 0.265318 0.860985 0.017412
O O11 0.429439 0.702664 0.093045
O O12 0.305949 0.837702 0.389934
O O13 0.857885 0.863942 0.536803
O O14 0.588710 0.014389 0.906361
O O15 0.500000 0.960483 0.000000
O O16 0.816004 0.773487 0.284511
O O17 0.882277 0.936832 0.277729
#
# Coordination Sequence:
#
# PCOD9124919 Si02
#       8
#     4   4   4   4   4   4   4   4
#     4  11  22  36  59  89 118 145 184 239 291 333
#     4   9  18  34  57  83 110 148 192 230 273 339
#     4   9  15  29  57  82 103 139 188 228 263 322
#     4  10  21  39  61  82 109 152 201 237 273 334
#     4  11  20  35  61  86 115 153 190 226 275 344
#     4  10  21  39  61  82 109 152 201 237 273 334
#     4   9  18  34  57  83 110 148 192 230 273 339
#     4  11  22  36  59  89 118 145 184 239 291 333
#
# _framework density 22.177506000000001
#
# number of rings (size 3 to 8) (size 9 to 14) (size 15 to 20)
#    0.000    2.000    2.500    1.875    0.000    3.500 
#    0.000    5.000    0.000    0.000    0.000    0.000 
#    0.000    0.000    0.000    0.000    0.000    0.000 
#
# Total GULP energy -89389.868555 kJ/mol
# GULP energy per Si atom -5586.866785 kJ/mol
# Density = 2.212703 g / cm^3
# Si number density = 22.177506 Si / 1000 Ang^3
#
#
#
# Elastic Constant Matrix: (Units=GPa)
#
#
# Indices 1 2 3 4 5 6 
#
# 1 42.0168 -3.9603 -7.0641 -0.0010 -9.5675 -0.0007
# 2 -3.9603 165.0751 53.3880 0.0018 -24.2156 0.0007
# 3 -7.0641 53.3880 111.7321 0.0068 -29.2496 0.0045
# 4 -0.0010 0.0018 0.0068 2.9263 0.0023 -1.4355
# 5 -9.5675 -24.2156 -29.2496 0.0023 25.2885 0.0006
# 6 -0.0007 0.0007 0.0045 -1.4355 0.0006 13.1089
#
#
#
# Elastic Compliance Matrix: (Units=1/GPa)
#
#
# Indices 1 2 3 4 5 6 
#
# 1 0.029596 0.001598 0.006367 -0.000024 0.020092 -0.000004
# 2 0.001598 0.007570 -0.002094 -0.000004 0.005431 0.000000
# 3 0.006367 -0.002094 0.015001 -0.000051 0.017754 -0.000011
# 4 -0.000024 -0.000004 -0.000051 0.361120 -0.000106 0.039543
# 5 0.020092 0.005431 0.017754 -0.000106 0.072881 -0.000020
# 6 -0.000004 0.000000 -0.000011 0.039543 -0.000020 0.080614
#
#
# Mechanical properties :
#
#
# Convention : Reuss Voigt Hill
#
# Bulk Modulus (GPa) = 15.64696 44.83900 30.24298
# Shear Modulus (GPa) = 8.67537 26.69544 17.68541
#
# Velocity S-wave (km/s) = 1.97997 3.47323 2.82698
# Velocity P-wave (km/s) = 3.50681 6.02881 4.93174
#
# Compressibility (1/GPa) = 0.06391017
#
# Stress axis : x y z
#
# Youngs Moduli (GPa) = 33.78793 132.09531 66.66194
#
# Poissons Ratio (x) = -0.21111 -0.42447
# Poissons Ratio (y) = -0.05400 0.13961
# Poissons Ratio (z) = -0.21514 0.27666
#
# Static dielectric constant tensor:
#      x y z
#    x 1.887650 0.000000 0.015340 
#    y 0.000000 1.814050 0.000000 
#    z 0.015340 0.000000 1.785150 
# 
# From -- ./inp_files/64669.got.cif
#   From: 2010.05.17/outbox.cif.g08.bks.cpg/sg5_33_cif.got.tgz:64669.got - 2010.06.03 18:56:24.
