data_PCOD9124223
_publ_section_title
;
Structure prediction by ZEFSAII (Michael W. Deem and Ramdas Pophale) SiO2 
 PCOD9124223
Probable space group: C 2
;
_chemical_formula_sum "Si O2"
_cell_formula_units_Z 28
_cell_length_a 19.192145
_cell_length_b 12.978436
_cell_length_c 5.557608
_cell_angle_alpha 90.000000
_cell_angle_beta 121.836731
_cell_angle_gamma 90.000000
_cell_volume 1176.048232
_symmetry_space_group_name_H-M "C 2"
_symmetry_group_IT_number 5
_symmetry_cell_setting 'monoclinic'
loop_
_space_group_symop_operation_xyz
x,y,z
-x,y,-z
1/2+x,1/2+y,z
1/2-x,1/2+y,-z
loop_
_atom_site_type_symbol
_atom_site_label
_atom_site_fract_x
_atom_site_fract_y
_atom_site_fract_z
Si Si1 0.716378 0.778490 0.290878
Si Si2 0.027316 0.285985 0.804186
Si Si3 0.538381 0.553618 0.319033
Si Si4 0.000000 0.770080 0.000000
Si Si5 0.826972 0.643489 0.200783
Si Si6 0.292724 0.483686 0.204033
Si Si7 0.332063 0.338232 0.885351
Si Si8 0.000000 0.641358 0.500000
O O1 0.772838 0.679681 0.328297
O O2 0.748194 0.882750 0.221188
O O3 0.743926 0.806573 0.611811
O O4 0.623943 0.763026 0.026957
O O5 0.000000 0.334703 0.500000
O O6 0.978116 0.176655 0.709108
O O7 0.000000 0.342680 0.000000
O O8 0.500000 0.512229 0.500000
O O9 0.632411 0.523248 0.502581
O O10 0.500000 0.517270 0.000000
O O11 0.089156 0.826019 0.145159
O O12 0.003312 0.705499 0.254384
O O13 0.913177 0.584421 0.367821
O O14 0.769296 0.576108 0.932051
O O15 0.847973 0.752623 0.117892
O O16 0.325267 0.448082 0.000816
#
# Coordination Sequence:
#
# PCOD9124223 Si02
#       8
#     4   4   4   2   4   4   4   2
#     4  11  24  44  70 103 141 193 235 305 365 445
#     4  10  23  43  73  99 138 192 243 288 361 435
#     4  10  23  42  66 103 140 184 234 295 358 428
#     4  10  20  44  68 100 134 180 238 296 368 428
#     4  10  22  44  71  95 144 187 245 292 371 440
#     4  11  26  43  68 110 143 190 246 309 369 446
#     4  10  24  41  71 104 145 190 241 306 376 442
#     4  10  20  42  70 102 126 196 234 292 354 436
#
# _framework density 23.808547000000001
#
# number of rings (size 3 to 8) (size 9 to 14) (size 15 to 20)
#    0.000    1.714    1.429    1.714   10.000    2.286 
#    3.857    0.000    1.571    0.000    0.000    0.000 
#    0.000    0.000    0.000    0.000    0.000    0.000 
#
# Total GULP energy -78082.289380 kJ/mol
# GULP energy per Si atom -5577.306384 kJ/mol
# Density = 2.375436 g / cm^3
# Si number density = 23.808547 Si / 1000 Ang^3
#
#
#
# Elastic Constant Matrix: (Units=GPa)
#
#
# Indices 1 2 3 4 5 6 
#
# 1 86.5534 5.6960 51.3633 0.0000 14.9584 0.0000
# 2 5.6960 41.3465 5.6939 0.0000 13.3701 0.0000
# 3 51.3633 5.6939 167.9798 0.0000 12.2498 0.0000
# 4 0.0000 0.0000 0.0000 16.3640 0.0000 -0.4769
# 5 14.9584 13.3701 12.2498 0.0000 53.7157 0.0000
# 6 0.0000 0.0000 0.0000 -0.4769 0.0000 1.7028
#
#
#
# Elastic Compliance Matrix: (Units=1/GPa)
#
#
# Indices 1 2 3 4 5 6 
#
# 1 0.014614 -0.000464 -0.004235 0.000000 -0.002988 0.000000
# 2 -0.000464 0.026347 -0.000287 0.000000 -0.006363 0.000000
# 3 -0.004235 -0.000287 0.007288 0.000000 -0.000411 0.000000
# 4 0.000000 0.000000 0.000000 0.061613 0.000000 0.017257
# 5 -0.002988 -0.006363 -0.000411 0.000000 0.021126 0.000000
# 6 0.000000 0.000000 0.000000 0.017257 0.000000 0.592117
#
#
# Mechanical properties :
#
#
# Convention : Reuss Voigt Hill
#
# Bulk Modulus (GPa) = 26.12550 46.82069 36.47310
# Shear Modulus (GPa) = 6.70389 29.89824 18.30107
#
# Velocity S-wave (km/s) = 1.67984 3.54754 2.77551
# Velocity P-wave (km/s) = 3.84181 6.04055 5.06200
#
# Compressibility (1/GPa) = 0.03827677
#
# Stress axis : x y z
#
# Youngs Moduli (GPa) = 68.42959 37.95506 137.21783
#
# Poissons Ratio (x) = 0.01760 0.58108
# Poissons Ratio (y) = 0.03173 0.03941
# Poissons Ratio (z) = 0.28978 0.01090
#
# Static dielectric constant tensor:
#      x y z
#    x 2.119020 0.000000 -0.092080 
#    y 0.000000 1.891830 0.000000 
#    z -0.092080 0.000000 1.985330 
# 
# From -- ./inp_files/8713.got.cif
#   From: 2010.05.17/outbox.cif.g08.bks.cpg/sg5_5_cif.got.tgz:8713.got - 2010.06.03 18:56:24.
