data_PCOD9124230
_publ_section_title
;
Structure prediction by ZEFSAII (Michael W. Deem and Ramdas Pophale) SiO2 
 PCOD9124230
Probable space group: C 2
;
_chemical_formula_sum "Si O2"
_cell_formula_units_Z 30
_cell_length_a 8.945690
_cell_length_b 16.888128
_cell_length_c 11.790532
_cell_angle_alpha 90.000000
_cell_angle_beta 59.365834
_cell_angle_gamma 90.000000
_cell_volume 1532.669465
_symmetry_space_group_name_H-M "C 2"
_symmetry_group_IT_number 5
_symmetry_cell_setting 'monoclinic'
loop_
_space_group_symop_operation_xyz
x,y,z
-x,y,-z
1/2+x,1/2+y,z
1/2-x,1/2+y,-z
loop_
_atom_site_type_symbol
_atom_site_label
_atom_site_fract_x
_atom_site_fract_y
_atom_site_fract_z
Si Si1 0.222231 0.140370 0.235240
Si Si2 0.109810 0.043723 0.621928
Si Si3 0.974586 0.750568 0.811339
Si Si4 0.637563 0.997819 0.682200
Si Si5 0.766210 0.995234 0.183478
Si Si6 0.590973 0.381311 0.349433
Si Si7 0.817944 0.138527 0.018816
Si Si8 0.500000 0.359787 0.000000
O O1 0.331616 0.214475 0.243902
O O2 0.333810 0.063499 0.230965
O O3 0.025093 0.115743 0.348156
O O4 0.208208 0.148506 0.105011
O O5 0.255427 0.032590 0.468143
O O6 0.176226 0.042657 0.725629
O O7 0.001997 0.961998 0.655500
O O8 0.943007 0.810582 0.722129
O O9 0.841900 0.678415 0.854618
O O10 0.914072 0.801108 0.943649
O O11 0.438915 0.984664 0.729255
O O12 0.719340 0.914786 0.692732
O O13 0.808507 0.046563 0.055661
O O14 0.869298 0.914083 0.122974
O O15 0.500000 0.357000 0.500000
O O16 0.000000 0.168990 0.000000
#
# Coordination Sequence:
#
# PCOD9124230 Si02
#       8
#     4   4   4   4   4   4   4   2
#     4  11  21  41  64  91 132 172 210 271 332 387
#     4  10  20  42  70  94 127 168 227 268 324 395
#     4  12  24  43  64  97 134 175 215 276 343 388
#     4  10  23  40  70  97 124 175 225 272 323 395
#     4  12  22  40  68  97 127 173 225 266 324 397
#     4   9  21  44  65  91 134 170 213 277 330 387
#     4  12  24  41  63  92 132 169 212 274 324 394
#     4  12  24  40  68  90 132 172 218 266 332 394
#
# _framework density 19.573691
#
# number of rings (size 3 to 8) (size 9 to 14) (size 15 to 20)
#    0.000    1.067    6.000    1.600    1.867    1.067 
#    2.400    0.000    5.867    0.000    0.000    0.000 
#    0.000    0.000    0.000    0.000    0.000    0.000 
#
# Total GULP energy -83625.245641 kJ/mol
# GULP energy per Si atom -5575.016376 kJ/mol
# Density = 1.952914 g / cm^3
# Si number density = 19.573691 Si / 1000 Ang^3
#
#
#
# Elastic Constant Matrix: (Units=GPa)
#
#
# Indices 1 2 3 4 5 6 
#
# 1 114.8147 17.3118 51.1775 0.0000 -11.7126 0.0000
# 2 17.3118 59.4437 33.6804 0.0000 0.5772 0.0000
# 3 51.1775 33.6804 69.0967 0.0000 3.4484 0.0000
# 4 0.0000 0.0000 0.0000 0.9501 0.0000 24.2396
# 5 -11.7126 0.5772 3.4484 0.0000 38.9201 0.0000
# 6 0.0000 0.0000 0.0000 24.2396 0.0000 28.3960
#
#
#
# Elastic Compliance Matrix: (Units=1/GPa)
#
#
# Indices 1 2 3 4 5 6 
#
# 1 0.014255 0.002666 -0.012123 0.000000 0.005324 0.000000
# 2 0.002666 0.023757 -0.013637 0.000000 0.001658 0.000000
# 3 -0.012123 -0.013637 0.030405 0.000000 -0.006140 0.000000
# 4 0.000000 0.000000 0.000000 -0.050655 0.000000 0.043240
# 5 0.005324 0.001658 -0.006140 0.000000 0.027815 0.000000
# 6 0.000000 0.000000 0.000000 0.043240 0.000000 -0.001695
#
#
# Mechanical properties :
#
#
# Convention : Reuss Voigt Hill
#
# Bulk Modulus (GPa) = 44.98855 49.74382 47.36619
# Shear Modulus (GPa) = 51.29218 23.06561 37.17890
#
# Velocity S-wave (km/s) = 5.12460 3.43651 4.36298
# Velocity P-wave (km/s) = 7.61902 6.41988 7.04501
#
# Compressibility (1/GPa) = 0.02222788
#
# Stress axis : x y z
#
# Youngs Moduli (GPa) = 70.15284 42.09293 32.88903
#
# Poissons Ratio (x) = -0.11221 0.39871
# Poissons Ratio (y) = -0.18701 0.44852
# Poissons Ratio (z) = 0.85046 0.57403
#
# Static dielectric constant tensor:
#      x y z
#    x 1.778420 0.000000 0.042590 
#    y 0.000000 1.670830 0.000000 
#    z 0.042590 0.000000 1.759640 
# 
# From -- ./inp_files/36449.got.cif
#   From: 2010.05.17/outbox.cif.g08.bks.cpg/sg5_19_cif.got.tgz:36449.got - 2010.06.03 18:56:24.
