data_PCOD9124207
_publ_section_title
;
Structure prediction by ZEFSAII (Michael W. Deem and Ramdas Pophale) SiO2 
 PCOD9124207
Probable space group: C 2
;
_chemical_formula_sum "Si O2"
_cell_formula_units_Z 32
_cell_length_a 12.184695
_cell_length_b 8.673487
_cell_length_c 20.846038
_cell_angle_alpha 90.000000
_cell_angle_beta 35.753017
_cell_angle_gamma 90.000000
_cell_volume 1287.247795
_symmetry_space_group_name_H-M "C 2"
_symmetry_group_IT_number 5
_symmetry_cell_setting 'monoclinic'
loop_
_space_group_symop_operation_xyz
x,y,z
-x,y,-z
1/2+x,1/2+y,z
1/2-x,1/2+y,-z
loop_
_atom_site_type_symbol
_atom_site_label
_atom_site_fract_x
_atom_site_fract_y
_atom_site_fract_z
Si Si1 0.909673 0.062850 0.113399
Si Si2 0.418445 0.866190 0.788810
Si Si3 0.856754 0.678841 0.989945
Si Si4 0.140863 0.888697 0.115377
Si Si5 0.788500 0.158712 0.756869
Si Si6 0.463941 0.820819 0.448519
Si Si7 0.843161 0.565084 0.401702
Si Si8 0.643828 0.320765 0.259024
O O1 0.842825 0.232243 0.164165
O O2 0.722925 0.966920 0.187168
O O3 0.000000 0.065902 0.000000
O O4 0.321058 0.219379 0.932231
O O5 0.443436 0.709334 0.736469
O O6 0.598478 0.976722 0.693172
O O7 0.287278 0.803635 0.909253
O O8 0.985348 0.978969 0.877756
O O9 0.083575 0.687137 0.885979
O O10 0.810970 0.509192 0.035720
O O11 0.081633 0.860938 0.215673
O O12 0.835253 0.267957 0.675416
O O13 0.821490 0.982558 0.724200
O O14 0.500000 0.895861 0.500000
O O15 0.346445 0.662769 0.512951
O O16 0.357848 0.934082 0.449554
O O17 0.991838 0.697420 0.353223
#
# Coordination Sequence:
#
# PCOD9124207 Si02
#       8
#     4   4   4   4   4   4   4   4
#     4  11  21  40  58  92 143 190 243 296 352 427
#     4  10  20  42  68  94 144 188 226 300 367 427
#     4  12  25  41  64 105 146 197 244 289 370 448
#     4  12  26  38  66  99 144 201 246 294 362 450
#     4  11  23  44  69 100 144 191 245 306 368 441
#     4  11  26  51  82 106 142 196 249 318 382 440
#     4  10  25  48  78 110 143 186 252 319 374 446
#     4  11  26  41  67 102 143 187 246 305 370 438
#
# _framework density 24.859237
#
# number of rings (size 3 to 8) (size 9 to 14) (size 15 to 20)
#    0.000    1.000    3.750    1.875    7.000    0.000 
#    0.000    2.500    0.000    0.000    0.000    0.000 
#    0.000    0.000    0.000    0.000    0.000    0.000 
#
# Total GULP energy -89248.170144 kJ/mol
# GULP energy per Si atom -5578.010634 kJ/mol
# Density = 2.480266 g / cm^3
# Si number density = 24.859237 Si / 1000 Ang^3
#
#
#
# Elastic Constant Matrix: (Units=GPa)
#
#
# Indices 1 2 3 4 5 6 
#
# 1 80.4396 0.7323 17.0447 0.0000 3.5749 0.0000
# 2 0.7323 114.1837 29.6132 0.0000 -9.6026 0.0000
# 3 17.0447 29.6132 89.7382 0.0000 -1.4575 0.0000
# 4 0.0000 0.0000 0.0000 50.1238 0.0000 -4.7555
# 5 3.5749 -9.6026 -1.4575 0.0000 23.0547 0.0000
# 6 0.0000 0.0000 0.0000 -4.7555 0.0000 27.9478
#
#
#
# Elastic Compliance Matrix: (Units=1/GPa)
#
#
# Indices 1 2 3 4 5 6 
#
# 1 0.013081 0.000437 -0.002662 0.000000 -0.002015 0.000000
# 2 0.000437 0.009935 -0.003299 0.000000 0.003862 0.000000
# 3 -0.002662 -0.003299 0.012735 0.000000 -0.000156 0.000000
# 4 0.000000 0.000000 0.000000 0.020278 0.000000 0.003450
# 5 -0.002015 0.003862 -0.000156 0.000000 0.045286 0.000000
# 6 0.000000 0.000000 0.000000 0.003450 0.000000 0.036368
#
#
# Mechanical properties :
#
#
# Convention : Reuss Voigt Hill
#
# Bulk Modulus (GPa) = 40.47807 42.12687 41.30247
# Shear Modulus (GPa) = 31.85408 36.02335 33.93872
#
# Velocity S-wave (km/s) = 3.58352 3.81083 3.69892
# Velocity P-wave (km/s) = 5.78277 6.02878 5.90705
#
# Compressibility (1/GPa) = 0.02470474
#
# Stress axis : x y z
#
# Youngs Moduli (GPa) = 76.44553 100.65069 78.52296
#
# Poissons Ratio (x) = -0.04398 0.20899
# Poissons Ratio (y) = -0.03340 0.25904
# Poissons Ratio (z) = 0.20346 0.33204
#
# Static dielectric constant tensor:
#      x y z
#    x 2.007860 0.000000 -0.014860 
#    y 0.000000 2.012930 0.000000 
#    z -0.014860 0.000000 2.095140 
# 
# From -- ./inp_files/68761.got.cif
#   From: 2010.05.17/outbox.cif.g08.bks.cpg/sg5_35_cif.got.tgz:68761.got - 2010.06.03 18:56:24.
