data_PCOD9124792
_publ_section_title
;
Structure prediction by ZEFSAII (Michael W. Deem and Ramdas Pophale) SiO2 
 PCOD9124792
Probable space group: C 2
;
_chemical_formula_sum "Si O2"
_cell_formula_units_Z 28
_cell_length_a 10.504429
_cell_length_b 12.814253
_cell_length_c 17.649980
_cell_angle_alpha 90.000000
_cell_angle_beta 143.951887
_cell_angle_gamma 90.000000
_cell_volume 1398.073994
_symmetry_space_group_name_H-M "C 2"
_symmetry_group_IT_number 5
_symmetry_cell_setting 'monoclinic'
loop_
_space_group_symop_operation_xyz
x,y,z
-x,y,-z
1/2+x,1/2+y,z
1/2-x,1/2+y,-z
loop_
_atom_site_type_symbol
_atom_site_label
_atom_site_fract_x
_atom_site_fract_y
_atom_site_fract_z
Si Si1 0.844197 0.885270 0.082286
Si Si2 0.554787 0.786445 0.191446
Si Si3 0.792163 0.236141 0.442982
Si Si4 0.588443 0.398431 0.719805
Si Si5 0.079316 0.092186 0.957384
Si Si6 0.979679 0.138969 0.302266
Si Si7 0.067270 0.675303 0.191932
O O1 0.774354 0.881058 0.136499
O O2 0.029530 0.798789 0.165347
O O3 0.934884 0.998683 0.108247
O O4 0.657891 0.853049 0.933480
O O5 0.755471 0.864934 0.274605
O O6 0.560424 0.693109 0.132136
O O7 0.529527 0.717598 0.256154
O O8 0.610192 0.318785 0.376068
O O9 0.685668 0.158714 0.329344
O O10 0.000000 0.284060 0.500000
O O11 0.882794 0.181552 0.560976
O O12 0.490766 0.514008 0.682746
O O13 0.330721 0.125671 0.078080
O O14 0.000000 0.053872 0.000000
O O15 0.724201 0.143687 0.199920
#
# Coordination Sequence:
#
# PCOD9124792 Si02
#       7
#     4   4   4   4   4   4   4
#     4  10  21  38  62  90 133 170 204 274 335 388
#     4  11  23  39  64 100 129 169 223 268 332 408
#     4   9  21  45  63  84 123 172 214 270 332 389
#     4  11  22  45  65  90 135 172 210 282 335 381
#     4  11  21  36  61  99 125 172 225 264 331 407
#     4  11  23  43  64  96 126 176 227 265 335 399
#     4   9  21  40  61  82 130 171 209 274 328 391
#
# _framework density 20.027553000000001
#
# number of rings (size 3 to 8) (size 9 to 14) (size 15 to 20)
#    0.000    1.714    1.429    3.857    2.000    2.286 
#   12.857    0.000    0.000    0.000    0.000    0.000 
#    0.000    0.000    0.000    0.000    0.000    0.000 
#
# Total GULP energy -78020.863006 kJ/mol
# GULP energy per Si atom -5572.918786 kJ/mol
# Density = 1.998197 g / cm^3
# Si number density = 20.027553 Si / 1000 Ang^3
#
#
#
# Elastic Constant Matrix: (Units=GPa)
#
#
# Indices 1 2 3 4 5 6 
#
# 1 94.1306 25.7255 27.8916 -0.0001 -7.7521 0.0000
# 2 25.7255 82.1697 15.3217 -0.0001 -10.0715 0.0000
# 3 27.8916 15.3217 68.5394 -0.0001 -7.5692 -0.0001
# 4 -0.0001 -0.0001 -0.0001 10.0899 -0.0001 -4.8877
# 5 -7.7521 -10.0715 -7.5692 -0.0001 18.6373 0.0000
# 6 0.0000 0.0000 -0.0001 -4.8877 0.0000 27.2991
#
#
#
# Elastic Compliance Matrix: (Units=1/GPa)
#
#
# Indices 1 2 3 4 5 6 
#
# 1 0.012894 -0.002981 -0.004362 0.000000 0.001981 0.000000
# 2 -0.002981 0.014058 -0.001285 0.000000 0.005835 0.000000
# 3 -0.004362 -0.001285 0.017144 0.000000 0.004454 0.000000
# 4 0.000000 0.000000 0.000000 0.108521 0.000001 0.019430
# 5 0.001981 0.005835 0.004454 0.000001 0.059442 0.000000
# 6 0.000000 0.000000 0.000000 0.019430 0.000000 0.040110
#
#
# Mechanical properties :
#
#
# Convention : Reuss Voigt Hill
#
# Bulk Modulus (GPa) = 37.25716 42.52415 39.89065
# Shear Modulus (GPa) = 17.96161 22.93199 20.44680
#
# Velocity S-wave (km/s) = 2.99799 3.38749 3.19867
# Velocity P-wave (km/s) = 5.53419 6.04806 5.79682
#
# Compressibility (1/GPa) = 0.02684048
#
# Stress axis : x y z
#
# Youngs Moduli (GPa) = 77.55702 71.13415 58.32799
#
# Poissons Ratio (x) = 0.21202 0.25442
# Poissons Ratio (y) = 0.23117 0.07497
# Poissons Ratio (z) = 0.33830 0.09143
#
# Static dielectric constant tensor:
#      x y z
#    x 1.736770 0.000000 -0.016140 
#    y 0.000000 1.716690 0.000000 
#    z -0.016140 0.000000 1.707930 
# 
# From -- ./inp_files/46391.got.cif
#   From: 2010.05.17/outbox.cif.g08.bks.cpg/sg5_24_cif.got.tgz:46391.got - 2010.06.03 18:56:24.
