data_PCOD9124219
_publ_section_title
;
Structure prediction by ZEFSAII (Michael W. Deem and Ramdas Pophale) SiO2 
 PCOD9124219
Probable space group: C 2
;
_chemical_formula_sum "Si O2"
_cell_formula_units_Z 20
_cell_length_a 6.917357
_cell_length_b 19.441562
_cell_length_c 7.614365
_cell_angle_alpha 90.000000
_cell_angle_beta 120.765911
_cell_angle_gamma 90.000000
_cell_volume 879.897028
_symmetry_space_group_name_H-M "C 2"
_symmetry_group_IT_number 5
_symmetry_cell_setting 'monoclinic'
loop_
_space_group_symop_operation_xyz
x,y,z
-x,y,-z
1/2+x,1/2+y,z
1/2-x,1/2+y,-z
loop_
_atom_site_type_symbol
_atom_site_label
_atom_site_fract_x
_atom_site_fract_y
_atom_site_fract_z
Si Si1 0.223738 0.739860 0.717345
Si Si2 0.885109 0.458021 0.262891
Si Si3 0.353599 0.823249 0.086816
Si Si4 0.834846 0.089920 0.683634
Si Si5 0.833829 0.567706 0.774476
O O1 0.445556 0.777259 0.735250
O O2 0.294506 0.660732 0.764508
O O3 0.000000 0.749220 0.500000
O O4 0.196327 0.773313 0.898925
O O5 0.765508 0.388013 0.149964
O O6 0.733372 0.524233 0.233486
O O7 0.000000 0.440227 0.500000
O O8 0.077122 0.490553 0.225799
O O9 0.500000 0.858277 0.000000
O O10 0.687809 0.096808 0.434547
O O11 0.087052 0.075787 0.738552
O O12 0.000000 0.597481 0.000000
#
# Coordination Sequence:
#
# PCOD9124219 Si02
#       5
#     4   4   4   4   4
#     4   9  19  40  68  91 135 179 217 272 338 390
#     4  10  20  42  69  97 137 174 225 278 327 397
#     4   8  21  39  63  92 134 182 214 268 336 395
#     4  10  22  41  70 102 128 177 225 278 336 389
#     4  10  22  39  65 102 137 162 222 285 328 387
#
# _framework density 22.729932999999999
#
# number of rings (size 3 to 8) (size 9 to 14) (size 15 to 20)
#    1.200    1.200    0.000    2.400    0.000    7.200 
#   10.800    4.000    0.000    9.600    0.000    0.000 
#    0.000    0.000    0.000    0.000    0.000    0.000 
#
# Total GULP energy -55676.754963 kJ/mol
# GULP energy per Si atom -5567.675496 kJ/mol
# Density = 2.267820 g / cm^3
# Si number density = 22.729933 Si / 1000 Ang^3
#
#
#
# Elastic Constant Matrix: (Units=GPa)
#
#
# Indices 1 2 3 4 5 6 
#
# 1 63.9215 58.5773 46.7474 0.0000 17.9606 0.0000
# 2 58.5773 191.9147 72.2936 0.0000 -3.2660 0.0000
# 3 46.7474 72.2936 155.7790 0.0000 20.0890 0.0000
# 4 0.0000 0.0000 0.0000 -13.6972 0.0000 -22.3274
# 5 17.9606 -3.2660 20.0890 0.0000 31.0535 0.0000
# 6 0.0000 0.0000 0.0000 -22.3274 0.0000 0.4456
#
#
#
# Elastic Compliance Matrix: (Units=1/GPa)
#
#
# Indices 1 2 3 4 5 6 
#
# 1 0.030068 -0.008296 -0.003074 0.000000 -0.016274 0.000000
# 2 -0.008296 0.008834 -0.002562 0.000000 0.007385 0.000000
# 3 -0.003074 -0.002562 0.009095 0.000000 -0.004375 0.000000
# 4 0.000000 0.000000 0.000000 -0.000883 0.000000 -0.044246
# 5 -0.016274 0.007385 -0.004375 0.000000 0.045222 0.000000
# 6 0.000000 0.000000 0.000000 -0.044246 0.000000 0.027144
#
#
# Mechanical properties :
#
#
# Convention : Reuss Voigt Hill
#
# Bulk Modulus (GPa) = 49.67401 85.20573 67.43987
# Shear Modulus (GPa) = 32.45572 19.16018 25.80795
#
# Velocity S-wave (km/s) = 3.78284 2.90651 3.37325
# Velocity P-wave (km/s) = 6.40166 6.98793 6.70121
#
# Compressibility (1/GPa) = 0.02013125
#
# Stress axis : x y z
#
# Youngs Moduli (GPa) = 33.25802 113.20131 109.94825
#
# Poissons Ratio (x) = 0.93917 0.33799
# Poissons Ratio (y) = 0.27592 0.28172
# Poissons Ratio (z) = 0.10224 0.29005
#
# Static dielectric constant tensor:
#      x y z
#    x 1.891720 0.000000 -0.001630 
#    y 0.000000 1.811080 0.000000 
#    z -0.001630 0.000000 1.956190 
# 
# From -- ./inp_files/15926.got.cif
#   From: 2010.05.17/outbox.cif.g08.bks.cpg/sg5_8_cif.got.tgz:15926.got - 2010.06.03 18:56:24.
