data_PCOD9124327
_publ_section_title
;
Structure prediction by ZEFSAII (Michael W. Deem and Ramdas Pophale) SiO2 
 PCOD9124327
Probable space group: C 2
;
_chemical_formula_sum "Si O2"
_cell_formula_units_Z 24
_cell_length_a 12.889845
_cell_length_b 14.365152
_cell_length_c 14.996323
_cell_angle_alpha 90.000000
_cell_angle_beta 27.108632
_cell_angle_gamma 90.000000
_cell_volume 1265.323981
_symmetry_space_group_name_H-M "C 2"
_symmetry_group_IT_number 5
_symmetry_cell_setting 'monoclinic'
loop_
_space_group_symop_operation_xyz
x,y,z
-x,y,-z
1/2+x,1/2+y,z
1/2-x,1/2+y,-z
loop_
_atom_site_type_symbol
_atom_site_label
_atom_site_fract_x
_atom_site_fract_y
_atom_site_fract_z
Si Si1 0.559436 0.102400 0.663919
Si Si2 0.781845 0.523314 0.036821
Si Si3 0.965261 0.784686 0.631942
Si Si4 0.500000 0.813518 0.500000
Si Si5 0.042252 0.137638 0.373358
Si Si6 0.691288 0.420507 0.598619
Si Si7 0.500000 0.893678 0.000000
O O1 0.470468 0.178915 0.663018
O O2 0.790144 0.146474 0.527060
O O3 0.646426 0.004898 0.556884
O O4 0.380248 0.080405 0.879027
O O5 0.699405 0.587380 0.182344
O O6 0.555062 0.464078 0.186975
O O7 0.977034 0.458079 0.929796
O O8 0.721430 0.831062 0.833276
O O9 0.000000 0.787534 0.500000
O O10 0.138659 0.848434 0.557954
O O11 0.624887 0.739889 0.338453
O O12 0.319280 0.871343 0.582080
O O13 0.000000 0.084714 0.500000
#
# Coordination Sequence:
#
# PCOD9124327 Si02
#       7
#     4   4   4   2   4   4   2
#     4  11  22  40  63  90 125 163 203 253 310 365
#     4  10  21  39  62  93 124 158 208 254 305 367
#     4  11  23  42  63  90 126 164 205 254 307 365
#     4  10  20  44  64  90 122 164 202 256 312 362
#     4   9  19  37  66  90 118 159 203 255 304 354
#     4  10  23  42  63  89 126 163 207 251 306 367
#     4  10  22  36  62  94 120 160 206 256 300 364
#
# _framework density 18.967473999999999
#
# number of rings (size 3 to 8) (size 9 to 14) (size 15 to 20)
#    0.500    1.333    1.667    2.000    1.167    7.333 
#    6.000    1.667    0.000    0.000    0.000    0.000 
#    0.000    0.000    0.000    0.000    0.000    0.000 
#
# Total GULP energy -66906.230873 kJ/mol
# GULP energy per Si atom -5575.519239 kJ/mol
# Density = 1.892430 g / cm^3
# Si number density = 18.967474 Si / 1000 Ang^3
#
#
#
# Elastic Constant Matrix: (Units=GPa)
#
#
# Indices 1 2 3 4 5 6 
#
# 1 136.3099 80.5167 48.8662 -0.0001 -9.8375 -0.0006
# 2 80.5167 131.3536 51.6072 -0.0054 1.3850 0.0022
# 3 48.8662 51.6072 73.7974 0.0028 4.2368 0.0014
# 4 -0.0001 -0.0054 0.0028 16.3614 0.0047 1.1270
# 5 -9.8375 1.3850 4.2368 0.0047 20.6162 0.0001
# 6 -0.0006 0.0022 0.0014 1.1270 0.0001 48.4393
#
#
#
# Elastic Compliance Matrix: (Units=1/GPa)
#
#
# Indices 1 2 3 4 5 6 
#
# 1 0.013427 -0.006402 -0.004864 -0.000004 0.007837 0.000001
# 2 -0.006402 0.013563 -0.005078 0.000006 -0.002923 -0.000001
# 3 -0.004864 -0.005078 0.020680 -0.000003 -0.006230 0.000000
# 4 -0.000004 0.000006 -0.000003 0.061218 -0.000015 -0.001424
# 5 0.007837 -0.002923 -0.006230 -0.000015 0.053722 0.000001
# 6 0.000001 -0.000001 0.000000 -0.001424 0.000001 0.020678
#
#
# Mechanical properties :
#
#
# Convention : Reuss Voigt Hill
#
# Bulk Modulus (GPa) = 66.74385 78.16012 72.45198
# Shear Modulus (GPa) = 22.62764 27.78145 25.20455
#
# Velocity S-wave (km/s) = 3.45769 3.83128 3.64927
# Velocity P-wave (km/s) = 7.15582 7.80183 7.48580
#
# Compressibility (1/GPa) = 0.01498265
#
# Stress axis : x y z
#
# Youngs Moduli (GPa) = 74.47579 73.72846 48.35632
#
# Poissons Ratio (x) = 0.47203 0.23520
# Poissons Ratio (y) = 0.47681 0.24554
# Poissons Ratio (z) = 0.36223 0.37438
#
# Static dielectric constant tensor:
#      x y z
#    x 1.672350 0.000000 -0.003860 
#    y 0.000000 1.689060 0.000000 
#    z -0.003860 0.000000 1.621470 
# 
# From -- ./inp_files/53163.got.cif
#   From: 2010.05.17/outbox.cif.g08.bks.cpg/sg5_27_cif.got.tgz:53163.got - 2010.06.03 18:56:24.
