data_PCOD9124510
_publ_section_title
;
Structure prediction by ZEFSAII (Michael W. Deem and Ramdas Pophale) SiO2 
 PCOD9124510
Probable space group: C 2
;
_chemical_formula_sum "Si O2"
_cell_formula_units_Z 20
_cell_length_a 21.881304
_cell_length_b 8.119344
_cell_length_c 5.422039
_cell_angle_alpha 90.000000
_cell_angle_beta 122.418886
_cell_angle_gamma 90.000000
_cell_volume 813.161955
_symmetry_space_group_name_H-M "C 2"
_symmetry_group_IT_number 5
_symmetry_cell_setting 'monoclinic'
loop_
_space_group_symop_operation_xyz
x,y,z
-x,y,-z
1/2+x,1/2+y,z
1/2-x,1/2+y,-z
loop_
_atom_site_type_symbol
_atom_site_label
_atom_site_fract_x
_atom_site_fract_y
_atom_site_fract_z
Si Si1 0.098008 0.573100 0.164799
Si Si2 0.977950 0.343432 0.708470
Si Si3 0.343457 0.588166 0.111519
Si Si4 0.871447 0.927301 0.665660
Si Si5 0.219160 0.436846 0.120341
O O1 0.087853 0.754298 0.247696
O O2 0.169678 0.567132 0.155160
O O3 0.096529 0.435478 0.380170
O O4 0.034283 0.500637 0.853161
O O5 0.000000 0.266546 0.500000
O O6 0.000000 0.242151 0.000000
O O7 0.214100 0.886809 0.558472
O O8 0.263155 0.511444 0.985933
O O9 0.378278 0.511028 0.945141
O O10 0.329624 0.779429 0.039220
O O11 0.884717 0.043827 0.456096
#
# Coordination Sequence:
#
# PCOD9124510 Si02
#       5
#     4   4   4   4   4
#     4   9  20  37  62  82 117 149 199 240 287 340
#     4   8  20  35  57  87 100 154 196 249 273 337
#     4  10  23  33  52  85 121 157 191 222 299 344
#     4  10  22  35  54  85 120 154 188 235 289 354
#     4  10  21  36  55  87 124 158 186 237 288 361
#
# _framework density 24.595348999999999
#
# number of rings (size 3 to 8) (size 9 to 14) (size 15 to 20)
#    2.400    0.000    0.000    2.400    5.600    1.600 
#    0.000    0.000    0.000    4.800    0.000    0.000 
#    0.000    0.000    0.000    0.000    0.000    0.000 
#
# Total GULP energy -55752.893244 kJ/mol
# GULP energy per Si atom -5575.289324 kJ/mol
# Density = 2.453937 g / cm^3
# Si number density = 24.595349 Si / 1000 Ang^3
#
#
#
# Elastic Constant Matrix: (Units=GPa)
#
#
# Indices 1 2 3 4 5 6 
#
# 1 69.8300 5.4926 25.6275 0.0000 -18.1055 0.0000
# 2 5.4926 73.1265 36.0304 0.0000 -15.6366 0.0000
# 3 25.6275 36.0304 156.0293 0.0000 -43.4162 0.0000
# 4 0.0000 0.0000 0.0000 38.4537 0.0000 -6.7042
# 5 -18.1055 -15.6366 -43.4162 0.0000 51.7505 0.0000
# 6 0.0000 0.0000 0.0000 -6.7042 0.0000 35.0845
#
#
#
# Elastic Compliance Matrix: (Units=1/GPa)
#
#
# Indices 1 2 3 4 5 6 
#
# 1 0.015994 0.000494 -0.001490 0.000000 0.004495 0.000000
# 2 0.000494 0.015637 -0.003039 0.000000 0.002348 0.000000
# 3 -0.001490 -0.003039 0.009073 0.000000 0.006172 0.000000
# 4 0.000000 0.000000 0.000000 0.026902 0.000000 0.005141
# 5 0.004495 0.002348 0.006172 0.000000 0.026784 0.000000
# 6 0.000000 0.000000 0.000000 0.005141 0.000000 0.029485
#
#
# Mechanical properties :
#
#
# Convention : Reuss Voigt Hill
#
# Bulk Modulus (GPa) = 30.64271 48.14299 39.39285
# Shear Modulus (GPa) = 35.00855 40.51344 37.76099
#
# Velocity S-wave (km/s) = 3.77686 4.06297 3.92253
# Velocity P-wave (km/s) = 5.61297 6.45189 6.04699
#
# Compressibility (1/GPa) = 0.03263419
#
# Stress axis : x y z
#
# Youngs Moduli (GPa) = 62.52363 63.95020 110.21705
#
# Poissons Ratio (x) = -0.03160 0.16427
# Poissons Ratio (y) = -0.03089 0.33491
# Poissons Ratio (z) = 0.09319 0.19432
#
# Static dielectric constant tensor:
#      x y z
#    x 1.988180 0.000000 0.033840 
#    y 0.000000 1.919680 0.000000 
#    z 0.033840 0.000000 2.055980 
# 
# From -- ./inp_files/11050.got.cif
#   From: 2010.05.17/outbox.cif.g08.bks.cpg/sg5_6_cif.got.tgz:11050.got - 2010.06.03 18:56:24.
