data_PCOD9124576
_publ_section_title
;
Structure prediction by ZEFSAII (Michael W. Deem and Ramdas Pophale) SiO2 
 PCOD9124576
Probable space group: C 2
;
_chemical_formula_sum "Si O2"
_cell_formula_units_Z 32
_cell_length_a 13.380688
_cell_length_b 11.408987
_cell_length_c 9.733767
_cell_angle_alpha 90.000000
_cell_angle_beta 82.943815
_cell_angle_gamma 90.000000
_cell_volume 1474.703404
_symmetry_space_group_name_H-M "C 2"
_symmetry_group_IT_number 5
_symmetry_cell_setting 'monoclinic'
loop_
_space_group_symop_operation_xyz
x,y,z
-x,y,-z
1/2+x,1/2+y,z
1/2-x,1/2+y,-z
loop_
_atom_site_type_symbol
_atom_site_label
_atom_site_fract_x
_atom_site_fract_y
_atom_site_fract_z
Si Si1 0.321043 0.375000 0.019245
Si Si2 0.073256 0.281564 0.865456
Si Si3 0.392276 0.204996 0.489472
Si Si4 0.206028 0.062902 0.475869
Si Si5 0.903588 0.932283 0.295722
Si Si6 0.202039 0.129658 0.029464
Si Si7 0.704987 0.351218 0.266553
Si Si8 0.057599 0.140903 0.309356
O O1 0.388371 0.394221 0.141590
O O2 0.269315 0.246653 0.035224
O O3 0.258757 0.499791 0.017512
O O4 0.363003 0.366507 0.857496
O O5 0.177739 0.342777 0.801478
O O6 0.007785 0.246626 0.744016
O O7 0.117880 0.163905 0.929961
O O8 0.000000 0.332320 0.000000
O O9 0.500000 0.149207 0.500000
O O10 0.311696 0.122673 0.432382
O O11 0.413096 0.318172 0.390498
O O12 0.335663 0.241871 0.639768
O O13 0.114938 0.149859 0.445534
O O14 0.191825 0.006942 0.628599
O O15 0.196316 0.955221 0.374661
O O16 0.991153 0.023951 0.313301
O O17 0.145649 0.124774 0.182979
#
# Coordination Sequence:
#
# PCOD9124576 Si02
#       8
#     4   4   4   4   4   4   4   4
#     4  11  22  40  67 103 132 178 225 283 343 408
#     4   9  19  36  65 100 132 168 223 288 333 397
#     4  11  25  45  61  93 135 179 225 285 344 412
#     4  11  23  41  65  93 131 181 221 280 347 406
#     4  11  23  38  67 100 131 168 239 287 337 401
#     4  10  21  36  64 100 136 173 222 280 342 400
#     4  10  22  42  68  91 135 180 220 275 347 403
#     4  11  19  38  65  97 126 174 230 288 326 397
#
# _framework density 21.699280000000002
#
# number of rings (size 3 to 8) (size 9 to 14) (size 15 to 20)
#    0.000    1.500    2.500    3.375    1.750    0.000 
#    0.000    6.250    0.000    0.000    0.000    0.000 
#    0.000    0.000    0.000    0.000    0.000    0.000 
#
# Total GULP energy -89126.266794 kJ/mol
# GULP energy per Si atom -5570.391675 kJ/mol
# Density = 2.164989 g / cm^3
# Si number density = 21.699280 Si / 1000 Ang^3
#
#
#
# Elastic Constant Matrix: (Units=GPa)
#
#
# Indices 1 2 3 4 5 6 
#
# 1 97.9961 14.9762 12.3970 0.0000 10.1342 0.0000
# 2 14.9762 57.3245 -0.2147 0.0000 2.9088 0.0000
# 3 12.3970 -0.2147 106.4464 0.0000 10.2268 0.0000
# 4 0.0000 0.0000 0.0000 23.2369 0.0000 -7.6030
# 5 10.1342 2.9088 10.2268 0.0000 38.1067 0.0000
# 6 0.0000 0.0000 0.0000 -7.6030 0.0000 35.4418
#
#
#
# Elastic Compliance Matrix: (Units=1/GPa)
#
#
# Indices 1 2 3 4 5 6 
#
# 1 0.011011 -0.002757 -0.001054 0.000000 -0.002435 0.000000
# 2 -0.002757 0.018206 0.000432 0.000000 -0.000772 0.000000
# 3 -0.001054 0.000432 0.009746 0.000000 -0.002368 0.000000
# 4 0.000000 0.000000 0.000000 0.046284 0.000000 0.009929
# 5 -0.002435 -0.000772 -0.002368 0.000000 0.027584 0.000000
# 6 0.000000 0.000000 0.000000 0.009929 0.000000 0.030345
#
#
# Mechanical properties :
#
#
# Convention : Reuss Voigt Hill
#
# Bulk Modulus (GPa) = 31.05192 35.12046 33.08619
# Shear Modulus (GPa) = 31.12008 34.99764 33.05886
#
# Velocity S-wave (km/s) = 3.79113 4.02038 3.90744
# Velocity P-wave (km/s) = 5.78833 6.14586 5.96977
#
# Compressibility (1/GPa) = 0.03220413
#
# Stress axis : x y z
#
# Youngs Moduli (GPa) = 90.81848 54.92805 102.61104
#
# Poissons Ratio (x) = 0.15144 0.10815
# Poissons Ratio (y) = 0.25039 -0.04433
# Poissons Ratio (z) = 0.09572 -0.02373
#
# Static dielectric constant tensor:
#      x y z
#    x 1.828640 0.000000 -0.003320 
#    y 0.000000 1.830200 0.000000 
#    z -0.003320 0.000000 1.875440 
# 
# From -- ./inp_files/23886.got.cif
#   From: 2010.05.17/outbox.cif.g08.bks.cpg/sg5_12_cif.got.tgz:23886.got - 2010.06.03 18:56:24.
