data_PCOD9124977
_publ_section_title
;
Structure prediction by ZEFSAII (Michael W. Deem and Ramdas Pophale) SiO2 
 PCOD9124977
Probable space group: C 2
;
_chemical_formula_sum "Si O2"
_cell_formula_units_Z 20
_cell_length_a 10.013597
_cell_length_b 21.743145
_cell_length_c 8.873647
_cell_angle_alpha 90.000000
_cell_angle_beta 150.354275
_cell_angle_gamma 90.000000
_cell_volume 955.652498
_symmetry_space_group_name_H-M "C 2"
_symmetry_group_IT_number 5
_symmetry_cell_setting 'monoclinic'
loop_
_space_group_symop_operation_xyz
x,y,z
-x,y,-z
1/2+x,1/2+y,z
1/2-x,1/2+y,-z
loop_
_atom_site_type_symbol
_atom_site_label
_atom_site_fract_x
_atom_site_fract_y
_atom_site_fract_z
Si Si1 0.526371 0.132850 0.203455
Si Si2 0.005596 0.924448 0.183075
Si Si3 0.979499 0.194747 0.158689
Si Si4 0.256381 0.320537 0.150661
Si Si5 0.994806 0.505723 0.317424
O O1 0.590771 0.063245 0.314627
O O2 0.742859 0.179672 0.486178
O O3 0.500000 0.139367 0.000000
O O4 0.239136 0.148040 0.993190
O O5 0.892330 0.871180 0.177939
O O6 0.305697 0.948032 0.511217
O O7 0.000000 0.907303 0.000000
O O8 0.806099 0.982457 0.009784
O O9 0.865701 0.263818 0.063923
O O10 0.000000 0.185916 0.000000
O O11 0.500000 0.298495 0.500000
O O12 0.000000 0.342759 0.000000
O O13 0.000000 0.522482 0.500000
#
# Coordination Sequence:
#
# PCOD9124977 Si02
#       5
#     4   4   4   4   4
#     4  12  25  41  64  98 129 161 210 270 317 359
#     4  10  22  40  64  92 124 164 208 253 310 372
#     4  11  23  43  66  89 126 174 212 250 312 387
#     4  11  23  41  65  94 124 164 213 260 310 371
#     4  10  21  39  63  91 125 169 209 247 309 387
#
# _framework density 20.928108999999999
#
# number of rings (size 3 to 8) (size 9 to 14) (size 15 to 20)
#    0.000    1.200    0.000    7.200    0.000    4.800 
#    0.000    8.000    0.000    0.000    0.000    0.000 
#    0.000    0.000    0.000    0.000    0.000    0.000 
#
# Total GULP energy -55922.345136 kJ/mol
# GULP energy per Si atom -5592.234514 kJ/mol
# Density = 2.088048 g / cm^3
# Si number density = 20.928109 Si / 1000 Ang^3
#
#
#
# Elastic Constant Matrix: (Units=GPa)
#
#
# Indices 1 2 3 4 5 6 
#
# 1 71.3759 68.3756 55.2619 0.0000 2.5283 0.0000
# 2 68.3756 25.6801 -42.4085 0.0000 -20.8294 0.0000
# 3 55.2619 -42.4085 35.9229 0.0000 -1.7325 0.0000
# 4 0.0000 0.0000 0.0000 26.8282 0.0000 16.5267
# 5 2.5283 -20.8294 -1.7325 0.0000 33.6549 0.0000
# 6 0.0000 0.0000 0.0000 16.5267 0.0000 40.9013
#
#
#
# Elastic Compliance Matrix: (Units=1/GPa)
#
#
# Indices 1 2 3 4 5 6 
#
# 1 0.002192 0.007522 0.005738 0.000000 0.004786 0.000000
# 2 0.007522 0.000792 -0.010667 0.000000 -0.000624 0.000000
# 3 0.005738 -0.010667 0.006093 0.000000 -0.006719 0.000000
# 4 0.000000 0.000000 0.000000 0.049627 0.000000 -0.020052
# 5 0.004786 -0.000624 -0.006719 0.000000 0.028622 0.000000
# 6 0.000000 0.000000 0.000000 -0.020052 0.000000 0.032552
#
#
# Mechanical properties :
#
#
# Convention : Reuss Voigt Hill
#
# Bulk Modulus (GPa) = 70.10125 32.82634 51.46380
# Shear Modulus (GPa) = 41.86036 23.72686 32.79361
#
# Velocity S-wave (km/s) = 4.47721 3.37075 3.96279
# Velocity P-wave (km/s) = 7.76506 5.55595 6.75147
#
# Compressibility (1/GPa) = 0.01426508
#
# Stress axis : x y z
#
# Youngs Moduli (GPa) = 456.17680 1262.77244 164.11432
#
# Poissons Ratio (x) = -9.49845 -0.94177
# Poissons Ratio (y) = -3.43132 1.75053
# Poissons Ratio (z) = -2.61776 13.46938
#
# Static dielectric constant tensor:
#      x y z
#    x 1.710070 0.000000 0.011640 
#    y 0.000000 1.765550 0.000000 
#    z 0.011640 0.000000 1.712020 
# 
# From -- ./inp_files/2801.got.cif
#   From: 2010.05.17/outbox.cif.g08.bks.cpg/sg5_2_cif.got.tgz:2801.got - 2010.06.03 18:56:24.
