data_PCOD9124573
_publ_section_title
;
Structure prediction by ZEFSAII (Michael W. Deem and Ramdas Pophale) SiO2 
 PCOD9124573
Probable space group: C 2
;
_chemical_formula_sum "Si O2"
_cell_formula_units_Z 30
_cell_length_a 17.901877
_cell_length_b 5.349493
_cell_length_c 16.843701
_cell_angle_alpha 90.000000
_cell_angle_beta 69.650470
_cell_angle_gamma 90.000000
_cell_volume 1512.380494
_symmetry_space_group_name_H-M "C 2"
_symmetry_group_IT_number 5
_symmetry_cell_setting 'monoclinic'
loop_
_space_group_symop_operation_xyz
x,y,z
-x,y,-z
1/2+x,1/2+y,z
1/2-x,1/2+y,-z
loop_
_atom_site_type_symbol
_atom_site_label
_atom_site_fract_x
_atom_site_fract_y
_atom_site_fract_z
Si Si1 0.859337 0.801570 0.515731
Si Si2 0.500000 0.997509 0.500000
Si Si3 0.977055 0.214364 0.187742
Si Si4 0.125520 0.721140 0.787363
Si Si5 0.304621 0.163808 0.070822
Si Si6 0.438302 0.681461 0.374607
Si Si7 0.642519 0.664628 0.035774
Si Si8 0.706130 0.036260 0.604748
O O1 0.798668 0.978432 0.583981
O O2 0.801775 0.635370 0.482200
O O3 0.920970 0.656677 0.547139
O O4 0.914721 0.930998 0.428865
O O5 0.476701 0.843874 0.430588
O O6 0.936167 0.486175 0.190964
O O7 0.991532 0.171686 0.276745
O O8 0.057329 0.191144 0.108252
O O9 0.918847 0.985109 0.186770
O O10 0.184024 0.681775 0.839529
O O11 0.172355 0.711464 0.686501
O O12 0.213607 0.169727 0.074442
O O13 0.347697 0.403514 0.014760
O O14 0.342152 0.904070 0.026000
O O15 0.355586 0.804709 0.374336
#
# Coordination Sequence:
#
# PCOD9124573 Si02
#       8
#     4   2   4   4   4   4   4   4
#     4  11  19  40  61  82 121 164 206 258 311 373
#     4  10  24  38  58  88 120 166 212 264 308 370
#     4  11  23  40  65  92 126 161 204 258 318 358
#     4  11  23  40  62  96 125 155 211 264 298 376
#     4  10  22  42  63  90 127 159 206 249 307 376
#     4  10  21  40  57  87 124 159 203 263 304 375
#     4  10  22  42  64  89 125 168 196 248 315 377
#     4  10  21  36  63  88 116 165 207 252 321 360
#
# _framework density 19.836279000000001
#
# number of rings (size 3 to 8) (size 9 to 14) (size 15 to 20)
#    0.000    1.600    2.667    2.000    0.000    3.200 
#    4.800    2.667    0.000    0.000    0.000    0.000 
#    0.000    0.000    0.000    0.000    0.000    0.000 
#
# Total GULP energy -83716.885453 kJ/mol
# GULP energy per Si atom -5581.125697 kJ/mol
# Density = 1.979113 g / cm^3
# Si number density = 19.836279 Si / 1000 Ang^3
#
#
#
# Elastic Constant Matrix: (Units=GPa)
#
#
# Indices 1 2 3 4 5 6 
#
# 1 69.5098 8.0406 27.0409 -0.0001 6.2066 0.0000
# 2 8.0406 69.8373 -6.5664 0.0001 2.4177 0.0004
# 3 27.0409 -6.5664 50.4177 -0.0001 4.6211 0.0000
# 4 -0.0001 0.0001 -0.0001 17.3790 0.0001 -0.9512
# 5 6.2066 2.4177 4.6211 0.0001 28.1991 0.0000
# 6 0.0000 0.0004 0.0000 -0.9512 0.0000 22.5925
#
#
#
# Elastic Compliance Matrix: (Units=1/GPa)
#
#
# Indices 1 2 3 4 5 6 
#
# 1 0.018978 -0.003084 -0.010377 0.000000 -0.002212 0.000000
# 2 -0.003084 0.015067 0.003729 0.000000 -0.001224 0.000000
# 3 -0.010377 0.003729 0.026098 0.000000 -0.002312 0.000000
# 4 0.000000 0.000000 0.000000 0.057673 0.000000 0.002428
# 5 -0.002212 -0.001224 -0.002312 0.000000 0.036433 0.000000
# 6 0.000000 0.000000 0.000000 0.002428 0.000000 0.044365
#
#
# Mechanical properties :
#
#
# Convention : Reuss Voigt Hill
#
# Bulk Modulus (GPa) = 24.58408 27.42164 26.00286
# Shear Modulus (GPa) = 21.58537 24.38410 22.98474
#
# Velocity S-wave (km/s) = 3.30233 3.50990 3.40769
# Velocity P-wave (km/s) = 5.19239 5.50271 5.34980
#
# Compressibility (1/GPa) = 0.04067673
#
# Stress axis : x y z
#
# Youngs Moduli (GPa) = 52.69316 66.37002 38.31757
#
# Poissons Ratio (x) = 0.20469 0.39764
# Poissons Ratio (y) = 0.16251 -0.14287
# Poissons Ratio (z) = 0.54682 -0.24747
#
# Static dielectric constant tensor:
#      x y z
#    x 1.686550 0.000000 -0.009180 
#    y 0.000000 1.760480 0.000000 
#    z -0.009180 0.000000 1.698860 
# 
# From -- ./inp_files/55443.got.cif
#   From: 2010.05.17/outbox.cif.g08.bks.cpg/sg5_28_cif.got.tgz:55443.got - 2010.06.03 18:56:24.
