data_PCOD9124567
_publ_section_title
;
Structure prediction by ZEFSAII (Michael W. Deem and Ramdas Pophale) SiO2 
 PCOD9124567
Probable space group: C 2
;
_chemical_formula_sum "Si O2"
_cell_formula_units_Z 24
_cell_length_a 8.028785
_cell_length_b 20.524160
_cell_length_c 9.025162
_cell_angle_alpha 90.000000
_cell_angle_beta 49.084351
_cell_angle_gamma 90.000000
_cell_volume 1123.841483
_symmetry_space_group_name_H-M "C 2"
_symmetry_group_IT_number 5
_symmetry_cell_setting 'monoclinic'
loop_
_space_group_symop_operation_xyz
x,y,z
-x,y,-z
1/2+x,1/2+y,z
1/2-x,1/2+y,-z
loop_
_atom_site_type_symbol
_atom_site_label
_atom_site_fract_x
_atom_site_fract_y
_atom_site_fract_z
Si Si1 0.000000 0.305030 0.000000
Si Si2 0.890696 0.186869 0.251652
Si Si3 0.661751 0.140384 0.085139
Si Si4 0.000000 0.525730 0.000000
Si Si5 0.740471 0.229697 0.637429
Si Si6 0.225174 0.381124 0.290352
Si Si7 0.308387 0.413312 0.898120
O O1 0.996490 0.255860 0.138348
O O2 0.787494 0.350586 0.130522
O O3 0.762344 0.152408 0.190486
O O4 0.723572 0.208706 0.475136
O O5 0.116786 0.146033 0.145712
O O6 0.470828 0.193639 0.172482
O O7 0.542684 0.072831 0.114840
O O8 0.204584 0.476392 0.883654
O O9 0.736177 0.304141 0.697133
O O10 0.000000 0.210038 0.500000
O O11 0.431787 0.416519 0.243672
O O12 0.000000 0.399517 0.500000
O O13 0.226544 0.399571 0.115578
#
# Coordination Sequence:
#
# PCOD9124567 Si02
#       7
#     2   4   4   2   4   4   4
#     4   9  16  34  58  86 122 155 190 242 306 359
#     4  10  21  36  62  94 122 152 191 249 312 362
#     4  10  22  40  61  88 122 162 202 244 295 354
#     4  11  24  44  62  78 118 171 216 250 282 335
#     4  11  21  35  62  97 126 150 186 244 312 372
#     4  10  21  38  63  92 120 152 193 248 312 363
#     4  10  22  39  58  84 120 162 205 247 288 348
#
# _framework density 21.355324
#
# number of rings (size 3 to 8) (size 9 to 14) (size 15 to 20)
#    0.000    2.000    0.000    5.500    0.000    8.000 
#    0.000   13.333    0.000    0.000    0.000    0.000 
#    0.000    0.000    0.000    0.000    0.000    0.000 
#
# Total GULP energy -66841.115052 kJ/mol
# GULP energy per Si atom -5570.092921 kJ/mol
# Density = 2.130672 g / cm^3
# Si number density = 21.355324 Si / 1000 Ang^3
#
#
#
# Elastic Constant Matrix: (Units=GPa)
#
#
# Indices 1 2 3 4 5 6 
#
# 1 110.5311 48.6792 32.8842 0.0000 -29.4412 0.0000
# 2 48.6792 94.9277 29.4976 0.0000 -8.8210 0.0000
# 3 32.8842 29.4976 110.0467 0.0000 -18.5089 0.0000
# 4 0.0000 0.0000 0.0000 2.1625 0.0000 3.1707
# 5 -29.4412 -8.8210 -18.5089 0.0000 40.1658 0.0000
# 6 0.0000 0.0000 0.0000 3.1707 0.0000 31.3162
#
#
#
# Elastic Compliance Matrix: (Units=1/GPa)
#
#
# Indices 1 2 3 4 5 6 
#
# 1 0.014461 -0.006240 -0.001189 0.000000 0.008682 0.000000
# 2 -0.006240 0.014237 -0.002379 0.000000 -0.002543 0.000000
# 3 -0.001189 -0.002379 0.010673 0.000000 0.003524 0.000000
# 4 0.000000 0.000000 0.000000 0.543043 0.000000 -0.054982
# 5 0.008682 -0.002543 0.003524 0.000000 0.032326 0.000000
# 6 0.000000 0.000000 0.000000 -0.054982 0.000000 0.037499
#
#
# Mechanical properties :
#
#
# Convention : Reuss Voigt Hill
#
# Bulk Modulus (GPa) = 50.61802 59.73639 55.17721
# Shear Modulus (GPa) = 7.36984 28.35854 17.86419
#
# Velocity S-wave (km/s) = 1.85972 3.64804 2.89541
# Velocity P-wave (km/s) = 5.32594 6.76591 6.08865
#
# Compressibility (1/GPa) = 0.01975581
#
# Stress axis : x y z
#
# Youngs Moduli (GPa) = 69.14924 70.23887 93.69618
#
# Poissons Ratio (x) = 0.43827 0.11137
# Poissons Ratio (y) = 0.43148 0.22294
# Poissons Ratio (z) = 0.08219 0.16713
#
# Static dielectric constant tensor:
#      x y z
#    x 1.854960 0.000000 -0.020900 
#    y 0.000000 1.766800 0.000000 
#    z -0.020900 0.000000 1.732370 
# 
# From -- ./inp_files/37144.got.cif
#   From: 2010.05.17/outbox.cif.g08.bks.cpg/sg5_19_cif.got.tgz:37144.got - 2010.06.03 18:56:24.
