data_PCOD9124354
_publ_section_title
;
Structure prediction by ZEFSAII (Michael W. Deem and Ramdas Pophale) SiO2 
 PCOD9124354
Probable space group: C 2
;
_chemical_formula_sum "Si O2"
_cell_formula_units_Z 26
_cell_length_a 13.054674
_cell_length_b 8.726413
_cell_length_c 12.730575
_cell_angle_alpha 90.000000
_cell_angle_beta 46.784549
_cell_angle_gamma 90.000000
_cell_volume 1056.935884
_symmetry_space_group_name_H-M "C 2"
_symmetry_group_IT_number 5
_symmetry_cell_setting 'monoclinic'
loop_
_space_group_symop_operation_xyz
x,y,z
-x,y,-z
1/2+x,1/2+y,z
1/2-x,1/2+y,-z
loop_
_atom_site_type_symbol
_atom_site_label
_atom_site_fract_x
_atom_site_fract_y
_atom_site_fract_z
Si Si1 0.795263 0.828700 0.235962
Si Si2 0.980933 0.953839 0.287117
Si Si3 0.708114 0.524987 0.969332
Si Si4 0.000000 0.408311 0.500000
Si Si5 0.500000 0.525811 0.500000
Si Si6 0.006884 0.601769 0.697989
Si Si7 0.500000 0.755843 0.000000
Si Si8 0.685273 0.984427 0.738053
O O1 0.876567 0.946389 0.257589
O O2 0.639264 0.806440 0.394904
O O3 0.851469 0.655871 0.194395
O O4 0.795328 0.894158 0.118441
O O5 0.967567 0.067075 0.396077
O O6 0.961910 0.779237 0.338684
O O7 0.135098 0.974383 0.127850
O O8 0.868271 0.579583 0.866900
O O9 0.608673 0.656465 0.991694
O O10 0.974831 0.521385 0.612651
O O11 0.349090 0.448196 0.629915
O O12 0.135667 0.505105 0.653530
O O13 0.592808 0.859202 0.858858
#
# Coordination Sequence:
#
# PCOD9124354 Si02
#       8
#     4   4   4   2   2   4   2   4
#     4  10  22  45  73 100 140 184 231 296 355 425
#     4  11  23  43  68  97 146 181 231 285 356 414
#     4  11  24  45  71 104 138 189 237 295 356 418
#     4  10  20  44  70 108 139 187 234 280 359 437
#     4  12  26  46  66 108 141 189 222 302 349 429
#     4  10  24  41  72 106 139 187 232 292 349 427
#     4  12  26  46  72 104 140 188 244 300 346 426
#     4  11  27  45  70 107 141 182 242 291 360 421
#
# _framework density 24.599412999999998
#
# number of rings (size 3 to 8) (size 9 to 14) (size 15 to 20)
#    0.000    1.231    1.538    2.769    8.615    1.231 
#   11.077    0.000    0.000    0.000    0.000    0.000 
#    0.000    0.000    0.000    0.000    0.000    0.000 
#
# Total GULP energy -72612.564163 kJ/mol
# GULP energy per Si atom -5585.581859 kJ/mol
# Density = 2.454342 g / cm^3
# Si number density = 24.599413 Si / 1000 Ang^3
#
#
#
# Elastic Constant Matrix: (Units=GPa)
#
#
# Indices 1 2 3 4 5 6 
#
# 1 65.4859 -4.1235 20.4482 0.0000 -10.1432 0.0000
# 2 -4.1235 57.5165 11.5072 0.0000 12.8760 0.0000
# 3 20.4482 11.5072 114.7492 0.0000 7.9815 0.0000
# 4 0.0000 0.0000 0.0000 29.2122 0.0000 5.7142
# 5 -10.1432 12.8760 7.9815 0.0000 51.3535 0.0000
# 6 0.0000 0.0000 0.0000 5.7142 0.0000 26.7198
#
#
#
# Elastic Compliance Matrix: (Units=1/GPa)
#
#
# Indices 1 2 3 4 5 6 
#
# 1 0.016952 0.001085 -0.003380 0.000000 0.003602 0.000000
# 2 0.001085 0.018764 -0.001782 0.000000 -0.004213 0.000000
# 3 -0.003380 -0.001782 0.009615 0.000000 -0.001715 0.000000
# 4 0.000000 0.000000 0.000000 0.035727 0.000000 -0.007640
# 5 0.003602 -0.004213 -0.001715 0.000000 0.021507 0.000000
# 6 0.000000 0.000000 0.000000 -0.007640 0.000000 0.039059
#
#
# Mechanical properties :
#
#
# Convention : Reuss Voigt Hill
#
# Bulk Modulus (GPa) = 26.89811 32.60169 29.74990
# Shear Modulus (GPa) = 30.83170 35.45174 33.14172
#
# Velocity S-wave (km/s) = 3.54411 3.80038 3.67448
# Velocity P-wave (km/s) = 5.26363 5.70430 5.48839
#
# Compressibility (1/GPa) = 0.03717733
#
# Stress axis : x y z
#
# Youngs Moduli (GPa) = 58.98960 53.29386 104.00400
#
# Poissons Ratio (x) = -0.05784 0.35156
# Poissons Ratio (y) = -0.06402 0.18534
# Poissons Ratio (z) = 0.19940 0.09497
#
# Static dielectric constant tensor:
#      x y z
#    x 2.052120 0.000000 0.004250 
#    y 0.000000 2.074490 0.000000 
#    z 0.004250 0.000000 1.935580 
# 
# From -- ./inp_files/54112.got.cif
#   From: 2010.05.17/outbox.cif.g08.bks.cpg/sg5_28_cif.got.tgz:54112.got - 2010.06.03 18:56:24.
