data_PCOD9124856
_publ_section_title
;
Structure prediction by ZEFSAII (Michael W. Deem and Ramdas Pophale) SiO2 
 PCOD9124856
Probable space group: C 2
;
_chemical_formula_sum "Si O2"
_cell_formula_units_Z 28
_cell_length_a 22.032388
_cell_length_b 6.935278
_cell_length_c 11.224908
_cell_angle_alpha 90.000000
_cell_angle_beta 144.255951
_cell_angle_gamma 90.000000
_cell_volume 1001.945370
_symmetry_space_group_name_H-M "C 2"
_symmetry_group_IT_number 5
_symmetry_cell_setting 'monoclinic'
loop_
_space_group_symop_operation_xyz
x,y,z
-x,y,-z
1/2+x,1/2+y,z
1/2-x,1/2+y,-z
loop_
_atom_site_type_symbol
_atom_site_label
_atom_site_fract_x
_atom_site_fract_y
_atom_site_fract_z
Si Si1 0.385151 0.334990 0.451224
Si Si2 0.373542 0.208520 0.036039
Si Si3 0.730807 0.899431 0.983507
Si Si4 0.763149 0.582480 0.645007
Si Si5 0.958855 0.165152 0.309455
Si Si6 0.937460 0.082391 0.020894
Si Si7 0.796680 0.519586 0.429646
O O1 0.312340 0.377421 0.222147
O O2 0.326256 0.430404 0.469801
O O3 0.491794 0.449080 0.605006
O O4 0.385179 0.111976 0.486967
O O5 0.345290 0.069170 0.881591
O O6 0.448323 0.359246 0.084694
O O7 0.359323 0.056607 0.124865
O O8 0.287899 0.364564 0.948391
O O9 0.836364 0.198661 0.123862
O O10 0.809315 0.567687 0.588704
O O11 0.712579 0.790736 0.587821
O O12 0.000000 0.254549 0.500000
O O13 0.974900 0.208571 0.194152
O O14 0.816081 0.103532 0.790702
O O15 0.000000 0.115743 0.000000
#
# Coordination Sequence:
#
# PCOD9124856 Si02
#       7
#     4   4   4   4   4   4   4
#     4  11  23  43  70  99 144 196 252 318 390 463
#     4  10  23  42  73 105 149 206 259 324 401 481
#     4  11  23  47  73 105 150 205 263 320 408 469
#     4  10  21  38  66 103 137 196 255 305 376 489
#     4  12  25  46  72 111 149 198 265 327 385 485
#     4  11  24  44  72 110 156 201 262 335 400 477
#     4  11  21  40  69 100 148 203 250 308 404 463
#
# _framework density 27.945636
#
# number of rings (size 3 to 8) (size 9 to 14) (size 15 to 20)
#    0.000    1.143    2.857    4.286    4.000    0.000 
#    2.571    1.429    0.000    0.000    0.000    0.000 
#    0.000    0.000    0.000    0.000    0.000    0.000 
#
# Total GULP energy -78100.156165 kJ/mol
# GULP energy per Si atom -5578.582583 kJ/mol
# Density = 2.788203 g / cm^3
# Si number density = 27.945636 Si / 1000 Ang^3
#
#
#
# Elastic Constant Matrix: (Units=GPa)
#
#
# Indices 1 2 3 4 5 6 
#
# 1 151.5218 6.3340 61.4293 0.0000 -41.9695 0.0000
# 2 6.3340 79.3776 -2.7849 0.0000 -17.6953 0.0000
# 3 61.4293 -2.7849 122.1551 0.0000 -27.8154 0.0000
# 4 0.0000 0.0000 0.0000 41.3117 0.0000 -4.0814
# 5 -41.9695 -17.6953 -27.8154 0.0000 65.6141 0.0000
# 6 0.0000 0.0000 0.0000 -4.0814 0.0000 51.8811
#
#
#
# Elastic Compliance Matrix: (Units=1/GPa)
#
#
# Indices 1 2 3 4 5 6 
#
# 1 0.009310 0.000116 -0.003670 0.000000 0.004430 0.000000
# 2 0.000116 0.013580 0.001220 0.000000 0.004254 0.000000
# 3 -0.003670 0.001220 0.010626 0.000000 0.002486 0.000000
# 4 0.000000 0.000000 0.000000 0.024396 0.000000 0.001919
# 5 0.004430 0.004254 0.002486 0.000000 0.020275 0.000000
# 6 0.000000 0.000000 0.000000 0.001919 0.000000 0.019426
#
#
# Mechanical properties :
#
#
# Convention : Reuss Voigt Hill
#
# Bulk Modulus (GPa) = 34.66604 53.66793 44.16699
# Shear Modulus (GPa) = 44.68375 50.96645 47.82510
#
# Velocity S-wave (km/s) = 4.00303 4.27520 4.14135
# Velocity P-wave (km/s) = 5.81355 6.60423 6.22146
#
# Compressibility (1/GPa) = 0.02884668
#
# Stress axis : x y z
#
# Youngs Moduli (GPa) = 107.41081 73.63885 94.10955
#
# Poissons Ratio (x) = -0.00854 0.34542
# Poissons Ratio (y) = -0.01246 -0.11480
# Poissons Ratio (z) = 0.39424 -0.08983
#
# Static dielectric constant tensor:
#      x y z
#    x 2.122970 0.000000 0.140680 
#    y 0.000000 2.387670 0.000000 
#    z 0.140680 0.000000 2.351090 
# 
# From -- ./inp_files/47130.got.cif
#   From: 2010.05.17/outbox.cif.g08.bks.cpg/sg5_24_cif.got.tgz:47130.got - 2010.06.03 18:56:24.
