data_PCOD9124299
_publ_section_title
;
Structure prediction by ZEFSAII (Michael W. Deem and Ramdas Pophale) SiO2 
 PCOD9124299
Probable space group: C 2
;
_chemical_formula_sum "Si O2"
_cell_formula_units_Z 20
_cell_length_a 19.309974
_cell_length_b 8.309525
_cell_length_c 7.880825
_cell_angle_alpha 90.000000
_cell_angle_beta 143.535452
_cell_angle_gamma 90.000000
_cell_volume 751.542902
_symmetry_space_group_name_H-M "C 2"
_symmetry_group_IT_number 5
_symmetry_cell_setting 'monoclinic'
loop_
_space_group_symop_operation_xyz
x,y,z
-x,y,-z
1/2+x,1/2+y,z
1/2-x,1/2+y,-z
loop_
_atom_site_type_symbol
_atom_site_label
_atom_site_fract_x
_atom_site_fract_y
_atom_site_fract_z
Si Si1 0.189314 0.783960 0.067036
Si Si2 0.116077 0.028063 0.631332
Si Si3 0.178675 0.763363 0.531519
Si Si4 0.161493 0.437362 0.358980
Si Si5 0.521271 0.028644 0.362999
O O1 0.300433 0.672142 0.251584
O O2 0.225479 0.891957 0.301705
O O3 0.078239 0.663581 0.856688
O O4 0.173794 0.906171 0.880243
O O5 0.000000 0.076445 0.500000
O O6 0.102468 0.919703 0.432310
O O7 0.159039 0.631655 0.342487
O O8 0.139859 0.636990 0.601162
O O9 0.305014 0.840118 0.744175
O O10 0.048818 0.414081 0.257881
O O11 0.500000 0.948496 0.500000
#
# Coordination Sequence:
#
# PCOD9124299 Si02
#       5
#     4   4   4   4   4
#     4  12  22  40  71  90 126 178 215 258 329 381
#     4  12  23  42  64  98 130 169 218 268 313 390
#     4  10  20  44  63  90 140 163 207 279 319 366
#     4  10  23  39  68  94 126 172 213 265 323 377
#     4  10  20  43  68  90 132 168 212 264 320 378
#
# _framework density 26.611922
#
# number of rings (size 3 to 8) (size 9 to 14) (size 15 to 20)
#    1.200    0.000    4.000    3.600    0.000    3.200 
#    0.000    0.000    4.400    0.000    0.000    0.000 
#    0.000    0.000    0.000    0.000    0.000    0.000 
#
# Total GULP energy -55678.729094 kJ/mol
# GULP energy per Si atom -5567.872909 kJ/mol
# Density = 2.655135 g / cm^3
# Si number density = 26.611922 Si / 1000 Ang^3
#
#
#
# Elastic Constant Matrix: (Units=GPa)
#
#
# Indices 1 2 3 4 5 6 
#
# 1 204.8490 53.0359 40.5862 0.0000 27.3968 0.0000
# 2 53.0359 102.1039 38.4954 0.0000 11.6236 0.0000
# 3 40.5862 38.4954 57.2840 0.0000 1.3530 0.0000
# 4 0.0000 0.0000 0.0000 29.1205 0.0000 6.0672
# 5 27.3968 11.6236 1.3530 0.0000 52.8263 0.0000
# 6 0.0000 0.0000 0.0000 6.0672 0.0000 68.8270
#
#
#
# Elastic Compliance Matrix: (Units=1/GPa)
#
#
# Indices 1 2 3 4 5 6 
#
# 1 0.006360 -0.001751 -0.003262 0.000000 -0.002829 0.000000
# 2 -0.001751 0.013985 -0.008111 0.000000 -0.001961 0.000000
# 3 -0.003262 -0.008111 0.025152 0.000000 0.002832 0.000000
# 4 0.000000 0.000000 0.000000 0.034983 0.000000 -0.003084
# 5 -0.002829 -0.001961 0.002832 0.000000 0.020756 0.000000
# 6 0.000000 0.000000 0.000000 -0.003084 0.000000 0.014801
#
#
# Mechanical properties :
#
#
# Convention : Reuss Voigt Hill
#
# Bulk Modulus (GPa) = 51.95413 69.83019 60.89216
# Shear Modulus (GPa) = 33.62454 45.62940 39.62697
#
# Velocity S-wave (km/s) = 3.55845 4.14529 3.86303
# Velocity P-wave (km/s) = 6.03727 7.01487 6.54435
#
# Compressibility (1/GPa) = 0.01924775
#
# Stress axis : x y z
#
# Youngs Moduli (GPa) = 157.23653 71.50574 39.75870
#
# Poissons Ratio (x) = 0.12524 0.12970
# Poissons Ratio (y) = 0.27540 0.32247
# Poissons Ratio (z) = 0.51293 0.57996
#
# Static dielectric constant tensor:
#      x y z
#    x 2.226700 0.000000 -0.083330 
#    y 0.000000 2.060380 0.000000 
#    z -0.083330 0.000000 2.189130 
# 
# From -- ./inp_files/26826.got.cif
#   From: 2010.05.17/outbox.cif.g08.bks.cpg/sg5_14_cif.got.tgz:26826.got - 2010.06.03 18:56:24.
