data_PCOD9124955
_publ_section_title
;
Structure prediction by ZEFSAII (Michael W. Deem and Ramdas Pophale) SiO2 
 PCOD9124955
Probable space group: C 2
;
_chemical_formula_sum "Si O2"
_cell_formula_units_Z 30
_cell_length_a 7.541411
_cell_length_b 17.186759
_cell_length_c 10.694778
_cell_angle_alpha 90.000000
_cell_angle_beta 103.978428
_cell_angle_gamma 90.000000
_cell_volume 1345.126800
_symmetry_space_group_name_H-M "C 2"
_symmetry_group_IT_number 5
_symmetry_cell_setting 'monoclinic'
loop_
_space_group_symop_operation_xyz
x,y,z
-x,y,-z
1/2+x,1/2+y,z
1/2-x,1/2+y,-z
loop_
_atom_site_type_symbol
_atom_site_label
_atom_site_fract_x
_atom_site_fract_y
_atom_site_fract_z
Si Si1 0.258106 0.112140 0.651328
Si Si2 0.204720 0.796101 0.710054
Si Si3 0.766075 0.954166 0.425999
Si Si4 0.362394 0.768339 0.253966
Si Si5 0.089601 0.561464 0.885410
Si Si6 0.173434 0.443335 0.689063
Si Si7 0.500000 0.178169 0.500000
Si Si8 0.220050 0.224175 0.027500
O O1 0.160629 0.192374 0.665316
O O2 0.422039 0.096368 0.776341
O O3 0.345126 0.124606 0.530382
O O4 0.155292 0.030823 0.626826
O O5 0.165406 0.877374 0.634309
O O6 0.419767 0.778812 0.724323
O O7 0.080759 0.731939 0.622008
O O8 0.190945 0.782646 0.856410
O O9 0.777582 0.959990 0.577673
O O10 0.545793 0.951770 0.368142
O O11 0.291647 0.851593 0.286431
O O12 0.251901 0.749375 0.109341
O O13 0.195667 0.498701 0.815433
O O14 0.212885 0.636366 0.938142
O O15 0.000000 0.529481 0.000000
O O16 0.000000 0.226134 0.000000
#
# Coordination Sequence:
#
# PCOD9124955 Si02
#       8
#     4   4   4   4   4   4   2   4
#     4  11  21  35  63  91 121 157 205 257 306 363
#     4  10  22  39  63  87 123 163 202 249 309 368
#     4   9  19  37  58  89 121 156 206 251 301 372
#     4  10  21  39  62  90 122 162 206 252 308 367
#     4  11  20  36  63  91 121 156 209 260 298 366
#     4   9  19  35  60  87 123 161 199 251 309 364
#     4  12  22  36  62  88 118 168 204 250 312 358
#     4  10  21  39  62  89 126 162 205 253 308 368
#
# _framework density 22.302731000000001
#
# number of rings (size 3 to 8) (size 9 to 14) (size 15 to 20)
#    0.000    1.867    2.667    2.400    0.000    5.333 
#    0.000    1.333    8.800    0.000    0.000    0.000 
#    0.000    0.000    0.000    0.000    0.000    0.000 
#
# Total GULP energy -83728.912231 kJ/mol
# GULP energy per Si atom -5581.927482 kJ/mol
# Density = 2.225197 g / cm^3
# Si number density = 22.302731 Si / 1000 Ang^3
#
#
#
# Elastic Constant Matrix: (Units=GPa)
#
#
# Indices 1 2 3 4 5 6 
#
# 1 37.2771 34.2532 26.4258 0.0000 2.3359 0.0000
# 2 34.2532 189.8342 65.8903 0.0000 -21.1342 0.0000
# 3 26.4258 65.8903 100.0229 0.0000 -12.2311 0.0000
# 4 0.0000 0.0000 0.0000 35.7682 0.0000 -7.9330
# 5 2.3359 -21.1342 -12.2311 0.0000 30.1727 0.0000
# 6 0.0000 0.0000 0.0000 -7.9330 0.0000 24.8882
#
#
#
# Elastic Compliance Matrix: (Units=1/GPa)
#
#
# Indices 1 2 3 4 5 6 
#
# 1 0.037679 -0.005200 -0.007714 0.000000 -0.009686 0.000000
# 2 -0.005200 0.007837 -0.003228 0.000000 0.004583 0.000000
# 3 -0.007714 -0.003228 0.014687 0.000000 0.004290 0.000000
# 4 0.000000 0.000000 0.000000 0.030085 0.000000 0.009589
# 5 -0.009686 0.004583 0.004290 0.000000 0.038841 0.000000
# 6 0.000000 0.000000 0.000000 0.009589 0.000000 0.043236
#
#
# Mechanical properties :
#
#
# Convention : Reuss Voigt Hill
#
# Bulk Modulus (GPa) = 35.81767 64.47475 50.14621
# Shear Modulus (GPa) = 23.36935 31.53682 27.45308
#
# Velocity S-wave (km/s) = 3.24052 3.76444 3.51227
# Velocity P-wave (km/s) = 5.48598 6.91855 6.24349
#
# Compressibility (1/GPa) = 0.02791918
#
# Stress axis : x y z
#
# Youngs Moduli (GPa) = 26.53973 127.60455 68.08785
#
# Poissons Ratio (x) = 0.66350 0.52523
# Poissons Ratio (y) = 0.13800 0.21981
# Poissons Ratio (z) = 0.20473 0.41194
#
# Static dielectric constant tensor:
#      x y z
#    x 1.862890 0.000000 -0.023290 
#    y 0.000000 1.809470 0.000000 
#    z -0.023290 0.000000 1.848090 
# 
# From -- ./inp_files/36457.got.cif
#   From: 2010.05.17/outbox.cif.g08.bks.cpg/sg5_19_cif.got.tgz:36457.got - 2010.06.03 18:56:24.
