data_PCOD9124146
_publ_section_title
;
Structure prediction by ZEFSAII (Michael W. Deem and Ramdas Pophale) SiO2 
 PCOD9124146
Probable space group: C 2
;
_chemical_formula_sum "Si O2"
_cell_formula_units_Z 24
_cell_length_a 26.127742
_cell_length_b 9.919480
_cell_length_c 7.262751
_cell_angle_alpha 90.000000
_cell_angle_beta 32.941630
_cell_angle_gamma 90.000000
_cell_volume 1023.572598
_symmetry_space_group_name_H-M "C 2"
_symmetry_group_IT_number 5
_symmetry_cell_setting 'monoclinic'
loop_
_space_group_symop_operation_xyz
x,y,z
-x,y,-z
1/2+x,1/2+y,z
1/2-x,1/2+y,-z
loop_
_atom_site_type_symbol
_atom_site_label
_atom_site_fract_x
_atom_site_fract_y
_atom_site_fract_z
Si Si1 0.030160 0.775820 0.690271
Si Si2 0.838687 0.674241 0.212020
Si Si3 0.879866 0.033340 0.584586
Si Si4 0.332027 0.062546 0.641576
Si Si5 0.914851 0.326208 0.609286
Si Si6 0.762272 0.922091 0.633217
O O1 0.128517 0.696476 0.378371
O O2 0.046130 0.924960 0.567432
O O3 0.000000 0.770399 0.000000
O O4 0.946100 0.701349 0.841279
O O5 0.837945 0.597741 0.410609
O O6 0.790645 0.820851 0.383712
O O7 0.786578 0.565983 0.247293
O O8 0.918328 0.183043 0.495018
O O9 0.856166 0.968914 0.456100
O O10 0.775884 0.029560 0.988010
O O11 0.402008 0.944948 0.498737
O O12 0.000000 0.341025 0.500000
O O13 0.815591 0.336657 0.019176
#
# Coordination Sequence:
#
# PCOD9124146 Si02
#       6
#     4   4   4   4   4   4
#     4  10  20  42  65  97 130 178 223 281 337 407
#     4  11  23  43  70 101 142 176 238 287 350 417
#     4  11  21  43  68  92 138 177 227 279 339 412
#     4  10  20  42  70  92 136 183 223 278 344 407
#     4  11  24  42  62 100 134 178 232 283 338 406
#     4  11  24  43  67 101 135 183 231 284 350 412
#
# _framework density 23.447285000000001
#
# number of rings (size 3 to 8) (size 9 to 14) (size 15 to 20)
#    0.000    1.333    5.000    2.000    2.333    1.333 
#    0.000    3.333    0.000    0.000    0.000    0.000 
#    0.000    0.000    0.000    0.000    0.000    0.000 
#
# Total GULP energy -67013.554261 kJ/mol
# GULP energy per Si atom -5584.462855 kJ/mol
# Density = 2.339392 g / cm^3
# Si number density = 23.447285 Si / 1000 Ang^3
#
#
#
# Elastic Constant Matrix: (Units=GPa)
#
#
# Indices 1 2 3 4 5 6 
#
# 1 52.7081 35.6871 7.9266 0.0000 -22.9536 0.0000
# 2 35.6871 144.2850 12.3909 0.0000 -1.5676 0.0000
# 3 7.9266 12.3909 66.0369 0.0000 -6.7430 0.0000
# 4 0.0000 0.0000 0.0000 47.5181 0.0000 -10.9361
# 5 -22.9536 -1.5676 -6.7430 0.0000 24.7385 0.0000
# 6 0.0000 0.0000 0.0000 -10.9361 0.0000 36.9120
#
#
#
# Elastic Compliance Matrix: (Units=1/GPa)
#
#
# Indices 1 2 3 4 5 6 
#
# 1 0.042989 -0.010273 0.000796 0.000000 0.039454 0.000000
# 2 -0.010273 0.009499 -0.001503 0.000000 -0.009339 0.000000
# 3 0.000796 -0.001503 0.015836 0.000000 0.004960 0.000000
# 4 0.000000 0.000000 0.000000 0.022585 0.000000 0.006691
# 5 0.039454 -0.009339 0.004960 0.000000 0.077790 0.000000
# 6 0.000000 0.000000 0.000000 0.006691 0.000000 0.029074
#
#
# Mechanical properties :
#
#
# Convention : Reuss Voigt Hill
#
# Bulk Modulus (GPa) = 21.56784 41.67102 31.61943
# Shear Modulus (GPa) = 21.25970 35.63542 28.44756
#
# Velocity S-wave (km/s) = 3.01442 3.90270 3.48696
# Velocity P-wave (km/s) = 4.61888 6.17405 5.45220
#
# Compressibility (1/GPa) = 0.04636532
#
# Stress axis : x y z
#
# Youngs Moduli (GPa) = 23.26156 105.27290 63.14746
#
# Poissons Ratio (x) = 1.08142 -0.05026
# Poissons Ratio (y) = 0.23896 0.09491
# Poissons Ratio (z) = -0.01852 0.15822
#
# Static dielectric constant tensor:
#      x y z
#    x 2.139770 0.000000 0.022540 
#    y 0.000000 1.879500 0.000000 
#    z 0.022540 0.000000 1.876150 
# 
# From -- ./inp_files/32453.got.cif
#   From: 2010.05.17/outbox.cif.g08.bks.cpg/sg5_17_cif.got.tgz:32453.got - 2010.06.03 18:56:24.
