data_PCOD9124380
_publ_section_title
;
Structure prediction by ZEFSAII (Michael W. Deem and Ramdas Pophale) SiO2 
 PCOD9124380
Probable space group: C 2
;
_chemical_formula_sum "Si O2"
_cell_formula_units_Z 24
_cell_length_a 23.198756
_cell_length_b 4.784306
_cell_length_c 7.975007
_cell_angle_alpha 90.000000
_cell_angle_beta 71.310544
_cell_angle_gamma 90.000000
_cell_volume 838.471228
_symmetry_space_group_name_H-M "C 2"
_symmetry_group_IT_number 5
_symmetry_cell_setting 'monoclinic'
loop_
_space_group_symop_operation_xyz
x,y,z
-x,y,-z
1/2+x,1/2+y,z
1/2-x,1/2+y,-z
loop_
_atom_site_type_symbol
_atom_site_label
_atom_site_fract_x
_atom_site_fract_y
_atom_site_fract_z
Si Si1 0.681963 0.809460 0.282309
Si Si2 0.841212 0.932308 0.381794
Si Si3 0.415481 0.518484 0.795343
Si Si4 0.718338 0.462080 0.928307
Si Si5 0.922804 0.439206 0.285807
Si Si6 0.000000 0.832847 0.000000
Si Si7 0.000000 0.643223 0.500000
O O1 0.685820 0.613177 0.439486
O O2 0.614761 0.787468 0.268068
O O3 0.715684 0.098424 0.226525
O O4 0.730862 0.693250 0.082214
O O5 0.802580 0.899432 0.251180
O O6 0.898182 0.133432 0.278782
O O7 0.866606 0.628232 0.406450
O O8 0.467809 0.516786 0.886993
O O9 0.446470 0.340208 0.619759
O O10 0.352723 0.412963 0.938537
O O11 0.975213 0.457639 0.373429
O O12 0.948169 0.615035 0.108225
#
# Coordination Sequence:
#
# PCOD9124380 Si02
#       7
#     4   4   4   4   4   2   2
#     4  10  24  46  75 109 155 206 261 321 386 465
#     4  12  26  49  74 113 151 203 265 317 388 460
#     4   9  20  43  75 112 154 206 260 315 403 456
#     4  10  24  46  70 112 153 206 257 319 382 466
#     4  11  24  45  71 111 153 199 253 320 385 464
#     4  10  20  46  76 110 158 204 256 328 384 476
#     4  10  20  44  78 108 158 200 256 324 388 474
#
# _framework density 28.623521
#
# number of rings (size 3 to 8) (size 9 to 14) (size 15 to 20)
#    1.000    0.667    3.333    0.000    0.000    8.000 
#    6.000    0.000    0.000    0.000    0.000    0.000 
#    0.000    0.000    0.000    0.000    0.000    0.000 
#
# Total GULP energy -66891.576870 kJ/mol
# GULP energy per Si atom -5574.298072 kJ/mol
# Density = 2.855837 g / cm^3
# Si number density = 28.623521 Si / 1000 Ang^3
#
#
#
# Elastic Constant Matrix: (Units=GPa)
#
#
# Indices 1 2 3 4 5 6 
#
# 1 162.5826 26.8919 9.3706 0.0000 10.7320 0.0000
# 2 26.8919 129.2918 19.7954 0.0000 -9.2401 0.0000
# 3 9.3706 19.7954 117.1575 0.0000 -31.7700 0.0000
# 4 0.0000 0.0000 0.0000 39.7830 0.0000 -19.1979
# 5 10.7320 -9.2401 -31.7700 0.0000 80.1114 0.0000
# 6 0.0000 0.0000 0.0000 -19.1979 0.0000 11.8509
#
#
#
# Elastic Compliance Matrix: (Units=1/GPa)
#
#
# Indices 1 2 3 4 5 6 
#
# 1 0.006494 -0.001344 -0.000639 0.000000 -0.001278 0.000000
# 2 -0.001344 0.008231 -0.001095 0.000000 0.000695 0.000000
# 3 -0.000639 -0.001095 0.009816 0.000000 0.003852 0.000000
# 4 0.000000 0.000000 0.000000 0.115161 0.000000 0.186555
# 5 -0.001278 0.000695 0.003852 0.000000 0.014262 0.000000
# 6 0.000000 0.000000 0.000000 0.186555 0.000000 0.386591
#
#
# Mechanical properties :
#
#
# Convention : Reuss Voigt Hill
#
# Bulk Modulus (GPa) = 54.38965 57.90529 56.14747
# Shear Modulus (GPa) = 9.04420 49.88066 29.46243
#
# Velocity S-wave (km/s) = 1.77949 4.17903 3.21176
# Velocity P-wave (km/s) = 4.82339 6.59997 5.78034
#
# Compressibility (1/GPa) = 0.01838585
#
# Stress axis : x y z
#
# Youngs Moduli (GPa) = 153.98134 121.48671 101.87241
#
# Poissons Ratio (x) = 0.16332 0.06509
# Poissons Ratio (y) = 0.20700 0.11152
# Poissons Ratio (z) = 0.09839 0.13299
#
# Static dielectric constant tensor:
#      x y z
#    x 2.179740 0.000000 -0.068820 
#    y 0.000000 2.262290 0.000000 
#    z -0.068820 0.000000 2.461380 
# 
# From -- ./inp_files/30271.got.cif
#   From: 2010.05.17/outbox.cif.g08.bks.cpg/sg5_16_cif.got.tgz:30271.got - 2010.06.03 18:56:24.
