data_PCOD9124400
_publ_section_title
;
Structure prediction by ZEFSAII (Michael W. Deem and Ramdas Pophale) SiO2 
 PCOD9124400
Probable space group: C 2
;
_chemical_formula_sum "Si O2"
_cell_formula_units_Z 28
_cell_length_a 9.720541
_cell_length_b 9.090122
_cell_length_c 13.436350
_cell_angle_alpha 90.000000
_cell_angle_beta 67.963588
_cell_angle_gamma 90.000000
_cell_volume 1100.514336
_symmetry_space_group_name_H-M "C 2"
_symmetry_group_IT_number 5
_symmetry_cell_setting 'monoclinic'
loop_
_space_group_symop_operation_xyz
x,y,z
-x,y,-z
1/2+x,1/2+y,z
1/2-x,1/2+y,-z
loop_
_atom_site_type_symbol
_atom_site_label
_atom_site_fract_x
_atom_site_fract_y
_atom_site_fract_z
Si Si1 0.383907 0.745340 0.688716
Si Si2 0.321392 0.082164 0.119721
Si Si3 0.077060 0.561544 0.219290
Si Si4 0.500000 0.834334 0.000000
Si Si5 0.624907 0.247964 0.594658
Si Si6 0.900755 0.086941 0.158938
Si Si7 0.661034 0.576663 0.590869
Si Si8 0.500000 0.337545 0.000000
O O1 0.328170 0.617506 0.780628
O O2 0.251498 0.755448 0.645996
O O3 0.534691 0.693197 0.598385
O O4 0.413730 0.900387 0.733397
O O5 0.452707 0.066562 0.167461
O O6 0.361973 0.227781 0.047170
O O7 0.354948 0.938711 0.045891
O O8 0.244760 0.593897 0.141274
O O9 0.020791 0.682355 0.314396
O O10 0.490500 0.728256 0.097757
O O11 0.618043 0.416227 0.562057
O O12 0.685971 0.136324 0.495067
O O13 0.849326 0.077364 0.286397
O O14 0.987969 0.943371 0.098284
#
# Coordination Sequence:
#
# PCOD9124400 Si02
#       8
#     4   4   4   2   4   4   4   2
#     4  11  23  47  70 100 140 180 220 288 342 406
#     4  10  22  42  67 102 137 179 230 273 339 404
#     4  11  22  44  74  98 140 182 218 286 342 409
#     4  10  24  40  60 104 138 172 238 282 320 418
#     4  11  26  46  70 105 134 178 231 281 350 406
#     4  11  23  43  67 101 140 181 229 277 345 401
#     4  12  25  47  72  98 139 181 227 286 343 411
#     4  10  20  46  66  96 146 180 228 276 336 406
#
# _framework density 25.442651999999999
#
# number of rings (size 3 to 8) (size 9 to 14) (size 15 to 20)
#    0.000    1.143    2.857    3.000    2.000    2.857 
#   12.857    0.000    0.000    0.000    0.000    0.000 
#    0.000    0.000    0.000    0.000    0.000    0.000 
#
# Total GULP energy -78406.292258 kJ/mol
# GULP energy per Si atom -5600.449447 kJ/mol
# Density = 2.538474 g / cm^3
# Si number density = 25.442652 Si / 1000 Ang^3
#
#
#
# Elastic Constant Matrix: (Units=GPa)
#
#
# Indices 1 2 3 4 5 6 
#
# 1 89.6348 5.4100 11.6157 0.0000 3.2960 0.0000
# 2 5.4100 162.3146 45.2048 0.0000 1.2753 0.0000
# 3 11.6157 45.2048 112.7710 0.0000 2.1205 0.0000
# 4 0.0000 0.0000 0.0000 42.8133 0.0000 -12.0688
# 5 3.2960 1.2753 2.1205 0.0000 44.8594 0.0000
# 6 0.0000 0.0000 0.0000 -12.0688 0.0000 25.8803
#
#
#
# Elastic Compliance Matrix: (Units=1/GPa)
#
#
# Indices 1 2 3 4 5 6 
#
# 1 0.011335 -0.000057 -0.001130 0.000000 -0.000778 0.000000
# 2 -0.000057 0.006936 -0.002773 0.000000 -0.000062 0.000000
# 3 -0.001130 -0.002773 0.010101 0.000000 -0.000316 0.000000
# 4 0.000000 0.000000 0.000000 0.026892 0.000000 0.012541
# 5 -0.000778 -0.000062 -0.000316 0.000000 0.022366 0.000000
# 6 0.000000 0.000000 0.000000 0.012541 0.000000 0.044488
#
#
# Mechanical properties :
#
#
# Convention : Reuss Voigt Hill
#
# Bulk Modulus (GPa) = 48.89586 54.35348 51.62467
# Shear Modulus (GPa) = 36.53501 42.87660 39.70580
#
# Velocity S-wave (km/s) = 3.79354 4.10960 3.95473
# Velocity P-wave (km/s) = 6.20062 6.62782 6.41777
#
# Compressibility (1/GPa) = 0.02045163
#
# Stress axis : x y z
#
# Youngs Moduli (GPa) = 88.22337 144.18410 98.99536
#
# Poissons Ratio (x) = 0.00821 0.11187
# Poissons Ratio (y) = 0.00502 0.27453
# Poissons Ratio (z) = 0.09970 0.39984
#
# Static dielectric constant tensor:
#      x y z
#    x 2.014270 0.000000 0.087470 
#    y 0.000000 1.969260 0.000000 
#    z 0.087470 0.000000 2.005430 
# 
# From -- ./inp_files/52407.got.cif
#   From: 2010.05.17/outbox.cif.g08.bks.cpg/sg5_27_cif.got.tgz:52407.got - 2010.06.03 18:56:24.
