data_PCOD9124142
_publ_section_title
;
Structure prediction by ZEFSAII (Michael W. Deem and Ramdas Pophale) SiO2 
 PCOD9124142
Probable space group: C 2
;
_chemical_formula_sum "Si O2"
_cell_formula_units_Z 26
_cell_length_a 27.978958
_cell_length_b 8.866765
_cell_length_c 8.264649
_cell_angle_alpha 90.000000
_cell_angle_beta 143.589390
_cell_angle_gamma 90.000000
_cell_volume 1217.002790
_symmetry_space_group_name_H-M "C 2"
_symmetry_group_IT_number 5
_symmetry_cell_setting 'monoclinic'
loop_
_space_group_symop_operation_xyz
x,y,z
-x,y,-z
1/2+x,1/2+y,z
1/2-x,1/2+y,-z
loop_
_atom_site_type_symbol
_atom_site_label
_atom_site_fract_x
_atom_site_fract_y
_atom_site_fract_z
Si Si1 0.910214 0.743250 0.018892
Si Si2 0.877458 0.549648 0.607674
Si Si3 0.775925 0.597868 0.861746
Si Si4 0.500000 0.796054 0.000000
Si Si5 0.913404 0.844204 0.510740
Si Si6 0.617479 0.535306 0.253590
Si Si7 0.246904 0.903055 0.070810
O O1 0.000196 0.789325 0.312153
O O2 0.903450 0.627050 0.847774
O O3 0.857164 0.664050 0.010026
O O4 0.879529 0.904578 0.871007
O O5 0.939862 0.412536 0.744205
O O6 0.878781 0.688092 0.486968
O O7 0.788666 0.481839 0.337770
O O8 0.709974 0.572769 0.544184
O O9 0.736893 0.727347 0.865221
O O10 0.784722 0.458289 0.005047
O O11 0.438268 0.682807 0.925630
O O12 0.917731 0.955860 0.677727
O O13 0.849375 0.917698 0.214793
#
# Coordination Sequence:
#
# PCOD9124142 Si02
#       7
#     4   4   4   2   4   4   4
#     4  11  23  42  67 100 130 175 231 282 332 400
#     4  11  21  38  67  99 130 174 223 277 336 408
#     4  11  25  40  67  93 134 174 223 277 335 408
#     4  12  18  34  68  98 122 168 226 276 326 398
#     4  10  20  42  65  90 137 184 215 266 349 422
#     4  10  21  38  65  99 129 168 217 281 340 398
#     4  11  23  42  61  96 131 184 214 264 352 411
#
# _framework density 21.363959999999999
#
# number of rings (size 3 to 8) (size 9 to 14) (size 15 to 20)
#    0.000    1.231    6.154    0.923    2.154    0.615 
#    0.000    1.538    0.000    0.000    0.000    0.000 
#    0.000    0.000    0.000    0.000    0.000    0.000 
#
# Total GULP energy -72458.162509 kJ/mol
# GULP energy per Si atom -5573.704808 kJ/mol
# Density = 2.131534 g / cm^3
# Si number density = 21.363960 Si / 1000 Ang^3
#
#
#
# Elastic Constant Matrix: (Units=GPa)
#
#
# Indices 1 2 3 4 5 6 
#
# 1 68.6858 21.3706 35.0440 0.0000 15.6759 0.0000
# 2 21.3706 100.7564 36.6865 0.0000 7.1607 0.0000
# 3 35.0440 36.6865 140.4527 0.0000 16.8938 0.0000
# 4 0.0000 0.0000 0.0000 48.1390 0.0000 0.0198
# 5 15.6759 7.1607 16.8938 0.0000 24.2857 0.0000
# 6 0.0000 0.0000 0.0000 0.0198 0.0000 33.4668
#
#
#
# Elastic Compliance Matrix: (Units=1/GPa)
#
#
# Indices 1 2 3 4 5 6 
#
# 1 0.018955 -0.002254 -0.003000 0.000000 -0.009484 0.000000
# 2 -0.002254 0.011277 -0.002355 0.000000 -0.000232 0.000000
# 3 -0.003000 -0.002355 0.008913 0.000000 -0.003569 0.000000
# 4 0.000000 0.000000 0.000000 0.020773 0.000000 -0.000012
# 5 -0.009484 -0.000232 -0.003569 0.000000 0.049849 0.000000
# 6 0.000000 0.000000 0.000000 -0.000012 0.000000 0.029880
#
#
# Mechanical properties :
#
#
# Convention : Reuss Voigt Hill
#
# Bulk Modulus (GPa) = 41.79469 55.12192 48.45830
# Shear Modulus (GPa) = 30.70448 35.63122 33.16785
#
# Velocity S-wave (km/s) = 3.79517 4.08832 3.94447
# Velocity P-wave (km/s) = 6.22977 6.93853 6.59368
#
# Compressibility (1/GPa) = 0.02392649
#
# Stress axis : x y z
#
# Youngs Moduli (GPa) = 52.75516 88.67529 112.19731
#
# Poissons Ratio (x) = 0.19989 0.33660
# Poissons Ratio (y) = 0.11892 0.26426
# Poissons Ratio (z) = 0.15827 0.20886
#
# Static dielectric constant tensor:
#      x y z
#    x 1.798570 0.000000 -0.002420 
#    y 0.000000 1.763390 0.000000 
#    z -0.002420 0.000000 1.878010 
# 
# From -- ./inp_files/31684.got.cif
#   From: 2010.05.17/outbox.cif.g08.bks.cpg/sg5_16_cif.got.tgz:31684.got - 2010.06.03 18:56:24.
