data_PCOD9124034
_publ_section_title
;
Structure prediction by ZEFSAII (Michael W. Deem and Ramdas Pophale) SiO2 
 PCOD9124034
Probable space group: C 2
;
_chemical_formula_sum "Si O2"
_cell_formula_units_Z 26
_cell_length_a 8.336302
_cell_length_b 20.044715
_cell_length_c 9.342643
_cell_angle_alpha 90.000000
_cell_angle_beta 129.778947
_cell_angle_gamma 90.000000
_cell_volume 1199.768638
_symmetry_space_group_name_H-M "C 2"
_symmetry_group_IT_number 5
_symmetry_cell_setting 'monoclinic'
loop_
_space_group_symop_operation_xyz
x,y,z
-x,y,-z
1/2+x,1/2+y,z
1/2-x,1/2+y,-z
loop_
_atom_site_type_symbol
_atom_site_label
_atom_site_fract_x
_atom_site_fract_y
_atom_site_fract_z
Si Si1 0.051424 0.567170 0.358075
Si Si2 0.627001 0.915232 0.382271
Si Si3 0.183348 0.147693 0.994528
Si Si4 0.333271 0.397923 0.808902
Si Si5 0.454517 0.265423 0.172951
Si Si6 0.806604 0.161699 0.323024
Si Si7 0.500000 0.325473 0.500000
O O1 0.869303 0.604256 0.167426
O O2 0.000000 0.569346 0.500000
O O3 0.077715 0.491758 0.318737
O O4 0.250906 0.607948 0.414017
O O5 0.744442 0.922430 0.604484
O O6 0.394097 0.882345 0.250746
O O7 0.793874 0.872523 0.387621
O O8 0.239072 0.226935 0.029154
O O9 0.154792 0.131403 0.811279
O O10 0.000000 0.136011 0.000000
O O11 0.486287 0.336891 0.855187
O O12 0.500000 0.440586 0.000000
O O13 0.620964 0.213934 0.205046
O O14 0.493225 0.276912 0.361570
O O15 0.000000 0.201061 0.500000
#
# Coordination Sequence:
#
# PCOD9124034 Si02
#       7
#     4   4   4   4   4   4   2
#     4  11  22  44  67  94 136 178 230 286 336 410
#     4  10  23  43  64  96 139 182 238 281 339 412
#     4  11  25  44  68 103 136 173 231 291 354 421
#     4  10  20  41  66  97 130 182 231 281 344 404
#     4  10  23  39  66  97 138 167 229 274 351 413
#     4  11  25  41  67  97 129 177 222 285 350 408
#     4  10  24  40  66 102 140 188 220 290 340 420
#
# _framework density 21.670845
#
# number of rings (size 3 to 8) (size 9 to 14) (size 15 to 20)
#    0.000    1.538    1.538    3.692   11.846    1.846 
#    2.769    5.385    0.000    0.000    0.000    0.000 
#    0.000    0.000    0.000    0.000    0.000    0.000 
#
# Total GULP energy -72393.483363 kJ/mol
# GULP energy per Si atom -5568.729489 kJ/mol
# Density = 2.162152 g / cm^3
# Si number density = 21.670845 Si / 1000 Ang^3
#
#
#
# Elastic Constant Matrix: (Units=GPa)
#
#
# Indices 1 2 3 4 5 6 
#
# 1 104.5790 5.6596 44.5409 0.0000 -4.7054 0.0000
# 2 5.6596 60.2322 6.2090 0.0000 0.8795 0.0000
# 3 44.5409 6.2090 122.8592 0.0000 -1.5279 0.0000
# 4 0.0000 0.0000 0.0000 12.7369 0.0000 6.8230
# 5 -4.7054 0.8795 -1.5279 0.0000 48.9243 0.0000
# 6 0.0000 0.0000 0.0000 6.8230 0.0000 -5.7972
#
#
#
# Elastic Compliance Matrix: (Units=1/GPa)
#
#
# Indices 1 2 3 4 5 6 
#
# 1 0.011380 -0.000663 -0.004080 0.000000 0.000979 0.000000
# 2 -0.000663 0.016733 -0.000610 0.000000 -0.000384 0.000000
# 3 -0.004080 -0.000610 0.009648 0.000000 -0.000080 0.000000
# 4 0.000000 0.000000 0.000000 0.048153 0.000000 0.056673
# 5 0.000979 -0.000384 -0.000080 0.000000 0.020538 0.000000
# 6 0.000000 0.000000 0.000000 0.056673 0.000000 -0.105795
#
#
# Mechanical properties :
#
#
# Convention : Reuss Voigt Hill
#
# Bulk Modulus (GPa) = 36.96122 44.49881 40.73002
# Shear Modulus (GPa) = 245.31590 26.59019 135.95305
#
# Velocity S-wave (km/s) = 10.65113 3.50666 7.92916
# Velocity P-wave (km/s) = 12.97517 6.08063 10.13235
#
# Compressibility (1/GPa) = 0.02705539
#
# Stress axis : x y z
#
# Youngs Moduli (GPa) = 87.87558 59.76146 103.64475
#
# Poissons Ratio (x) = 0.03962 0.42286
# Poissons Ratio (y) = 0.05826 0.06323
# Poissons Ratio (z) = 0.35852 0.03646
#
# Static dielectric constant tensor:
#      x y z
#    x 1.967250 0.000000 0.059460 
#    y 0.000000 1.791460 0.000000 
#    z 0.059460 0.000000 2.034600 
# 
# From -- ./inp_files/17087.got.cif
#   From: 2010.05.17/outbox.cif.g08.bks.cpg/sg5_9_cif.got.tgz:17087.got - 2010.06.03 18:56:24.
