data_PCOD9124267
_publ_section_title
;
Structure prediction by ZEFSAII (Michael W. Deem and Ramdas Pophale) SiO2 
 PCOD9124267
Probable space group: C 2
;
_chemical_formula_sum "Si O2"
_cell_formula_units_Z 24
_cell_length_a 13.495867
_cell_length_b 6.582950
_cell_length_c 14.831863
_cell_angle_alpha 90.000000
_cell_angle_beta 46.533045
_cell_angle_gamma 90.000000
_cell_volume 956.349896
_symmetry_space_group_name_H-M "C 2"
_symmetry_group_IT_number 5
_symmetry_cell_setting 'monoclinic'
loop_
_space_group_symop_operation_xyz
x,y,z
-x,y,-z
1/2+x,1/2+y,z
1/2-x,1/2+y,-z
loop_
_atom_site_type_symbol
_atom_site_label
_atom_site_fract_x
_atom_site_fract_y
_atom_site_fract_z
Si Si1 0.548295 0.586280 0.204038
Si Si2 0.132315 0.774492 0.461109
Si Si3 0.384817 0.886709 0.420990
Si Si4 0.738398 0.231448 0.055639
Si Si5 0.231377 0.895084 0.687962
Si Si6 0.845688 0.847711 0.077329
O O1 0.500172 0.740519 0.310616
O O2 0.667448 0.421600 0.147934
O O3 0.415896 0.456963 0.259621
O O4 0.608377 0.723055 0.083883
O O5 0.260429 0.884101 0.427124
O O6 0.081159 0.616639 0.571891
O O7 0.197345 0.617365 0.347391
O O8 0.000000 0.876331 0.500000
O O9 0.675416 0.799883 0.447583
O O10 0.748612 0.034905 0.110480
O O11 0.652346 0.217347 0.015530
O O12 0.210418 0.771869 0.792218
O O13 0.000000 0.914335 0.000000
#
# Coordination Sequence:
#
# PCOD9124267 Si02
#       6
#     4   4   4   4   4   4
#     4  10  20  43  61 103 138 171 236 271 339 395
#     4   9  20  39  65  94 128 184 215 267 356 386
#     4   9  21  40  65  98 140 170 229 291 325 408
#     4  10  22  37  73  96 130 192 215 283 328 416
#     4   9  20  39  70  91 138 180 216 288 338 393
#     4  11  21  43  66  99 139 172 233 276 342 400
#
# _framework density 25.095417999999999
#
# number of rings (size 3 to 8) (size 9 to 14) (size 15 to 20)
#    1.000    1.333    3.333    0.000    2.333    1.333 
#    3.000    4.167   22.000    0.000    0.000    0.000 
#    0.000    0.000    0.000    0.000    0.000    0.000 
#
# Total GULP energy -66818.622028 kJ/mol
# GULP energy per Si atom -5568.218502 kJ/mol
# Density = 2.503830 g / cm^3
# Si number density = 25.095418 Si / 1000 Ang^3
#
#
#
# Elastic Constant Matrix: (Units=GPa)
#
#
# Indices 1 2 3 4 5 6 
#
# 1 120.4923 30.8821 21.4814 0.0000 -17.6882 0.0000
# 2 30.8821 56.8716 21.0172 0.0001 -21.7208 0.0001
# 3 21.4814 21.0172 138.3931 0.0001 3.9253 0.0000
# 4 0.0000 0.0001 0.0001 12.8824 0.0000 -10.9004
# 5 -17.6882 -21.7208 3.9253 0.0000 42.7142 -0.0001
# 6 0.0000 0.0001 0.0000 -10.9004 -0.0001 34.3937
#
#
#
# Elastic Compliance Matrix: (Units=1/GPa)
#
#
# Indices 1 2 3 4 5 6 
#
# 1 0.009847 -0.004229 -0.000943 0.000000 0.002014 0.000000
# 2 -0.004229 0.025632 -0.003565 0.000000 0.011611 0.000000
# 3 -0.000943 -0.003565 0.007997 0.000000 -0.002939 0.000000
# 4 0.000000 0.000000 0.000000 0.106070 0.000000 0.033617
# 5 0.002014 0.011611 -0.002939 0.000000 0.030419 0.000000
# 6 0.000000 0.000000 0.000000 0.033617 0.000000 0.039729
#
#
# Mechanical properties :
#
#
# Convention : Reuss Voigt Hill
#
# Bulk Modulus (GPa) = 38.46172 51.39092 44.92632
# Shear Modulus (GPa) = 20.33857 34.15647 27.24752
#
# Velocity S-wave (km/s) = 2.84993 3.69326 3.29866
# Velocity P-wave (km/s) = 5.11751 6.22170 5.69642
#
# Compressibility (1/GPa) = 0.02599988
#
# Stress axis : x y z
#
# Youngs Moduli (GPa) = 101.55316 39.01356 125.04641
#
# Poissons Ratio (x) = 0.16500 0.11795
# Poissons Ratio (y) = 0.42951 0.44585
# Poissons Ratio (z) = 0.09579 0.13910
#
# Static dielectric constant tensor:
#      x y z
#    x 1.992870 0.000000 0.013250 
#    y 0.000000 2.075360 0.000000 
#    z 0.013250 0.000000 2.036960 
# 
# From -- ./inp_files/60186.got.cif
#   From: 2010.05.17/outbox.cif.g08.bks.cpg/sg5_31_cif.got.tgz:60186.got - 2010.06.03 18:56:24.
