data_PCOD9124745
_publ_section_title
;
Structure prediction by ZEFSAII (Michael W. Deem and Ramdas Pophale) SiO2 
 PCOD9124745
Probable space group: C 2
;
_chemical_formula_sum "Si O2"
_cell_formula_units_Z 28
_cell_length_a 13.969721
_cell_length_b 7.711804
_cell_length_c 17.212279
_cell_angle_alpha 90.000000
_cell_angle_beta 138.603992
_cell_angle_gamma 90.000000
_cell_volume 1226.179592
_symmetry_space_group_name_H-M "C 2"
_symmetry_group_IT_number 5
_symmetry_cell_setting 'monoclinic'
loop_
_space_group_symop_operation_xyz
x,y,z
-x,y,-z
1/2+x,1/2+y,z
1/2-x,1/2+y,-z
loop_
_atom_site_type_symbol
_atom_site_label
_atom_site_fract_x
_atom_site_fract_y
_atom_site_fract_z
Si Si1 0.892408 0.995540 0.374127
Si Si2 0.575915 0.587243 0.854739
Si Si3 0.795472 0.276138 0.218114
Si Si4 0.956228 0.786016 0.270922
Si Si5 0.098115 0.456663 0.418741
Si Si6 0.266796 0.708445 0.624282
Si Si7 0.343541 0.608272 0.922938
O O1 0.983943 0.924455 0.356422
O O2 0.830272 0.830610 0.381398
O O3 0.000000 0.086308 0.500000
O O4 0.772383 0.123115 0.265754
O O5 0.662376 0.687230 0.838816
O O6 0.546299 0.391310 0.809536
O O7 0.415764 0.669034 0.759674
O O8 0.659955 0.590538 0.986239
O O9 0.676280 0.421683 0.130432
O O10 0.941044 0.372378 0.337257
O O11 0.792679 0.720871 0.185276
O O12 0.060144 0.622570 0.341052
O O13 0.182395 0.537752 0.543162
O O14 0.187425 0.316944 0.424394
O O15 0.500000 0.684456 0.000000
#
# Coordination Sequence:
#
# PCOD9124745 Si02
#       7
#     4   4   4   4   4   4   4
#     4  11  22  41  60  89 126 167 205 257 311 363
#     4  10  21  40  65  89 123 168 204 256 306 371
#     4   9  23  42  60  89 124 166 211 251 314 367
#     4  10  21  41  63  89 125 165 209 251 315 367
#     4  10  21  38  59  90 124 163 201 259 300 377
#     4  11  22  37  63  93 126 160 212 246 313 368
#     4  11  22  40  62  93 125 160 213 259 306 362
#
# _framework density 22.835152999999998
#
# number of rings (size 3 to 8) (size 9 to 14) (size 15 to 20)
#    0.000    1.714    1.429    2.571    4.000    1.143 
#    7.714    7.143    0.000    0.000    0.000    0.000 
#    0.000    0.000    0.000    0.000    0.000    0.000 
#
# Total GULP energy -78278.807144 kJ/mol
# GULP energy per Si atom -5591.343367 kJ/mol
# Density = 2.278318 g / cm^3
# Si number density = 22.835153 Si / 1000 Ang^3
#
#
#
# Elastic Constant Matrix: (Units=GPa)
#
#
# Indices 1 2 3 4 5 6 
#
# 1 27.7839 -3.7995 12.8213 0.0000 -3.2719 0.0000
# 2 -3.7995 65.7193 19.0856 0.0000 -8.3978 0.0000
# 3 12.8213 19.0856 104.8794 0.0000 -12.3934 0.0000
# 4 0.0000 0.0000 0.0000 42.7445 0.0000 -6.1488
# 5 -3.2719 -8.3978 -12.3934 0.0000 35.5348 0.0000
# 6 0.0000 0.0000 0.0000 -6.1488 0.0000 18.7319
#
#
#
# Elastic Compliance Matrix: (Units=1/GPa)
#
#
# Indices 1 2 3 4 5 6 
#
# 1 0.039300 0.004146 -0.005231 0.000000 0.002774 0.000000
# 2 0.004146 0.016794 -0.003180 0.000000 0.003241 0.000000
# 3 -0.005231 -0.003180 0.011063 0.000000 0.002625 0.000000
# 4 0.000000 0.000000 0.000000 0.024554 0.000000 0.008060
# 5 0.002774 0.003241 0.002625 0.000000 0.030079 0.000000
# 6 0.000000 0.000000 0.000000 0.008060 0.000000 0.056030
#
#
# Mechanical properties :
#
#
# Convention : Reuss Voigt Hill
#
# Bulk Modulus (GPa) = 17.05726 28.28861 22.67293
# Shear Modulus (GPa) = 24.28463 30.75393 27.51928
#
# Velocity S-wave (km/s) = 3.26464 3.67383 3.47526
# Velocity P-wave (km/s) = 4.65794 5.51463 5.10429
#
# Compressibility (1/GPa) = 0.05862605
#
# Stress axis : x y z
#
# Youngs Moduli (GPa) = 25.44561 59.54661 90.39048
#
# Poissons Ratio (x) = -0.24686 0.47283
# Poissons Ratio (y) = -0.10549 0.28742
# Poissons Ratio (z) = 0.13310 0.18935
#
# Static dielectric constant tensor:
#      x y z
#    x 1.852970 0.000000 0.002130 
#    y 0.000000 1.863950 0.000000 
#    z 0.002130 0.000000 1.837530 
# 
# From -- ./inp_files/61472.got.cif
#   From: 2010.05.17/outbox.cif.g08.bks.cpg/sg5_31_cif.got.tgz:61472.got - 2010.06.03 18:56:24.
