data_PCOD9124765
_publ_section_title
;
Structure prediction by ZEFSAII (Michael W. Deem and Ramdas Pophale) SiO2 
 PCOD9124765
Probable space group: C 2
;
_chemical_formula_sum "Si O2"
_cell_formula_units_Z 20
_cell_length_a 9.155654
_cell_length_b 19.786536
_cell_length_c 5.365189
_cell_angle_alpha 90.000000
_cell_angle_beta 60.492655
_cell_angle_gamma 90.000000
_cell_volume 845.881330
_symmetry_space_group_name_H-M "C 2"
_symmetry_group_IT_number 5
_symmetry_cell_setting 'monoclinic'
loop_
_space_group_symop_operation_xyz
x,y,z
-x,y,-z
1/2+x,1/2+y,z
1/2-x,1/2+y,-z
loop_
_atom_site_type_symbol
_atom_site_label
_atom_site_fract_x
_atom_site_fract_y
_atom_site_fract_z
Si Si1 0.905948 0.649490 0.831953
Si Si2 0.894469 0.969133 0.335579
Si Si3 0.705438 0.830642 0.346549
Si Si4 0.303424 0.761229 0.143551
Si Si5 0.953632 0.502895 0.283607
O O1 0.731267 0.686220 0.935155
O O2 0.000000 0.668704 0.500000
O O3 0.924655 0.568310 0.829634
O O4 0.000000 0.673746 0.000000
O O5 0.796165 0.899966 0.351155
O O6 0.000000 0.961533 0.500000
O O7 0.741785 0.020284 0.532686
O O8 0.000000 0.988162 0.000000
O O9 0.500000 0.830007 0.500000
O O10 0.756452 0.779391 0.527681
O O11 0.765691 0.809418 0.018927
O O12 0.500000 0.771678 0.000000
O O13 0.000000 0.468501 0.500000
O O14 0.000000 0.461144 0.000000
#
# Coordination Sequence:
#
# PCOD9124765 Si02
#       5
#     4   4   4   4   4
#     4  10  21  38  61  87 118 164 209 253 311 374
#     4  12  25  40  63  97 130 164 215 271 315 373
#     4  10  22  39  61  90 128 168 202 253 326 387
#     4  10  21  38  61  92 125 160 208 261 313 378
#     4  10  22  43  65  88 122 170 215 256 319 380
#
# _framework density 23.643979999999999
#
# number of rings (size 3 to 8) (size 9 to 14) (size 15 to 20)
#    0.000    1.600    0.000    4.200    0.000    7.200 
#    0.000   12.000    0.000    0.000    0.000    0.000 
#    0.000    0.000    0.000    0.000    0.000    0.000 
#
# Total GULP energy -55762.815136 kJ/mol
# GULP energy per Si atom -5576.281514 kJ/mol
# Density = 2.359016 g / cm^3
# Si number density = 23.643980 Si / 1000 Ang^3
#
#
#
# Elastic Constant Matrix: (Units=GPa)
#
#
# Indices 1 2 3 4 5 6 
#
# 1 123.2977 30.7387 65.7704 0.0000 50.5617 0.0000
# 2 30.7387 67.6651 2.6673 0.0000 11.3509 0.0000
# 3 65.7704 2.6673 167.5809 0.0000 46.0661 0.0000
# 4 0.0000 0.0000 0.0000 11.4202 0.0000 -9.6351
# 5 50.5617 11.3509 46.0661 0.0000 46.2715 0.0000
# 6 0.0000 0.0000 0.0000 -9.6351 0.0000 22.3829
#
#
#
# Elastic Compliance Matrix: (Units=1/GPa)
#
#
# Indices 1 2 3 4 5 6 
#
# 1 0.016607 -0.005021 -0.002462 0.000000 -0.014464 0.000000
# 2 -0.005021 0.017078 0.001848 0.000000 -0.000543 0.000000
# 3 -0.002462 0.001848 0.008659 0.000000 -0.006384 0.000000
# 4 0.000000 0.000000 0.000000 0.137504 0.000000 0.059191
# 5 -0.014464 -0.000543 -0.006384 0.000000 0.043905 0.000000
# 6 0.000000 0.000000 0.000000 0.059191 0.000000 0.070157
#
#
# Mechanical properties :
#
#
# Convention : Reuss Voigt Hill
#
# Bulk Modulus (GPa) = 32.18110 61.87737 47.02923
# Shear Modulus (GPa) = 15.84606 33.30606 24.57606
#
# Velocity S-wave (km/s) = 2.59162 3.75727 3.22750
# Velocity P-wave (km/s) = 4.75348 6.71193 5.81574
#
# Compressibility (1/GPa) = 0.03107414
#
# Stress axis : x y z
#
# Youngs Moduli (GPa) = 60.21712 58.55612 115.48927
#
# Poissons Ratio (x) = 0.29399 0.28430
# Poissons Ratio (y) = 0.30233 -0.21341
# Poissons Ratio (z) = 0.14824 -0.10820
#
# Static dielectric constant tensor:
#      x y z
#    x 1.920700 0.000000 -0.003600 
#    y 0.000000 1.920820 0.000000 
#    z -0.003600 0.000000 2.016410 
# 
# From -- ./inp_files/2797.got.cif
#   From: 2010.05.17/outbox.cif.g08.bks.cpg/sg5_2_cif.got.tgz:2797.got - 2010.06.03 18:56:24.
