data_PCOD9124939
_publ_section_title
;
Structure prediction by ZEFSAII (Michael W. Deem and Ramdas Pophale) SiO2 
 PCOD9124939
Probable space group: C 2
;
_chemical_formula_sum "Si O2"
_cell_formula_units_Z 26
_cell_length_a 16.689505
_cell_length_b 8.318840
_cell_length_c 16.607044
_cell_angle_alpha 90.000000
_cell_angle_beta 149.589057
_cell_angle_gamma 90.000000
_cell_volume 1167.130469
_symmetry_space_group_name_H-M "C 2"
_symmetry_group_IT_number 5
_symmetry_cell_setting 'monoclinic'
loop_
_space_group_symop_operation_xyz
x,y,z
-x,y,-z
1/2+x,1/2+y,z
1/2-x,1/2+y,-z
loop_
_atom_site_type_symbol
_atom_site_label
_atom_site_fract_x
_atom_site_fract_y
_atom_site_fract_z
Si Si1 0.544588 0.620770 0.126329
Si Si2 0.307315 0.727264 0.599933
Si Si3 0.395026 0.520357 0.150238
Si Si4 0.500000 0.792393 0.500000
Si Si5 0.554511 0.979691 0.384748
Si Si6 0.639505 0.257755 0.188928
Si Si7 0.910154 0.658677 0.126515
O O1 0.628799 0.753963 0.254156
O O2 0.643844 0.454104 0.203586
O O3 0.500000 0.677066 0.000000
O O4 0.599078 0.563188 0.941002
O O5 0.440213 0.601662 0.681127
O O6 0.138550 0.650015 0.466673
O O7 0.314061 0.867558 0.542721
O O8 0.385640 0.330028 0.148464
O O9 0.247049 0.612937 0.059088
O O10 0.325042 0.707556 0.343160
O O11 0.500910 0.900920 0.420170
O O12 0.431240 0.011838 0.206755
O O13 0.561661 0.181190 0.201135
O O14 0.500000 0.233226 0.000000
#
# Coordination Sequence:
#
# PCOD9124939 Si02
#       7
#     4   4   4   2   4   4   4
#     4   8  17  35  59  90 128 165 214 268 315 395
#     4  10  21  39  61  95 122 175 206 279 320 402
#     4   9  20  35  62  91 126 167 219 259 338 378
#     4  12  24  40  68 102 122 192 220 280 324 416
#     4  12  24  39  69  91 133 168 232 264 345 390
#     4  10  22  40  66  97 139 169 231 272 329 406
#     4  11  22  40  63 103 125 177 219 280 326 415
#
# _framework density 22.276857
#
# number of rings (size 3 to 8) (size 9 to 14) (size 15 to 20)
#    0.923    0.923    1.538    2.769    8.615    0.000 
#    0.000    0.769    3.385    1.846    0.000    0.000 
#    0.000    0.000    0.000    0.000    0.000    0.000 
#
# Total GULP energy -72375.026374 kJ/mol
# GULP energy per Si atom -5567.309721 kJ/mol
# Density = 2.222615 g / cm^3
# Si number density = 22.276857 Si / 1000 Ang^3
#
#
#
# Elastic Constant Matrix: (Units=GPa)
#
#
# Indices 1 2 3 4 5 6 
#
# 1 69.1582 10.1137 48.3869 0.0000 -1.9923 0.0000
# 2 10.1137 33.5114 15.5088 0.0000 -3.0897 0.0000
# 3 48.3869 15.5088 93.2109 0.0000 20.0027 0.0000
# 4 0.0000 0.0000 0.0000 26.8671 0.0000 10.3390
# 5 -1.9923 -3.0897 20.0027 0.0000 50.7281 0.0000
# 6 0.0000 0.0000 0.0000 10.3390 0.0000 10.5267
#
#
#
# Elastic Compliance Matrix: (Units=1/GPa)
#
#
# Indices 1 2 3 4 5 6 
#
# 1 0.024547 -0.000288 -0.014090 0.000000 0.006503 0.000000
# 2 -0.000288 0.033288 -0.006360 0.000000 0.004524 0.000000
# 3 -0.014090 -0.006360 0.021087 0.000000 -0.009256 0.000000
# 4 0.000000 0.000000 0.000000 0.059836 0.000000 -0.058768
# 5 0.006503 0.004524 -0.009256 0.000000 0.023894 0.000000
# 6 0.000000 0.000000 0.000000 -0.058768 0.000000 0.152717
#
#
# Mechanical properties :
#
#
# Convention : Reuss Voigt Hill
#
# Bulk Modulus (GPa) = 26.70503 38.21101 32.45802
# Shear Modulus (GPa) = 13.53814 25.74913 19.64364
#
# Velocity S-wave (km/s) = 2.46788 3.40350 2.97273
# Velocity P-wave (km/s) = 4.48713 5.71271 5.13661
#
# Compressibility (1/GPa) = 0.03744613
#
# Stress axis : x y z
#
# Youngs Moduli (GPa) = 40.73744 30.04098 47.42195
#
# Poissons Ratio (x) = 0.00865 0.66819
# Poissons Ratio (y) = 0.01173 0.30160
# Poissons Ratio (z) = 0.57401 0.19106
#
# Static dielectric constant tensor:
#      x y z
#    x 1.822300 0.000000 0.017480 
#    y 0.000000 1.840680 0.000000 
#    z 0.017480 0.000000 1.958390 
# 
# From -- ./inp_files/54322.got.cif
#   From: 2010.05.17/outbox.cif.g08.bks.cpg/sg5_28_cif.got.tgz:54322.got - 2010.06.03 18:56:24.
