data_PCOD9124011
_publ_section_title
;
Structure prediction by ZEFSAII (Michael W. Deem and Ramdas Pophale) SiO2 
 PCOD9124011
Probable space group: C 2
;
_chemical_formula_sum "Si O2"
_cell_formula_units_Z 26
_cell_length_a 17.788537
_cell_length_b 8.861029
_cell_length_c 8.014705
_cell_angle_alpha 90.000000
_cell_angle_beta 102.382513
_cell_angle_gamma 90.000000
_cell_volume 1233.928268
_symmetry_space_group_name_H-M "C 2"
_symmetry_group_IT_number 5
_symmetry_cell_setting 'monoclinic'
loop_
_space_group_symop_operation_xyz
x,y,z
-x,y,-z
1/2+x,1/2+y,z
1/2-x,1/2+y,-z
loop_
_atom_site_type_symbol
_atom_site_label
_atom_site_fract_x
_atom_site_fract_y
_atom_site_fract_z
Si Si1 0.702164 0.889220 0.979801
Si Si2 0.813518 0.079228 0.180530
Si Si3 0.910392 0.877806 0.993461
Si Si4 0.715253 0.487439 0.303260
Si Si5 0.000000 0.436284 0.500000
Si Si6 0.941245 0.557537 0.124527
Si Si7 0.839089 0.268019 0.518661
O O1 0.718609 0.721116 0.936534
O O2 0.731317 0.987235 0.835454
O O3 0.612732 0.916865 0.943725
O O4 0.747166 0.954092 0.157520
O O5 0.837319 0.149598 0.364657
O O6 0.881194 0.004545 0.106925
O O7 0.898811 0.717360 0.079002
O O8 0.859107 0.893890 0.800986
O O9 0.000000 0.896520 0.000000
O O10 0.770969 0.392602 0.455458
O O11 0.684551 0.652351 0.343708
O O12 0.027561 0.533010 0.673939
O O13 0.075566 0.344396 0.462865
O O14 0.000000 0.561234 0.000000
#
# Coordination Sequence:
#
# PCOD9124011 Si02
#       7
#     4   4   4   4   2   4   4
#     4  10  20  41  64  98 132 183 239 286 351 429
#     4  10  21  40  67  94 137 179 236 295 350 429
#     4  10  24  43  64 102 134 185 242 291 364 432
#     4  10  23  43  70  97 146 182 243 293 356 437
#     4  12  26  48  72 114 150 188 248 296 370 432
#     4  11  24  45  71 100 142 188 239 298 365 426
#     4  11  25  44  67 108 146 188 242 299 366 432
#
# _framework density 21.070917999999999
#
# number of rings (size 3 to 8) (size 9 to 14) (size 15 to 20)
#    0.000    1.538    3.077    2.769    2.154   10.462 
#    5.538    0.000    0.000    0.000    0.000    0.000 
#    0.000    0.000    0.000    0.000    0.000    0.000 
#
# Total GULP energy -72405.579862 kJ/mol
# GULP energy per Si atom -5569.659989 kJ/mol
# Density = 2.102296 g / cm^3
# Si number density = 21.070918 Si / 1000 Ang^3
#
#
#
# Elastic Constant Matrix: (Units=GPa)
#
#
# Indices 1 2 3 4 5 6 
#
# 1 103.6967 37.7758 32.3828 0.0000 13.4344 0.0000
# 2 37.7758 81.4406 39.7248 0.0000 -9.8032 0.0000
# 3 32.3828 39.7248 61.1606 0.0000 -1.0654 0.0000
# 4 0.0000 0.0000 0.0000 37.0277 0.0000 0.7475
# 5 13.4344 -9.8032 -1.0654 0.0000 28.1638 0.0000
# 6 0.0000 0.0000 0.0000 0.7475 0.0000 19.5228
#
#
#
# Elastic Compliance Matrix: (Units=1/GPa)
#
#
# Indices 1 2 3 4 5 6 
#
# 1 0.014085 -0.005687 -0.003918 0.000000 -0.008846 0.000000
# 2 -0.005687 0.021275 -0.010638 0.000000 0.009716 0.000000
# 3 -0.003918 -0.010638 0.025319 0.000000 -0.000876 0.000000
# 4 0.000000 0.000000 0.000000 0.027028 0.000000 -0.001035
# 5 -0.008846 0.009716 -0.000876 0.000000 0.043075 0.000000
# 6 0.000000 0.000000 0.000000 -0.001035 0.000000 0.051262
#
#
# Mechanical properties :
#
#
# Convention : Reuss Voigt Hill
#
# Bulk Modulus (GPa) = 49.52174 51.78497 50.65336
# Shear Modulus (GPa) = 21.80915 26.03715 23.92315
#
# Velocity S-wave (km/s) = 3.22069 3.51905 3.37317
# Velocity P-wave (km/s) = 6.11424 6.41417 6.26600
#
# Compressibility (1/GPa) = 0.02019315
#
# Stress axis : x y z
#
# Youngs Moduli (GPa) = 70.99871 47.00256 39.49554
#
# Poissons Ratio (x) = 0.26730 0.15474
# Poissons Ratio (y) = 0.40377 0.42017
# Poissons Ratio (z) = 0.27816 0.50003
#
# Static dielectric constant tensor:
#      x y z
#    x 1.837580 0.000000 -0.006680 
#    y 0.000000 1.795330 0.000000 
#    z -0.006680 0.000000 1.862530 
# 
# From -- ./inp_files/26788.got.cif
#   From: 2010.05.17/outbox.cif.g08.bks.cpg/sg5_14_cif.got.tgz:26788.got - 2010.06.03 18:56:24.
