data_PCOD9124341
_publ_section_title
;
Structure prediction by ZEFSAII (Michael W. Deem and Ramdas Pophale) SiO2 
 PCOD9124341
Probable space group: C 2
;
_chemical_formula_sum "Si O2"
_cell_formula_units_Z 26
_cell_length_a 26.003161
_cell_length_b 5.414132
_cell_length_c 19.972502
_cell_angle_alpha 90.000000
_cell_angle_beta 20.932536
_cell_angle_gamma 90.000000
_cell_volume 1004.574410
_symmetry_space_group_name_H-M "C 2"
_symmetry_group_IT_number 5
_symmetry_cell_setting 'monoclinic'
loop_
_space_group_symop_operation_xyz
x,y,z
-x,y,-z
1/2+x,1/2+y,z
1/2-x,1/2+y,-z
loop_
_atom_site_type_symbol
_atom_site_label
_atom_site_fract_x
_atom_site_fract_y
_atom_site_fract_z
Si Si1 0.793795 0.678980 0.984831
Si Si2 0.979985 0.163115 0.619722
Si Si3 0.500000 0.048910 0.000000
Si Si4 0.643331 0.159100 0.391007
Si Si5 0.677925 0.415278 0.714181
Si Si6 0.417506 0.688760 0.981059
Si Si7 0.543828 0.858843 0.689031
O O1 0.694084 0.658042 0.171960
O O2 0.742493 0.441000 0.003636
O O3 0.963266 0.624725 0.783549
O O4 0.046533 0.413676 0.509692
O O5 0.012878 0.206712 0.658882
O O6 0.052302 0.909923 0.507956
O O7 0.646394 0.196092 0.804133
O O8 0.466497 0.897799 0.973798
O O9 0.746304 0.123542 0.331742
O O10 0.749977 0.155896 0.198230
O O11 0.784365 0.376079 0.522656
O O12 0.517638 0.466176 0.884005
O O13 0.468479 0.742950 0.844689
#
# Coordination Sequence:
#
# PCOD9124341 Si02
#       7
#     4   4   2   4   4   4   4
#     4  10  20  44  68 100 133 171 217 281 340 396
#     4  10  22  42  72  94 127 172 225 268 340 394
#     4  12  22  44  62  84 142 188 218 266 326 402
#     4  11  21  42  68  96 127 182 218 265 332 406
#     4  11  23  40  59  94 128 182 222 262 330 393
#     4  12  24  40  63  95 136 177 222 277 321 400
#     4  10  25  40  65 101 130 172 224 283 327 386
#
# _framework density 25.881606000000001
#
# number of rings (size 3 to 8) (size 9 to 14) (size 15 to 20)
#    0.000    1.231    3.077    4.615    2.154    0.000 
#    8.308    0.769    0.000   11.077    0.000    0.000 
#    0.000    0.000    0.000    0.000    0.000    0.000 
#
# Total GULP energy -72742.870646 kJ/mol
# GULP energy per Si atom -5595.605434 kJ/mol
# Density = 2.582270 g / cm^3
# Si number density = 25.881606 Si / 1000 Ang^3
#
#
#
# Elastic Constant Matrix: (Units=GPa)
#
#
# Indices 1 2 3 4 5 6 
#
# 1 86.3816 25.9665 31.7755 -0.0104 33.6391 0.0174
# 2 25.9665 147.0997 85.6220 -0.0629 6.5745 0.1257
# 3 31.7755 85.6220 266.3072 -0.0387 23.9801 0.0695
# 4 -0.0104 -0.0629 -0.0387 44.7931 0.0080 18.3607
# 5 33.6391 6.5745 23.9801 0.0080 46.7117 -0.0184
# 6 0.0174 0.1257 0.0695 18.3607 -0.0184 -40.6027
#
#
#
# Elastic Compliance Matrix: (Units=1/GPa)
#
#
# Indices 1 2 3 4 5 6 
#
# 1 0.016937 -0.002343 -0.000209 0.000000 -0.011760 0.000005
# 2 -0.002343 0.008689 -0.002680 0.000001 0.001840 0.000021
# 3 -0.000209 -0.002680 0.004817 0.000000 -0.001945 0.000001
# 4 0.000000 0.000001 0.000000 0.018834 0.000000 0.008517
# 5 -0.011760 0.001840 -0.001945 0.000000 0.030617 -0.000017
# 6 0.000005 0.000021 0.000001 0.008517 -0.000017 -0.020778
#
#
# Mechanical properties :
#
#
# Convention : Reuss Voigt Hill
#
# Bulk Modulus (GPa) = 50.04827 87.39071 68.71949
# Shear Modulus (GPa) = 65.58282 33.94204 49.76243
#
# Velocity S-wave (km/s) = 5.03930 3.62530 4.38961
# Velocity P-wave (km/s) = 7.29649 7.16677 7.23192
#
# Compressibility (1/GPa) = 0.01998071
#
# Stress axis : x y z
#
# Youngs Moduli (GPa) = 59.04109 115.08429 207.60851
#
# Poissons Ratio (x) = 0.26961 0.04334
# Poissons Ratio (y) = 0.13832 0.55637
# Poissons Ratio (z) = 0.01232 0.30841
#
# Static dielectric constant tensor:
#      x y z
#    x 2.112220 0.000020 -0.044590 
#    y 0.000020 2.066770 0.000030 
#    z -0.044590 0.000030 2.121680 
# 
# From -- ./inp_files/67673.got.cif
#   From: 2010.05.17/outbox.cif.g08.bks.cpg/sg5_34_cif.got.tgz:67673.got - 2010.06.03 18:56:24.
