data_PCOD9124698
_publ_section_title
;
Structure prediction by ZEFSAII (Michael W. Deem and Ramdas Pophale) SiO2 
 PCOD9124698
Probable space group: C 2
;
_chemical_formula_sum "Si O2"
_cell_formula_units_Z 22
_cell_length_a 26.907094
_cell_length_b 8.545146
_cell_length_c 5.730012
_cell_angle_alpha 90.000000
_cell_angle_beta 42.456392
_cell_angle_gamma 90.000000
_cell_volume 889.332494
_symmetry_space_group_name_H-M "C 2"
_symmetry_group_IT_number 5
_symmetry_cell_setting 'monoclinic'
loop_
_space_group_symop_operation_xyz
x,y,z
-x,y,-z
1/2+x,1/2+y,z
1/2-x,1/2+y,-z
loop_
_atom_site_type_symbol
_atom_site_label
_atom_site_fract_x
_atom_site_fract_y
_atom_site_fract_z
Si Si1 0.724771 0.973100 0.003081
Si Si2 0.971271 0.479219 0.853091
Si Si3 0.347530 0.162291 0.108004
Si Si4 0.000000 0.170926 0.000000
Si Si5 0.378046 0.482797 0.192916
Si Si6 0.201512 0.160187 0.877607
O O1 0.797883 0.973709 0.589465
O O2 0.690027 0.802353 0.095066
O O3 0.666252 0.099760 0.106791
O O4 0.759567 0.017071 0.126223
O O5 0.000000 0.534676 0.500000
O O6 0.884890 0.519174 0.122118
O O7 0.994968 0.298724 0.808289
O O8 0.000000 0.552542 0.000000
O O9 0.394214 0.314653 0.019419
O O10 0.265276 0.204997 0.474631
O O11 0.932240 0.054482 0.195202
O O12 0.369494 0.604103 0.010359
#
# Coordination Sequence:
#
# PCOD9124698 Si02
#       6
#     4   4   4   2   4   4
#     4  10  21  37  65  89 127 163 215 271 329 387
#     4  10  25  45  67  97 129 176 220 267 330 389
#     4  10  22  40  65  89 127 163 222 266 330 383
#     4  10  24  40  66  86 138 168 224 266 332 390
#     4  10  22  41  58  95 123 171 214 270 325 389
#     4  10  21  38  61  94 124 165 212 272 327 391
#
# _framework density 24.737656999999999
#
# number of rings (size 3 to 8) (size 9 to 14) (size 15 to 20)
#    0.545    1.455    0.000    2.182    3.818    7.273 
#    0.000    0.909    0.000    0.000    0.000    0.000 
#    0.000    0.000    0.000    0.000    0.000    0.000 
#
# Total GULP energy -61317.949022 kJ/mol
# GULP energy per Si atom -5574.359002 kJ/mol
# Density = 2.468135 g / cm^3
# Si number density = 24.737657 Si / 1000 Ang^3
#
#
#
# Elastic Constant Matrix: (Units=GPa)
#
#
# Indices 1 2 3 4 5 6 
#
# 1 141.9110 42.8702 16.4229 0.0000 -3.2933 0.0000
# 2 42.8702 111.9183 15.0968 0.0000 -10.7911 0.0000
# 3 16.4229 15.0968 41.4913 0.0000 9.5329 0.0000
# 4 0.0000 0.0000 0.0000 18.7134 0.0000 -2.1971
# 5 -3.2933 -10.7911 9.5329 0.0000 25.9301 0.0000
# 6 0.0000 0.0000 0.0000 -2.1971 0.0000 44.9810
#
#
#
# Elastic Compliance Matrix: (Units=1/GPa)
#
#
# Indices 1 2 3 4 5 6 
#
# 1 0.008169 -0.002726 -0.002424 0.000000 0.000795 0.000000
# 2 -0.002726 0.011128 -0.004320 0.000000 0.005873 0.000000
# 3 -0.002424 -0.004320 0.029618 0.000000 -0.012994 0.000000
# 4 0.000000 0.000000 0.000000 0.053746 0.000000 0.002625
# 5 0.000795 0.005873 -0.012994 0.000000 0.045887 0.000000
# 6 0.000000 0.000000 0.000000 0.002625 0.000000 0.022360
#
#
# Mechanical properties :
#
#
# Convention : Reuss Voigt Hill
#
# Bulk Modulus (GPa) = 33.35935 49.34448 41.35191
# Shear Modulus (GPa) = 25.02013 32.65362 28.83688
#
# Velocity S-wave (km/s) = 3.18373 3.63712 3.41795
# Velocity P-wave (km/s) = 5.19898 6.13421 5.68586
#
# Compressibility (1/GPa) = 0.02997661
#
# Stress axis : x y z
#
# Youngs Moduli (GPa) = 122.41379 89.86321 33.76308
#
# Poissons Ratio (x) = 0.24492 0.08185
# Poissons Ratio (y) = 0.33364 0.14584
# Poissons Ratio (z) = 0.29676 0.38817
#
# Static dielectric constant tensor:
#      x y z
#    x 1.931570 0.000000 0.002120 
#    y 0.000000 2.012210 0.000000 
#    z 0.002120 0.000000 2.075510 
# 
# From -- ./inp_files/9225.got.cif
#   From: 2010.05.17/outbox.cif.g08.bks.cpg/sg5_5_cif.got.tgz:9225.got - 2010.06.03 18:56:24.
