data_PCOD9124742
_publ_section_title
;
Structure prediction by ZEFSAII (Michael W. Deem and Ramdas Pophale) SiO2 
 PCOD9124742
Probable space group: C 2
;
_chemical_formula_sum "Si O2"
_cell_formula_units_Z 20
_cell_length_a 5.057649
_cell_length_b 26.427792
_cell_length_c 7.348841
_cell_angle_alpha 90.000000
_cell_angle_beta 79.152873
_cell_angle_gamma 90.000000
_cell_volume 964.714108
_symmetry_space_group_name_H-M "C 2"
_symmetry_group_IT_number 5
_symmetry_cell_setting 'monoclinic'
loop_
_space_group_symop_operation_xyz
x,y,z
-x,y,-z
1/2+x,1/2+y,z
1/2-x,1/2+y,-z
loop_
_atom_site_type_symbol
_atom_site_label
_atom_site_fract_x
_atom_site_fract_y
_atom_site_fract_z
Si Si1 0.500000 0.619100 0.000000
Si Si2 0.040000 0.901376 0.274506
Si Si3 0.000000 0.547552 0.000000
Si Si4 0.199297 0.214902 0.118736
Si Si5 0.220700 0.803514 0.623359
Si Si6 0.538589 0.960658 0.276414
O O1 0.244052 0.583281 0.029003
O O2 0.444395 0.660016 0.845036
O O3 0.348696 0.916447 0.219542
O O4 0.000000 0.902032 0.500000
O O5 0.921470 0.846865 0.236340
O O6 0.847122 0.943849 0.214427
O O7 0.045288 0.510398 0.822672
O O8 0.215500 0.251702 0.284661
O O9 0.500000 0.207433 0.000000
O O10 0.000000 0.241527 0.000000
O O11 0.500000 0.823500 0.500000
O O12 0.000000 0.792185 0.500000
O O13 0.500000 0.966138 0.500000
#
# Coordination Sequence:
#
# PCOD9124742 Si02
#       6
#     2   4   2   4   4   4
#     4  10  22  42  63  76 123 160 190 264 322 346
#     4   9  18  36  57  82 125 158 183 235 304 353
#     4  12  22  40  65  86 113 160 216 252 312 366
#     4  10  21  41  61  84 120 169 192 250 319 359
#     4  11  21  36  64  93 124 164 204 241 301 378
#     4  10  21  38  59  86 121 156 197 251 300 359
#
# _framework density 20.731531
#
# number of rings (size 3 to 8) (size 9 to 14) (size 15 to 20)
#    0.600    1.200    1.000    5.400    0.000    0.000 
#    5.400    3.000    0.000    0.000    0.000    0.000 
#    0.000    0.000    0.000    0.000    0.000    0.000 
#
# Total GULP energy -55721.583163 kJ/mol
# GULP energy per Si atom -5572.158316 kJ/mol
# Density = 2.068434 g / cm^3
# Si number density = 20.731531 Si / 1000 Ang^3
#
#
#
# Elastic Constant Matrix: (Units=GPa)
#
#
# Indices 1 2 3 4 5 6 
#
# 1 161.1990 49.9885 35.9646 0.0000 19.1579 0.0000
# 2 49.9885 133.3707 34.6834 0.0000 11.7487 0.0000
# 3 35.9646 34.6834 58.8294 0.0000 7.4785 0.0000
# 4 0.0000 0.0000 0.0000 -1.0106 0.0000 15.6388
# 5 19.1579 11.7487 7.4785 0.0000 16.5800 0.0000
# 6 0.0000 0.0000 0.0000 15.6388 0.0000 22.5839
#
#
#
# Elastic Compliance Matrix: (Units=1/GPa)
#
#
# Indices 1 2 3 4 5 6 
#
# 1 0.008250 -0.001653 -0.003189 0.000000 -0.006923 0.000000
# 2 -0.001653 0.009466 -0.004201 0.000000 -0.002902 0.000000
# 3 -0.003189 -0.004201 0.021829 0.000000 -0.003185 0.000000
# 4 0.000000 0.000000 0.000000 -0.084459 0.000000 0.058485
# 5 -0.006923 -0.002902 -0.003185 0.000000 0.071807 0.000000
# 6 0.000000 0.000000 0.000000 0.058485 0.000000 0.003780
#
#
# Mechanical properties :
#
#
# Convention : Reuss Voigt Hill
#
# Bulk Modulus (GPa) = 46.60004 66.07466 56.33735
# Shear Modulus (GPa) = 89.42485 23.14816 56.28651
#
# Velocity S-wave (km/s) = 6.57483 3.34513 5.21624
# Velocity P-wave (km/s) = 8.95346 6.84548 7.96948
#
# Compressibility (1/GPa) = 0.02145921
#
# Stress axis : x y z
#
# Youngs Moduli (GPa) = 121.20491 105.64509 45.80966
#
# Poissons Ratio (x) = 0.17465 0.14609
# Poissons Ratio (y) = 0.20037 0.19245
# Poissons Ratio (z) = 0.38653 0.44381
#
# Static dielectric constant tensor:
#      x y z
#    x 1.745620 0.000000 -0.000280 
#    y 0.000000 1.763200 0.000000 
#    z -0.000280 0.000000 1.814140 
# 
# From -- ./inp_files/12504.got.cif
#   From: 2010.05.17/outbox.cif.g08.bks.cpg/sg5_7_cif.got.tgz:12504.got - 2010.06.03 18:56:24.
