data_PCOD9124165
_publ_section_title
;
Structure prediction by ZEFSAII (Michael W. Deem and Ramdas Pophale) SiO2 
 PCOD9124165
Probable space group: C 2
;
_chemical_formula_sum "Si O2"
_cell_formula_units_Z 24
_cell_length_a 9.567200
_cell_length_b 8.302234
_cell_length_c 21.669612
_cell_angle_alpha 90.000000
_cell_angle_beta 143.865591
_cell_angle_gamma 90.000000
_cell_volume 1014.958893
_symmetry_space_group_name_H-M "C 2"
_symmetry_group_IT_number 5
_symmetry_cell_setting 'monoclinic'
loop_
_space_group_symop_operation_xyz
x,y,z
-x,y,-z
1/2+x,1/2+y,z
1/2-x,1/2+y,-z
loop_
_atom_site_type_symbol
_atom_site_label
_atom_site_fract_x
_atom_site_fract_y
_atom_site_fract_z
Si Si1 0.697476 0.503740 0.335361
Si Si2 0.239669 0.369249 0.521204
Si Si3 0.476940 0.374960 0.846341
Si Si4 0.772026 0.693486 0.962594
Si Si5 0.486672 0.849580 0.234908
Si Si6 0.743966 0.059533 0.410222
O O1 0.638906 0.489756 0.386682
O O2 0.547334 0.388343 0.235994
O O3 0.638685 0.685850 0.295465
O O4 0.961212 0.427592 0.423405
O O5 0.363363 0.201839 0.586769
O O6 0.287244 0.402444 0.466984
O O7 0.593532 0.546092 0.904994
O O8 0.220176 0.354801 0.786666
O O9 0.638781 0.246108 0.938649
O O10 0.639285 0.834620 0.876347
O O11 0.000000 0.651484 0.000000
O O12 0.638180 0.005646 0.308032
O O13 0.000000 0.139411 0.500000
#
# Coordination Sequence:
#
# PCOD9124165 Si02
#       6
#     4   4   4   4   4   4
#     4  10  21  41  64  91 129 172 213 268 318 382
#     4  11  24  40  60  95 133 169 224 265 314 391
#     4  10  20  42  66  94 128 167 215 270 330 386
#     4   9  21  41  66  95 124 168 214 268 328 387
#     4  10  22  39  67  93 130 173 215 267 330 381
#     4  12  25  41  63  97 133 176 218 266 321 383
#
# _framework density 23.646276
#
# number of rings (size 3 to 8) (size 9 to 14) (size 15 to 20)
#    0.000    1.667    3.333    1.000    4.667    1.333 
#    0.000    7.500    0.000    0.000    0.000    0.000 
#    0.000    0.000    0.000    0.000    0.000    0.000 
#
# Total GULP energy -66806.043451 kJ/mol
# GULP energy per Si atom -5567.170288 kJ/mol
# Density = 2.359246 g / cm^3
# Si number density = 23.646276 Si / 1000 Ang^3
#
#
#
# Elastic Constant Matrix: (Units=GPa)
#
#
# Indices 1 2 3 4 5 6 
#
# 1 44.0184 12.4045 27.8295 0.0000 6.4567 0.0000
# 2 12.4045 104.6266 37.2915 0.0000 13.7703 0.0000
# 3 27.8295 37.2915 124.7961 -0.0001 -3.9124 0.0000
# 4 0.0000 0.0000 -0.0001 13.1728 0.0000 -7.3626
# 5 6.4567 13.7703 -3.9124 0.0000 22.5796 0.0000
# 6 0.0000 0.0000 0.0000 -7.3626 0.0000 18.5766
#
#
#
# Elastic Compliance Matrix: (Units=1/GPa)
#
#
# Indices 1 2 3 4 5 6 
#
# 1 0.028238 0.000266 -0.006671 0.000000 -0.009393 0.000000
# 2 0.000266 0.011972 -0.003889 0.000000 -0.008051 0.000000
# 3 -0.006671 -0.003889 0.010856 0.000000 0.006161 0.000000
# 4 0.000000 0.000000 0.000000 0.097516 0.000000 0.038649
# 5 -0.009393 -0.008051 0.006161 0.000000 0.052951 0.000000
# 6 0.000000 0.000000 0.000000 0.038649 0.000000 0.069149
#
#
# Mechanical properties :
#
#
# Convention : Reuss Voigt Hill
#
# Bulk Modulus (GPa) = 32.81072 47.61024 40.21048
# Shear Modulus (GPa) = 16.58755 23.92683 20.25719
#
# Velocity S-wave (km/s) = 2.65143 3.18443 2.93008
# Velocity P-wave (km/s) = 4.82486 5.80507 5.33751
#
# Compressibility (1/GPa) = 0.03047784
#
# Stress axis : x y z
#
# Youngs Moduli (GPa) = 35.41298 83.52729 92.11453
#
# Poissons Ratio (x) = -0.02222 0.61451
# Poissons Ratio (y) = -0.00942 0.35826
# Poissons Ratio (z) = 0.23624 0.32486
#
# Static dielectric constant tensor:
#      x y z
#    x 2.084880 0.000000 0.059430 
#    y 0.000000 1.938370 0.000000 
#    z 0.059430 0.000000 1.931270 
# 
# From -- ./inp_files/47894.got.cif
#   From: 2010.05.17/outbox.cif.g08.bks.cpg/sg5_24_cif.got.tgz:47894.got - 2010.06.03 18:56:24.
