data_PCOD9124102
_publ_section_title
;
Structure prediction by ZEFSAII (Michael W. Deem and Ramdas Pophale) SiO2 
 PCOD9124102
Probable space group: C 2
;
_chemical_formula_sum "Si O2"
_cell_formula_units_Z 28
_cell_length_a 5.287858
_cell_length_b 32.987107
_cell_length_c 7.956846
_cell_angle_alpha 90.000000
_cell_angle_beta 116.276200
_cell_angle_gamma 90.000000
_cell_volume 1244.508305
_symmetry_space_group_name_H-M "C 2"
_symmetry_group_IT_number 5
_symmetry_cell_setting 'monoclinic'
loop_
_space_group_symop_operation_xyz
x,y,z
-x,y,-z
1/2+x,1/2+y,z
1/2-x,1/2+y,-z
loop_
_atom_site_type_symbol
_atom_site_label
_atom_site_fract_x
_atom_site_fract_y
_atom_site_fract_z
Si Si1 0.833881 0.277360 0.120734
Si Si2 0.161808 0.986392 0.226021
Si Si3 0.239059 0.081249 0.302864
Si Si4 0.000000 0.137698 0.000000
Si Si5 0.338068 0.939375 0.773322
Si Si6 0.323556 0.850429 0.618147
Si Si7 0.500000 0.632861 0.500000
Si Si8 0.233589 0.191592 0.794905
O O1 0.841271 0.238590 0.246603
O O2 0.999326 0.316545 0.232180
O O3 0.500000 0.286556 0.000000
O O4 0.000000 0.264541 0.000000
O O5 0.459319 0.964381 0.290248
O O6 0.958146 0.961991 0.290314
O O7 0.201167 0.033556 0.276305
O O8 0.000000 0.984747 0.000000
O O9 0.500000 0.090047 0.500000
O O10 0.995098 0.101737 0.342347
O O11 0.240776 0.105196 0.126648
O O12 0.009924 0.168048 0.845639
O O13 0.304931 0.893257 0.707183
O O14 0.500000 0.939223 0.000000
O O15 0.500000 0.857157 0.500000
O O16 0.000000 0.836303 0.500000
O O17 0.741693 0.665635 0.626343
O O18 0.500000 0.190131 0.000000
#
# Coordination Sequence:
#
# PCOD9124102 Si02
#       8
#     4   4   4   2   4   4   2   4
#     4  11  24  45  73 101 133 183 229 276 338 417
#     4  10  22  42  66  97 129 178 227 283 329 400
#     4  11  23  38  61  94 131 175 226 275 341 392
#     4  10  20  42  62  90 130 168 232 276 332 400
#     4  10  23  44  70  93 133 179 227 268 335 405
#     4  12  26  44  68 107 141 176 218 285 347 402
#     4  10  24  40  60  98 128 174 228 282 340 388
#     4  10  21  41  66  92 131 177 229 272 343 400
#
# _framework density 22.498843999999998
#
# number of rings (size 3 to 8) (size 9 to 14) (size 15 to 20)
#    0.000    1.429    1.429    3.000    3.000    3.429 
#    0.000    0.714    0.000    0.000    0.000    0.000 
#    0.000    0.000    0.000    0.000    0.000    0.000 
#
# Total GULP energy -78114.064704 kJ/mol
# GULP energy per Si atom -5579.576050 kJ/mol
# Density = 2.244764 g / cm^3
# Si number density = 22.498844 Si / 1000 Ang^3
#
#
#
# Elastic Constant Matrix: (Units=GPa)
#
#
# Indices 1 2 3 4 5 6 
#
# 1 114.7577 47.1744 32.4365 0.0000 18.7357 0.0000
# 2 47.1744 195.0008 46.1626 0.0000 17.1973 0.0000
# 3 32.4365 46.1626 81.0298 0.0000 7.5412 0.0000
# 4 0.0000 0.0000 0.0000 12.3125 0.0000 10.3805
# 5 18.7357 17.1973 7.5412 0.0000 31.9591 0.0000
# 6 0.0000 0.0000 0.0000 10.3805 0.0000 16.5117
#
#
#
# Elastic Compliance Matrix: (Units=1/GPa)
#
#
# Indices 1 2 3 4 5 6 
#
# 1 0.011007 -0.001496 -0.003096 0.000000 -0.004917 0.000000
# 2 -0.001496 0.006324 -0.002831 0.000000 -0.001858 0.000000
# 3 -0.003096 -0.002831 0.015217 0.000000 -0.000252 0.000000
# 4 0.000000 0.000000 0.000000 0.172812 0.000000 -0.108642
# 5 -0.004917 -0.001858 -0.000252 0.000000 0.035232 0.000000
# 6 0.000000 0.000000 0.000000 -0.108642 0.000000 0.128863
#
#
# Mechanical properties :
#
#
# Convention : Reuss Voigt Hill
#
# Bulk Modulus (GPa) = 56.49317 71.37059 63.93188
# Shear Modulus (GPa) = 12.81386 29.82432 21.31909
#
# Velocity S-wave (km/s) = 2.38908 3.64482 3.08159
# Velocity P-wave (km/s) = 5.72487 7.03589 6.41396
#
# Compressibility (1/GPa) = 0.01770125
#
# Stress axis : x y z
#
# Youngs Moduli (GPa) = 90.85153 158.12310 65.71664
#
# Poissons Ratio (x) = 0.23659 0.20347
# Poissons Ratio (y) = 0.13593 0.18605
# Poissons Ratio (z) = 0.28129 0.44765
#
# Static dielectric constant tensor:
#      x y z
#    x 1.989290 0.000000 -0.072870 
#    y 0.000000 1.769720 0.000000 
#    z -0.072870 0.000000 1.935720 
# 
# From -- ./inp_files/13300.got.cif
#   From: 2010.05.17/outbox.cif.g08.bks.cpg/sg5_7_cif.got.tgz:13300.got - 2010.06.03 18:56:24.
