data_PCOD9124691
_publ_section_title
;
Structure prediction by ZEFSAII (Michael W. Deem and Ramdas Pophale) SiO2 
 PCOD9124691
Probable space group: C 2
;
_chemical_formula_sum "Si O2"
_cell_formula_units_Z 30
_cell_length_a 11.004858
_cell_length_b 22.324432
_cell_length_c 8.309452
_cell_angle_alpha 90.000000
_cell_angle_beta 45.031538
_cell_angle_gamma 90.000000
_cell_volume 1444.312497
_symmetry_space_group_name_H-M "C 2"
_symmetry_group_IT_number 5
_symmetry_cell_setting 'monoclinic'
loop_
_space_group_symop_operation_xyz
x,y,z
-x,y,-z
1/2+x,1/2+y,z
1/2-x,1/2+y,-z
loop_
_atom_site_type_symbol
_atom_site_label
_atom_site_fract_x
_atom_site_fract_y
_atom_site_fract_z
Si Si1 0.399804 0.977620 0.927756
Si Si2 0.742356 0.962158 0.458828
Si Si3 0.306038 0.743544 0.164520
Si Si4 0.381755 0.278810 0.978358
Si Si5 0.623364 0.348365 0.520189
Si Si6 0.954930 0.049718 0.722714
Si Si7 0.000000 0.129335 0.000000
Si Si8 0.820467 0.388822 0.759680
O O1 0.556481 0.992973 0.656813
O O2 0.334859 0.912749 0.927194
O O3 0.500000 0.975348 0.000000
O O4 0.235472 0.020560 0.095399
O O5 0.743135 0.898470 0.552176
O O6 0.780337 0.941172 0.241267
O O7 0.897097 0.000561 0.383183
O O8 0.218239 0.745208 0.070559
O O9 0.197300 0.786800 0.379358
O O10 0.500000 0.768890 0.000000
O O11 0.339023 0.674606 0.179912
O O12 0.505727 0.327451 0.777242
O O13 0.500000 0.245703 0.000000
O O14 0.246032 0.321979 0.190617
O O15 0.500000 0.375435 0.500000
O O16 0.000000 0.074279 0.500000
O O17 0.969252 0.093199 0.864443
O O18 0.000000 0.389634 0.500000
#
# Coordination Sequence:
#
# PCOD9124691 Si02
#       8
#     4   4   4   4   4   4   2   4
#     4  11  24  37  60  96 138 175 234 285 344 434
#     4  11  22  40  63 104 143 184 224 283 365 439
#     4   9  24  45  66  94 126 186 240 288 362 420
#     4  11  21  37  62  98 139 171 232 291 350 431
#     4  10  21  37  63  97 140 177 217 283 363 436
#     4  12  24  46  72 100 135 186 245 301 366 422
#     4  10  26  52  76  92 132 194 250 306 350 422
#     4  10  23  35  56  94 137 194 220 268 355 438
#
# _framework density 20.771128999999998
#
# number of rings (size 3 to 8) (size 9 to 14) (size 15 to 20)
#    0.400    1.067    2.667    2.000    7.467    0.000 
#    2.400    4.667    0.000    0.000    0.000    0.000 
#    0.000    0.000    0.000    0.000    0.000    0.000 
#
# Total GULP energy -83586.004454 kJ/mol
# GULP energy per Si atom -5572.400297 kJ/mol
# Density = 2.072385 g / cm^3
# Si number density = 20.771129 Si / 1000 Ang^3
#
#
#
# Elastic Constant Matrix: (Units=GPa)
#
#
# Indices 1 2 3 4 5 6 
#
# 1 141.7030 46.6598 28.6812 0.0000 -3.1065 0.0000
# 2 46.6598 69.7615 28.9878 0.0000 3.6682 0.0000
# 3 28.6812 28.9878 74.7038 0.0000 -8.2456 0.0000
# 4 0.0000 0.0000 0.0000 20.6526 0.0000 -2.0287
# 5 -3.1065 3.6682 -8.2456 0.0000 28.1495 0.0000
# 6 0.0000 0.0000 0.0000 -2.0287 0.0000 27.1803
#
#
#
# Elastic Compliance Matrix: (Units=1/GPa)
#
#
# Indices 1 2 3 4 5 6 
#
# 1 0.009219 -0.005766 -0.001144 0.000000 0.001434 0.000000
# 2 -0.005766 0.021218 -0.006609 0.000000 -0.005337 0.000000
# 3 -0.001144 -0.006609 0.017021 0.000000 0.005721 0.000000
# 4 0.000000 0.000000 0.000000 0.048778 0.000000 0.003641
# 5 0.001434 -0.005337 0.005721 0.000000 0.038054 0.000000
# 6 0.000000 0.000000 0.000000 0.003641 0.000000 0.037063
#
#
# Mechanical properties :
#
#
# Convention : Reuss Voigt Hill
#
# Bulk Modulus (GPa) = 48.96923 54.98065 51.97494
# Shear Modulus (GPa) = 24.36698 27.31912 25.84305
#
# Velocity S-wave (km/s) = 3.42880 3.63056 3.53112
# Velocity P-wave (km/s) = 6.26916 6.64092 6.45772
#
# Compressibility (1/GPa) = 0.02042099
#
# Stress axis : x y z
#
# Youngs Moduli (GPa) = 108.47712 47.13018 58.75057
#
# Poissons Ratio (x) = 0.27175 0.06719
# Poissons Ratio (y) = 0.62548 0.38826
# Poissons Ratio (z) = 0.12406 0.31147
#
# Static dielectric constant tensor:
#      x y z
#    x 1.860490 0.000000 0.014220 
#    y 0.000000 1.700030 0.000000 
#    z 0.014220 0.000000 1.843870 
# 
# From -- ./inp_files/22135.got.cif
#   From: 2010.05.17/outbox.cif.g08.bks.cpg/sg5_12_cif.got.tgz:22135.got - 2010.06.03 18:56:24.
