data_PCOD9124343
_publ_section_title
;
Structure prediction by ZEFSAII (Michael W. Deem and Ramdas Pophale) SiO2 
 PCOD9124343
Probable space group: C 2
;
_chemical_formula_sum "Si O2"
_cell_formula_units_Z 28
_cell_length_a 17.249271
_cell_length_b 6.671510
_cell_length_c 12.296606
_cell_angle_alpha 90.000000
_cell_angle_beta 118.717147
_cell_angle_gamma 90.000000
_cell_volume 1241.026142
_symmetry_space_group_name_H-M "C 2"
_symmetry_group_IT_number 5
_symmetry_cell_setting 'monoclinic'
loop_
_space_group_symop_operation_xyz
x,y,z
-x,y,-z
1/2+x,1/2+y,z
1/2-x,1/2+y,-z
loop_
_atom_site_type_symbol
_atom_site_label
_atom_site_fract_x
_atom_site_fract_y
_atom_site_fract_z
Si Si1 0.824211 0.496170 0.641582
Si Si2 0.500000 0.564403 0.000000
Si Si3 0.406836 0.526094 0.261620
Si Si4 0.250610 0.754446 0.231403
Si Si5 0.877586 0.752296 0.043984
Si Si6 0.197545 0.636469 0.613076
Si Si7 0.508664 0.864499 0.824094
Si Si8 0.000000 0.807558 0.500000
O O1 0.816332 0.680425 0.720552
O O2 0.790911 0.538260 0.498254
O O3 0.765821 0.319835 0.654385
O O4 0.927237 0.447198 0.701521
O O5 0.570313 0.418099 0.992209
O O6 0.466278 0.718861 0.886486
O O7 0.335954 0.612830 0.297498
O O8 0.369877 0.352002 0.157722
O O9 0.432047 0.717145 0.206803
O O10 0.489373 0.440780 0.384245
O O11 0.276532 0.980452 0.275795
O O12 0.211092 0.721462 0.084707
O O13 0.933685 0.547614 0.090278
O O14 0.093843 0.693054 0.557010
#
# Coordination Sequence:
#
# PCOD9124343 Si02
#       8
#     4   2   4   4   4   4   4   2
#     4  12  25  47  73 109 143 184 254 296 370 436
#     4  10  20  44  68 106 136 182 240 300 364 426
#     4  11  29  45  71 107 146 196 247 305 362 452
#     4  12  27  46  74 106 151 191 243 303 373 433
#     4  11  25  46  71 109 146 190 249 298 370 447
#     4  12  28  46  74 108 144 196 239 315 363 441
#     4  11  25  43  77 104 145 197 238 309 371 434
#     4  12  28  52  72 104 154 190 254 300 384 436
#
# _framework density 22.561975
#
# number of rings (size 3 to 8) (size 9 to 14) (size 15 to 20)
#    0.000    0.571    2.857    3.857   10.000    3.429 
#    0.000    0.000    0.000    0.000    0.000    0.000 
#    0.000    0.000    0.000    0.000    0.000    0.000 
#
# Total GULP energy -78291.308952 kJ/mol
# GULP energy per Si atom -5592.236354 kJ/mol
# Density = 2.251062 g / cm^3
# Si number density = 22.561975 Si / 1000 Ang^3
#
#
#
# Elastic Constant Matrix: (Units=GPa)
#
#
# Indices 1 2 3 4 5 6 
#
# 1 54.6410 34.1802 1.7083 0.0000 10.6085 0.0000
# 2 34.1802 131.7848 45.5419 0.0000 12.3622 0.0000
# 3 1.7083 45.5419 99.9412 0.0000 15.1443 0.0000
# 4 0.0000 0.0000 0.0000 39.9281 0.0000 -5.5952
# 5 10.6085 12.3622 15.1443 0.0000 39.3704 0.0000
# 6 0.0000 0.0000 0.0000 -5.5952 0.0000 35.4869
#
#
#
# Elastic Compliance Matrix: (Units=1/GPa)
#
#
# Indices 1 2 3 4 5 6 
#
# 1 0.023527 -0.006804 0.003542 0.000000 -0.005565 0.000000
# 2 -0.006804 0.011040 -0.004956 0.000000 0.000273 0.000000
# 3 0.003542 -0.004956 0.012862 0.000000 -0.004346 0.000000
# 4 0.000000 0.000000 0.000000 0.025611 0.000000 0.004038
# 5 -0.005565 0.000273 -0.004346 0.000000 0.028485 0.000000
# 6 0.000000 0.000000 0.000000 0.004038 0.000000 0.028816
#
#
# Mechanical properties :
#
#
# Convention : Reuss Voigt Hill
#
# Bulk Modulus (GPa) = 32.26532 49.91420 41.08976
# Shear Modulus (GPa) = 31.82512 36.61953 34.22232
#
# Velocity S-wave (km/s) = 3.75982 4.03310 3.89886
# Velocity P-wave (km/s) = 5.76022 6.62261 6.20641
#
# Compressibility (1/GPa) = 0.03099303
#
# Stress axis : x y z
#
# Youngs Moduli (GPa) = 42.50396 90.58123 77.74740
#
# Poissons Ratio (x) = 0.61631 -0.27536
# Poissons Ratio (y) = 0.28920 0.38530
# Poissons Ratio (z) = -0.15053 0.44890
#
# Static dielectric constant tensor:
#      x y z
#    x 1.821740 0.000000 -0.018140 
#    y 0.000000 1.836550 0.000000 
#    z -0.018140 0.000000 1.847700 
# 
# From -- ./inp_files/45620.got.cif
#   From: 2010.05.17/outbox.cif.g08.bks.cpg/sg5_23_cif.got.tgz:45620.got - 2010.06.03 18:56:24.
