data_PCOD9124129
_publ_section_title
;
Structure prediction by ZEFSAII (Michael W. Deem and Ramdas Pophale) SiO2 
 PCOD9124129
Probable space group: C 2
;
_chemical_formula_sum "Si O2"
_cell_formula_units_Z 30
_cell_length_a 14.203063
_cell_length_b 8.262773
_cell_length_c 10.924298
_cell_angle_alpha 90.000000
_cell_angle_beta 70.871308
_cell_angle_gamma 90.000000
_cell_volume 1211.251513
_symmetry_space_group_name_H-M "C 2"
_symmetry_group_IT_number 5
_symmetry_cell_setting 'monoclinic'
loop_
_space_group_symop_operation_xyz
x,y,z
-x,y,-z
1/2+x,1/2+y,z
1/2-x,1/2+y,-z
loop_
_atom_site_type_symbol
_atom_site_label
_atom_site_fract_x
_atom_site_fract_y
_atom_site_fract_z
Si Si1 0.000000 0.260921 0.500000
Si Si2 0.612296 0.377464 0.876519
Si Si3 0.355403 0.549666 0.908673
Si Si4 0.633160 0.528749 0.615642
Si Si5 0.321085 0.760155 0.712283
Si Si6 0.857923 0.395615 0.019650
Si Si7 0.036610 0.536411 0.805329
Si Si8 0.174675 0.662296 0.558104
O O1 0.065040 0.148084 0.565188
O O2 0.087580 0.353291 0.389874
O O3 0.595834 0.500445 0.770418
O O4 0.734699 0.351923 0.824268
O O5 0.566090 0.207223 0.854934
O O6 0.587797 0.427379 0.025909
O O7 0.378437 0.623544 0.766606
O O8 0.351378 0.709487 0.991576
O O9 0.248104 0.476158 0.930237
O O10 0.748477 0.590705 0.572925
O O11 0.638170 0.346977 0.554195
O O12 0.251952 0.676999 0.639421
O O13 0.924083 0.487861 0.887346
O O14 0.905793 0.409974 0.133457
O O15 0.084094 0.553700 0.649998
#
# Coordination Sequence:
#
# PCOD9124129 Si02
#       8
#     2   4   4   4   4   4   4   4
#     4  10  20  42  64  90 124 160 226 254 304 378
#     4  10  21  44  62  92 132 165 211 257 328 369
#     4  12  21  41  63  96 125 166 209 257 318 395
#     4   9  20  39  63  89 119 167 202 263 311 374
#     4   9  19  39  64  88 123 167 200 258 319 357
#     4  11  21  39  61  88 128 165 209 250 321 375
#     4   9  20  42  58  86 125 171 203 266 309 374
#     4   9  18  40  63  83 125 161 208 254 320 363
#
# _framework density 24.767769999999999
#
# number of rings (size 3 to 8) (size 9 to 14) (size 15 to 20)
#    0.000    2.400    4.000    0.000    0.000    1.067 
#   26.400    0.000    0.000    0.000    0.000    0.000 
#    0.000    0.000    0.000    0.000    0.000    0.000 
#
# Total GULP energy -83696.932802 kJ/mol
# GULP energy per Si atom -5579.795520 kJ/mol
# Density = 2.471140 g / cm^3
# Si number density = 24.767770 Si / 1000 Ang^3
#
#
#
# Elastic Constant Matrix: (Units=GPa)
#
#
# Indices 1 2 3 4 5 6 
#
# 1 59.8774 3.1773 -11.4731 0.0000 4.6213 0.0000
# 2 3.1773 54.1929 -12.1883 0.0000 -2.3997 0.0000
# 3 -11.4731 -12.1883 52.2973 0.0000 -16.2633 0.0000
# 4 0.0000 0.0000 0.0000 28.5934 0.0000 -35.0281
# 5 4.6213 -2.3997 -16.2633 0.0000 41.0630 0.0000
# 6 0.0000 0.0000 0.0000 -35.0281 0.0000 -183.9845
#
#
#
# Elastic Compliance Matrix: (Units=1/GPa)
#
#
# Indices 1 2 3 4 5 6 
#
# 1 0.017446 -0.000237 0.003601 0.000000 -0.000551 0.000000
# 2 -0.000237 0.019889 0.005649 0.000000 0.003426 0.000000
# 3 0.003601 0.005649 0.024183 0.000000 0.009503 0.000000
# 4 0.000000 0.000000 0.000000 0.028359 0.000000 -0.005399
# 5 -0.000551 0.003426 0.009503 0.000000 0.028379 0.000000
# 6 0.000000 0.000000 0.000000 -0.005399 0.000000 -0.004407
#
#
# Mechanical properties :
#
#
# Convention : Reuss Voigt Hill
#
# Bulk Modulus (GPa) = 12.57218 13.93326 13.25272
# Shear Modulus (GPa) = 40.87039 -10.40884 15.23077
#
# Velocity S-wave (km/s) = 4.06660 -2.05224 2.48250
# Velocity P-wave (km/s) = 5.20929 0.14892 3.68503
#
# Compressibility (1/GPa) = 0.07954070
#
# Stress axis : x y z
#
# Youngs Moduli (GPa) = 57.32030 50.27991 41.35150
#
# Poissons Ratio (x) = 0.01194 -0.14889
# Poissons Ratio (y) = 0.01361 -0.23358
# Poissons Ratio (z) = -0.20638 -0.28401
#
# Static dielectric constant tensor:
#      x y z
#    x 2.389910 0.000000 -0.356850 
#    y 0.000000 1.949930 0.000000 
#    z -0.356850 0.000000 2.433840 
# 
# From -- ./inp_files/41941.got.cif
#   From: 2010.05.17/outbox.cif.g08.bks.cpg/sg5_21_cif.got.tgz:41941.got - 2010.06.03 18:56:24.
