data_PCOD9124047
_publ_section_title
;
Structure prediction by ZEFSAII (Michael W. Deem and Ramdas Pophale) SiO2 
 PCOD9124047
Probable space group: C 2
;
_chemical_formula_sum "Si O2"
_cell_formula_units_Z 28
_cell_length_a 13.238246
_cell_length_b 10.515189
_cell_length_c 10.080962
_cell_angle_alpha 90.000000
_cell_angle_beta 63.241926
_cell_angle_gamma 90.000000
_cell_volume 1253.025397
_symmetry_space_group_name_H-M "C 2"
_symmetry_group_IT_number 5
_symmetry_cell_setting 'monoclinic'
loop_
_space_group_symop_operation_xyz
x,y,z
-x,y,-z
1/2+x,1/2+y,z
1/2-x,1/2+y,-z
loop_
_atom_site_type_symbol
_atom_site_label
_atom_site_fract_x
_atom_site_fract_y
_atom_site_fract_z
Si Si1 0.132371 0.768230 0.388154
Si Si2 0.366534 0.994550 0.567327
Si Si3 0.450678 0.858510 0.881161
Si Si4 0.113445 0.578519 0.739941
Si Si5 0.844354 0.858397 0.335988
Si Si6 0.234418 0.955655 0.120047
Si Si7 0.513367 0.581636 0.151233
O O1 0.161559 0.623328 0.337212
O O2 0.181924 0.824877 0.494758
O O3 0.165536 0.855783 0.248720
O O4 0.000000 0.766804 0.500000
O O5 0.500000 0.963285 0.500000
O O6 0.338590 0.041695 0.433378
O O7 0.277975 0.886255 0.655697
O O8 0.501720 0.991941 0.804583
O O9 0.494860 0.727583 0.790327
O O10 0.500000 0.845863 0.000000
O O11 0.317541 0.878782 0.973871
O O12 0.098526 0.729938 0.753382
O O13 0.189478 0.533644 0.818519
O O14 0.924841 0.981121 0.267395
O O15 0.141451 0.040250 0.104554
O O16 0.500000 0.578193 0.000000
#
# Coordination Sequence:
#
# PCOD9124047 Si02
#       7
#     4   4   4   4   4   4   4
#     4  10  20  41  67  98 127 177 214 266 348 395
#     4  10  23  38  64  98 134 170 215 272 335 392
#     4   9  23  43  65  92 133 183 219 266 339 395
#     4  10  23  42  63  96 133 175 217 268 337 391
#     4  11  23  41  69 101 131 165 228 285 317 400
#     4  11  22  43  70  91 135 178 222 266 335 404
#     4  11  26  41  65 102 126 176 227 279 326 389
#
# _framework density 22.345915999999999
#
# number of rings (size 3 to 8) (size 9 to 14) (size 15 to 20)
#    0.000    1.714    2.857    0.000    6.000    6.286 
#    0.000    0.714    0.000    0.000    0.000    0.000 
#    0.000    0.000    0.000    0.000    0.000    0.000 
#
# Total GULP energy -78139.354341 kJ/mol
# GULP energy per Si atom -5581.382453 kJ/mol
# Density = 2.229506 g / cm^3
# Si number density = 22.345916 Si / 1000 Ang^3
#
#
#
# Elastic Constant Matrix: (Units=GPa)
#
#
# Indices 1 2 3 4 5 6 
#
# 1 105.2883 44.5166 13.4916 0.0000 -0.3269 0.0000
# 2 44.5166 167.5221 36.3518 0.0000 -21.9497 0.0000
# 3 13.4916 36.3518 35.8015 0.0000 1.0623 0.0000
# 4 0.0000 0.0000 0.0000 25.8119 0.0000 -7.7016
# 5 -0.3269 -21.9497 1.0623 0.0000 28.5974 0.0000
# 6 0.0000 0.0000 0.0000 -7.7016 0.0000 17.0598
#
#
#
# Elastic Compliance Matrix: (Units=1/GPa)
#
#
# Indices 1 2 3 4 5 6 
#
# 1 0.010866 -0.002932 -0.001056 0.000000 -0.002087 0.000000
# 2 -0.002932 0.009716 -0.008991 0.000000 0.007758 0.000000
# 3 -0.001056 -0.008991 0.037705 0.000000 -0.008313 0.000000
# 4 0.000000 0.000000 0.000000 0.044773 0.000000 0.020213
# 5 -0.002087 0.007758 -0.008313 0.000000 0.041208 0.000000
# 6 0.000000 0.000000 0.000000 0.020213 0.000000 0.067742
#
#
# Mechanical properties :
#
#
# Convention : Reuss Voigt Hill
#
# Bulk Modulus (GPa) = 30.93066 55.25909 43.09488
# Shear Modulus (GPa) = 20.10104 28.57729 24.33916
#
# Velocity S-wave (km/s) = 3.00249 3.57999 3.30388
# Velocity P-wave (km/s) = 5.08839 6.47079 5.82077
#
# Compressibility (1/GPa) = 0.03233038
#
# Stress axis : x y z
#
# Youngs Moduli (GPa) = 92.02887 102.92480 26.52150
#
# Poissons Ratio (x) = 0.30175 0.02801
# Poissons Ratio (y) = 0.26981 0.23844
# Poissons Ratio (z) = 0.09719 0.92535
#
# Static dielectric constant tensor:
#      x y z
#    x 1.889670 0.000000 0.043690 
#    y 0.000000 1.859250 0.000000 
#    z 0.043690 0.000000 1.861680 
# 
# From -- ./inp_files/41890.got.cif
#   From: 2010.05.17/outbox.cif.g08.bks.cpg/sg5_21_cif.got.tgz:41890.got - 2010.06.03 18:56:24.
