data_PCOD9124624
_publ_section_title
;
Structure prediction by ZEFSAII (Michael W. Deem and Ramdas Pophale) SiO2 
 PCOD9124624
Probable space group: C 2
;
_chemical_formula_sum "Si O2"
_cell_formula_units_Z 28
_cell_length_a 13.527240
_cell_length_b 8.496100
_cell_length_c 17.901013
_cell_angle_alpha 90.000000
_cell_angle_beta 40.958829
_cell_angle_gamma 90.000000
_cell_volume 1348.621499
_symmetry_space_group_name_H-M "C 2"
_symmetry_group_IT_number 5
_symmetry_cell_setting 'monoclinic'
loop_
_space_group_symop_operation_xyz
x,y,z
-x,y,-z
1/2+x,1/2+y,z
1/2-x,1/2+y,-z
loop_
_atom_site_type_symbol
_atom_site_label
_atom_site_fract_x
_atom_site_fract_y
_atom_site_fract_z
Si Si1 0.145211 0.127790 0.669991
Si Si2 0.328134 0.099401 0.122330
Si Si3 0.033333 0.622038 0.568292
Si Si4 0.753006 0.126223 0.078635
Si Si5 0.896811 0.362472 0.749478
Si Si6 0.393210 0.445215 0.873875
Si Si7 0.751375 0.787935 0.763220
O O1 0.286269 0.118845 0.533338
O O2 0.196251 0.206565 0.719110
O O3 0.021047 0.239479 0.704253
O O4 0.056266 0.968779 0.743253
O O5 0.252620 0.264948 0.185963
O O6 0.230691 0.028216 0.109180
O O7 0.303784 0.966543 0.199273
O O8 0.500000 0.114462 0.000000
O O9 0.961160 0.469516 0.647179
O O10 0.934560 0.766156 0.658505
O O11 0.000000 0.620403 0.500000
O O12 0.663859 0.266428 0.087417
O O13 0.801464 0.199104 0.130959
O O14 0.643000 0.982104 0.161175
O O15 0.882857 0.047937 0.955021
#
# Coordination Sequence:
#
# PCOD9124624 Si02
#       7
#     4   4   4   4   4   4   4
#     4  10  21  38  65  88 119 160 205 251 305 362
#     4  10  22  38  60  89 126 156 199 251 304 369
#     4   9  20  43  58  83 120 160 204 249 302 362
#     4  10  21  40  57  84 128 156 199 254 306 366
#     4  10  22  40  59  90 121 155 209 253 300 364
#     4  10  21  37  58  88 122 156 203 246 306 365
#     4   9  21  39  63  85 122 161 200 246 311 361
#
# _framework density 20.761941
#
# number of rings (size 3 to 8) (size 9 to 14) (size 15 to 20)
#    0.000    2.286    0.000    1.714    6.000    4.571 
#   15.429    3.571    0.000    0.000    0.000    0.000 
#    0.000    0.000    0.000    0.000    0.000    0.000 
#
# Total GULP energy -78114.148652 kJ/mol
# GULP energy per Si atom -5579.582047 kJ/mol
# Density = 2.071469 g / cm^3
# Si number density = 20.761941 Si / 1000 Ang^3
#
#
#
# Elastic Constant Matrix: (Units=GPa)
#
#
# Indices 1 2 3 4 5 6 
#
# 1 30.8472 2.8972 24.1760 0.0000 -7.0111 0.0000
# 2 2.8972 114.1239 59.0404 0.0000 -16.7964 0.0000
# 3 24.1760 59.0404 139.8253 0.0000 -28.4936 0.0000
# 4 0.0000 0.0000 0.0000 26.9919 0.0000 4.4711
# 5 -7.0111 -16.7964 -28.4936 0.0000 37.5241 0.0000
# 6 0.0000 0.0000 0.0000 4.4711 0.0000 16.1071
#
#
#
# Elastic Compliance Matrix: (Units=1/GPa)
#
#
# Indices 1 2 3 4 5 6 
#
# 1 0.038650 0.003330 -0.007469 0.000000 0.003040 0.000000
# 2 0.003330 0.011589 -0.005070 0.000000 0.001960 0.000000
# 3 -0.007469 -0.005070 0.011638 0.000000 0.005172 0.000000
# 4 0.000000 0.000000 0.000000 0.038834 0.000000 -0.010780
# 5 0.003040 0.001960 0.005172 0.000000 0.032023 0.000000
# 6 0.000000 0.000000 0.000000 -0.010780 0.000000 0.065077
#
#
# Mechanical properties :
#
#
# Convention : Reuss Voigt Hill
#
# Bulk Modulus (GPa) = 23.00984 50.78039 36.89512
# Shear Modulus (GPa) = 21.67181 29.37012 25.52096
#
# Velocity S-wave (km/s) = 3.23433 3.76522 3.50982
# Velocity P-wave (km/s) = 5.00546 6.58893 5.85101
#
# Compressibility (1/GPa) = 0.04345967
#
# Stress axis : x y z
#
# Youngs Moduli (GPa) = 25.87319 86.28753 85.92562
#
# Poissons Ratio (x) = -0.28738 0.64181
# Poissons Ratio (y) = -0.08617 0.43563
# Poissons Ratio (z) = 0.19326 0.43747
#
# Static dielectric constant tensor:
#      x y z
#    x 1.774320 0.000000 -0.022130 
#    y 0.000000 1.775450 0.000000 
#    z -0.022130 0.000000 1.793300 
# 
# From -- ./inp_files/65787.got.cif
#   From: 2010.05.17/outbox.cif.g08.bks.cpg/sg5_33_cif.got.tgz:65787.got - 2010.06.03 18:56:24.
