data_PCOD9124880
_publ_section_title
;
Structure prediction by ZEFSAII (Michael W. Deem and Ramdas Pophale) SiO2 
 PCOD9124880
Probable space group: C 2
;
_chemical_formula_sum "Si O2"
_cell_formula_units_Z 28
_cell_length_a 7.012868
_cell_length_b 29.370110
_cell_length_c 5.808077
_cell_angle_alpha 90.000000
_cell_angle_beta 105.239601
_cell_angle_gamma 90.000000
_cell_volume 1154.214892
_symmetry_space_group_name_H-M "C 2"
_symmetry_group_IT_number 5
_symmetry_cell_setting 'monoclinic'
loop_
_space_group_symop_operation_xyz
x,y,z
-x,y,-z
1/2+x,1/2+y,z
1/2-x,1/2+y,-z
loop_
_atom_site_type_symbol
_atom_site_label
_atom_site_fract_x
_atom_site_fract_y
_atom_site_fract_z
Si Si1 0.280292 0.744560 0.920114
Si Si2 0.720421 0.962098 0.461144
Si Si3 0.186685 0.877215 0.225723
Si Si4 0.000000 0.585757 0.000000
Si Si5 0.237954 0.277340 0.579771
Si Si6 0.276753 0.060000 0.531306
Si Si7 0.000000 0.419198 0.000000
Si Si8 0.199402 0.648642 0.695142
O O1 0.188247 0.766306 0.658248
O O2 0.299319 0.692322 0.837623
O O3 0.500000 0.765191 0.000000
O O4 0.199826 0.751004 0.158512
O O5 0.500000 0.963529 0.500000
O O6 0.832188 0.920426 0.613145
O O7 0.812210 0.011221 0.554590
O O8 0.665449 0.949735 0.180996
O O9 0.217279 0.829997 0.363837
O O10 0.383858 0.887757 0.141838
O O11 0.000000 0.873473 0.000000
O O12 0.120817 0.618946 0.877697
O O13 0.831205 0.558175 0.816439
O O14 0.000000 0.268681 0.500000
O O15 0.500000 0.060453 0.500000
O O16 0.194786 0.109381 0.427869
O O17 0.000000 0.664523 0.500000
#
# Coordination Sequence:
#
# PCOD9124880 Si02
#       8
#     4   4   4   2   4   4   2   4
#     4  10  23  40  63  86 119 163 209 259 320 391
#     4   9  18  35  59  88 120 161 210 259 320 381
#     4  11  25  41  63  94 128 163 214 267 325 392
#     4   8  15  28  52  84 118 152 202 252 307 374
#     4  10  23  42  65  87 120 165 215 264 325 388
#     4   8  15  29  52  82 115 155 203 250 308 377
#     4  10  21  38  68  88 126 168 210 262 323 384
#     4   9  19  32  55  83 121 153 203 257 312 373
#
# _framework density 24.258914999999998
#
# number of rings (size 3 to 8) (size 9 to 14) (size 15 to 20)
#    0.000    2.857    0.000    1.714    9.000    2.857 
#    0.000    0.714    0.000    1.714    0.000    0.000 
#    0.000    0.000    0.000    0.000    0.000    0.000 
#
# Total GULP energy -78002.685152 kJ/mol
# GULP energy per Si atom -5571.620368 kJ/mol
# Density = 2.420370 g / cm^3
# Si number density = 24.258915 Si / 1000 Ang^3
#
#
#
# Elastic Constant Matrix: (Units=GPa)
#
#
# Indices 1 2 3 4 5 6 
#
# 1 61.7960 1.4345 21.3837 0.0000 -4.3513 0.0000
# 2 1.4345 185.4892 75.9005 0.0000 -6.1359 0.0000
# 3 21.3837 75.9005 159.7018 0.0000 -7.2105 0.0000
# 4 0.0000 0.0000 0.0000 15.8593 0.0000 17.9685
# 5 -4.3513 -6.1359 -7.2105 0.0000 34.1728 0.0000
# 6 0.0000 0.0000 0.0000 17.9685 0.0000 -12.8847
#
#
#
# Elastic Compliance Matrix: (Units=1/GPa)
#
#
# Indices 1 2 3 4 5 6 
#
# 1 0.017226 0.001039 -0.002719 0.000000 0.001806 0.000000
# 2 0.001039 0.006765 -0.003325 0.000000 0.000645 0.000000
# 3 -0.002719 -0.003325 0.008242 0.000000 0.000796 0.000000
# 4 0.000000 0.000000 0.000000 0.024439 0.000000 0.034082
# 5 0.001806 0.000645 0.000796 0.000000 0.029777 0.000000
# 6 0.000000 0.000000 0.000000 0.034082 0.000000 -0.030082
#
#
# Mechanical properties :
#
#
# Convention : Reuss Voigt Hill
#
# Bulk Modulus (GPa) = 44.99775 67.15827 56.07801
# Shear Modulus (GPa) = 67.76380 27.98069 47.87224
#
# Velocity S-wave (km/s) = 5.29096 3.39989 4.44710
# Velocity P-wave (km/s) = 7.47762 6.56935 7.03815
#
# Compressibility (1/GPa) = 0.02222333
#
# Stress axis : x y z
#
# Youngs Moduli (GPa) = 58.05125 147.81740 121.32996
#
# Poissons Ratio (x) = -0.15359 0.32987
# Poissons Ratio (y) = -0.06032 0.40345
# Poissons Ratio (z) = 0.15783 0.49152
#
# Static dielectric constant tensor:
#      x y z
#    x 1.967980 0.000000 -0.089460 
#    y 0.000000 1.968890 0.000000 
#    z -0.089460 0.000000 1.990090 
# 
# From -- ./inp_files/4010.got.cif
#   From: 2010.05.17/outbox.cif.g08.bks.cpg/sg5_3_cif.got.tgz:4010.got - 2010.06.03 18:56:24.
