data_PCOD9124667
_publ_section_title
;
Structure prediction by ZEFSAII (Michael W. Deem and Ramdas Pophale) SiO2 
 PCOD9124667
Probable space group: C 2
;
_chemical_formula_sum "Si O2"
_cell_formula_units_Z 28
_cell_length_a 24.209421
_cell_length_b 7.173099
_cell_length_c 8.605376
_cell_angle_alpha 90.000000
_cell_angle_beta 68.747860
_cell_angle_gamma 90.000000
_cell_volume 1392.753792
_symmetry_space_group_name_H-M "C 2"
_symmetry_group_IT_number 5
_symmetry_cell_setting 'monoclinic'
loop_
_space_group_symop_operation_xyz
x,y,z
-x,y,-z
1/2+x,1/2+y,z
1/2-x,1/2+y,-z
loop_
_atom_site_type_symbol
_atom_site_label
_atom_site_fract_x
_atom_site_fract_y
_atom_site_fract_z
Si Si1 0.560575 0.362080 0.524520
Si Si2 0.830261 0.551014 0.091338
Si Si3 0.074988 0.292233 0.581984
Si Si4 0.860014 0.562218 0.700740
Si Si5 0.742208 0.363786 0.689605
Si Si6 0.191698 0.227307 0.667169
Si Si7 0.948555 0.605721 0.173996
O O1 0.500000 0.306707 0.500000
O O2 0.559688 0.585390 0.542922
O O3 0.616614 0.265547 0.379289
O O4 0.559134 0.270112 0.695097
O O5 0.780145 0.707100 0.170312
O O6 0.804803 0.358248 0.186291
O O7 0.887068 0.588553 0.143018
O O8 0.851304 0.549814 0.893186
O O9 0.090786 0.420539 0.418150
O O10 0.134130 0.269385 0.624539
O O11 0.036460 0.419749 0.738559
O O12 0.798649 0.485279 0.688741
O O13 0.756196 0.268370 0.509709
O O14 0.691373 0.514509 0.716818
O O15 0.000000 0.641150 0.000000
#
# Coordination Sequence:
#
# PCOD9124667 Si02
#       7
#     4   4   4   4   4   4   4
#     4  11  23  41  67  92 124 166 207 256 313 373
#     4  11  23  40  60  92 124 164 209 252 312 368
#     4   9  22  41  62  91 124 164 206 254 312 371
#     4  10  25  40  59  92 130 163 205 263 308 366
#     4  11  22  37  62  86 122 165 203 256 308 364
#     4  10  21  37  62  84 117 162 204 253 304 370
#     4  10  22  42  66  91 128 164 208 257 307 371
#
# _framework density 20.104054999999999
#
# number of rings (size 3 to 8) (size 9 to 14) (size 15 to 20)
#    0.000    1.714    1.429    2.571    4.000    5.143 
#    0.000    2.857    0.000    0.000    0.000    0.000 
#    0.000    0.000    0.000    0.000    0.000    0.000 
#
# Total GULP energy -78121.230968 kJ/mol
# GULP energy per Si atom -5580.087926 kJ/mol
# Density = 2.005830 g / cm^3
# Si number density = 20.104055 Si / 1000 Ang^3
#
#
#
# Elastic Constant Matrix: (Units=GPa)
#
#
# Indices 1 2 3 4 5 6 
#
# 1 42.2615 0.4240 15.0517 0.0000 5.8138 0.0000
# 2 0.4240 85.8683 30.9210 0.0000 9.5637 0.0000
# 3 15.0517 30.9210 148.2907 0.0000 12.2838 0.0000
# 4 0.0000 0.0000 0.0000 10.5275 0.0000 3.5425
# 5 5.8138 9.5637 12.2838 0.0000 22.1420 0.0000
# 6 0.0000 0.0000 0.0000 3.5425 0.0000 23.3362
#
#
#
# Elastic Compliance Matrix: (Units=1/GPa)
#
#
# Indices 1 2 3 4 5 6 
#
# 1 0.025307 0.001388 -0.002367 0.000000 -0.005931 0.000000
# 2 0.001388 0.013046 -0.002478 0.000000 -0.004625 0.000000
# 3 -0.002367 -0.002478 0.007715 0.000000 -0.002588 0.000000
# 4 0.000000 0.000000 0.000000 0.100103 0.000000 -0.015196
# 5 -0.005931 -0.004625 -0.002588 0.000000 0.050154 0.000000
# 6 0.000000 0.000000 0.000000 -0.015196 0.000000 0.045159
#
#
# Mechanical properties :
#
#
# Convention : Reuss Voigt Hill
#
# Bulk Modulus (GPa) = 25.53995 41.02377 33.28186
# Shear Modulus (GPa) = 19.12417 26.53605 22.83011
#
# Velocity S-wave (km/s) = 3.08760 3.63703 3.37352
# Velocity P-wave (km/s) = 5.04405 6.17150 5.63604
#
# Compressibility (1/GPa) = 0.03915435
#
# Stress axis : x y z
#
# Youngs Moduli (GPa) = 39.51451 76.64978 129.61974
#
# Poissons Ratio (x) = -0.10638 0.30678
# Poissons Ratio (y) = -0.05484 0.32122
# Poissons Ratio (z) = 0.09352 0.18995
#
# Static dielectric constant tensor:
#      x y z
#    x 1.731050 0.000000 -0.009290 
#    y 0.000000 1.726610 0.000000 
#    z -0.009290 0.000000 1.682300 
# 
# From -- ./inp_files/32232.got.cif
#   From: 2010.05.17/outbox.cif.g08.bks.cpg/sg5_17_cif.got.tgz:32232.got - 2010.06.03 18:56:24.
