data_PCOD9124501
_publ_section_title
;
Structure prediction by ZEFSAII (Michael W. Deem and Ramdas Pophale) SiO2 
 PCOD9124501
Probable space group: C 2
;
_chemical_formula_sum "Si O2"
_cell_formula_units_Z 26
_cell_length_a 10.801943
_cell_length_b 9.133885
_cell_length_c 23.789958
_cell_angle_alpha 90.000000
_cell_angle_beta 147.613948
_cell_angle_gamma 90.000000
_cell_volume 1257.213061
_symmetry_space_group_name_H-M "C 2"
_symmetry_group_IT_number 5
_symmetry_cell_setting 'monoclinic'
loop_
_space_group_symop_operation_xyz
x,y,z
-x,y,-z
1/2+x,1/2+y,z
1/2-x,1/2+y,-z
loop_
_atom_site_type_symbol
_atom_site_label
_atom_site_fract_x
_atom_site_fract_y
_atom_site_fract_z
Si Si1 0.725707 0.705840 0.265344
Si Si2 0.758702 0.899330 0.382825
Si Si3 0.236022 0.709592 0.123567
Si Si4 0.500000 0.746582 0.000000
Si Si5 0.361453 0.931070 0.850365
Si Si6 0.805651 0.370971 0.264227
Si Si7 0.503948 0.123222 0.202248
O O1 0.809083 0.769847 0.357003
O O2 0.449692 0.731808 0.164291
O O3 0.798796 0.813803 0.243038
O O4 0.773274 0.538841 0.269297
O O5 0.581258 0.844495 0.362792
O O6 0.000000 0.951699 0.500000
O O7 0.622191 0.026336 0.296280
O O8 0.224003 0.826322 0.169669
O O9 0.276737 0.549827 0.166314
O O10 0.000000 0.709370 0.000000
O O11 0.465061 0.849387 0.040994
O O12 0.733857 0.660994 0.104290
O O13 0.481140 0.028154 0.848909
O O14 0.661626 0.265720 0.250210
#
# Coordination Sequence:
#
# PCOD9124501 Si02
#       7
#     4   4   4   2   4   4   4
#     4  10  22  39  59  89 119 158 203 252 309 361
#     4  10  23  46  66  88 121 159 213 269 311 361
#     4  10  21  36  54  85 123 163 200 240 288 366
#     4  12  22  34  60  94 130 166 202 242 292 378
#     4  10  22  36  54  83 125 166 200 240 290 360
#     4  10  22  40  61  89 122 157 206 254 308 363
#     4  10  24  41  60  94 125 165 206 248 309 369
#
# _framework density 20.680665000000001
#
# number of rings (size 3 to 8) (size 9 to 14) (size 15 to 20)
#    0.000    1.846    0.769    1.846    4.308    2.462 
#   16.615    0.769    0.000    0.000    0.000    0.000 
#    0.000    0.000    0.000    0.000    0.000    0.000 
#
# Total GULP energy -72548.923091 kJ/mol
# GULP energy per Si atom -5580.686392 kJ/mol
# Density = 2.063360 g / cm^3
# Si number density = 20.680665 Si / 1000 Ang^3
#
#
#
# Elastic Constant Matrix: (Units=GPa)
#
#
# Indices 1 2 3 4 5 6 
#
# 1 59.7654 35.8346 38.7465 0.0000 7.6896 0.0000
# 2 35.8346 145.3393 39.4552 0.0000 -3.3890 0.0000
# 3 38.7465 39.4552 104.3832 0.0000 16.8385 0.0000
# 4 0.0000 0.0000 0.0000 21.4096 0.0000 -7.4240
# 5 7.6896 -3.3890 16.8385 0.0000 18.5643 0.0000
# 6 0.0000 0.0000 0.0000 -7.4240 0.0000 32.3206
#
#
#
# Elastic Compliance Matrix: (Units=1/GPa)
#
#
# Indices 1 2 3 4 5 6 
#
# 1 0.024192 -0.004292 -0.006577 0.000000 -0.004839 0.000000
# 2 -0.004292 0.008799 -0.002669 0.000000 0.005805 0.000000
# 3 -0.006577 -0.002669 0.014841 0.000000 -0.011224 0.000000
# 4 0.000000 0.000000 0.000000 0.050750 0.000000 0.011657
# 5 -0.004839 0.005805 -0.011224 0.000000 0.067111 0.000000
# 6 0.000000 0.000000 0.000000 0.011657 0.000000 0.033618
#
#
# Mechanical properties :
#
#
# Convention : Reuss Voigt Hill
#
# Bulk Modulus (GPa) = 48.18041 59.72893 53.95467
# Shear Modulus (GPa) = 21.43109 27.48901 24.46005
#
# Velocity S-wave (km/s) = 3.22263 3.64979 3.44284
# Velocity P-wave (km/s) = 6.09877 6.83415 6.47690
#
# Compressibility (1/GPa) = 0.02075533
#
# Stress axis : x y z
#
# Youngs Moduli (GPa) = 41.33573 113.65451 67.38140
#
# Poissons Ratio (x) = 0.48782 0.44318
# Poissons Ratio (y) = 0.17742 0.17984
# Poissons Ratio (z) = 0.27187 0.30334
#
# Static dielectric constant tensor:
#      x y z
#    x 1.787830 0.000000 -0.006580 
#    y 0.000000 1.801910 0.000000 
#    z -0.006580 0.000000 1.702520 
# 
# From -- ./inp_files/60198.got.cif
#   From: 2010.05.17/outbox.cif.g08.bks.cpg/sg5_31_cif.got.tgz:60198.got - 2010.06.03 18:56:24.
