data_PCOD9124450
_publ_section_title
;
Structure prediction by ZEFSAII (Michael W. Deem and Ramdas Pophale) SiO2 
 PCOD9124450
Probable space group: C 2
;
_chemical_formula_sum "Si O2"
_cell_formula_units_Z 32
_cell_length_a 10.670944
_cell_length_b 16.793826
_cell_length_c 7.730637
_cell_angle_alpha 90.000000
_cell_angle_beta 69.954577
_cell_angle_gamma 90.000000
_cell_volume 1301.451888
_symmetry_space_group_name_H-M "C 2"
_symmetry_group_IT_number 5
_symmetry_cell_setting 'monoclinic'
loop_
_space_group_symop_operation_xyz
x,y,z
-x,y,-z
1/2+x,1/2+y,z
1/2-x,1/2+y,-z
loop_
_atom_site_type_symbol
_atom_site_label
_atom_site_fract_x
_atom_site_fract_y
_atom_site_fract_z
Si Si1 0.011428 0.130290 0.787052
Si Si2 0.295887 0.914300 0.637744
Si Si3 0.103897 0.736927 0.589550
Si Si4 0.591766 0.188107 0.078791
Si Si5 0.888198 0.295924 0.325215
Si Si6 0.239439 0.336954 0.974371
Si Si7 0.482863 0.454603 0.801229
Si Si8 0.182267 0.594228 0.370963
O O1 0.006768 0.221751 0.716175
O O2 0.161449 0.104759 0.674927
O O3 0.941075 0.046074 0.763354
O O4 0.000000 0.138399 0.000000
O O5 0.385672 0.872368 0.449077
O O6 0.131761 0.921988 0.671378
O O7 0.345658 0.003259 0.628030
O O8 0.307854 0.875792 0.823318
O O9 0.248972 0.762417 0.471096
O O10 0.111155 0.641625 0.557371
O O11 0.000000 0.770066 0.500000
O O12 0.031540 0.746372 0.803654
O O13 0.709417 0.249817 0.990409
O O14 0.650566 0.138613 0.208030
O O15 0.500000 0.133866 0.000000
O O16 0.858898 0.320815 0.140724
O O17 0.359747 0.392956 0.841166
O O18 0.500000 0.462458 0.000000
#
# Coordination Sequence:
#
# PCOD9124450 Si02
#       8
#     4   4   4   4   4   4   4   4
#     4   9  17  35  61  81 117 171 200 233 307 378
#     4  10  21  34  55  84 123 156 198 249 298 367
#     4   9  16  32  56  81 118 146 181 240 306 368
#     4  11  19  32  60  95 119 153 195 253 319 368
#     4  11  20  33  60  89 117 163 199 242 311 356
#     4  11  19  34  59  95 120 144 198 261 305 353
#     4   8  16  30  55  88 120 155 189 247 313 351
#     4   9  19  37  55  82 122 160 194 249 310 360
#
# _framework density 24.587921999999999
#
# number of rings (size 3 to 8) (size 9 to 14) (size 15 to 20)
#    0.000    2.250    3.750    3.375    0.000    0.000 
#    2.250    0.000    8.250    6.000    0.000    0.000 
#    0.000    0.000    0.000    0.000    0.000    0.000 
#
# Total GULP energy -89074.402137 kJ/mol
# GULP energy per Si atom -5567.150134 kJ/mol
# Density = 2.453196 g / cm^3
# Si number density = 24.587922 Si / 1000 Ang^3
#
#
#
# Elastic Constant Matrix: (Units=GPa)
#
#
# Indices 1 2 3 4 5 6 
#
# 1 53.1090 21.8045 16.3448 0.0000 -5.1536 0.0000
# 2 21.8045 161.3252 22.5163 0.0000 5.8510 0.0000
# 3 16.3448 22.5163 77.2586 0.0000 -2.7960 0.0000
# 4 0.0000 0.0000 0.0000 5.5334 0.0000 -12.8591
# 5 -5.1536 5.8510 -2.7960 0.0000 37.7964 0.0000
# 6 0.0000 0.0000 0.0000 -12.8591 0.0000 8.9358
#
#
#
# Elastic Compliance Matrix: (Units=1/GPa)
#
#
# Indices 1 2 3 4 5 6 
#
# 1 0.021265 -0.002471 -0.003670 0.000000 0.003011 0.000000
# 2 -0.002471 0.006798 -0.001513 0.000000 -0.001501 0.000000
# 3 -0.003670 -0.001513 0.014189 0.000000 0.000783 0.000000
# 4 0.000000 0.000000 0.000000 -0.077091 0.000000 -0.110938
# 5 0.003011 -0.001501 0.000783 0.000000 0.027158 0.000000
# 6 0.000000 0.000000 0.000000 -0.110938 0.000000 -0.047737
#
#
# Mechanical properties :
#
#
# Convention : Reuss Voigt Hill
#
# Bulk Modulus (GPa) = 37.11228 45.89156 41.50192
# Shear Modulus (GPa) = -160.62825 25.85493 -67.38666
#
# Velocity S-wave (km/s) = -8.09135 3.24625 -5.24079
# Velocity P-wave (km/s) = 8.49510 5.72325 4.43910
#
# Compressibility (1/GPa) = 0.02694526
#
# Stress axis : x y z
#
# Youngs Moduli (GPa) = 47.02498 147.09658 70.47631
#
# Poissons Ratio (x) = 0.36350 0.25863
# Poissons Ratio (y) = 0.11621 0.10662
# Poissons Ratio (z) = 0.17257 0.22253
#
# Static dielectric constant tensor:
#      x y z
#    x 2.616290 0.000000 0.382030 
#    y 0.000000 2.106710 0.000000 
#    z 0.382030 0.000000 2.246090 
# 
# From -- ./inp_files/24612.got.cif
#   From: 2010.05.17/outbox.cif.g08.bks.cpg/sg5_13_cif.got.tgz:24612.got - 2010.06.03 18:56:24.
