data_PCOD9124080
_publ_section_title
;
Structure prediction by ZEFSAII (Michael W. Deem and Ramdas Pophale) SiO2 
 PCOD9124080
Probable space group: C 2
;
_chemical_formula_sum "Si O2"
_cell_formula_units_Z 30
_cell_length_a 11.320214
_cell_length_b 11.110596
_cell_length_c 19.140808
_cell_angle_alpha 90.000000
_cell_angle_beta 147.821863
_cell_angle_gamma 90.000000
_cell_volume 1282.080744
_symmetry_space_group_name_H-M "C 2"
_symmetry_group_IT_number 5
_symmetry_cell_setting 'monoclinic'
loop_
_space_group_symop_operation_xyz
x,y,z
-x,y,-z
1/2+x,1/2+y,z
1/2-x,1/2+y,-z
loop_
_atom_site_type_symbol
_atom_site_label
_atom_site_fract_x
_atom_site_fract_y
_atom_site_fract_z
Si Si1 0.612954 0.594160 0.411905
Si Si2 0.882403 0.849877 0.101072
Si Si3 0.426597 0.130957 0.300484
Si Si4 0.715425 0.978413 0.637142
Si Si5 0.673673 0.223333 0.141549
Si Si6 0.779624 0.897874 0.265898
Si Si7 0.641386 0.951387 0.854009
Si Si8 0.500000 0.881162 0.000000
O O1 0.806211 0.640838 0.558765
O O2 0.732444 0.575171 0.396778
O O3 0.396682 0.671050 0.286312
O O4 0.509295 0.469262 0.388830
O O5 0.011429 0.749493 0.124388
O O6 0.796177 0.947693 0.000766
O O7 0.666406 0.808927 0.033930
O O8 0.061704 0.904373 0.242780
O O9 0.343392 0.037133 0.318234
O O10 0.324076 0.258958 0.269937
O O11 0.365672 0.070811 0.196150
O O12 0.500000 0.909331 0.500000
O O13 0.759474 0.344139 0.144462
O O14 0.500000 0.165178 0.000000
O O15 0.605189 0.917793 0.241210
O O16 0.655917 0.947668 0.134126
#
# Coordination Sequence:
#
# PCOD9124080 Si02
#       8
#     4   4   4   4   4   4   4   2
#     4  11  25  42  68 100 136 188 238 291 364 438
#     4  10  20  41  72 101 137 180 235 299 353 431
#     4  11  25  44  69 103 144 191 231 302 363 432
#     4  10  21  40  67  99 131 184 234 283 358 427
#     4  10  22  41  71  98 134 184 241 297 353 432
#     4  11  25  43  67 102 143 184 232 298 363 429
#     4  10  23  43  70 106 137 186 241 291 359 433
#     4  10  22  42  66 100 142 176 226 296 360 424
#
# _framework density 23.399460000000001
#
# number of rings (size 3 to 8) (size 9 to 14) (size 15 to 20)
#    0.000    1.600    2.667    0.800    2.800    2.667 
#    0.000    0.000    0.000    0.000    0.000    0.000 
#    0.000    0.000    0.000    0.000    0.000    0.000 
#
# Total GULP energy -83770.607314 kJ/mol
# GULP energy per Si atom -5584.707154 kJ/mol
# Density = 2.334620 g / cm^3
# Si number density = 23.399460 Si / 1000 Ang^3
#
#
#
# Elastic Constant Matrix: (Units=GPa)
#
#
# Indices 1 2 3 4 5 6 
#
# 1 137.3017 18.1559 34.7906 0.0000 25.0230 0.0000
# 2 18.1559 57.6446 35.4609 0.0000 2.9823 0.0000
# 3 34.7906 35.4609 136.8143 0.0001 20.0750 0.0001
# 4 0.0000 0.0000 0.0001 20.6168 0.0000 3.3067
# 5 25.0230 2.9823 20.0750 0.0000 38.2922 0.0000
# 6 0.0000 0.0000 0.0001 3.3067 0.0000 10.2198
#
#
#
# Elastic Compliance Matrix: (Units=1/GPa)
#
#
# Indices 1 2 3 4 5 6 
#
# 1 0.008696 -0.001870 -0.000990 0.000000 -0.005018 0.000000
# 2 -0.001870 0.021100 -0.005343 0.000000 0.002380 0.000000
# 3 -0.000990 -0.005343 0.009522 0.000000 -0.003929 0.000000
# 4 0.000000 0.000000 0.000000 0.051159 0.000000 -0.016553
# 5 -0.005018 0.002380 -0.003929 0.000000 0.031268 0.000000
# 6 0.000000 0.000000 0.000000 -0.016553 0.000000 0.103205
#
#
# Mechanical properties :
#
#
# Convention : Reuss Voigt Hill
#
# Bulk Modulus (GPa) = 43.64459 56.50838 50.07648
# Shear Modulus (GPa) = 20.08082 30.04931 25.06506
#
# Velocity S-wave (km/s) = 2.93264 3.58744 3.27644
# Velocity P-wave (km/s) = 5.49178 6.43129 5.98002
#
# Compressibility (1/GPa) = 0.02291235
#
# Stress axis : x y z
#
# Youngs Moduli (GPa) = 114.99638 47.39311 105.01739
#
# Poissons Ratio (x) = 0.08863 0.10400
# Poissons Ratio (y) = 0.21505 0.56106
# Poissons Ratio (z) = 0.11388 0.25320
#
# Static dielectric constant tensor:
#      x y z
#    x 1.904910 0.000000 -0.024500 
#    y 0.000000 1.936840 0.000000 
#    z -0.024500 0.000000 1.908420 
# 
# From -- ./inp_files/65365.got.cif
#   From: 2010.05.17/outbox.cif.g08.bks.cpg/sg5_33_cif.got.tgz:65365.got - 2010.06.03 18:56:24.
