data_PCOD9124407
_publ_section_title
;
Structure prediction by ZEFSAII (Michael W. Deem and Ramdas Pophale) SiO2 
 PCOD9124407
Probable space group: C 2
;
_chemical_formula_sum "Si O2"
_cell_formula_units_Z 30
_cell_length_a 11.980313
_cell_length_b 7.337984
_cell_length_c 13.757025
_cell_angle_alpha 90.000000
_cell_angle_beta 116.161455
_cell_angle_gamma 90.000000
_cell_volume 1085.501958
_symmetry_space_group_name_H-M "C 2"
_symmetry_group_IT_number 5
_symmetry_cell_setting 'monoclinic'
loop_
_space_group_symop_operation_xyz
x,y,z
-x,y,-z
1/2+x,1/2+y,z
1/2-x,1/2+y,-z
loop_
_atom_site_type_symbol
_atom_site_label
_atom_site_fract_x
_atom_site_fract_y
_atom_site_fract_z
Si Si1 0.500000 0.794540 0.500000
Si Si2 0.927593 0.001176 0.713296
Si Si3 0.820751 0.442556 0.872262
Si Si4 0.161804 0.391351 0.395561
Si Si5 0.882279 0.947946 0.361229
Si Si6 0.024458 0.517130 0.824181
Si Si7 0.877725 0.903466 0.063635
Si Si8 0.225161 0.872599 0.169921
O O1 0.600067 0.909181 0.477405
O O2 0.419658 0.658997 0.398866
O O3 0.877867 0.189618 0.652936
O O4 0.820947 0.919558 0.740684
O O5 0.993776 0.891631 0.650387
O O6 0.043260 0.029117 0.833404
O O7 0.721225 0.375215 0.754315
O O8 0.764919 0.385972 0.953435
O O9 0.956898 0.404799 0.884402
O O10 0.797554 0.659895 0.857518
O O11 0.308721 0.403708 0.432684
O O12 0.089846 0.529626 0.296218
O O13 0.137798 0.437370 0.805899
O O14 0.063246 0.705755 0.890394
O O15 0.864944 0.959602 0.947315
#
# Coordination Sequence:
#
# PCOD9124407 Si02
#       8
#     2   4   4   4   4   4   4   4
#     4  10  20  46  70 106 134 160 208 286 332 408
#     4  10  22  39  67  92 133 179 215 275 328 390
#     4  10  23  44  61  91 136 177 214 279 335 391
#     4  10  23  46  70  98 134 172 221 270 343 407
#     4   9  21  44  69  95 134 169 209 269 339 393
#     4  11  24  41  66  94 131 181 223 276 338 389
#     4  11  23  41  62  94 137 177 234 278 322 379
#     4  12  23  37  66  97 130 184 231 273 325 383
#
# _framework density 27.636984999999999
#
# number of rings (size 3 to 8) (size 9 to 14) (size 15 to 20)
#    0.000    1.600    1.333    3.600    5.600    1.600 
#    9.600    0.000    5.867    0.800    0.000    0.000 
#    0.000    0.000    0.000    0.000    0.000    0.000 
#
# Total GULP energy -83805.709132 kJ/mol
# GULP energy per Si atom -5587.047275 kJ/mol
# Density = 2.757408 g / cm^3
# Si number density = 27.636985 Si / 1000 Ang^3
#
#
#
# Elastic Constant Matrix: (Units=GPa)
#
#
# Indices 1 2 3 4 5 6 
#
# 1 265.3394 46.1699 64.2407 0.0000 -42.6308 0.0000
# 2 46.1699 64.3256 -2.4359 0.0000 -2.7136 0.0000
# 3 64.2407 -2.4359 103.5215 0.0000 -12.0268 0.0000
# 4 0.0000 0.0000 0.0000 25.7931 0.0000 -6.1686
# 5 -42.6308 -2.7136 -12.0268 0.0000 48.2052 0.0000
# 6 0.0000 0.0000 0.0000 -6.1686 0.0000 47.3481
#
#
#
# Elastic Compliance Matrix: (Units=1/GPa)
#
#
# Indices 1 2 3 4 5 6 
#
# 1 0.005994 -0.004249 -0.003328 0.000000 0.004231 0.000000
# 2 -0.004249 0.018619 0.002843 0.000000 -0.002001 0.000000
# 3 -0.003328 0.002843 0.011811 0.000000 0.000164 0.000000
# 4 0.000000 0.000000 0.000000 0.040017 0.000000 0.005213
# 5 0.004231 -0.002001 0.000164 0.000000 0.024415 0.000000
# 6 0.000000 0.000000 0.000000 0.005213 0.000000 0.021799
#
#
# Mechanical properties :
#
#
# Convention : Reuss Voigt Hill
#
# Bulk Modulus (GPa) = 37.09952 72.12621 54.61286
# Shear Modulus (GPa) = 35.43365 45.95006 40.69186
#
# Velocity S-wave (km/s) = 3.58454 4.08196 3.84131
# Velocity P-wave (km/s) = 5.53036 6.95492 6.28314
#
# Compressibility (1/GPa) = 0.02695453
#
# Stress axis : x y z
#
# Youngs Moduli (GPa) = 166.84280 53.70787 84.66793
#
# Poissons Ratio (x) = 0.22823 0.28176
# Poissons Ratio (y) = 0.70900 -0.24069
# Poissons Ratio (z) = 0.55523 -0.15268
#
# Static dielectric constant tensor:
#      x y z
#    x 2.200370 0.000000 -0.009070 
#    y 0.000000 2.181480 0.000000 
#    z -0.009070 0.000000 2.279780 
# 
# From -- ./inp_files/52482.got.cif
#   From: 2010.05.17/outbox.cif.g08.bks.cpg/sg5_27_cif.got.tgz:52482.got - 2010.06.03 18:56:24.
