data_PCOD9124434
_publ_section_title
;
Structure prediction by ZEFSAII (Michael W. Deem and Ramdas Pophale) SiO2 
 PCOD9124434
Probable space group: C 2
;
_chemical_formula_sum "Si O2"
_cell_formula_units_Z 32
_cell_length_a 26.974048
_cell_length_b 5.277262
_cell_length_c 9.106665
_cell_angle_alpha 90.000000
_cell_angle_beta 117.988245
_cell_angle_gamma 90.000000
_cell_volume 1144.712523
_symmetry_space_group_name_H-M "C 2"
_symmetry_group_IT_number 5
_symmetry_cell_setting 'monoclinic'
loop_
_space_group_symop_operation_xyz
x,y,z
-x,y,-z
1/2+x,1/2+y,z
1/2-x,1/2+y,-z
loop_
_atom_site_type_symbol
_atom_site_label
_atom_site_fract_x
_atom_site_fract_y
_atom_site_fract_z
Si Si1 0.938121 0.632220 0.589288
Si Si2 0.295544 0.652265 0.736170
Si Si3 0.725134 0.068604 0.900596
Si Si4 0.638618 0.744803 0.428733
Si Si5 0.463506 0.516407 0.867902
Si Si6 0.431884 0.533734 0.394933
Si Si7 0.349442 0.154677 0.952851
Si Si8 0.047516 0.352911 0.839920
O O1 0.879784 0.536639 0.575827
O O2 0.958364 0.877099 0.702120
O O3 0.988141 0.440674 0.690109
O O4 0.931077 0.729183 0.414572
O O5 0.237066 0.604919 0.744356
O O6 0.302844 0.672057 0.568467
O O7 0.331502 0.414528 0.850597
O O8 0.317389 0.923373 0.826750
O O9 0.669202 0.157433 0.903012
O O10 0.765951 0.274807 0.040271
O O11 0.595652 0.658217 0.240188
O O12 0.615459 0.635597 0.552904
O O13 0.527299 0.662203 0.939913
O O14 0.500000 0.287912 0.000000
O O15 0.500000 0.581630 0.500000
O O16 0.418529 0.675743 0.225778
O O17 0.413543 0.073011 0.045685
#
# Coordination Sequence:
#
# PCOD9124434 Si02
#       8
#     4   4   4   4   4   4   4   4
#     4  10  22  35  54  72 113 160 207 253 302 348
#     4  10  21  37  60  89 126 152 196 246 316 383
#     4   8  16  35  57  86 119 157 183 237 304 384
#     4  10  22  35  52  81 107 156 204 246 290 361
#     4  10  21  33  48  76 115 150 190 238 308 355
#     4  11  21  38  52  72 108 157 218 248 287 342
#     4  10  22  36  61  91 123 154 200 244 317 379
#     4  11  23  36  54  82 112 163 207 262 297 355
#
# _framework density 27.954618
#
# number of rings (size 3 to 8) (size 9 to 14) (size 15 to 20)
#    0.000    2.000    3.750    0.750    8.750    2.000 
#    0.000    0.000    0.000    0.000    0.000   12.250 
#    0.000    0.000    0.000    0.000    0.000    0.000 
#
# Total GULP energy -89110.016203 kJ/mol
# GULP energy per Si atom -5569.376013 kJ/mol
# Density = 2.789099 g / cm^3
# Si number density = 27.954618 Si / 1000 Ang^3
#
#
#
# Elastic Constant Matrix: (Units=GPa)
#
#
# Indices 1 2 3 4 5 6 
#
# 1 133.9230 36.2947 53.5517 0.0000 -60.8307 0.0000
# 2 36.2947 114.0743 37.5806 0.0000 -17.3884 0.0000
# 3 53.5517 37.5806 97.2548 0.0000 -39.8216 0.0000
# 4 0.0000 0.0000 0.0000 17.0595 0.0000 -18.5894
# 5 -60.8307 -17.3884 -39.8216 0.0000 69.9846 0.0000
# 6 0.0000 0.0000 0.0000 -18.5894 0.0000 33.1823
#
#
#
# Elastic Compliance Matrix: (Units=1/GPa)
#
#
# Indices 1 2 3 4 5 6 
#
# 1 0.013472 -0.001917 -0.002709 0.000000 0.009692 0.000000
# 2 -0.001917 0.010325 -0.003346 0.000000 -0.001004 0.000000
# 3 -0.002709 -0.003346 0.015335 0.000000 0.005540 0.000000
# 4 0.000000 0.000000 0.000000 0.150481 0.000000 0.084303
# 5 0.009692 -0.001004 0.005540 0.000000 0.025616 0.000000
# 6 0.000000 0.000000 0.000000 0.084303 0.000000 0.077364
#
#
# Mechanical properties :
#
#
# Convention : Reuss Voigt Hill
#
# Bulk Modulus (GPa) = 43.12220 66.67846 54.90033
# Shear Modulus (GPa) = 15.80945 38.56696 27.18821
#
# Velocity S-wave (km/s) = 2.38069 3.71836 3.12201
# Velocity P-wave (km/s) = 4.79752 6.50685 5.71644
#
# Compressibility (1/GPa) = 0.02318991
#
# Stress axis : x y z
#
# Youngs Moduli (GPa) = 74.22754 96.85127 65.21022
#
# Poissons Ratio (x) = 0.18562 0.17666
# Poissons Ratio (y) = 0.14226 0.21817
# Poissons Ratio (z) = 0.20108 0.32403
#
# Static dielectric constant tensor:
#      x y z
#    x 2.227640 0.000000 -0.044400 
#    y 0.000000 2.255890 0.000000 
#    z -0.044400 0.000000 2.309730 
# 
# From -- ./inp_files/47710.got.cif
#   From: 2010.05.17/outbox.cif.g08.bks.cpg/sg5_24_cif.got.tgz:47710.got - 2010.06.03 18:56:24.
