data_PCOD9124418
_publ_section_title
;
Structure prediction by ZEFSAII (Michael W. Deem and Ramdas Pophale) SiO2 
 PCOD9124418
Probable space group: C 2
;
_chemical_formula_sum "Si O2"
_cell_formula_units_Z 22
_cell_length_a 17.339501
_cell_length_b 9.249430
_cell_length_c 7.388863
_cell_angle_alpha 90.000000
_cell_angle_beta 50.075486
_cell_angle_gamma 90.000000
_cell_volume 908.788065
_symmetry_space_group_name_H-M "C 2"
_symmetry_group_IT_number 5
_symmetry_cell_setting 'monoclinic'
loop_
_space_group_symop_operation_xyz
x,y,z
-x,y,-z
1/2+x,1/2+y,z
1/2-x,1/2+y,-z
loop_
_atom_site_type_symbol
_atom_site_label
_atom_site_fract_x
_atom_site_fract_y
_atom_site_fract_z
Si Si1 0.472538 0.155080 0.827368
Si Si2 0.463711 0.847501 0.251107
Si Si3 0.000000 0.114585 0.500000
Si Si4 0.823650 0.797245 0.545616
Si Si5 0.751413 0.500276 0.604193
Si Si6 0.829599 0.898932 0.907528
O O1 0.568002 0.225860 0.580951
O O2 0.378446 0.254791 0.921810
O O3 0.466607 0.984861 0.793816
O O4 0.500000 0.164812 0.000000
O O5 0.462077 0.720916 0.398919
O O6 0.355621 0.924539 0.393515
O O7 0.500000 0.795835 0.000000
O O8 0.914674 0.011082 0.712283
O O9 0.759795 0.668818 0.555559
O O10 0.833224 0.926037 0.389438
O O11 0.776229 0.851225 0.803267
O O12 0.734586 0.473343 0.840603
#
# Coordination Sequence:
#
# PCOD9124418 Si02
#       6
#     4   4   2   4   4   4
#     4  10  20  47  73  96 133 185 232 280 343 413
#     4  10  27  47  70 100 137 184 233 290 348 411
#     4  12  28  42  72 104 140 184 230 292 346 414
#     4  11  25  44  68 100 138 181 229 288 348 400
#     4  11  28  44  70 102 140 182 234 290 343 419
#     4  12  26  44  72 104 138 186 234 287 343 416
#
# _framework density 24.208065000000001
#
# number of rings (size 3 to 8) (size 9 to 14) (size 15 to 20)
#    0.000    1.091    3.636    0.000   12.727    0.727 
#    0.000    0.000    0.000    0.000    0.000    0.000 
#    0.000    0.000    0.000    0.000    0.000    0.000 
#
# Total GULP energy -61624.597153 kJ/mol
# GULP energy per Si atom -5602.236105 kJ/mol
# Density = 2.415297 g / cm^3
# Si number density = 24.208065 Si / 1000 Ang^3
#
#
#
# Elastic Constant Matrix: (Units=GPa)
#
#
# Indices 1 2 3 4 5 6 
#
# 1 41.8379 36.0692 5.5089 0.0000 17.7796 0.0000
# 2 36.0692 116.7302 -2.5975 0.0000 8.8458 0.0000
# 3 5.5089 -2.5975 110.3921 0.0000 19.6850 0.0000
# 4 0.0000 0.0000 0.0000 28.0928 0.0000 16.2719
# 5 17.7796 8.8458 19.6850 0.0000 34.3317 0.0000
# 6 0.0000 0.0000 0.0000 16.2719 0.0000 28.0628
#
#
#
# Elastic Compliance Matrix: (Units=1/GPa)
#
#
# Indices 1 2 3 4 5 6 
#
# 1 0.041841 -0.011438 0.001093 0.000000 -0.019348 0.000000
# 2 -0.011438 0.011910 0.000381 0.000000 0.002637 0.000000
# 3 0.001093 0.000381 0.010171 0.000000 -0.006496 0.000000
# 4 0.000000 0.000000 0.000000 0.053597 0.000000 -0.031077
# 5 -0.019348 0.002637 -0.006496 0.000000 0.042193 0.000000
# 6 0.000000 0.000000 0.000000 -0.031077 0.000000 0.053654
#
#
# Mechanical properties :
#
#
# Convention : Reuss Voigt Hill
#
# Bulk Modulus (GPa) = 22.73050 38.54683 30.63866
# Shear Modulus (GPa) = 20.16453 33.42946 26.79699
#
# Velocity S-wave (km/s) = 2.88925 3.72011 3.33069
# Velocity P-wave (km/s) = 4.53215 5.86600 5.24168
#
# Compressibility (1/GPa) = 0.04399376
#
# Stress axis : x y z
#
# Youngs Moduli (GPa) = 23.89982 83.96422 98.31447
#
# Poissons Ratio (x) = 0.96041 -0.10746
# Poissons Ratio (y) = 0.27337 -0.03745
# Poissons Ratio (z) = -0.02612 -0.03198
#
# Static dielectric constant tensor:
#      x y z
#    x 1.966350 0.000000 -0.017790 
#    y 0.000000 1.895150 0.000000 
#    z -0.017790 0.000000 1.902050 
# 
# From -- ./inp_files/30524.got.cif
#   From: 2010.05.17/outbox.cif.g08.bks.cpg/sg5_16_cif.got.tgz:30524.got - 2010.06.03 18:56:24.
