data_PCOD9124015
_publ_section_title
;
Structure prediction by ZEFSAII (Michael W. Deem and Ramdas Pophale) SiO2 
 PCOD9124015
Probable space group: C 2
;
_chemical_formula_sum "Si O2"
_cell_formula_units_Z 28
_cell_length_a 10.716685
_cell_length_b 16.557650
_cell_length_c 8.688807
_cell_angle_alpha 90.000000
_cell_angle_beta 57.898106
_cell_angle_gamma 90.000000
_cell_volume 1306.039249
_symmetry_space_group_name_H-M "C 2"
_symmetry_group_IT_number 5
_symmetry_cell_setting 'monoclinic'
loop_
_space_group_symop_operation_xyz
x,y,z
-x,y,-z
1/2+x,1/2+y,z
1/2-x,1/2+y,-z
loop_
_atom_site_type_symbol
_atom_site_label
_atom_site_fract_x
_atom_site_fract_y
_atom_site_fract_z
Si Si1 0.054099 0.045040 0.197884
Si Si2 0.713031 0.425260 0.309576
Si Si3 0.746070 0.972824 0.360788
Si Si4 0.500675 0.728673 0.766374
Si Si5 0.500000 0.848686 0.500000
Si Si6 0.353913 0.086233 0.816423
Si Si7 0.243798 0.756487 0.157595
Si Si8 0.500000 0.998009 0.000000
O O1 0.011248 0.135570 0.276203
O O2 0.107037 0.990977 0.304252
O O3 0.195240 0.061688 0.996410
O O4 0.916360 0.996292 0.216305
O O5 0.744393 0.447244 0.465993
O O6 0.670578 0.335581 0.280608
O O7 0.865449 0.440057 0.121996
O O8 0.642017 0.902245 0.359689
O O9 0.658145 0.049229 0.346936
O O10 0.546630 0.790495 0.606186
O O11 0.629635 0.728966 0.806774
O O12 0.344907 0.761305 0.937242
O O13 0.365766 0.182281 0.797624
O O14 0.467988 0.049881 0.866335
#
# Coordination Sequence:
#
# PCOD9124015 Si02
#       8
#     4   4   4   4   2   4   4   2
#     4  10  23  42  68  90 129 173 214 259 332 384
#     4  11  23  39  67  96 130 171 212 274 316 386
#     4  12  23  39  61  99 126 169 214 271 320 385
#     4  10  21  40  63  94 123 170 214 263 314 390
#     4  12  26  36  64  98 126 158 226 276 312 370
#     4  10  22  41  70  94 129 175 214 267 320 397
#     4  10  20  41  65  91 126 170 213 260 324 382
#     4  10  22  42  66  98 126 172 220 254 336 382
#
# _framework density 21.438866000000001
#
# number of rings (size 3 to 8) (size 9 to 14) (size 15 to 20)
#    0.000    1.429    2.857    2.571    6.000    0.000 
#    0.000    4.286    9.429    0.000    0.000    0.000 
#    0.000    0.000    0.000    0.000    0.000    0.000 
#
# Total GULP energy -78011.924831 kJ/mol
# GULP energy per Si atom -5572.280345 kJ/mol
# Density = 2.139007 g / cm^3
# Si number density = 21.438866 Si / 1000 Ang^3
#
#
#
# Elastic Constant Matrix: (Units=GPa)
#
#
# Indices 1 2 3 4 5 6 
#
# 1 68.4433 22.6034 3.0012 0.0000 1.4299 0.0000
# 2 22.6034 135.9047 35.6732 0.0000 7.1323 0.0000
# 3 3.0012 35.6732 37.3132 0.0000 2.4304 0.0000
# 4 0.0000 0.0000 0.0000 38.1873 0.0000 21.5055
# 5 1.4299 7.1323 2.4304 0.0000 35.5693 0.0000
# 6 0.0000 0.0000 0.0000 21.5055 0.0000 53.5466
#
#
#
# Elastic Compliance Matrix: (Units=1/GPa)
#
#
# Indices 1 2 3 4 5 6 
#
# 1 0.015534 -0.003005 0.001632 0.000000 -0.000133 0.000000
# 2 -0.003005 0.010468 -0.009680 0.000000 -0.001317 0.000000
# 3 0.001632 -0.009680 0.035962 0.000000 -0.000582 0.000000
# 4 0.000000 0.000000 0.000000 0.033841 0.000000 -0.013591
# 5 -0.000133 -0.001317 -0.000582 0.000000 0.028423 0.000000
# 6 0.000000 0.000000 0.000000 -0.013591 0.000000 0.024134
#
#
# Mechanical properties :
#
#
# Convention : Reuss Voigt Hill
#
# Bulk Modulus (GPa) = 25.08942 40.46852 32.77897
# Shear Modulus (GPa) = 27.21030 37.48622 32.34826
#
# Velocity S-wave (km/s) = 3.56645 4.18606 3.88862
# Velocity P-wave (km/s) = 5.35608 6.50241 5.95689
#
# Compressibility (1/GPa) = 0.03985743
#
# Stress axis : x y z
#
# Youngs Moduli (GPa) = 64.37382 95.52954 27.80736
#
# Poissons Ratio (x) = 0.28707 -0.04539
# Poissons Ratio (y) = 0.19345 0.26919
# Poissons Ratio (z) = -0.10507 0.92476
#
# Static dielectric constant tensor:
#      x y z
#    x 1.676320 0.000000 -0.099800 
#    y 0.000000 1.769770 0.000000 
#    z -0.099800 0.000000 1.780880 
# 
# From -- ./inp_files/20579.got.cif
#   From: 2010.05.17/outbox.cif.g08.bks.cpg/sg5_11_cif.got.tgz:20579.got - 2010.06.03 18:56:24.
