data_PCOD9124090
_publ_section_title
;
Structure prediction by ZEFSAII (Michael W. Deem and Ramdas Pophale) SiO2 
 PCOD9124090
Probable space group: C 2
;
_chemical_formula_sum "Si O2"
_cell_formula_units_Z 32
_cell_length_a 13.805546
_cell_length_b 14.357396
_cell_length_c 19.521227
_cell_angle_alpha 90.000000
_cell_angle_beta 23.391649
_cell_angle_gamma 90.000000
_cell_volume 1536.180799
_symmetry_space_group_name_H-M "C 2"
_symmetry_group_IT_number 5
_symmetry_cell_setting 'monoclinic'
loop_
_space_group_symop_operation_xyz
x,y,z
-x,y,-z
1/2+x,1/2+y,z
1/2-x,1/2+y,-z
loop_
_atom_site_type_symbol
_atom_site_label
_atom_site_fract_x
_atom_site_fract_y
_atom_site_fract_z
Si Si1 0.355098 0.498600 0.227360
Si Si2 0.549511 0.601573 0.695346
Si Si3 0.630046 0.674245 0.846058
Si Si4 0.423204 0.268241 0.470845
Si Si5 0.255854 0.306471 0.353171
Si Si6 0.267612 0.410150 0.102608
Si Si7 0.246192 0.426836 0.501255
Si Si8 0.255451 0.225210 0.022954
O O1 0.368769 0.540069 0.293321
O O2 0.226012 0.581435 0.270895
O O3 0.257072 0.395423 0.300349
O O4 0.621372 0.488455 0.019792
O O5 0.724127 0.691662 0.577229
O O6 0.602353 0.523351 0.603900
O O7 0.290231 0.645355 0.889208
O O8 0.827370 0.752391 0.731758
O O9 0.500000 0.651455 0.000000
O O10 0.445719 0.704686 0.905337
O O11 0.500000 0.255222 0.500000
O O12 0.334613 0.369752 0.509760
O O13 0.271689 0.355132 0.418630
O O14 0.485877 0.242516 0.182727
O O15 0.000000 0.258412 0.500000
O O16 0.040190 0.440565 0.296021
O O17 0.500000 0.386907 0.000000
O O18 0.206397 0.321647 0.095110
#
# Coordination Sequence:
#
# PCOD9124090 Si02
#       8
#     4   4   4   4   4   4   4   4
#     4   9  20  33  56  90 127 157 200 271 334 378
#     4  10  22  39  62  89 133 174 212 270 327 392
#     4  11  22  34  60  93 124 164 210 265 331 387
#     4  12  22  40  66  97 135 173 218 276 328 394
#     4  10  21  36  62  93 127 167 215 274 331 388
#     4  11  21  35  59  91 129 165 211 269 331 382
#     4  11  23  38  63 104 131 167 222 276 334 388
#     4  10  20  42  56  88 131 173 207 264 337 390
#
# _framework density 20.830881000000002
#
# number of rings (size 3 to 8) (size 9 to 14) (size 15 to 20)
#    0.000    1.500    3.750    2.625    7.000    0.000 
#    0.000    0.000    0.000   12.000    0.000    0.000 
#    0.000    0.000    0.000    0.000    0.000    0.000 
#
# Total GULP energy -89111.487890 kJ/mol
# GULP energy per Si atom -5569.467993 kJ/mol
# Density = 2.078347 g / cm^3
# Si number density = 20.830881 Si / 1000 Ang^3
#
#
#
# Elastic Constant Matrix: (Units=GPa)
#
#
# Indices 1 2 3 4 5 6 
#
# 1 28.6703 21.5758 4.8088 0.1126 -0.0612 0.2686
# 2 21.5758 88.3096 27.9839 0.0024 -7.3325 -0.0099
# 3 4.8088 27.9839 118.1981 0.0488 -0.0400 0.1891
# 4 0.1126 0.0024 0.0488 40.8468 -0.0452 8.9803
# 5 -0.0612 -7.3325 -0.0400 -0.0452 27.9481 -0.1135
# 6 0.2686 -0.0099 0.1891 8.9803 -0.1135 37.6065
#
#
#
# Elastic Compliance Matrix: (Units=1/GPa)
#
#
# Indices 1 2 3 4 5 6 
#
# 1 0.043022 -0.011015 0.000857 -0.000054 -0.002796 -0.000310
# 2 -0.011015 0.015357 -0.003187 0.000014 0.004001 0.000107
# 3 0.000857 -0.003187 0.009180 -0.000002 -0.000821 -0.000055
# 4 -0.000054 0.000014 -0.000002 0.025838 0.000020 -0.006170
# 5 -0.002796 0.004001 -0.000821 0.000020 0.036823 0.000131
# 6 -0.000310 0.000107 -0.000055 -0.006170 0.000131 0.028067
#
#
# Mechanical properties :
#
#
# Convention : Reuss Voigt Hill
#
# Bulk Modulus (GPa) = 24.46784 38.21278 31.34031
# Shear Modulus (GPa) = 25.17628 33.33426 29.25527
#
# Velocity S-wave (km/s) = 3.48027 4.00463 3.75162
# Velocity P-wave (km/s) = 5.28405 6.30610 5.81756
#
# Compressibility (1/GPa) = 0.04086998
#
# Stress axis : x y z
#
# Youngs Moduli (GPa) = 23.24395 65.11724 108.93560
#
# Poissons Ratio (x) = 0.71726 -0.09336
# Poissons Ratio (y) = 0.25603 0.34712
# Poissons Ratio (z) = -0.01992 0.20750
#
# Static dielectric constant tensor:
#      x y z
#    x 1.776440 0.000010 0.029760 
#    y 0.000010 1.761630 0.000010 
#    z 0.029760 0.000010 1.832430 
# 
# From -- ./inp_files/24667.got.cif
#   From: 2010.05.17/outbox.cif.g08.bks.cpg/sg5_13_cif.got.tgz:24667.got - 2010.06.03 18:56:24.
