data_PCOD9124004
_publ_section_title
;
Structure prediction by ZEFSAII (Michael W. Deem and Ramdas Pophale) SiO2 
 PCOD9124004
Probable space group: C 2
;
_chemical_formula_sum "Si O2"
_cell_formula_units_Z 32
_cell_length_a 21.886628
_cell_length_b 6.641000
_cell_length_c 15.905077
_cell_angle_alpha 90.000000
_cell_angle_beta 149.294247
_cell_angle_gamma 90.000000
_cell_volume 1180.466870
_symmetry_space_group_name_H-M "C 2"
_symmetry_group_IT_number 5
_symmetry_cell_setting 'monoclinic'
loop_
_space_group_symop_operation_xyz
x,y,z
-x,y,-z
1/2+x,1/2+y,z
1/2-x,1/2+y,-z
loop_
_atom_site_type_symbol
_atom_site_label
_atom_site_fract_x
_atom_site_fract_y
_atom_site_fract_z
Si Si1 0.355422 0.651750 0.339450
Si Si2 0.856509 0.652371 0.344705
Si Si3 0.690906 0.907198 0.842493
Si Si4 0.084402 0.908787 0.298009
Si Si5 0.974777 0.331415 0.818516
Si Si6 0.786115 0.583268 0.658073
Si Si7 0.943647 0.560225 0.620898
Si Si8 0.745524 0.905084 0.099806
O O1 0.500000 0.640379 0.500000
O O2 0.323684 0.397559 0.287135
O O3 0.290280 0.649008 0.352989
O O4 0.335248 0.904881 0.299111
O O5 0.000000 0.669867 0.500000
O O6 0.848898 0.631576 0.438995
O O7 0.551836 0.940251 0.706860
O O8 0.755897 0.901660 0.010441
O O9 0.724152 0.149421 0.850929
O O10 0.708913 0.656687 0.836625
O O11 0.138135 0.768305 0.289583
O O12 0.016461 0.764078 0.283460
O O13 0.013174 0.092388 0.173644
O O14 0.191056 0.003388 0.478125
O O15 0.888959 0.411159 0.790746
O O16 0.908230 0.414444 0.655371
O O17 0.107165 0.420656 0.968072
#
# Coordination Sequence:
#
# PCOD9124004 Si02
#       8
#     4   4   4   4   4   4   4   4
#     4  12  27  46  78 112 152 204 258 319 381 464
#     4  10  20  41  64 105 156 193 249 316 373 460
#     4  10  23  44  68 104 157 193 249 312 387 453
#     4  11  22  43  79 115 150 198 257 326 380 456
#     4  10  24  47  76 110 154 200 256 319 383 463
#     4  11  25  45  77 116 153 197 263 315 390 456
#     4   9  21  42  74 109 146 197 252 313 378 455
#     4  11  24  46  71 109 150 198 252 316 387 451
#
# _framework density 27.107918999999999
#
# number of rings (size 3 to 8) (size 9 to 14) (size 15 to 20)
#    0.000    1.500    1.250    3.000    5.250    1.500 
#   13.500    0.000    0.000    0.000    0.000    0.000 
#    0.000    0.000    0.000    0.000    0.000    0.000 
#
# Total GULP energy -89415.115114 kJ/mol
# GULP energy per Si atom -5588.444695 kJ/mol
# Density = 2.704622 g / cm^3
# Si number density = 27.107919 Si / 1000 Ang^3
#
#
#
# Elastic Constant Matrix: (Units=GPa)
#
#
# Indices 1 2 3 4 5 6 
#
# 1 172.0440 78.1999 69.8684 0.0000 5.1393 0.0000
# 2 78.1999 245.7944 67.6951 0.0000 -18.5563 0.0000
# 3 69.8684 67.6951 124.9238 0.0000 0.2656 0.0000
# 4 0.0000 0.0000 0.0000 73.9918 0.0000 -13.6252
# 5 5.1393 -18.5563 0.2656 0.0000 39.1808 0.0000
# 6 0.0000 0.0000 0.0000 -13.6252 0.0000 71.5284
#
#
#
# Elastic Compliance Matrix: (Units=1/GPa)
#
#
# Indices 1 2 3 4 5 6 
#
# 1 0.008116 -0.001732 -0.003597 0.000000 -0.001860 0.000000
# 2 -0.001732 0.005365 -0.001944 0.000000 0.002781 0.000000
# 3 -0.003597 -0.001944 0.011071 0.000000 -0.000524 0.000000
# 4 0.000000 0.000000 0.000000 0.014006 0.000000 0.002668
# 5 -0.001860 0.002781 -0.000524 0.000000 0.027088 0.000000
# 6 0.000000 0.000000 0.000000 0.002668 0.000000 0.014489
#
#
# Mechanical properties :
#
#
# Convention : Reuss Voigt Hill
#
# Bulk Modulus (GPa) = 99.94044 108.25432 104.09738
# Shear Modulus (GPa) = 51.01201 58.74012 54.87606
#
# Velocity S-wave (km/s) = 4.34269 4.66005 4.50416
# Velocity P-wave (km/s) = 7.87991 8.30518 8.09534
#
# Compressibility (1/GPa) = 0.01000596
#
# Stress axis : x y z
#
# Youngs Moduli (GPa) = 123.21481 186.39397 90.32409
#
# Poissons Ratio (x) = 0.32283 0.32486
# Poissons Ratio (y) = 0.21341 0.17563
# Poissons Ratio (z) = 0.44316 0.36244
#
# Static dielectric constant tensor:
#      x y z
#    x 2.140740 0.000000 -0.105970 
#    y 0.000000 2.235730 0.000000 
#    z -0.105970 0.000000 2.038180 
# 
# From -- ./inp_files/69576.got.cif
#   From: 2010.05.17/outbox.cif.g08.bks.cpg/sg5_35_cif.got.tgz:69576.got - 2010.06.03 18:56:24.
