data_PCOD9124645
_publ_section_title
;
Structure prediction by ZEFSAII (Michael W. Deem and Ramdas Pophale) SiO2 
 PCOD9124645
Probable space group: C 2
;
_chemical_formula_sum "Si O2"
_cell_formula_units_Z 32
_cell_length_a 12.334942
_cell_length_b 20.371084
_cell_length_c 18.333404
_cell_angle_alpha 90.000000
_cell_angle_beta 159.428480
_cell_angle_gamma 90.000000
_cell_volume 1618.701793
_symmetry_space_group_name_H-M "C 2"
_symmetry_group_IT_number 5
_symmetry_cell_setting 'monoclinic'
loop_
_space_group_symop_operation_xyz
x,y,z
-x,y,-z
1/2+x,1/2+y,z
1/2-x,1/2+y,-z
loop_
_atom_site_type_symbol
_atom_site_label
_atom_site_fract_x
_atom_site_fract_y
_atom_site_fract_z
Si Si1 0.777875 0.475960 0.228454
Si Si2 0.404901 0.520060 0.587588
Si Si3 0.425513 0.380156 0.368467
Si Si4 0.102343 0.611312 0.150230
Si Si5 0.154800 0.344438 0.488006
Si Si6 0.255215 0.358995 0.037087
Si Si7 0.391062 0.511009 0.115322
Si Si8 0.427669 0.261031 0.868688
O O1 0.643809 0.517336 0.211231
O O2 0.039798 0.514059 0.348647
O O3 0.951896 0.410872 0.366831
O O4 0.500000 0.457021 0.000000
O O5 0.564498 0.453076 0.659792
O O6 0.557279 0.580471 0.641426
O O7 0.467190 0.519543 0.714172
O O8 0.500000 0.385295 0.500000
O O9 0.701822 0.341879 0.502467
O O10 0.086644 0.349214 0.146399
O O11 0.064201 0.685739 0.151270
O O12 0.000000 0.608575 0.000000
O O13 0.886032 0.562689 0.059729
O O14 0.458718 0.348224 0.728405
O O15 0.919123 0.287758 0.359253
O O16 0.269629 0.436524 0.027641
O O17 0.335646 0.309742 0.022399
O O18 0.500000 0.263006 0.000000
#
# Coordination Sequence:
#
# PCOD9124645 Si02
#       8
#     4   4   4   4   4   4   4   4
#     4  11  23  35  55  93 126 154 200 263 312 347
#     4  10  21  37  60  89 122 159 206 251 304 369
#     4  11  23  36  58  94 123 151 198 262 313 350
#     4   9  21  40  64  88 120 167 208 248 304 374
#     4  11  23  37  58  90 125 162 202 249 308 371
#     4  12  22  37  63  91 124 159 208 255 306 366
#     4  11  20  37  64  90 121 159 212 255 301 366
#     4  11  23  41  62  91 127 164 208 251 306 372
#
# _framework density 19.768929
#
# number of rings (size 3 to 8) (size 9 to 14) (size 15 to 20)
#    0.000    1.250    5.000    2.250    3.500    0.000 
#    0.000    5.000    0.000    3.000    0.000    0.000 
#    0.000    0.000    0.000    0.000    0.000    0.000 
#
# Total GULP energy -89374.157233 kJ/mol
# GULP energy per Si atom -5585.884827 kJ/mol
# Density = 1.972393 g / cm^3
# Si number density = 19.768929 Si / 1000 Ang^3
#
#
#
# Elastic Constant Matrix: (Units=GPa)
#
#
# Indices 1 2 3 4 5 6 
#
# 1 100.7948 37.0660 36.3555 -0.0311 17.9857 -0.0195
# 2 37.0660 106.5912 30.5989 -0.0535 21.9387 -0.0481
# 3 36.3555 30.5989 101.8260 -0.0034 21.1237 -0.0377
# 4 -0.0311 -0.0535 -0.0034 20.9158 -0.0383 6.0618
# 5 17.9857 21.9387 21.1237 -0.0383 39.9139 -0.0270
# 6 -0.0195 -0.0481 -0.0377 6.0618 -0.0270 27.4412
#
#
#
# Elastic Compliance Matrix: (Units=1/GPa)
#
#
# Indices 1 2 3 4 5 6 
#
# 1 0.012561 -0.002990 -0.003092 0.000007 -0.002380 -0.000005
# 2 -0.002990 0.011755 -0.001577 0.000015 -0.004279 0.000009
# 3 -0.003092 -0.001577 0.012278 -0.000018 -0.004238 0.000012
# 4 0.000007 0.000015 -0.000018 0.051081 0.000039 -0.011284
# 5 -0.002380 -0.004279 -0.004238 0.000039 0.030721 0.000007
# 6 -0.000005 0.000009 0.000012 -0.011284 0.000007 0.038934
#
#
# Mechanical properties :
#
#
# Convention : Reuss Voigt Hill
#
# Bulk Modulus (GPa) = 47.00575 57.47251 52.23913
# Shear Modulus (GPa) = 27.81785 31.33362 29.57573
#
# Velocity S-wave (km/s) = 3.75527 3.98552 3.87210
# Velocity P-wave (km/s) = 6.52931 7.09326 6.81712
#
# Compressibility (1/GPa) = 0.02127399
#
# Stress axis : x y z
#
# Youngs Moduli (GPa) = 79.61240 85.07066 81.44824
#
# Poissons Ratio (x) = 0.25439 0.25187
# Poissons Ratio (y) = 0.23807 0.12845
# Poissons Ratio (z) = 0.24619 0.13416
#
# Static dielectric constant tensor:
#      x y z
#    x 1.745610 -0.000020 -0.018220 
#    y -0.000020 1.686190 0.000000 
#    z -0.018220 0.000000 1.736640 
# 
# From -- ./inp_files/60879.got.cif
#   From: 2010.05.17/outbox.cif.g08.bks.cpg/sg5_31_cif.got.tgz:60879.got - 2010.06.03 18:56:24.
