data_PCOD9124068
_publ_section_title
;
Structure prediction by ZEFSAII (Michael W. Deem and Ramdas Pophale) SiO2 
 PCOD9124068
Probable space group: C 2
;
_chemical_formula_sum "Si O2"
_cell_formula_units_Z 22
_cell_length_a 15.284072
_cell_length_b 7.560555
_cell_length_c 8.412836
_cell_angle_alpha 90.000000
_cell_angle_beta 79.378582
_cell_angle_gamma 90.000000
_cell_volume 955.497852
_symmetry_space_group_name_H-M "C 2"
_symmetry_group_IT_number 5
_symmetry_cell_setting 'monoclinic'
loop_
_space_group_symop_operation_xyz
x,y,z
-x,y,-z
1/2+x,1/2+y,z
1/2-x,1/2+y,-z
loop_
_atom_site_type_symbol
_atom_site_label
_atom_site_fract_x
_atom_site_fract_y
_atom_site_fract_z
Si Si1 0.000000 0.350930 0.000000
Si Si2 0.395165 0.130839 0.502992
Si Si3 0.803942 0.943452 0.869500
Si Si4 0.856466 0.314458 0.289525
Si Si5 0.893807 0.044436 0.540027
Si Si6 0.850341 0.576306 0.868278
O O1 0.072112 0.465761 0.073538
O O2 0.938538 0.254140 0.150242
O O3 0.500000 0.120947 0.500000
O O4 0.375368 0.340079 0.496855
O O5 0.352593 0.053362 0.678317
O O6 0.374992 0.006943 0.360966
O O7 0.729766 0.845734 0.786472
O O8 0.857048 0.068815 0.731421
O O9 0.867165 0.783689 0.900415
O O10 0.745592 0.028981 0.025947
O O11 0.846901 0.176041 0.434376
O O12 0.000000 0.074889 0.500000
#
# Coordination Sequence:
#
# PCOD9124068 Si02
#       6
#     2   4   4   4   4   4
#     4  10  22  42  70  94 124 182 216 254 342 378
#     4  10  20  41  70  92 130 172 216 266 322 387
#     4  10  25  42  63  98 132 168 217 272 330 375
#     4  11  23  42  69  94 128 174 215 270 323 388
#     4  10  24  41  64  96 125 169 221 259 320 389
#     4  10  22  43  62  96 131 167 219 266 321 390
#
# _framework density 23.024646000000001
#
# number of rings (size 3 to 8) (size 9 to 14) (size 15 to 20)
#    0.000    1.818    1.818    0.545    7.636    1.455 
#    6.545    0.909    0.000    0.000    0.000    0.000 
#    0.000    0.000    0.000    0.000    0.000    0.000 
#
# Total GULP energy -61522.901075 kJ/mol
# GULP energy per Si atom -5592.991007 kJ/mol
# Density = 2.297224 g / cm^3
# Si number density = 23.024646 Si / 1000 Ang^3
#
#
#
# Elastic Constant Matrix: (Units=GPa)
#
#
# Indices 1 2 3 4 5 6 
#
# 1 61.7045 2.3709 15.2438 0.0000 -19.6826 0.0000
# 2 2.3709 42.0881 -2.9705 0.0000 14.6482 0.0000
# 3 15.2438 -2.9705 70.8755 0.0000 -41.3826 0.0000
# 4 0.0000 0.0000 0.0000 37.7150 0.0000 -4.1020
# 5 -19.6826 14.6482 -41.3826 0.0000 49.5529 0.0000
# 6 0.0000 0.0000 0.0000 -4.1020 0.0000 24.0487
#
#
#
# Elastic Compliance Matrix: (Units=1/GPa)
#
#
# Indices 1 2 3 4 5 6 
#
# 1 0.019302 -0.004632 0.001816 0.000000 0.010552 0.000000
# 2 -0.004632 0.029364 -0.007641 0.000000 -0.016901 0.000000
# 3 0.001816 -0.007641 0.029545 0.000000 0.027653 0.000000
# 4 0.000000 0.000000 0.000000 0.027016 0.000000 0.004608
# 5 0.010552 -0.016901 0.027653 0.000000 0.052462 0.000000
# 6 0.000000 0.000000 0.000000 0.004608 0.000000 0.042368
#
#
# Mechanical properties :
#
#
# Convention : Reuss Voigt Hill
#
# Bulk Modulus (GPa) = 17.45360 22.66185 20.05773
# Shear Modulus (GPa) = 20.82735 32.93156 26.87946
#
# Velocity S-wave (km/s) = 3.01087 3.78600 3.42046
# Velocity P-wave (km/s) = 4.43666 5.38289 4.93252
#
# Compressibility (1/GPa) = 0.05729476
#
# Stress axis : x y z
#
# Youngs Moduli (GPa) = 51.80910 34.05577 33.84720
#
# Poissons Ratio (x) = 0.15774 -0.06145
# Poissons Ratio (y) = 0.23996 0.25864
# Poissons Ratio (z) = -0.09407 0.26023
#
# Static dielectric constant tensor:
#      x y z
#    x 1.855190 0.000000 -0.042760 
#    y 0.000000 1.897910 0.000000 
#    z -0.042760 0.000000 1.873150 
# 
# From -- ./inp_files/26257.got.cif
#   From: 2010.05.17/outbox.cif.g08.bks.cpg/sg5_14_cif.got.tgz:26257.got - 2010.06.03 18:56:24.
