data_PCOD9124609
_publ_section_title
;
Structure prediction by ZEFSAII (Michael W. Deem and Ramdas Pophale) SiO2 
 PCOD9124609
Probable space group: C 2
;
_chemical_formula_sum "Si O2"
_cell_formula_units_Z 24
_cell_length_a 8.759731
_cell_length_b 17.376830
_cell_length_c 9.355576
_cell_angle_alpha 90.000000
_cell_angle_beta 95.651744
_cell_angle_gamma 90.000000
_cell_volume 1417.149089
_symmetry_space_group_name_H-M "C 2"
_symmetry_group_IT_number 5
_symmetry_cell_setting 'monoclinic'
loop_
_space_group_symop_operation_xyz
x,y,z
-x,y,-z
1/2+x,1/2+y,z
1/2-x,1/2+y,-z
loop_
_atom_site_type_symbol
_atom_site_label
_atom_site_fract_x
_atom_site_fract_y
_atom_site_fract_z
Si Si1 0.139757 0.572250 0.911127
Si Si2 0.097892 0.052543 0.652152
Si Si3 0.890810 0.346968 0.850911
Si Si4 0.140161 0.947886 0.909163
Si Si5 0.576718 0.671060 0.162574
Si Si6 0.937116 0.493203 0.653768
O O1 0.258803 0.632197 0.853375
O O2 0.059457 0.532222 0.769535
O O3 0.237290 0.510195 0.015062
O O4 0.000000 0.601181 0.000000
O O5 0.000000 0.046916 0.500000
O O6 0.030282 0.124559 0.736107
O O7 0.075076 0.980630 0.755467
O O8 0.280493 0.044501 0.638656
O O9 0.723322 0.367267 0.895298
O O10 0.908917 0.260631 0.797781
O O11 0.911698 0.410685 0.729070
O O12 0.000000 0.358586 0.000000
O O13 0.000000 0.942842 0.000000
O O14 0.500000 0.666932 0.000000
O O15 0.000000 0.484899 0.500000
#
# Coordination Sequence:
#
# PCOD9124609 Si02
#       6
#     4   4   4   4   4   4
#     4  12  18  36  61  85 110 145 193 240 269 331
#     4  11  21  36  57  87 112 149 191 233 278 336
#     4  10  21  37  57  83 117 147 188 228 288 339
#     4  11  19  36  60  85 109 148 189 238 273 330
#     4  11  21  36  58  86 115 151 185 232 287 337
#     4  11  22  36  60  85 111 152 193 234 279 331
#
# _framework density 16.935409
#
# number of rings (size 3 to 8) (size 9 to 14) (size 15 to 20)
#    0.000    1.000    8.333    1.000    0.000    1.333 
#    0.000    0.000    0.000   12.000    0.000    0.000 
#    0.000    0.000    0.000    0.000    0.000    0.000 
#
# Total GULP energy -66860.056863 kJ/mol
# GULP energy per Si atom -5571.671405 kJ/mol
# Density = 1.689686 g / cm^3
# Si number density = 16.935409 Si / 1000 Ang^3
#
#
#
# Elastic Constant Matrix: (Units=GPa)
#
#
# Indices 1 2 3 4 5 6 
#
# 1 118.7286 66.9667 47.0292 0.0000 -14.4137 0.0000
# 2 66.9667 103.1261 41.4186 0.0000 4.5044 0.0000
# 3 47.0292 41.4186 117.7502 0.0000 2.4775 0.0000
# 4 0.0000 0.0000 0.0000 15.7024 0.0000 -0.2168
# 5 -14.4137 4.5044 2.4775 0.0000 34.2726 0.0000
# 6 0.0000 0.0000 0.0000 -0.2168 0.0000 22.7475
#
#
#
# Elastic Compliance Matrix: (Units=1/GPa)
#
#
# Indices 1 2 3 4 5 6 
#
# 1 0.016058 -0.009481 -0.003252 0.000000 0.008235 0.000000
# 2 -0.009481 0.016940 -0.002044 0.000000 -0.006066 0.000000
# 3 -0.003252 -0.002044 0.010549 0.000000 -0.001862 0.000000
# 4 0.000000 0.000000 0.000000 0.063693 0.000000 0.000607
# 5 0.008235 -0.006066 -0.001862 0.000000 0.033573 0.000000
# 6 0.000000 0.000000 0.000000 0.000607 0.000000 0.043967
#
#
# Mechanical properties :
#
#
# Convention : Reuss Voigt Hill
#
# Bulk Modulus (GPa) = 71.46472 72.27043 71.86757
# Shear Modulus (GPa) = 22.83130 26.82387 24.82758
#
# Velocity S-wave (km/s) = 3.67569 3.98413 3.83301
# Velocity P-wave (km/s) = 7.76558 7.99570 7.88148
#
# Compressibility (1/GPa) = 0.01399292
#
# Stress axis : x y z
#
# Youngs Moduli (GPa) = 62.27433 59.03345 94.79131
#
# Poissons Ratio (x) = 0.55971 0.30824
# Poissons Ratio (y) = 0.59043 0.19376
# Poissons Ratio (z) = 0.20250 0.12067
#
# Static dielectric constant tensor:
#      x y z
#    x 1.615700 0.000000 -0.010960 
#    y 0.000000 1.572470 0.000000 
#    z -0.010960 0.000000 1.562290 
# 
# From -- ./inp_files/15063.got.cif
#   From: 2010.05.17/outbox.cif.g08.bks.cpg/sg5_8_cif.got.tgz:15063.got - 2010.06.03 18:56:24.
