data_PCOD9124746
_publ_section_title
;
Structure prediction by ZEFSAII (Michael W. Deem and Ramdas Pophale) SiO2 
 PCOD9124746
Probable space group: C 2
;
_chemical_formula_sum "Si O2"
_cell_formula_units_Z 30
_cell_length_a 5.370887
_cell_length_b 36.229237
_cell_length_c 7.778888
_cell_angle_alpha 90.000000
_cell_angle_beta 74.320857
_cell_angle_gamma 90.000000
_cell_volume 1457.318161
_symmetry_space_group_name_H-M "C 2"
_symmetry_group_IT_number 5
_symmetry_cell_setting 'monoclinic'
loop_
_space_group_symop_operation_xyz
x,y,z
-x,y,-z
1/2+x,1/2+y,z
1/2-x,1/2+y,-z
loop_
_atom_site_type_symbol
_atom_site_label
_atom_site_fract_x
_atom_site_fract_y
_atom_site_fract_z
Si Si1 0.293549 0.302900 0.694361
Si Si2 0.412371 0.643960 0.214157
Si Si3 0.000000 0.838444 0.000000
Si Si4 0.295840 0.026912 0.380702
Si Si5 0.296060 0.945597 0.382059
Si Si6 0.087165 0.605205 0.786632
Si Si7 0.202144 0.222756 0.618231
Si Si8 0.027373 0.371619 0.197099
O O1 0.500000 0.302804 0.500000
O O2 0.171156 0.262260 0.716233
O O3 0.102194 0.336738 0.687946
O O4 0.391189 0.311819 0.869609
O O5 0.648703 0.628293 0.283148
O O6 0.356334 0.686550 0.260837
O O7 0.149469 0.620454 0.282846
O O8 0.500000 0.639936 0.000000
O O9 0.833331 0.866416 0.152561
O O10 0.500000 0.027673 0.500000
O O11 0.359056 0.062303 0.255722
O O12 0.000000 0.030151 0.500000
O O13 0.313792 0.986107 0.292622
O O14 0.500000 0.947168 0.500000
O O15 0.393471 0.909880 0.263303
O O16 0.000000 0.940750 0.500000
O O17 0.000000 0.609910 0.000000
O O18 0.500000 0.220270 0.500000
O O19 0.000000 0.222601 0.500000
O O20 0.000000 0.365113 0.000000
#
# Coordination Sequence:
#
# PCOD9124746 Si02
#       8
#     4   4   2   4   4   4   4   4
#     4  10  24  42  65  92 127 170 214 272 319 387
#     4  10  22  40  60  89 122 162 203 251 309 373
#     4  10  24  42  62  98 124 170 226 256 332 382
#     4  10  21  38  59  91 120 157 205 252 306 368
#     4  10  23  39  63  90 123 163 206 255 316 373
#     4  10  21  38  61  87 122 162 204 246 311 372
#     4  11  25  42  63  94 125 159 212 257 314 375
#     4  10  23  39  62  91 124 161 216 256 315 387
#
# _framework density 20.585758999999999
#
# number of rings (size 3 to 8) (size 9 to 14) (size 15 to 20)
#    0.000    1.867    0.000    2.000    9.333    5.333 
#    3.600    0.000    4.400    0.000    0.000    0.000 
#    0.000    0.000    0.000    0.000    0.000    0.000 
#
# Total GULP energy -83635.220682 kJ/mol
# GULP energy per Si atom -5575.681379 kJ/mol
# Density = 2.053891 g / cm^3
# Si number density = 20.585759 Si / 1000 Ang^3
#
#
#
# Elastic Constant Matrix: (Units=GPa)
#
#
# Indices 1 2 3 4 5 6 
#
# 1 131.6349 46.2072 29.1815 0.0000 -17.4458 0.0000
# 2 46.2072 177.5199 35.1357 0.0000 -33.4759 0.0000
# 3 29.1815 35.1357 47.5262 0.0000 -9.4086 0.0000
# 4 0.0000 0.0000 0.0000 62.1415 0.0000 -19.4010
# 5 -17.4458 -33.4759 -9.4086 0.0000 19.4194 0.0000
# 6 0.0000 0.0000 0.0000 -19.4010 0.0000 46.1963
#
#
#
# Elastic Compliance Matrix: (Units=1/GPa)
#
#
# Indices 1 2 3 4 5 6 
#
# 1 0.009477 -0.000596 -0.004310 0.000000 0.005399 0.000000
# 2 -0.000596 0.009007 -0.003678 0.000000 0.013210 0.000000
# 3 -0.004310 -0.003678 0.026972 0.000000 0.002856 0.000000
# 4 0.000000 0.000000 0.000000 0.018521 0.000000 0.007778
# 5 0.005399 0.013210 0.002856 0.000000 0.080500 0.000000
# 6 0.000000 0.000000 0.000000 0.007778 0.000000 0.024913
#
#
# Mechanical properties :
#
#
# Convention : Reuss Voigt Hill
#
# Bulk Modulus (GPa) = 35.34958 64.19219 49.77089
# Shear Modulus (GPa) = 25.51193 41.96189 33.73691
#
# Velocity S-wave (km/s) = 3.52419 4.51976 4.05266
# Velocity P-wave (km/s) = 5.81111 7.64775 6.79180
#
# Compressibility (1/GPa) = 0.02828888
#
# Stress axis : x y z
#
# Youngs Moduli (GPa) = 105.52122 111.02121 37.07589
#
# Poissons Ratio (x) = 0.06613 0.15978
# Poissons Ratio (y) = 0.06285 0.13637
# Poissons Ratio (z) = 0.45476 0.40835
#
# Static dielectric constant tensor:
#      x y z
#    x 2.157220 0.000000 -0.077940 
#    y 0.000000 1.734790 0.000000 
#    z -0.077940 0.000000 1.725120 
# 
# From -- ./inp_files/13352.got.cif
#   From: 2010.05.17/outbox.cif.g08.bks.cpg/sg5_7_cif.got.tgz:13352.got - 2010.06.03 18:56:24.
