data_PCOD9124898
_publ_section_title
;
Structure prediction by ZEFSAII (Michael W. Deem and Ramdas Pophale) SiO2 
 PCOD9124898
Probable space group: C 2
;
_chemical_formula_sum "Si O2"
_cell_formula_units_Z 26
_cell_length_a 13.916190
_cell_length_b 4.985441
_cell_length_c 21.300048
_cell_angle_alpha 90.000000
_cell_angle_beta 57.675996
_cell_angle_gamma 90.000000
_cell_volume 1248.764938
_symmetry_space_group_name_H-M "C 2"
_symmetry_group_IT_number 5
_symmetry_cell_setting 'monoclinic'
loop_
_space_group_symop_operation_xyz
x,y,z
-x,y,-z
1/2+x,1/2+y,z
1/2-x,1/2+y,-z
loop_
_atom_site_type_symbol
_atom_site_label
_atom_site_fract_x
_atom_site_fract_y
_atom_site_fract_z
Si Si1 0.246221 0.703270 0.237101
Si Si2 0.224127 0.991919 0.972361
Si Si3 0.797233 0.701520 0.141392
Si Si4 0.693241 0.339930 0.492343
Si Si5 0.000000 0.918514 0.000000
Si Si6 0.645381 0.738371 0.669325
Si Si7 0.520610 0.238773 0.651963
O O1 0.267924 0.397994 0.208817
O O2 0.327759 0.768135 0.267073
O O3 0.114527 0.747762 0.299511
O O4 0.272998 0.900233 0.169543
O O5 0.287696 0.254362 0.972707
O O6 0.096804 0.087150 0.000159
O O7 0.268585 0.830736 0.895609
O O8 0.927299 0.741612 0.073892
O O9 0.723995 0.649898 0.493999
O O10 0.732846 0.260390 0.409297
O O11 0.570692 0.277438 0.564067
O O12 0.582134 0.465560 0.672505
O O13 0.566522 0.964722 0.665921
#
# Coordination Sequence:
#
# PCOD9124898 Si02
#       7
#     4   4   4   4   2   4   4
#     4  12  23  41  56  90 126 147 192 238 294 352
#     4  10  21  42  65  87 110 147 195 237 284 346
#     4  10  24  43  60  86 122 148 189 252 277 348
#     4   8  16  33  58  81 112 149 201 238 268 333
#     4   8  24  44  62  86 118 144 202 236 288 332
#     4  10  21  39  61  85 116 162 194 229 293 345
#     4  10  21  39  57  87 119 155 194 246 282 332
#
# _framework density 20.82057
#
# number of rings (size 3 to 8) (size 9 to 14) (size 15 to 20)
#    0.923    1.231    0.000    2.769    0.000    3.077 
#   16.615    0.000    0.000   12.923    0.000    0.000 
#    0.000    0.000    0.000    0.000    0.000    0.000 
#
# Total GULP energy -72446.812144 kJ/mol
# GULP energy per Si atom -5572.831703 kJ/mol
# Density = 2.077318 g / cm^3
# Si number density = 20.820570 Si / 1000 Ang^3
#
#
#
# Elastic Constant Matrix: (Units=GPa)
#
#
# Indices 1 2 3 4 5 6 
#
# 1 45.0715 0.3184 9.0644 0.0034 -1.2712 0.0089
# 2 0.3184 74.8277 -2.3547 0.0099 4.5560 0.0319
# 3 9.0644 -2.3547 41.8033 0.0016 -10.3287 0.0071
# 4 0.0034 0.0099 0.0016 16.5202 -0.0005 33.0966
# 5 -1.2712 4.5560 -10.3287 -0.0005 36.0601 0.0023
# 6 0.0089 0.0319 0.0071 33.0966 0.0023 -86.7929
#
#
#
# Elastic Compliance Matrix: (Units=1/GPa)
#
#
# Indices 1 2 3 4 5 6 
#
# 1 0.023217 -0.000223 -0.005206 -0.000004 -0.000645 0.000000
# 2 -0.000223 0.013475 0.000414 -0.000010 -0.001592 0.000001
# 3 -0.005206 0.000414 0.026921 -0.000003 0.007475 0.000001
# 4 -0.000004 -0.000010 -0.000003 0.034316 0.000000 0.013086
# 5 -0.000645 -0.001592 0.007475 0.000000 0.030051 0.000001
# 6 0.000000 0.000001 0.000001 0.013086 0.000001 -0.006532
#
#
# Mechanical properties :
#
#
# Convention : Reuss Voigt Hill
#
# Bulk Modulus (GPa) = 18.66290 19.52876 19.09583
# Shear Modulus (GPa) = 33.48072 3.46913 18.47492
#
# Velocity S-wave (km/s) = 4.01441 1.29221 2.98206
# Velocity P-wave (km/s) = 5.52001 3.40974 4.58785
#
# Compressibility (1/GPa) = 0.05358224
#
# Stress axis : x y z
#
# Youngs Moduli (GPa) = 43.07115 74.21185 37.14618
#
# Poissons Ratio (x) = 0.01658 0.19339
# Poissons Ratio (y) = 0.00962 -0.01539
# Poissons Ratio (z) = 0.22424 -0.03074
#
# Static dielectric constant tensor:
#      x y z
#    x 1.744730 0.000000 0.046810 
#    y 0.000000 1.699010 0.000000 
#    z 0.046810 0.000000 1.835170 
# 
# From -- ./inp_files/65542.got.cif
#   From: 2010.05.17/outbox.cif.g08.bks.cpg/sg5_33_cif.got.tgz:65542.got - 2010.06.03 18:56:24.
