data_PCOD9124572
_publ_section_title
;
Structure prediction by ZEFSAII (Michael W. Deem and Ramdas Pophale) SiO2 
 PCOD9124572
Probable space group: C 2
;
_chemical_formula_sum "Si O2"
_cell_formula_units_Z 30
_cell_length_a 11.835581
_cell_length_b 10.191295
_cell_length_c 16.464268
_cell_angle_alpha 90.000000
_cell_angle_beta 45.750529
_cell_angle_gamma 90.000000
_cell_volume 1422.529945
_symmetry_space_group_name_H-M "C 2"
_symmetry_group_IT_number 5
_symmetry_cell_setting 'monoclinic'
loop_
_space_group_symop_operation_xyz
x,y,z
-x,y,-z
1/2+x,1/2+y,z
1/2-x,1/2+y,-z
loop_
_atom_site_type_symbol
_atom_site_label
_atom_site_fract_x
_atom_site_fract_y
_atom_site_fract_z
Si Si1 0.089765 0.536440 0.708874
Si Si2 0.882371 0.918484 0.812544
Si Si3 0.656944 0.296706 0.762845
Si Si4 0.440424 0.198520 0.656315
Si Si5 0.240161 0.770451 0.405973
Si Si6 0.500000 0.366401 0.000000
Si Si7 0.410597 0.705396 0.746845
Si Si8 0.695636 0.907225 0.070574
O O1 0.160207 0.672988 0.702190
O O2 0.213815 0.419489 0.640125
O O3 0.999498 0.566296 0.669722
O O4 0.953516 0.499010 0.841012
O O5 0.870473 0.794907 0.759193
O O6 0.059746 0.909121 0.763659
O O7 0.859048 0.054437 0.776978
O O8 0.758417 0.903245 0.948013
O O9 0.547724 0.280471 0.898337
O O10 0.827218 0.293671 0.719701
O O11 0.597280 0.265240 0.540390
O O12 0.318901 0.191052 0.643377
O O13 0.402517 0.711503 0.357014
O O14 0.652239 0.448289 0.951293
O O15 0.360586 0.771376 0.858354
#
# Coordination Sequence:
#
# PCOD9124572 Si02
#       8
#     4   4   4   4   4   2   4   4
#     4  10  21  39  63  85 122 157 195 255 299 364
#     4  10  21  36  63  87 121 156 199 246 304 366
#     4   9  19  35  56  90 114 155 196 238 300 357
#     4  10  23  41  62  86 120 159 202 251 309 351
#     4  10  23  42  59  88 118 158 209 250 300 357
#     4   8  16  32  52  78 122 150 182 236 288 354
#     4  10  21  37  60  84 120 157 197 249 296 360
#     4   9  20  34  57  89 119 153 197 240 303 365
#
# _framework density 21.089186000000002
#
# number of rings (size 3 to 8) (size 9 to 14) (size 15 to 20)
#    0.000    2.400    0.000    0.800    9.333    4.267 
#    0.000    4.000    0.000    0.000    0.000    0.000 
#    0.000    0.000    0.000    0.000    0.000    0.000 
#
# Total GULP energy -83600.498499 kJ/mol
# GULP energy per Si atom -5573.366567 kJ/mol
# Density = 2.104119 g / cm^3
# Si number density = 21.089186 Si / 1000 Ang^3
#
#
#
# Elastic Constant Matrix: (Units=GPa)
#
#
# Indices 1 2 3 4 5 6 
#
# 1 71.2713 0.3283 26.4736 0.0000 -6.7144 0.0000
# 2 0.3283 20.2604 -5.8128 0.0000 1.4328 0.0000
# 3 26.4736 -5.8128 63.0136 0.0000 -5.9115 0.0000
# 4 0.0000 0.0000 0.0000 10.9886 0.0000 0.8622
# 5 -6.7144 1.4328 -5.9115 0.0000 33.4734 0.0000
# 6 0.0000 0.0000 0.0000 0.8622 0.0000 21.5623
#
#
#
# Elastic Compliance Matrix: (Units=1/GPa)
#
#
# Indices 1 2 3 4 5 6 
#
# 1 0.016897 -0.002474 -0.007117 0.000000 0.002238 0.000000
# 2 -0.002474 0.051123 0.005596 0.000000 -0.001696 0.000000
# 3 -0.007117 0.005596 0.019543 0.000000 0.001784 0.000000
# 4 0.000000 0.000000 0.000000 0.091290 0.000000 -0.003650
# 5 0.002238 -0.001696 0.001784 0.000000 0.030711 0.000000
# 6 0.000000 0.000000 0.000000 -0.003650 0.000000 0.046523
#
#
# Mechanical properties :
#
#
# Convention : Reuss Voigt Hill
#
# Bulk Modulus (GPa) = 12.56701 21.83594 17.20147
# Shear Modulus (GPa) = 17.20573 22.10862 19.65717
#
# Velocity S-wave (km/s) = 2.85942 3.24132 3.05634
# Velocity P-wave (km/s) = 4.10775 4.93809 4.54194
#
# Compressibility (1/GPa) = 0.07957343
#
# Stress axis : x y z
#
# Youngs Moduli (GPa) = 59.18295 19.56067 51.16859
#
# Poissons Ratio (x) = 0.04839 0.36417
# Poissons Ratio (y) = 0.14642 -0.28635
# Poissons Ratio (z) = 0.42120 -0.10947
#
# Static dielectric constant tensor:
#      x y z
#    x 1.831340 0.000000 0.003340 
#    y 0.000000 1.753850 0.000000 
#    z 0.003340 0.000000 1.734730 
# 
# From -- ./inp_files/52875.got.cif
#   From: 2010.05.17/outbox.cif.g08.bks.cpg/sg5_27_cif.got.tgz:52875.got - 2010.06.03 18:56:24.
