data_PCOD9124951
_publ_section_title
;
Structure prediction by ZEFSAII (Michael W. Deem and Ramdas Pophale) SiO2 
 PCOD9124951
Probable space group: C 2
;
_chemical_formula_sum "Si O2"
_cell_formula_units_Z 20
_cell_length_a 26.347473
_cell_length_b 7.471316
_cell_length_c 9.631295
_cell_angle_alpha 90.000000
_cell_angle_beta 26.382086
_cell_angle_gamma 90.000000
_cell_volume 842.463188
_symmetry_space_group_name_H-M "C 2"
_symmetry_group_IT_number 5
_symmetry_cell_setting 'monoclinic'
loop_
_space_group_symop_operation_xyz
x,y,z
-x,y,-z
1/2+x,1/2+y,z
1/2-x,1/2+y,-z
loop_
_atom_site_type_symbol
_atom_site_label
_atom_site_fract_x
_atom_site_fract_y
_atom_site_fract_z
Si Si1 0.218126 0.656700 0.183922
Si Si2 0.120720 0.310069 0.744204
Si Si3 0.231273 0.059697 0.245394
Si Si4 0.526178 0.183658 0.277272
Si Si5 0.656383 0.512822 0.867440
O O1 0.301249 0.548274 0.080026
O O2 0.087844 0.586584 0.495123
O O3 0.204368 0.854922 0.279459
O O4 0.266136 0.657510 0.910555
O O5 0.152937 0.167102 0.543976
O O6 0.227530 0.443824 0.490881
O O7 0.000000 0.395773 0.000000
O O8 0.886599 0.190516 0.100333
O O9 0.360074 0.067154 0.989706
O O10 0.500000 0.242816 0.500000
O O11 0.563411 0.355989 0.097345
#
# Coordination Sequence:
#
# PCOD9124951 Si02
#       5
#     4   4   4   4   4
#     4  11  21  40  64  86 117 153 193 248 289 336
#     4  11  24  41  59  87 122 156 192 238 291 348
#     4  10  21  39  62  88 118 153 196 237 291 349
#     4   9  20  39  61  89 118 149 193 244 292 340
#     4  11  24  39  61  88 117 155 199 237 287 351
#
# _framework density 23.739909999999998
#
# number of rings (size 3 to 8) (size 9 to 14) (size 15 to 20)
#    0.000    1.600    0.000    6.000    0.000    4.800 
#    0.000   14.000    0.000    0.000    0.000    0.000 
#    0.000    0.000    0.000    0.000    0.000    0.000 
#
# Total GULP energy -55979.501340 kJ/mol
# GULP energy per Si atom -5597.950134 kJ/mol
# Density = 2.368588 g / cm^3
# Si number density = 23.739910 Si / 1000 Ang^3
#
#
#
# Elastic Constant Matrix: (Units=GPa)
#
#
# Indices 1 2 3 4 5 6 
#
# 1 84.9270 3.5596 9.0101 0.0000 4.5400 0.0000
# 2 3.5596 37.2588 -2.9224 0.0000 -3.0877 0.0000
# 3 9.0101 -2.9224 68.4852 0.0000 -7.4783 0.0000
# 4 0.0000 0.0000 0.0000 12.8611 0.0000 12.0429
# 5 4.5400 -3.0877 -7.4783 0.0000 31.0660 0.0000
# 6 0.0000 0.0000 0.0000 12.0429 0.0000 38.4493
#
#
#
# Elastic Compliance Matrix: (Units=1/GPa)
#
#
# Indices 1 2 3 4 5 6 
#
# 1 0.012171 -0.001512 -0.001927 0.000000 -0.002393 0.000000
# 2 -0.001512 0.027398 0.001735 0.000000 0.003362 0.000000
# 3 -0.001927 0.001735 0.015383 0.000000 0.004157 0.000000
# 4 0.000000 0.000000 0.000000 0.110022 0.000000 -0.034460
# 5 -0.002393 0.003362 0.004157 0.000000 0.033874 0.000000
# 6 0.000000 0.000000 0.000000 -0.034460 0.000000 0.036802
#
#
# Mechanical properties :
#
#
# Convention : Reuss Voigt Hill
#
# Bulk Modulus (GPa) = 19.40080 23.32952 21.36516
# Shear Modulus (GPa) = 19.51300 28.54351 24.02826
#
# Velocity S-wave (km/s) = 2.87008 3.47124 3.18488
# Velocity P-wave (km/s) = 4.37871 5.09063 4.74803
#
# Compressibility (1/GPa) = 0.05154426
#
# Stress axis : x y z
#
# Youngs Moduli (GPa) = 82.16549 36.49835 65.00595
#
# Poissons Ratio (x) = 0.05519 0.12527
# Poissons Ratio (y) = 0.12425 -0.11280
# Poissons Ratio (z) = 0.15833 -0.06333
#
# Static dielectric constant tensor:
#      x y z
#    x 1.908500 0.000000 0.015510 
#    y 0.000000 1.853640 0.000000 
#    z 0.015510 0.000000 1.864270 
# 
# From -- ./inp_files/38158.got.cif
#   From: 2010.05.17/outbox.cif.g08.bks.cpg/sg5_20_cif.got.tgz:38158.got - 2010.06.03 18:56:24.
