data_PCOD9124272
_publ_section_title
;
Structure prediction by ZEFSAII (Michael W. Deem and Ramdas Pophale) SiO2 
 PCOD9124272
Probable space group: C 2
;
_chemical_formula_sum "Si O2"
_cell_formula_units_Z 16
_cell_length_a 22.963546
_cell_length_b 4.947889
_cell_length_c 9.267308
_cell_angle_alpha 90.000000
_cell_angle_beta 35.167076
_cell_angle_gamma 90.000000
_cell_volume 606.466517
_symmetry_space_group_name_H-M "C 2"
_symmetry_group_IT_number 5
_symmetry_cell_setting 'monoclinic'
loop_
_space_group_symop_operation_xyz
x,y,z
-x,y,-z
1/2+x,1/2+y,z
1/2-x,1/2+y,-z
loop_
_atom_site_type_symbol
_atom_site_label
_atom_site_fract_x
_atom_site_fract_y
_atom_site_fract_z
Si Si1 0.203118 0.659140 0.679785
Si Si2 0.040689 0.266535 0.063232
Si Si3 0.093743 0.466050 0.411190
Si Si4 0.721177 0.806306 0.887234
O O1 0.263235 0.423226 0.470775
O O2 0.229987 0.599444 0.792471
O O3 0.087881 0.554509 0.914262
O O4 0.956416 0.307961 0.354777
O O5 0.138115 0.153446 0.953454
O O6 0.000000 0.133844 0.000000
O O7 0.167956 0.688019 0.326929
O O8 0.000000 0.567393 0.500000
O O9 0.165663 0.311934 0.152523
#
# Coordination Sequence:
#
# PCOD9124272 Si02
#       4
#     4   4   4   4
#     4  10  22  42  69 101 138 182 232 293 352 412
#     4   9  20  40  68  96 138 182 232 294 347 424
#     4  10  20  43  62  97 141 182 236 284 358 417
#     4   9  22  38  70  96 137 187 224 295 345 424
#
# _framework density 26.382331000000001
#
# number of rings (size 3 to 8) (size 9 to 14) (size 15 to 20)
#    1.500    1.000    0.000    1.500    0.000    4.000 
#    0.000   12.500    0.000    0.000    0.000    0.000 
#    0.000    0.000    0.000    0.000    0.000    0.000 
#
# Total GULP energy -44675.171887 kJ/mol
# GULP energy per Si atom -5584.396486 kJ/mol
# Density = 2.632228 g / cm^3
# Si number density = 26.382331 Si / 1000 Ang^3
#
#
#
# Elastic Constant Matrix: (Units=GPa)
#
#
# Indices 1 2 3 4 5 6 
#
# 1 207.8171 39.2171 61.6056 0.0000 -7.8797 0.0001
# 2 39.2171 61.2615 28.9031 -0.0003 -1.1138 0.0010
# 3 61.6056 28.9031 194.3872 0.0001 24.0531 0.0001
# 4 0.0000 -0.0003 0.0001 41.7859 -0.0001 -2.3894
# 5 -7.8797 -1.1138 24.0531 -0.0001 68.1982 -0.0001
# 6 0.0001 0.0010 0.0001 -2.3894 -0.0001 33.1363
#
#
#
# Elastic Compliance Matrix: (Units=1/GPa)
#
#
# Indices 1 2 3 4 5 6 
#
# 1 0.005889 -0.003010 -0.001565 0.000000 0.001183 0.000000
# 2 -0.003010 0.019198 -0.001983 0.000000 0.000665 -0.000001
# 3 -0.001565 -0.001983 0.006234 0.000000 -0.002412 0.000000
# 4 0.000000 0.000000 0.000000 0.024031 0.000000 0.001733
# 5 0.001183 0.000665 -0.002412 0.000000 0.015661 0.000000
# 6 0.000000 -0.000001 0.000000 0.001733 0.000000 0.030303
#
#
# Mechanical properties :
#
#
# Convention : Reuss Voigt Hill
#
# Bulk Modulus (GPa) = 54.93145 80.32414 67.62780
# Shear Modulus (GPa) = 41.49398 50.87343 46.18371
#
# Velocity S-wave (km/s) = 3.97015 4.39602 4.18850
# Velocity P-wave (km/s) = 6.47168 7.50193 7.00577
#
# Compressibility (1/GPa) = 0.01820451
#
# Stress axis : x y z
#
# Youngs Moduli (GPa) = 169.81557 52.08923 160.41887
#
# Poissons Ratio (x) = 0.15678 0.25108
# Poissons Ratio (y) = 0.51111 0.31810
# Poissons Ratio (z) = 0.26579 0.10329
#
# Static dielectric constant tensor:
#      x y z
#    x 2.145290 0.000000 -0.021480 
#    y 0.000000 2.272200 0.000000 
#    z -0.021480 0.000000 1.989460 
# 
# From -- ./inp_files/28232.got.cif
#   From: 2010.05.17/outbox.cif.g08.bks.cpg/sg5_15_cif.got.tgz:28232.got - 2010.06.03 18:56:24.
