data_PCOD9124247
_publ_section_title
;
Structure prediction by ZEFSAII (Michael W. Deem and Ramdas Pophale) SiO2 
 PCOD9124247
Probable space group: C 2
;
_chemical_formula_sum "Si O2"
_cell_formula_units_Z 26
_cell_length_a 11.905902
_cell_length_b 7.452632
_cell_length_c 15.439413
_cell_angle_alpha 90.000000
_cell_angle_beta 56.856523
_cell_angle_gamma 90.000000
_cell_volume 1147.059575
_symmetry_space_group_name_H-M "C 2"
_symmetry_group_IT_number 5
_symmetry_cell_setting 'monoclinic'
loop_
_space_group_symop_operation_xyz
x,y,z
-x,y,-z
1/2+x,1/2+y,z
1/2-x,1/2+y,-z
loop_
_atom_site_type_symbol
_atom_site_label
_atom_site_fract_x
_atom_site_fract_y
_atom_site_fract_z
Si Si1 0.000000 0.200470 0.500000
Si Si2 0.255332 0.927554 0.232242
Si Si3 0.519736 0.353424 0.872833
Si Si4 0.521869 0.339511 0.586490
Si Si5 0.714109 0.251522 0.646621
Si Si6 0.027606 0.255361 0.087207
Si Si7 0.209043 0.709171 0.935326
O O1 0.132061 0.314072 0.423434
O O2 0.038743 0.055913 0.560076
O O3 0.387183 0.808524 0.188179
O O4 0.116246 0.824001 0.301804
O O5 0.266847 0.068465 0.306729
O O6 0.257116 0.035426 0.139260
O O7 0.599726 0.352091 0.749899
O O8 0.452446 0.542400 0.916707
O O9 0.635973 0.330000 0.894422
O O10 0.408445 0.200295 0.941311
O O11 0.500000 0.263712 0.500000
O O12 0.647010 0.250847 0.581068
O O13 0.163481 0.309589 0.077994
O O14 0.000000 0.310741 0.000000
#
# Coordination Sequence:
#
# PCOD9124247 Si02
#       7
#     2   4   4   4   4   4   4
#     4   8  20  42  64  94 122 164 210 260 332 366
#     4  10  24  42  65  95 125 177 210 255 325 377
#     4  10  23  43  62  97 131 170 211 261 316 375
#     4   9  20  43  64  95 129 161 210 274 318 371
#     4  10  20  42  72  88 129 170 209 270 319 379
#     4  12  26  38  64  96 130 172 211 259 311 381
#     4  10  23  43  62  93 135 167 210 254 312 383
#
# _framework density 22.666651000000002
#
# number of rings (size 3 to 8) (size 9 to 14) (size 15 to 20)
#    0.462    1.538    1.538    0.923    8.615    1.231 
#   11.077    1.538    0.000    0.000    0.000    0.000 
#    0.000    0.000    0.000    0.000    0.000    0.000 
#
# Total GULP energy -72419.030384 kJ/mol
# GULP energy per Si atom -5570.694645 kJ/mol
# Density = 2.261506 g / cm^3
# Si number density = 22.666651 Si / 1000 Ang^3
#
#
#
# Elastic Constant Matrix: (Units=GPa)
#
#
# Indices 1 2 3 4 5 6 
#
# 1 154.8470 14.7117 57.1346 0.0000 -20.1975 0.0000
# 2 14.7117 25.1940 12.2679 0.0000 -5.7531 0.0000
# 3 57.1346 12.2679 128.9674 0.0000 -22.6709 0.0000
# 4 0.0000 0.0000 0.0000 11.1708 0.0000 -7.4368
# 5 -20.1975 -5.7531 -22.6709 0.0000 34.9651 0.0000
# 6 0.0000 0.0000 0.0000 -7.4368 0.0000 20.0586
#
#
#
# Elastic Compliance Matrix: (Units=1/GPa)
#
#
# Indices 1 2 3 4 5 6 
#
# 1 0.008102 -0.002779 -0.002915 0.000000 0.002333 0.000000
# 2 -0.002779 0.043309 -0.002165 0.000000 0.004117 0.000000
# 3 -0.002915 -0.002165 0.010036 0.000000 0.004468 0.000000
# 4 0.000000 0.000000 0.000000 0.118856 0.000000 0.044066
# 5 0.002333 0.004117 0.004468 0.000000 0.033522 0.000000
# 6 0.000000 0.000000 0.000000 0.044066 0.000000 0.066192
#
#
# Mechanical properties :
#
#
# Convention : Reuss Voigt Hill
#
# Bulk Modulus (GPa) = 21.86745 53.02633 37.44689
# Shear Modulus (GPa) = 16.07835 28.23183 22.15509
#
# Velocity S-wave (km/s) = 2.66623 3.53303 3.12978
# Velocity P-wave (km/s) = 4.37570 6.33149 5.44218
#
# Compressibility (1/GPa) = 0.04573008
#
# Stress axis : x y z
#
# Youngs Moduli (GPa) = 123.42984 23.08986 99.63656
#
# Poissons Ratio (x) = 0.06416 0.29042
# Poissons Ratio (y) = 0.34300 0.21570
# Poissons Ratio (z) = 0.35977 0.04999
#
# Static dielectric constant tensor:
#      x y z
#    x 1.811320 0.000000 0.005680 
#    y 0.000000 1.912050 0.000000 
#    z 0.005680 0.000000 1.973990 
# 
# From -- ./inp_files/60201.got.cif
#   From: 2010.05.17/outbox.cif.g08.bks.cpg/sg5_31_cif.got.tgz:60201.got - 2010.06.03 18:56:24.
