data_PCOD9124032
_publ_section_title
;
Structure prediction by ZEFSAII (Michael W. Deem and Ramdas Pophale) SiO2 
 PCOD9124032
Probable space group: C 2
;
_chemical_formula_sum "Si O2"
_cell_formula_units_Z 28
_cell_length_a 13.057472
_cell_length_b 20.846259
_cell_length_c 7.326388
_cell_angle_alpha 90.000000
_cell_angle_beta 39.879526
_cell_angle_gamma 90.000000
_cell_volume 1278.656923
_symmetry_space_group_name_H-M "C 2"
_symmetry_group_IT_number 5
_symmetry_cell_setting 'monoclinic'
loop_
_space_group_symop_operation_xyz
x,y,z
-x,y,-z
1/2+x,1/2+y,z
1/2-x,1/2+y,-z
loop_
_atom_site_type_symbol
_atom_site_label
_atom_site_fract_x
_atom_site_fract_y
_atom_site_fract_z
Si Si1 0.108678 0.863250 0.685359
Si Si2 0.500000 0.486782 0.000000
Si Si3 0.152488 0.645353 0.652919
Si Si4 0.832433 0.089165 0.733781
Si Si5 0.500000 0.279415 0.500000
Si Si6 0.148936 0.270945 0.553415
Si Si7 0.680352 0.730186 0.095801
Si Si8 0.831824 0.546552 0.696711
O O1 0.068771 0.937992 0.751172
O O2 0.288614 0.840244 0.474045
O O3 0.056410 0.826992 0.579068
O O4 0.000000 0.835965 0.000000
O O5 0.660448 0.521413 0.852868
O O6 0.270334 0.602965 0.617529
O O7 0.241162 0.714066 0.510892
O O8 0.129271 0.606918 0.494513
O O9 0.000000 0.653826 0.000000
O O10 0.859745 0.157193 0.800007
O O11 0.000000 0.053880 0.500000
O O12 0.708183 0.058319 0.037210
O O13 0.354026 0.237681 0.774338
O O14 0.176680 0.264846 0.297123
O O15 0.961722 0.257428 0.834436
O O16 0.000000 0.509009 0.500000
#
# Coordination Sequence:
#
# PCOD9124032 Si02
#       8
#     4   2   4   4   2   4   4   4
#     4  10  23  46  66  92 128 178 219 287 342 379
#     4  10  26  52  68  94 140 180 238 296 334 390
#     4  11  22  39  67 104 141 172 216 281 347 414
#     4  11  22  41  62  99 145 180 216 274 343 408
#     4  12  24  40  68  98 128 174 232 278 342 414
#     4  10  20  41  66  95 143 174 213 276 345 408
#     4  10  21  36  63 103 135 178 212 265 345 416
#     4  12  26  45  72 104 131 187 238 280 344 413
#
# _framework density 21.897976
#
# number of rings (size 3 to 8) (size 9 to 14) (size 15 to 20)
#    0.429    0.857    5.714    1.286    5.000    0.571 
#    9.000    0.000    0.000    0.000    0.000    0.000 
#    0.000    0.000    0.000    0.000    0.000    0.000 
#
# Total GULP energy -78041.544420 kJ/mol
# GULP energy per Si atom -5574.396030 kJ/mol
# Density = 2.184813 g / cm^3
# Si number density = 21.897976 Si / 1000 Ang^3
#
#
#
# Elastic Constant Matrix: (Units=GPa)
#
#
# Indices 1 2 3 4 5 6 
#
# 1 75.3749 10.9121 10.3486 0.0000 -11.2402 0.0000
# 2 10.9121 43.1888 19.0465 0.0000 -10.5684 0.0000
# 3 10.3486 19.0465 119.0504 0.0000 -24.4873 0.0000
# 4 0.0000 0.0000 0.0000 23.3359 0.0000 -3.1576
# 5 -11.2402 -10.5684 -24.4873 0.0000 48.7816 0.0000
# 6 0.0000 0.0000 0.0000 -3.1576 0.0000 19.2776
#
#
#
# Elastic Compliance Matrix: (Units=1/GPa)
#
#
# Indices 1 2 3 4 5 6 
#
# 1 0.014086 -0.002833 -0.000256 0.000000 0.002503 0.000000
# 2 -0.002833 0.026125 -0.003238 0.000000 0.003382 0.000000
# 3 -0.000256 -0.003238 0.009795 0.000000 0.004156 0.000000
# 4 0.000000 0.000000 0.000000 0.043824 0.000000 0.007178
# 5 0.002503 0.003382 0.004156 0.000000 0.023895 0.000000
# 6 0.000000 0.000000 0.000000 0.007178 0.000000 0.053049
#
#
# Mechanical properties :
#
#
# Convention : Reuss Voigt Hill
#
# Bulk Modulus (GPa) = 26.77288 35.35875 31.06582
# Shear Modulus (GPa) = 25.52585 31.43283 28.47934
#
# Velocity S-wave (km/s) = 3.41790 3.79281 3.61022
# Velocity P-wave (km/s) = 5.27530 5.94665 5.62100
#
# Compressibility (1/GPa) = 0.03735123
#
# Stress axis : x y z
#
# Youngs Moduli (GPa) = 70.99416 38.27685 102.09286
#
# Poissons Ratio (x) = 0.10845 0.02616
# Poissons Ratio (y) = 0.20115 0.33056
# Poissons Ratio (z) = 0.01819 0.12393
#
# Static dielectric constant tensor:
#      x y z
#    x 1.836220 0.000000 -0.058830 
#    y 0.000000 1.788230 0.000000 
#    z -0.058830 0.000000 1.806960 
# 
# From -- ./inp_files/25499.got.cif
#   From: 2010.05.17/outbox.cif.g08.bks.cpg/sg5_13_cif.got.tgz:25499.got - 2010.06.03 18:56:24.
