data_PCOD9124731
_publ_section_title
;
Structure prediction by ZEFSAII (Michael W. Deem and Ramdas Pophale) SiO2 
 PCOD9124731
Probable space group: C 2
;
_chemical_formula_sum "Si O2"
_cell_formula_units_Z 30
_cell_length_a 12.631018
_cell_length_b 4.920605
_cell_length_c 20.855077
_cell_angle_alpha 90.000000
_cell_angle_beta 91.664104
_cell_angle_gamma 90.000000
_cell_volume 1295.643298
_symmetry_space_group_name_H-M "C 2"
_symmetry_group_IT_number 5
_symmetry_cell_setting 'monoclinic'
loop_
_space_group_symop_operation_xyz
x,y,z
-x,y,-z
1/2+x,1/2+y,z
1/2-x,1/2+y,-z
loop_
_atom_site_type_symbol
_atom_site_label
_atom_site_fract_x
_atom_site_fract_y
_atom_site_fract_z
Si Si1 0.500000 0.764880 0.500000
Si Si2 0.243231 0.120810 0.788896
Si Si3 0.794584 0.495297 0.924041
Si Si4 0.599522 0.120015 0.804513
Si Si5 0.401559 0.459863 0.618968
Si Si6 0.921409 0.465747 0.699846
Si Si7 0.712734 0.057191 0.535019
Si Si8 0.649363 0.994949 0.940270
O O1 0.459659 0.579171 0.557805
O O2 0.594503 0.952997 0.527716
O O3 0.319520 0.067457 0.851604
O O4 0.199517 0.424668 0.789947
O O5 0.307803 0.039972 0.727705
O O6 0.142189 0.924619 0.796959
O O7 0.750825 0.189356 0.927311
O O8 0.692231 0.688504 0.935478
O O9 0.873693 0.542697 0.984895
O O10 0.508511 0.046096 0.753454
O O11 0.574017 0.060205 0.879161
O O12 0.431867 0.155498 0.637412
O O13 0.276852 0.488923 0.600303
O O14 0.427913 0.654939 0.678857
O O15 0.772115 0.871776 0.481961
#
# Coordination Sequence:
#
# PCOD9124731 Si02
#       8
#     2   4   4   4   4   4   4   4
#     4  10  24  46  70  90 118 152 186 240 298 340
#     4  10  21  38  58  82 119 159 197 245 298 343
#     4   8  14  27  50  77 107 148 190 241 297 334
#     4  10  21  38  60  85 117 161 200 239 290 343
#     4  11  25  42  65  91 120 153 192 238 289 346
#     4  12  25  41  59  90 123 156 199 238 280 353
#     4  10  22  42  66  94 120 146 185 232 286 347
#     4   8  14  27  50  79 108 143 196 243 283 338
#
# _framework density 23.154522
#
# number of rings (size 3 to 8) (size 9 to 14) (size 15 to 20)
#    0.000    2.133    0.000    3.200    0.000    8.000 
#    0.000    4.667    0.000    0.000    0.000   20.533 
#    0.000    0.000    0.000    0.000    0.000    0.000 
#
# Total GULP energy -83804.783306 kJ/mol
# GULP energy per Si atom -5586.985554 kJ/mol
# Density = 2.310182 g / cm^3
# Si number density = 23.154522 Si / 1000 Ang^3
#
#
#
# Elastic Constant Matrix: (Units=GPa)
#
#
# Indices 1 2 3 4 5 6 
#
# 1 78.2201 -0.9610 32.2807 0.0000 24.3177 0.0000
# 2 -0.9610 69.9103 -0.4235 0.0000 0.2239 0.0000
# 3 32.2807 -0.4235 96.8490 0.0000 18.1872 0.0000
# 4 0.0000 0.0000 0.0000 33.4340 0.0000 9.2753
# 5 24.3177 0.2239 18.1872 0.0000 45.5797 0.0000
# 6 0.0000 0.0000 0.0000 9.2753 0.0000 14.9670
#
#
#
# Elastic Compliance Matrix: (Units=1/GPa)
#
#
# Indices 1 2 3 4 5 6 
#
# 1 0.016794 0.000229 -0.004231 0.000000 -0.007273 0.000000
# 2 0.000229 0.014308 0.000024 0.000000 -0.000202 0.000000
# 3 -0.004231 0.000024 0.012228 0.000000 -0.002622 0.000000
# 4 0.000000 0.000000 0.000000 0.036119 0.000000 -0.022384
# 5 -0.007273 -0.000202 -0.002622 0.000000 0.026867 0.000000
# 6 0.000000 0.000000 0.000000 -0.022384 0.000000 0.080686
#
#
# Mechanical properties :
#
#
# Convention : Reuss Voigt Hill
#
# Bulk Modulus (GPa) = 28.26918 34.08577 31.17748
# Shear Modulus (GPa) = 24.18375 33.06834 28.62605
#
# Velocity S-wave (km/s) = 3.23530 3.78320 3.51993
# Velocity P-wave (km/s) = 5.11778 5.81691 5.47851
#
# Compressibility (1/GPa) = 0.03537422
#
# Stress axis : x y z
#
# Youngs Moduli (GPa) = 59.54353 69.89109 81.77903
#
# Poissons Ratio (x) = -0.01597 0.34600
# Poissons Ratio (y) = -0.01361 -0.00199
# Poissons Ratio (z) = 0.25193 -0.00170
#
# Static dielectric constant tensor:
#      x y z
#    x 1.857240 0.000000 0.005690 
#    y 0.000000 1.792460 0.000000 
#    z 0.005690 0.000000 1.919270 
# 
# From -- ./inp_files/64985.got.cif
#   From: 2010.05.17/outbox.cif.g08.bks.cpg/sg5_33_cif.got.tgz:64985.got - 2010.06.03 18:56:24.
