data_PCOD9124593
_publ_section_title
;
Structure prediction by ZEFSAII (Michael W. Deem and Ramdas Pophale) SiO2 
 PCOD9124593
Probable space group: C 2
;
_chemical_formula_sum "Si O2"
_cell_formula_units_Z 32
_cell_length_a 5.134685
_cell_length_b 15.333726
_cell_length_c 19.204460
_cell_angle_alpha 90.000000
_cell_angle_beta 95.657556
_cell_angle_gamma 90.000000
_cell_volume 1504.675782
_symmetry_space_group_name_H-M "C 2"
_symmetry_group_IT_number 5
_symmetry_cell_setting 'monoclinic'
loop_
_space_group_symop_operation_xyz
x,y,z
-x,y,-z
1/2+x,1/2+y,z
1/2-x,1/2+y,-z
loop_
_atom_site_type_symbol
_atom_site_label
_atom_site_fract_x
_atom_site_fract_y
_atom_site_fract_z
Si Si1 0.900899 0.402390 0.776554
Si Si2 0.913427 0.675216 0.694804
Si Si3 0.030883 0.205003 0.218807
Si Si4 0.721419 0.870675 0.455491
Si Si5 0.984113 0.859377 0.665735
Si Si6 0.564339 0.999419 0.639423
Si Si7 0.919054 0.497431 0.923500
Si Si8 0.921818 0.114194 0.924936
O O1 0.602569 0.384103 0.743694
O O2 0.930473 0.442203 0.853334
O O3 0.033310 0.307490 0.779078
O O4 0.999057 0.464245 0.716252
O O5 0.175206 0.691865 0.746121
O O6 0.829112 0.768891 0.661340
O O7 0.008046 0.601457 0.644005
O O8 0.673467 0.650770 0.739259
O O9 0.029181 0.173669 0.139890
O O10 0.500000 0.831812 0.500000
O O11 0.777311 0.833504 0.379884
O O12 0.384794 0.964379 0.572118
O O13 0.000000 0.869238 0.500000
O O14 0.834205 0.945410 0.634579
O O15 0.626051 0.534101 0.923394
O O16 0.128093 0.576532 0.920029
O O17 0.000000 0.455180 0.000000
O O18 0.000000 0.157851 0.000000
#
# Coordination Sequence:
#
# PCOD9124593 Si02
#       8
#     4   4   4   4   4   4   4   4
#     4  10  22  36  62  92 125 161 219 263 325 379
#     4  11  25  39  64  97 128 159 217 263 321 381
#     4  11  22  38  57  91 125 161 210 276 316 388
#     4  11  23  42  71  93 129 169 206 253 318 379
#     4  10  23  43  65  99 127 168 213 266 319 392
#     4  11  22  41  70  92 129 171 204 272 316 378
#     4  10  22  38  58  85 121 164 216 266 320 390
#     4  10  21  37  55  81 118 163 213 262 324 390
#
# _framework density 21.267040000000001
#
# number of rings (size 3 to 8) (size 9 to 14) (size 15 to 20)
#    0.000    1.500    2.500    2.250    7.000    0.500 
#    0.000    0.625    5.500    4.500    0.000    0.000 
#    0.000    0.000    0.000    0.000    0.000    0.000 
#
# Total GULP energy -89144.300612 kJ/mol
# GULP energy per Si atom -5571.518788 kJ/mol
# Density = 2.121864 g / cm^3
# Si number density = 21.267040 Si / 1000 Ang^3
#
#
#
# Elastic Constant Matrix: (Units=GPa)
#
#
# Indices 1 2 3 4 5 6 
#
# 1 101.7246 3.9710 21.6153 0.0000 -5.7565 0.0000
# 2 3.9710 29.6028 -2.3833 0.0000 4.5669 0.0000
# 3 21.6153 -2.3833 87.1114 0.0000 0.9311 0.0000
# 4 0.0000 0.0000 0.0000 18.9058 0.0000 -2.4837
# 5 -5.7565 4.5669 0.9311 0.0000 32.6767 0.0000
# 6 0.0000 0.0000 0.0000 -2.4837 0.0000 15.8436
#
#
#
# Elastic Compliance Matrix: (Units=1/GPa)
#
#
# Indices 1 2 3 4 5 6 
#
# 1 0.010610 -0.001984 -0.002711 0.000000 0.002224 0.000000
# 2 -0.001984 0.034983 0.001506 0.000000 -0.005282 0.000000
# 3 -0.002711 0.001506 0.012204 0.000000 -0.001036 0.000000
# 4 0.000000 0.000000 0.000000 0.054006 0.000000 0.008466
# 5 0.002224 -0.005282 -0.001036 0.000000 0.031762 0.000000
# 6 0.000000 0.000000 0.000000 0.008466 0.000000 0.064444
#
#
# Mechanical properties :
#
#
# Convention : Reuss Voigt Hill
#
# Bulk Modulus (GPa) = 19.44819 29.42718 24.43769
# Shear Modulus (GPa) = 21.59569 26.50093 24.04831
#
# Velocity S-wave (km/s) = 3.19008 3.53385 3.36635
# Velocity P-wave (km/s) = 4.76795 5.52429 5.16000
#
# Compressibility (1/GPa) = 0.05141866
#
# Stress axis : x y z
#
# Youngs Moduli (GPa) = 94.25290 28.58543 81.93736
#
# Poissons Ratio (x) = 0.05673 0.22211
# Poissons Ratio (y) = 0.18704 -0.12340
# Poissons Ratio (z) = 0.25549 -0.04305
#
# Static dielectric constant tensor:
#      x y z
#    x 1.849060 0.000000 -0.026470 
#    y 0.000000 1.823550 0.000000 
#    z -0.026470 0.000000 1.800550 
# 
# From -- ./inp_files/58891.got.cif
#   From: 2010.05.17/outbox.cif.g08.bks.cpg/sg5_30_cif.got.tgz:58891.got - 2010.06.03 18:56:24.
