data_PCOD9124682
_publ_section_title
;
Structure prediction by ZEFSAII (Michael W. Deem and Ramdas Pophale) SiO2 
 PCOD9124682
Probable space group: C 2
;
_chemical_formula_sum "Si O2"
_cell_formula_units_Z 32
_cell_length_a 32.515823
_cell_length_b 8.079098
_cell_length_c 5.296731
_cell_angle_alpha 90.000000
_cell_angle_beta 90.872317
_cell_angle_gamma 90.000000
_cell_volume 1391.282136
_symmetry_space_group_name_H-M "C 2"
_symmetry_group_IT_number 5
_symmetry_cell_setting 'monoclinic'
loop_
_space_group_symop_operation_xyz
x,y,z
-x,y,-z
1/2+x,1/2+y,z
1/2-x,1/2+y,-z
loop_
_atom_site_type_symbol
_atom_site_label
_atom_site_fract_x
_atom_site_fract_y
_atom_site_fract_z
Si Si1 0.197195 0.429240 0.351419
Si Si2 0.665448 0.166994 0.738685
Si Si3 0.884145 0.521450 0.884501
Si Si4 0.976299 0.506997 0.750546
Si Si5 0.117311 0.883802 0.357584
Si Si6 0.695452 0.572655 0.465951
Si Si7 0.023863 0.910956 0.255977
Si Si8 0.225319 0.903608 0.976387
O O1 0.194950 0.594993 0.520368
O O2 0.150401 0.420054 0.258793
O O3 0.205515 0.263062 0.503285
O O4 0.228287 0.406906 0.120804
O O5 0.632972 0.300306 0.621985
O O6 0.697702 0.236280 0.950931
O O7 0.634007 0.025830 0.834083
O O8 0.928761 0.466298 0.799526
O O9 0.880719 0.719025 0.817352
O O10 0.977598 0.708879 0.745100
O O11 0.000000 0.451236 0.500000
O O12 0.000000 0.449070 0.000000
O O13 0.071772 0.950987 0.304083
O O14 0.150783 0.028311 0.344802
O O15 0.703133 0.499368 0.742630
O O16 0.722495 0.483959 0.250811
O O17 0.000000 0.970563 0.500000
O O18 0.000000 0.964676 0.000000
#
# Coordination Sequence:
#
# PCOD9124682 Si02
#       8
#     4   4   4   4   4   4   4   4
#     4  11  26  38  64  91 129 164 220 268 319 383
#     4  10  22  40  62  92 125 176 209 270 319 389
#     4  10  21  37  63  90 126 165 207 263 322 381
#     4   9  19  32  54  87 121 151 198 256 311 369
#     4   9  20  37  60  85 126 161 207 257 323 379
#     4  11  25  43  63  93 121 171 213 268 318 385
#     4   9  18  28  52  87 117 148 196 254 308 366
#     4  11  25  43  64  88 127 169 220 262 324 376
#
# _framework density 23.000368999999999
#
# number of rings (size 3 to 8) (size 9 to 14) (size 15 to 20)
#    0.000    2.000    1.250    0.750   15.750    0.000 
#    0.000    0.000    0.000    1.500    0.000    0.000 
#    0.000    0.000    0.000    0.000    0.000    0.000 
#
# Total GULP energy -89116.551212 kJ/mol
# GULP energy per Si atom -5569.784451 kJ/mol
# Density = 2.294802 g / cm^3
# Si number density = 23.000369 Si / 1000 Ang^3
#
#
#
# Elastic Constant Matrix: (Units=GPa)
#
#
# Indices 1 2 3 4 5 6 
#
# 1 192.9856 23.4814 38.4158 0.0000 -2.6309 0.0000
# 2 23.4814 27.2675 9.0217 0.0000 1.9370 0.0000
# 3 38.4158 9.0217 84.4189 0.0000 -1.3130 0.0000
# 4 0.0000 0.0000 0.0000 13.2539 0.0000 0.4657
# 5 -2.6309 1.9370 -1.3130 0.0000 34.3053 0.0000
# 6 0.0000 0.0000 0.0000 0.4657 0.0000 13.8963
#
#
#
# Elastic Compliance Matrix: (Units=1/GPa)
#
#
# Indices 1 2 3 4 5 6 
#
# 1 0.006217 -0.004631 -0.002324 0.000000 0.000649 0.000000
# 2 -0.004631 0.041650 -0.002387 0.000000 -0.002798 0.000000
# 3 -0.002324 -0.002387 0.013166 0.000000 0.000460 0.000000
# 4 0.000000 0.000000 0.000000 0.075538 0.000000 -0.002531
# 5 0.000649 -0.002798 0.000460 0.000000 0.029375 0.000000
# 6 0.000000 0.000000 0.000000 -0.002531 0.000000 0.072047
#
#
# Mechanical properties :
#
#
# Convention : Reuss Voigt Hill
#
# Bulk Modulus (GPa) = 23.61372 49.61219 36.61295
# Shear Modulus (GPa) = 18.46431 27.87465 23.16948
#
# Velocity S-wave (km/s) = 2.83642 3.48504 3.17733
# Velocity P-wave (km/s) = 4.58432 6.14907 5.42342
#
# Compressibility (1/GPa) = 0.04234827
#
# Stress axis : x y z
#
# Youngs Moduli (GPa) = 160.85887 24.00955 75.95589
#
# Poissons Ratio (x) = 0.11118 0.17652
# Poissons Ratio (y) = 0.74488 0.18133
# Poissons Ratio (z) = 0.37383 0.05732
#
# Static dielectric constant tensor:
#      x y z
#    x 1.889980 0.000000 -0.035750 
#    y 0.000000 1.990630 0.000000 
#    z -0.035750 0.000000 1.908660 
# 
# From -- ./inp_files/11250.got.cif
#   From: 2010.05.17/outbox.cif.g08.bks.cpg/sg5_6_cif.got.tgz:11250.got - 2010.06.03 18:56:24.
