data_PCOD9124111
_publ_section_title
;
Structure prediction by ZEFSAII (Michael W. Deem and Ramdas Pophale) SiO2 
 PCOD9124111
Probable space group: C 2
;
_chemical_formula_sum "Si O2"
_cell_formula_units_Z 28
_cell_length_a 14.351410
_cell_length_b 5.214165
_cell_length_c 21.094054
_cell_angle_alpha 90.000000
_cell_angle_beta 44.821348
_cell_angle_gamma 90.000000
_cell_volume 1112.669050
_symmetry_space_group_name_H-M "C 2"
_symmetry_group_IT_number 5
_symmetry_cell_setting 'monoclinic'
loop_
_space_group_symop_operation_xyz
x,y,z
-x,y,-z
1/2+x,1/2+y,z
1/2-x,1/2+y,-z
loop_
_atom_site_type_symbol
_atom_site_label
_atom_site_fract_x
_atom_site_fract_y
_atom_site_fract_z
Si Si1 0.826766 0.459090 0.346905
Si Si2 0.464608 0.877187 0.658562
Si Si3 0.059779 0.879305 0.540324
Si Si4 0.734935 0.718019 0.966101
Si Si5 0.705165 0.684346 0.765351
Si Si6 0.992541 0.820476 0.192032
Si Si7 0.029458 0.485708 0.923486
O O1 0.713133 0.449745 0.454261
O O2 0.762056 0.334170 0.315210
O O3 0.884809 0.730726 0.295391
O O4 0.959674 0.330042 0.311527
O O5 0.537381 0.125406 0.592623
O O6 0.312078 0.968428 0.731086
O O7 0.489246 0.624216 0.605749
O O8 0.000000 0.829421 0.500000
O O9 0.856301 0.793799 0.861203
O O10 0.744151 0.427055 0.986686
O O11 0.590456 0.783711 0.010394
O O12 0.562908 0.575349 0.812086
O O13 0.671505 0.861471 0.840991
O O14 0.989727 0.632453 0.132919
O O15 0.000000 0.654705 0.000000
#
# Coordination Sequence:
#
# PCOD9124111 Si02
#       7
#     4   4   4   4   4   4   4
#     4  11  26  45  72 106 143 194 245 305 364 450
#     4  12  28  45  75 109 146 195 248 297 374 444
#     4  12  25  49  74 107 149 194 240 304 368 445
#     4  10  20  42  63  91 126 176 222 274 350 416
#     4  11  24  47  68 105 145 190 239 314 368 432
#     4  10  23  43  67  96 141 183 235 303 360 430
#     4  10  23  42  66  99 137 184 236 297 364 444
#
# _framework density 25.164717
#
# number of rings (size 3 to 8) (size 9 to 14) (size 15 to 20)
#    0.000    1.143    2.857    2.143    8.000    0.571 
#    2.571    0.000    0.000    0.000    0.000    0.000 
#    0.000    0.000    0.000    0.000    0.000    0.000 
#
# Total GULP energy -78178.118754 kJ/mol
# GULP energy per Si atom -5584.151340 kJ/mol
# Density = 2.510744 g / cm^3
# Si number density = 25.164717 Si / 1000 Ang^3
#
#
#
# Elastic Constant Matrix: (Units=GPa)
#
#
# Indices 1 2 3 4 5 6 
#
# 1 125.0380 15.7161 28.8730 0.0039 -1.0371 0.0084
# 2 15.7161 89.9980 25.9229 0.0156 -2.1105 0.0431
# 3 28.8730 25.9229 87.3502 0.0020 -12.4638 0.0133
# 4 0.0039 0.0156 0.0020 27.9442 -0.0032 -11.6533
# 5 -1.0371 -2.1105 -12.4638 -0.0032 39.7391 0.0006
# 6 0.0084 0.0431 0.0133 -11.6533 0.0006 18.9335
#
#
#
# Elastic Compliance Matrix: (Units=1/GPa)
#
#
# Indices 1 2 3 4 5 6 
#
# 1 0.008723 -0.000744 -0.002759 -0.000001 -0.000677 -0.000001
# 2 -0.000744 0.012223 -0.003446 -0.000023 -0.000451 -0.000039
# 3 -0.002759 -0.003446 0.013972 0.000002 0.004127 0.000000
# 4 -0.000001 -0.000023 0.000002 0.048142 0.000003 0.029631
# 5 -0.000677 -0.000451 0.004127 0.000003 0.026417 -0.000001
# 6 -0.000001 -0.000039 0.000000 0.029631 -0.000001 0.071054
#
#
# Mechanical properties :
#
#
# Convention : Reuss Voigt Hill
#
# Bulk Modulus (GPa) = 47.57538 49.26783 48.42161
# Shear Modulus (GPa) = 24.82187 32.78163 28.80175
#
# Velocity S-wave (km/s) = 3.14407 3.61318 3.38676
# Velocity P-wave (km/s) = 5.66806 6.08502 5.88023
#
# Compressibility (1/GPa) = 0.02101927
#
# Stress axis : x y z
#
# Youngs Moduli (GPa) = 114.64495 81.81085 71.57382
#
# Poissons Ratio (x) = 0.06090 0.19746
# Poissons Ratio (y) = 0.08534 0.24663
# Poissons Ratio (z) = 0.31629 0.28190
#
# Static dielectric constant tensor:
#      x y z
#    x 2.113660 0.000000 0.014910 
#    y 0.000000 1.995560 0.000010 
#    z 0.014910 0.000010 2.105010 
# 
# From -- ./inp_files/66447.got.cif
#   From: 2010.05.17/outbox.cif.g08.bks.cpg/sg5_34_cif.got.tgz:66447.got - 2010.06.03 18:56:24.
