data_PCOD9124851
_publ_section_title
;
Structure prediction by ZEFSAII (Michael W. Deem and Ramdas Pophale) SiO2 
 PCOD9124851
Probable space group: C 2
;
_chemical_formula_sum "Si O2"
_cell_formula_units_Z 26
_cell_length_a 17.340121
_cell_length_b 16.833499
_cell_length_c 9.589886
_cell_angle_alpha 90.000000
_cell_angle_beta 26.457319
_cell_angle_gamma 90.000000
_cell_volume 1247.147797
_symmetry_space_group_name_H-M "C 2"
_symmetry_group_IT_number 5
_symmetry_cell_setting 'monoclinic'
loop_
_space_group_symop_operation_xyz
x,y,z
-x,y,-z
1/2+x,1/2+y,z
1/2-x,1/2+y,-z
loop_
_atom_site_type_symbol
_atom_site_label
_atom_site_fract_x
_atom_site_fract_y
_atom_site_fract_z
Si Si1 0.484867 0.806780 0.796472
Si Si2 0.000000 0.443571 0.000000
Si Si3 0.660890 0.355020 0.135269
Si Si4 0.308450 0.086713 0.181014
Si Si5 0.039957 0.132463 0.092439
Si Si6 0.123404 0.763448 0.920682
Si Si7 0.325826 0.537155 0.881530
O O1 0.509098 0.883408 0.855261
O O2 0.422551 0.726530 0.975581
O O3 0.675415 0.783990 0.433833
O O4 0.338609 0.823865 0.917248
O O5 0.145865 0.507974 0.805086
O O6 0.500000 0.356029 0.500000
O O7 0.691576 0.446418 0.044765
O O8 0.595403 0.302914 0.113883
O O9 0.413545 0.169100 0.012772
O O10 0.131085 0.115671 0.539182
O O11 0.309799 0.061582 0.017076
O O12 0.175732 0.089775 0.976105
O O13 0.000000 0.103668 0.000000
O O14 0.000000 0.796994 0.000000
O O15 0.500000 0.544190 0.500000
#
# Coordination Sequence:
#
# PCOD9124851 Si02
#       7
#     4   2   4   4   4   4   4
#     4  11  24  42  68  98 135 174 222 276 334 389
#     4  12  22  40  72  94 128 174 226 272 324 398
#     4  11  24  41  67  96 133 178 226 271 329 397
#     4  10  21  41  63  92 129 174 213 267 333 393
#     4  10  21  38  65  96 128 167 218 271 327 391
#     4  11  25  42  67  98 135 175 222 273 333 396
#     4   9  19  36  61  90 126 168 212 261 325 386
#
# _framework density 20.847569
#
# number of rings (size 3 to 8) (size 9 to 14) (size 15 to 20)
#    0.000    1.538    3.077    1.385    2.154    4.308 
#    0.000    0.000    3.385    0.000    0.000    0.000 
#    0.000    0.000    0.000    0.000    0.000    0.000 
#
# Total GULP energy -72391.718619 kJ/mol
# GULP energy per Si atom -5568.593740 kJ/mol
# Density = 2.080012 g / cm^3
# Si number density = 20.847569 Si / 1000 Ang^3
#
#
#
# Elastic Constant Matrix: (Units=GPa)
#
#
# Indices 1 2 3 4 5 6 
#
# 1 150.4848 68.3419 10.9688 0.0005 9.7184 0.0005
# 2 68.3419 154.1996 21.8133 0.0013 4.9479 0.0037
# 3 10.9688 21.8133 13.3598 -0.0004 -2.6124 0.0049
# 4 0.0005 0.0013 -0.0004 26.0758 -0.0003 10.1833
# 5 9.7184 4.9479 -2.6124 -0.0003 22.0534 -0.0014
# 6 0.0005 0.0037 0.0049 10.1833 -0.0014 59.7482
#
#
#
# Elastic Compliance Matrix: (Units=1/GPa)
#
#
# Indices 1 2 3 4 5 6 
#
# 1 0.008547 -0.003382 -0.002134 0.000000 -0.003261 0.000000
# 2 -0.003382 0.010061 -0.014127 -0.000001 -0.002441 0.000001
# 3 -0.002134 -0.014127 0.102856 0.000006 0.016294 -0.000008
# 4 0.000000 -0.000001 0.000006 0.041084 0.000001 -0.007002
# 5 -0.003261 -0.002441 0.016294 0.000001 0.049259 0.000000
# 6 0.000000 0.000001 -0.000008 -0.007002 0.000000 0.017930
#
#
# Mechanical properties :
#
#
# Convention : Reuss Voigt Hill
#
# Bulk Modulus (GPa) = 12.16868 57.81024 34.98946
# Shear Modulus (GPa) = 16.86826 36.03683 26.45254
#
# Velocity S-wave (km/s) = 2.84760 4.16214 3.56596
# Velocity P-wave (km/s) = 4.08184 7.13358 5.81160
#
# Compressibility (1/GPa) = 0.08217822
#
# Stress axis : x y z
#
# Youngs Moduli (GPa) = 116.99978 99.39730 9.72237
#
# Poissons Ratio (x) = 0.33613 0.02074
# Poissons Ratio (y) = 0.39565 0.13735
# Poissons Ratio (z) = 0.24963 1.40422
#
# Static dielectric constant tensor:
#      x y z
#    x 1.806780 0.000000 -0.043850 
#    y 0.000000 1.758910 0.000000 
#    z -0.043850 0.000000 1.756010 
# 
# From -- ./inp_files/24797.got.cif
#   From: 2010.05.17/outbox.cif.g08.bks.cpg/sg5_13_cif.got.tgz:24797.got - 2010.06.03 18:56:24.
