data_PCOD9124181
_publ_section_title
;
Structure prediction by ZEFSAII (Michael W. Deem and Ramdas Pophale) SiO2 
 PCOD9124181
Probable space group: C 2
;
_chemical_formula_sum "Si O2"
_cell_formula_units_Z 28
_cell_length_a 7.116924
_cell_length_b 12.902863
_cell_length_c 14.294968
_cell_angle_alpha 90.000000
_cell_angle_beta 61.248513
_cell_angle_gamma 90.000000
_cell_volume 1150.852534
_symmetry_space_group_name_H-M "C 2"
_symmetry_group_IT_number 5
_symmetry_cell_setting 'monoclinic'
loop_
_space_group_symop_operation_xyz
x,y,z
-x,y,-z
1/2+x,1/2+y,z
1/2-x,1/2+y,-z
loop_
_atom_site_type_symbol
_atom_site_label
_atom_site_fract_x
_atom_site_fract_y
_atom_site_fract_z
Si Si1 0.144602 0.913190 0.322109
Si Si2 0.500000 0.569705 0.500000
Si Si3 0.925051 0.952497 0.876015
Si Si4 0.864286 0.731113 0.922849
Si Si5 0.794716 0.760051 0.416088
Si Si6 0.500000 0.053766 0.000000
Si Si7 0.013504 0.309367 0.665721
Si Si8 0.959150 0.181252 0.154176
O O1 0.135807 0.941624 0.217386
O O2 0.385974 0.906891 0.303796
O O3 0.034147 0.801009 0.367159
O O4 0.997856 0.994859 0.412134
O O5 0.709245 0.642103 0.435214
O O6 0.986356 0.840291 0.899389
O O7 0.699572 0.983049 0.976626
O O8 0.061319 0.056769 0.851610
O O9 0.016685 0.633932 0.908927
O O10 0.745324 0.725396 0.852106
O O11 0.667752 0.717882 0.044210
O O12 0.672712 0.796636 0.538924
O O13 0.706936 0.810524 0.339895
O O14 0.015659 0.220612 0.745315
#
# Coordination Sequence:
#
# PCOD9124181 Si02
#       8
#     4   2   4   4   4   2   4   4
#     4  12  22  42  68  98 133 174 224 277 331 394
#     4  10  22  42  68  92 136 178 214 274 330 394
#     4  11  23  40  67  92 128 175 217 268 336 387
#     4  10  22  40  65  89 132 168 212 277 326 381
#     4  10  23  42  67  96 136 174 220 275 327 395
#     4  10  24  42  62  96 128 170 228 264 332 400
#     4  10  20  42  67  93 137 171 216 281 323 387
#     4  10  21  42  63  94 131 167 222 270 322 399
#
# _framework density 24.329789999999999
#
# number of rings (size 3 to 8) (size 9 to 14) (size 15 to 20)
#    0.000    1.714    2.857    2.571    0.000    5.714 
#    2.571    5.714    0.000    0.000    0.000    0.000 
#    0.000    0.000    0.000    0.000    0.000    0.000 
#
# Total GULP energy -78118.550292 kJ/mol
# GULP energy per Si atom -5579.896449 kJ/mol
# Density = 2.427441 g / cm^3
# Si number density = 24.329790 Si / 1000 Ang^3
#
#
#
# Elastic Constant Matrix: (Units=GPa)
#
#
# Indices 1 2 3 4 5 6 
#
# 1 80.0003 8.3782 10.4174 0.0000 25.3644 0.0001
# 2 8.3782 116.1919 34.4945 0.0000 -7.2016 0.0000
# 3 10.4174 34.4945 75.4413 0.0000 32.7475 0.0000
# 4 0.0000 0.0000 0.0000 48.8995 0.0000 -34.0128
# 5 25.3644 -7.2016 32.7475 0.0000 37.0389 0.0000
# 6 0.0001 0.0000 0.0000 -34.0128 0.0000 138.3399
#
#
#
# Elastic Compliance Matrix: (Units=1/GPa)
#
#
# Indices 1 2 3 4 5 6 
#
# 1 0.019117 -0.005784 0.010022 0.000000 -0.023078 0.000000
# 2 -0.005784 0.014428 -0.014176 0.000000 0.019300 0.000000
# 3 0.010022 -0.014176 0.036560 0.000000 -0.041944 0.000000
# 4 0.000000 0.000000 0.000000 0.024669 0.000000 0.006065
# 5 -0.023078 0.019300 -0.041944 0.000000 0.083639 0.000000
# 6 0.000000 0.000000 0.000000 0.006065 0.000000 0.008720
#
#
# Mechanical properties :
#
#
# Convention : Reuss Voigt Hill
#
# Bulk Modulus (GPa) = 19.90847 42.02375 30.96611
# Shear Modulus (GPa) = 22.34602 59.41188 40.87895
#
# Velocity S-wave (km/s) = 3.03390 4.94696 4.10347
# Velocity P-wave (km/s) = 4.52474 7.06682 5.93352
#
# Compressibility (1/GPa) = 0.05022988
#
# Stress axis : x y z
#
# Youngs Moduli (GPa) = 52.30815 69.30799 27.35209
#
# Poissons Ratio (x) = 0.40090 -0.27413
# Poissons Ratio (y) = 0.30256 0.38775
# Poissons Ratio (z) = -0.52425 0.98253
#
# Static dielectric constant tensor:
#      x y z
#    x 1.990490 0.000000 -0.037080 
#    y 0.000000 1.958710 0.000000 
#    z -0.037080 0.000000 1.714560 
# 
# From -- ./inp_files/50439.got.cif
#   From: 2010.05.17/outbox.cif.g08.bks.cpg/sg5_26_cif.got.tgz:50439.got - 2010.06.03 18:56:24.
