data_PCOD9124722
_publ_section_title
;
Structure prediction by ZEFSAII (Michael W. Deem and Ramdas Pophale) SiO2 
 PCOD9124722
Probable space group: C 2
;
_chemical_formula_sum "Si O2"
_cell_formula_units_Z 32
_cell_length_a 19.750905
_cell_length_b 7.293950
_cell_length_c 12.040360
_cell_angle_alpha 90.000000
_cell_angle_beta 53.922628
_cell_angle_gamma 90.000000
_cell_volume 1401.910209
_symmetry_space_group_name_H-M "C 2"
_symmetry_group_IT_number 5
_symmetry_cell_setting 'monoclinic'
loop_
_space_group_symop_operation_xyz
x,y,z
-x,y,-z
1/2+x,1/2+y,z
1/2-x,1/2+y,-z
loop_
_atom_site_type_symbol
_atom_site_label
_atom_site_fract_x
_atom_site_fract_y
_atom_site_fract_z
Si Si1 0.094568 0.362460 0.890130
Si Si2 0.911453 0.413859 0.633378
Si Si3 0.653411 0.395150 0.094432
Si Si4 0.251002 0.322133 0.603673
Si Si5 0.749777 0.389314 0.654496
Si Si6 0.587856 0.450189 0.930967
Si Si7 0.403669 0.358903 0.609012
Si Si8 0.347091 0.963781 0.925316
O O1 0.165629 0.418362 0.731392
O O2 0.081377 0.146443 0.877210
O O3 0.138552 0.387445 0.966601
O O4 0.000000 0.437209 0.000000
O O5 0.833062 0.335297 0.640630
O O6 0.906087 0.636187 0.622252
O O7 0.902164 0.379116 0.773392
O O8 0.000000 0.353270 0.500000
O O9 0.629124 0.439071 0.243268
O O10 0.636789 0.180354 0.090512
O O11 0.603187 0.490952 0.045221
O O12 0.750979 0.434888 0.984228
O O13 0.253186 0.321794 0.468742
O O14 0.336209 0.399992 0.577362
O O15 0.249806 0.111358 0.645619
O O16 0.666860 0.343715 0.804983
O O17 0.500000 0.351900 0.000000
O O18 0.500000 0.415103 0.500000
#
# Coordination Sequence:
#
# PCOD9124722 Si02
#       8
#     4   4   4   4   4   4   4   4
#     4  10  22  40  59  82 117 154 188 234 288 334
#     4   9  19  36  57  81 111 146 183 231 284 331
#     4  11  21  37  62  86 113 148 192 237 284 338
#     4  10  21  38  57  80 114 150 185 228 282 337
#     4  10  21  38  57  80 114 150 185 228 282 337
#     4  10  22  40  59  82 117 154 188 234 288 334
#     4   9  19  36  57  81 111 146 183 231 284 331
#     4  11  21  37  62  86 113 148 192 237 284 338
#
# _framework density 22.826000000000001
#
# number of rings (size 3 to 8) (size 9 to 14) (size 15 to 20)
#    0.000    2.000    2.500    0.750    3.500    1.500 
#    0.000    0.000    0.000    3.750    0.000    0.000 
#    0.000    0.000    0.000    0.000    0.000    0.000 
#
# Total GULP energy -89398.438695 kJ/mol
# GULP energy per Si atom -5587.402418 kJ/mol
# Density = 2.277405 g / cm^3
# Si number density = 22.826000 Si / 1000 Ang^3
#
#
#
# Elastic Constant Matrix: (Units=GPa)
#
#
# Indices 1 2 3 4 5 6 
#
# 1 124.7137 -17.3975 58.7099 0.0000 -17.1654 0.0000
# 2 -17.3975 62.8575 -19.9456 0.0000 -1.7890 0.0000
# 3 58.7099 -19.9456 142.4264 0.0000 -7.0248 0.0000
# 4 0.0000 0.0000 0.0000 15.6927 0.0000 16.5643
# 5 -17.1654 -1.7890 -7.0248 0.0000 45.7692 0.0000
# 6 0.0000 0.0000 0.0000 16.5643 0.0000 8.5223
#
#
#
# Elastic Compliance Matrix: (Units=1/GPa)
#
#
# Indices 1 2 3 4 5 6 
#
# 1 0.010599 0.001778 -0.003951 0.000000 0.003438 0.000000
# 2 0.001778 0.016994 0.001726 0.000000 0.001596 0.000000
# 3 -0.003951 0.001726 0.008889 0.000000 -0.000050 0.000000
# 4 0.000000 0.000000 0.000000 -0.060598 0.000000 0.117781
# 5 0.003438 0.001596 -0.000050 0.000000 0.023193 0.000000
# 6 0.000000 0.000000 0.000000 0.117781 0.000000 -0.111583
#
#
# Mechanical properties :
#
#
# Convention : Reuss Voigt Hill
#
# Bulk Modulus (GPa) = 28.09904 41.41461 34.75682
# Shear Modulus (GPa) = -50.12570 34.57224 -7.77673
#
# Velocity S-wave (km/s) = -4.69122 3.89601 -1.84780
# Velocity P-wave (km/s) = 4.12391 6.19851 3.27222
#
# Compressibility (1/GPa) = 0.03558841
#
# Stress axis : x y z
#
# Youngs Moduli (GPa) = 94.34466 58.84393 112.50012
#
# Poissons Ratio (x) = -0.10462 0.44445
# Poissons Ratio (y) = -0.16774 -0.19414
# Poissons Ratio (z) = 0.37272 -0.10155
#
# Static dielectric constant tensor:
#      x y z
#    x 1.815210 0.000000 -0.036780 
#    y 0.000000 1.898830 0.000000 
#    z -0.036780 0.000000 1.827000 
# 
# From -- ./inp_files/46118.got.cif
#   From: 2010.05.17/outbox.cif.g08.bks.cpg/sg5_24_cif.got.tgz:46118.got - 2010.06.03 18:56:24.
