data_PCOD9124094
_publ_section_title
;
Structure prediction by ZEFSAII (Michael W. Deem and Ramdas Pophale) SiO2 
 PCOD9124094
Probable space group: C 2
;
_chemical_formula_sum "Si O2"
_cell_formula_units_Z 24
_cell_length_a 7.985937
_cell_length_b 11.748657
_cell_length_c 19.413667
_cell_angle_alpha 90.000000
_cell_angle_beta 37.601912
_cell_angle_gamma 90.000000
_cell_volume 1111.408394
_symmetry_space_group_name_H-M "C 2"
_symmetry_group_IT_number 5
_symmetry_cell_setting 'monoclinic'
loop_
_space_group_symop_operation_xyz
x,y,z
-x,y,-z
1/2+x,1/2+y,z
1/2-x,1/2+y,-z
loop_
_atom_site_type_symbol
_atom_site_label
_atom_site_fract_x
_atom_site_fract_y
_atom_site_fract_z
Si Si1 0.500000 0.635500 0.500000
Si Si2 0.058952 0.061803 0.123330
Si Si3 0.250415 0.294946 0.130407
Si Si4 0.945158 0.473322 0.308516
Si Si5 0.057839 0.819252 0.173498
Si Si6 0.506106 0.846713 0.426685
Si Si7 0.000000 0.143007 0.000000
O O1 0.361224 0.727539 0.493725
O O2 0.697640 0.560737 0.388214
O O3 0.142702 0.175985 0.135555
O O4 0.731442 0.038831 0.229128
O O5 0.139058 0.073884 0.016634
O O6 0.169371 0.946162 0.122120
O O7 0.015358 0.389396 0.222076
O O8 0.392177 0.282238 0.158697
O O9 0.500000 0.333674 0.000000
O O10 0.890535 0.401926 0.396051
O O11 0.291874 0.727403 0.106638
O O12 0.826974 0.823939 0.306666
O O13 0.500000 0.916895 0.500000
#
# Coordination Sequence:
#
# PCOD9124094 Si02
#       7
#     2   4   4   4   4   4   2
#     4  10  20  42  62  84 120 158 200 254 312 344
#     4  10  23  38  61  86 124 162 196 242 307 353
#     4  10  20  42  60  88 131 153 201 252 289 376
#     4  10  23  40  61  91 119 161 204 248 306 360
#     4  10  23  39  57  90 121 156 204 247 297 360
#     4   8  19  42  56  80 122 145 201 261 276 354
#     4  12  22  34  62  90 116 160 198 242 302 364
#
# _framework density 21.594224000000001
#
# number of rings (size 3 to 8) (size 9 to 14) (size 15 to 20)
#    0.500    2.000    1.667    1.000    5.833    1.333 
#   12.000    0.000    0.000    0.000    0.000    0.000 
#    0.000    0.000    0.000    0.000    0.000    0.000 
#
# Total GULP energy -66856.687209 kJ/mol
# GULP energy per Si atom -5571.390601 kJ/mol
# Density = 2.154507 g / cm^3
# Si number density = 21.594224 Si / 1000 Ang^3
#
#
#
# Elastic Constant Matrix: (Units=GPa)
#
#
# Indices 1 2 3 4 5 6 
#
# 1 25.0675 34.0362 16.6531 -0.0021 17.3209 -0.0002
# 2 34.0362 135.7590 29.7622 0.0003 17.7367 -0.0009
# 3 16.6531 29.7622 87.0416 -0.0032 32.8266 0.0004
# 4 -0.0021 0.0003 -0.0032 68.4528 0.0013 0.7618
# 5 17.3209 17.7367 32.8266 0.0013 33.2076 0.0003
# 6 -0.0002 -0.0009 0.0004 0.7618 0.0003 34.7611
#
#
#
# Elastic Compliance Matrix: (Units=1/GPa)
#
#
# Indices 1 2 3 4 5 6 
#
# 1 0.090788 -0.018291 0.004877 0.000004 -0.042407 0.000000
# 2 -0.018291 0.011779 -0.002796 -0.000001 0.006013 0.000000
# 3 0.004877 -0.002796 0.018986 0.000001 -0.019819 0.000000
# 4 0.000004 -0.000001 0.000001 0.014612 -0.000003 -0.000320
# 5 -0.042407 0.006013 -0.019819 -0.000003 0.068613 0.000000
# 6 0.000000 0.000000 0.000000 -0.000320 0.000000 0.028775
#
#
# Mechanical properties :
#
#
# Convention : Reuss Voigt Hill
#
# Bulk Modulus (GPa) = 11.21884 45.41902 28.31893
# Shear Modulus (GPa) = 16.90999 38.44540 27.67770
#
# Velocity S-wave (km/s) = 2.80139 4.22400 3.58399
# Velocity P-wave (km/s) = 3.95857 6.69837 5.50175
#
# Compressibility (1/GPa) = 0.08913577
#
# Stress axis : x y z
#
# Youngs Moduli (GPa) = 11.01462 84.89683 52.67030
#
# Poissons Ratio (x) = 1.55281 -0.25690
# Poissons Ratio (y) = 0.20146 0.14726
# Poissons Ratio (z) = -0.05372 0.23735
#
# Static dielectric constant tensor:
#      x y z
#    x 1.636060 0.000000 0.085550 
#    y 0.000000 1.837420 0.000000 
#    z 0.085550 0.000000 1.782720 
# 
# From -- ./inp_files/64462.got.cif
#   From: 2010.05.17/outbox.cif.g08.bks.cpg/sg5_33_cif.got.tgz:64462.got - 2010.06.03 18:56:24.
