data_PCOD9124431
_publ_section_title
;
Structure prediction by ZEFSAII (Michael W. Deem and Ramdas Pophale) SiO2 
 PCOD9124431
Probable space group: C 2
;
_chemical_formula_sum "Si O2"
_cell_formula_units_Z 30
_cell_length_a 29.224135
_cell_length_b 6.565809
_cell_length_c 7.132916
_cell_angle_alpha 90.000000
_cell_angle_beta 88.464725
_cell_angle_gamma 90.000000
_cell_volume 1368.173230
_symmetry_space_group_name_H-M "C 2"
_symmetry_group_IT_number 5
_symmetry_cell_setting 'monoclinic'
loop_
_space_group_symop_operation_xyz
x,y,z
-x,y,-z
1/2+x,1/2+y,z
1/2-x,1/2+y,-z
loop_
_atom_site_type_symbol
_atom_site_label
_atom_site_fract_x
_atom_site_fract_y
_atom_site_fract_z
Si Si1 0.285383 0.263690 0.607703
Si Si2 0.531795 0.093628 0.227895
Si Si3 0.500000 0.712427 0.000000
Si Si4 0.669286 0.647653 0.197986
Si Si5 0.254455 0.389221 0.215162
Si Si6 0.448724 0.332425 0.161276
Si Si7 0.128538 0.541262 0.318782
Si Si8 0.644949 0.309584 0.947661
O O1 0.305152 0.470347 0.691129
O O2 0.255953 0.309884 0.429235
O O3 0.331519 0.135847 0.559196
O O4 0.256247 0.127635 0.755382
O O5 0.484432 0.206319 0.285050
O O6 0.575683 0.092036 0.356993
O O7 0.522906 0.866992 0.147526
O O8 0.546678 0.225265 0.043903
O O9 0.466393 0.561453 0.119902
O O10 0.711200 0.785968 0.120181
O O11 0.637377 0.800963 0.314654
O O12 0.639065 0.527261 0.052278
O O13 0.303089 0.325684 0.128070
O O14 0.394866 0.304585 0.203391
O O15 0.139661 0.635621 0.108261
#
# Coordination Sequence:
#
# PCOD9124431 Si02
#       8
#     4   4   2   4   4   4   4   4
#     4  10  21  38  52  72 101 144 184 213 260 317
#     4   8  14  26  47  72 105 131 166 208 251 316
#     4   8  12  22  46  64 104 138 154 196 270 306
#     4  10  21  34  53  75 108 133 179 223 263 313
#     4  11  22  36  54  71 105 144 182 221 263 314
#     4   8  15  27  43  75 105 132 163 205 260 320
#     4   9  19  34  53  82 104 135 177 217 265 312
#     4  10  21  32  53  81 108 133 173 221 270 311
#
# _framework density 21.927047999999999
#
# number of rings (size 3 to 8) (size 9 to 14) (size 15 to 20)
#    0.000    2.933    1.333    0.800    5.600    1.067 
#    0.000    0.000    0.000    0.800    0.000    0.000 
#    0.000    0.000    0.000    0.000    0.000    0.000 
#
# Total GULP energy -83540.288852 kJ/mol
# GULP energy per Si atom -5569.352590 kJ/mol
# Density = 2.187714 g / cm^3
# Si number density = 21.927048 Si / 1000 Ang^3
#
#
#
# Elastic Constant Matrix: (Units=GPa)
#
#
# Indices 1 2 3 4 5 6 
#
# 1 136.6497 25.4163 15.7312 0.0000 21.7070 0.0000
# 2 25.4163 116.3099 14.9660 0.0000 4.6048 0.0000
# 3 15.7312 14.9660 29.8413 0.0000 1.3891 0.0000
# 4 0.0000 0.0000 0.0000 7.9075 0.0000 4.7632
# 5 21.7070 4.6048 1.3891 0.0000 26.2110 0.0000
# 6 0.0000 0.0000 0.0000 4.7632 0.0000 14.0318
#
#
#
# Elastic Compliance Matrix: (Units=1/GPa)
#
#
# Indices 1 2 3 4 5 6 
#
# 1 0.009123 -0.001213 -0.003868 0.000000 -0.007137 0.000000
# 2 -0.001213 0.009402 -0.004056 0.000000 -0.000432 0.000000
# 3 -0.003868 -0.004056 0.037494 0.000000 0.001929 0.000000
# 4 0.000000 0.000000 0.000000 0.158968 0.000000 -0.053963
# 5 -0.007137 -0.000432 0.001929 0.000000 0.044036 0.000000
# 6 0.000000 0.000000 0.000000 -0.053963 0.000000 0.089585
#
#
# Mechanical properties :
#
#
# Convention : Reuss Voigt Hill
#
# Bulk Modulus (GPa) = 26.49420 43.89199 35.19309
# Shear Modulus (GPa) = 13.17652 24.74257 18.95954
#
# Velocity S-wave (km/s) = 2.45404 3.36282 2.94371
# Velocity P-wave (km/s) = 4.48763 5.92780 5.25726
#
# Compressibility (1/GPa) = 0.03774411
#
# Stress axis : x y z
#
# Youngs Moduli (GPa) = 109.61684 106.36297 26.67093
#
# Poissons Ratio (x) = 0.12904 0.10318
# Poissons Ratio (y) = 0.13299 0.10816
# Poissons Ratio (z) = 0.42405 0.43136
#
# Static dielectric constant tensor:
#      x y z
#    x 1.878830 0.000000 -0.001720 
#    y 0.000000 1.830050 0.000000 
#    z -0.001720 0.000000 1.811980 
# 
# From -- ./inp_files/32161.got.cif
#   From: 2010.05.17/outbox.cif.g08.bks.cpg/sg5_17_cif.got.tgz:32161.got - 2010.06.03 18:56:24.
