data_PCOD9124857
_publ_section_title
;
Structure prediction by ZEFSAII (Michael W. Deem and Ramdas Pophale) SiO2 
 PCOD9124857
Probable space group: C 2
;
_chemical_formula_sum "Si O2"
_cell_formula_units_Z 32
_cell_length_a 12.332355
_cell_length_b 14.516077
_cell_length_c 18.179773
_cell_angle_alpha 90.000000
_cell_angle_beta 151.933179
_cell_angle_gamma 90.000000
_cell_volume 1531.243533
_symmetry_space_group_name_H-M "C 2"
_symmetry_group_IT_number 5
_symmetry_cell_setting 'monoclinic'
loop_
_space_group_symop_operation_xyz
x,y,z
-x,y,-z
1/2+x,1/2+y,z
1/2-x,1/2+y,-z
loop_
_atom_site_type_symbol
_atom_site_label
_atom_site_fract_x
_atom_site_fract_y
_atom_site_fract_z
Si Si1 0.070371 0.303560 0.225887
Si Si2 0.022690 0.358418 0.353116
Si Si3 0.194809 0.130577 0.869183
Si Si4 0.380073 0.267715 0.675647
Si Si5 0.338225 0.425696 0.089010
Si Si6 0.271221 0.708296 0.813401
Si Si7 0.803616 0.708532 0.794976
Si Si8 0.176327 0.000005 0.173318
O O1 0.145627 0.346484 0.348536
O O2 0.235855 0.283115 0.256189
O O3 0.980415 0.201590 0.196863
O O4 0.869539 0.373200 0.077033
O O5 0.172721 0.311373 0.505891
O O6 0.782779 0.300272 0.214591
O O7 0.929737 0.460191 0.310402
O O8 0.163891 0.134436 0.761605
O O9 0.212987 0.025577 0.907188
O O10 0.435479 0.178815 0.035035
O O11 0.561592 0.350546 0.796075
O O12 0.540014 0.200682 0.723391
O O13 0.293210 0.225471 0.701142
O O14 0.552604 0.446221 0.164259
O O15 0.309404 0.607656 0.802652
O O16 0.500000 0.727660 0.000000
O O17 0.000000 0.990176 0.000000
#
# Coordination Sequence:
#
# PCOD9124857 Si02
#       8
#     4   4   4   4   4   4   4   4
#     4  11  21  41  66  97 137 174 218 273 337 392
#     4  11  24  42  66  99 132 180 224 273 336 397
#     4  10  21  38  66 104 122 168 229 280 326 388
#     4  12  25  42  67  99 136 175 221 277 341 403
#     4  12  22  39  72 100 129 172 227 284 328 396
#     4  11  23  41  68 100 133 170 223 280 337 394
#     4  10  21  39  65  89 131 168 217 275 324 385
#     4  11  22  39  69  99 124 171 232 281 322 393
#
# _framework density 20.898049
#
# number of rings (size 3 to 8) (size 9 to 14) (size 15 to 20)
#    0.000    1.000    6.250    0.375    3.500    2.500 
#    4.500    1.250    2.750    0.000    0.000    0.000 
#    0.000    0.000    0.000    0.000    0.000    0.000 
#
# Total GULP energy -89133.034218 kJ/mol
# GULP energy per Si atom -5570.814639 kJ/mol
# Density = 2.085048 g / cm^3
# Si number density = 20.898049 Si / 1000 Ang^3
#
#
#
# Elastic Constant Matrix: (Units=GPa)
#
#
# Indices 1 2 3 4 5 6 
#
# 1 116.5971 27.1072 17.6545 -0.0326 -17.8299 0.1367
# 2 27.1072 41.1035 26.3367 -0.0025 -16.1487 0.0284
# 3 17.6545 26.3367 57.8389 -0.0495 -14.7832 0.1928
# 4 -0.0326 -0.0025 -0.0495 -17.6323 -0.0538 36.2319
# 5 -17.8299 -16.1487 -14.7832 -0.0538 24.8299 0.2263
# 6 0.1367 0.0284 0.1928 36.2319 0.2263 -58.5109
#
#
#
# Elastic Compliance Matrix: (Units=1/GPa)
#
#
# Indices 1 2 3 4 5 6 
#
# 1 0.010430 -0.005492 0.000376 -0.000176 0.004142 -0.000070
# 2 -0.005492 0.043055 -0.013894 -0.000157 0.015787 -0.000074
# 3 0.000376 -0.013894 0.025077 -0.000436 0.006165 -0.000170
# 4 -0.000176 -0.000157 -0.000436 0.208206 -0.001212 0.128921
# 5 0.004142 0.015787 0.006165 -0.001212 0.057187 -0.000492
# 6 -0.000070 -0.000074 -0.000170 0.128921 -0.000492 0.062739
#
#
# Mechanical properties :
#
#
# Convention : Reuss Voigt Hill
#
# Bulk Modulus (GPa) = 24.66546 39.74850 32.20698
# Shear Modulus (GPa) = 10.91162 -0.63325 5.13918
#
# Velocity S-wave (km/s) = 2.28751 -0.55107 1.56987
# Velocity P-wave (km/s) = 4.33651 4.31933 4.32793
#
# Compressibility (1/GPa) = 0.04054253
#
# Stress axis : x y z
#
# Youngs Moduli (GPa) = 95.87912 23.22606 39.87735
#
# Poissons Ratio (x) = 0.12756 -0.01499
# Poissons Ratio (y) = 0.52656 0.55404
# Poissons Ratio (z) = -0.03603 0.32269
#
# Static dielectric constant tensor:
#      x y z
#    x 3.859780 0.000680 -1.039480 
#    y 0.000680 1.759960 -0.000340 
#    z -1.039480 -0.000340 2.277980 
# 
# From -- ./inp_files/44985.got.cif
#   From: 2010.05.17/outbox.cif.g08.bks.cpg/sg5_23_cif.got.tgz:44985.got - 2010.06.03 18:56:24.
