data_PCOD9124887
_publ_section_title
;
Structure prediction by ZEFSAII (Michael W. Deem and Ramdas Pophale) SiO2 
 PCOD9124887
Probable space group: C 2
;
_chemical_formula_sum "Si O2"
_cell_formula_units_Z 32
_cell_length_a 11.921662
_cell_length_b 15.111394
_cell_length_c 18.108589
_cell_angle_alpha 90.000000
_cell_angle_beta 151.883843
_cell_angle_gamma 90.000000
_cell_volume 1537.400763
_symmetry_space_group_name_H-M "C 2"
_symmetry_group_IT_number 5
_symmetry_cell_setting 'monoclinic'
loop_
_space_group_symop_operation_xyz
x,y,z
-x,y,-z
1/2+x,1/2+y,z
1/2-x,1/2+y,-z
loop_
_atom_site_type_symbol
_atom_site_label
_atom_site_fract_x
_atom_site_fract_y
_atom_site_fract_z
Si Si1 0.581324 0.120110 0.304303
Si Si2 0.149795 0.127700 0.159633
Si Si3 0.772444 0.438199 0.634758
Si Si4 0.474176 0.746877 0.776574
Si Si5 0.539552 0.718881 0.397954
Si Si6 0.998215 0.753924 0.870739
Si Si7 0.825169 0.415889 0.493096
Si Si8 0.370248 0.453305 0.768642
O O1 0.409823 0.113890 0.275587
O O2 0.495357 0.199263 0.201766
O O3 0.844356 0.141703 0.487224
O O4 0.594076 0.028670 0.267070
O O5 0.142704 0.198301 0.221436
O O6 0.045362 0.037976 0.136356
O O7 0.000000 0.152835 0.000000
O O8 0.500000 0.435342 0.500000
O O9 0.908322 0.350516 0.739966
O O10 0.771374 0.438342 0.545368
O O11 0.393556 0.712967 0.649326
O O12 0.758126 0.733014 0.946026
O O13 0.255611 0.727641 0.241151
O O14 0.656582 0.808860 0.499308
O O15 0.990772 0.860212 0.857668
O O16 0.645004 0.457395 0.329164
O O17 0.092831 0.444947 0.629936
#
# Coordination Sequence:
#
# PCOD9124887 Si02
#       8
#     4   4   4   4   4   4   4   4
#     4  12  24  45  71 101 138 182 235 286 343 414
#     4  12  27  44  66 100 141 183 235 286 346 418
#     4  11  25  43  67  99 142 184 232 280 349 411
#     4  11  27  42  66 105 140 182 224 289 352 412
#     4  10  22  40  70  99 134 175 226 286 337 407
#     4  11  22  43  70 100 139 179 228 283 352 408
#     4   9  19  38  60 105 124 167 231 281 332 403
#     4  10  21  38  69  93 134 176 229 286 338 403
#
# _framework density 20.814352
#
# number of rings (size 3 to 8) (size 9 to 14) (size 15 to 20)
#    0.000    1.250    3.750    1.500    7.000    0.000 
#    0.000    0.000    0.000    0.000    0.000    0.000 
#    0.000    0.000    0.000    0.000    0.000    0.000 
#
# Total GULP energy -89354.682133 kJ/mol
# GULP energy per Si atom -5584.667633 kJ/mol
# Density = 2.076698 g / cm^3
# Si number density = 20.814352 Si / 1000 Ang^3
#
#
#
# Elastic Constant Matrix: (Units=GPa)
#
#
# Indices 1 2 3 4 5 6 
#
# 1 93.8452 47.2786 25.1944 0.0009 -10.8317 -0.0017
# 2 47.2786 101.6073 16.5492 0.0060 -13.4633 0.0010
# 3 25.1944 16.5492 57.4621 0.0135 -0.1050 0.0020
# 4 0.0009 0.0060 0.0135 15.8138 0.0014 -1.8927
# 5 -10.8317 -13.4633 -0.1050 0.0014 30.6443 -0.0014
# 6 -0.0017 0.0010 0.0020 -1.8927 -0.0014 33.6913
#
#
#
# Elastic Compliance Matrix: (Units=1/GPa)
#
#
# Indices 1 2 3 4 5 6 
#
# 1 0.015312 -0.005942 -0.004997 0.000006 0.002785 0.000002
# 2 -0.005942 0.013301 -0.001218 -0.000004 0.003739 -0.000001
# 3 -0.004997 -0.001218 0.019941 -0.000016 -0.002233 -0.000002
# 4 0.000006 -0.000004 -0.000016 0.063664 -0.000003 0.003577
# 5 0.002785 0.003739 -0.002233 -0.000003 0.035252 0.000002
# 6 0.000002 -0.000001 -0.000002 0.003577 0.000002 0.029882
#
#
# Mechanical properties :
#
#
# Convention : Reuss Voigt Hill
#
# Bulk Modulus (GPa) = 41.25756 47.88434 44.57095
# Shear Modulus (GPa) = 23.83826 26.95604 25.39715
#
# Velocity S-wave (km/s) = 3.38787 3.60261 3.49689
# Velocity P-wave (km/s) = 5.93028 6.35299 6.14527
#
# Compressibility (1/GPa) = 0.02423798
#
# Stress axis : x y z
#
# Youngs Moduli (GPa) = 65.30619 75.18465 50.14868
#
# Poissons Ratio (x) = 0.44675 0.25061
# Poissons Ratio (y) = 0.38806 0.06110
# Poissons Ratio (z) = 0.32636 0.09161
#
# Static dielectric constant tensor:
#      x y z
#    x 1.751790 0.000000 0.002360 
#    y 0.000000 1.793140 0.000000 
#    z 0.002360 0.000000 1.739440 
# 
# From -- ./inp_files/44968.got.cif
#   From: 2010.05.17/outbox.cif.g08.bks.cpg/sg5_23_cif.got.tgz:44968.got - 2010.06.03 18:56:24.
