data_PCOD9124563
_publ_section_title
;
Structure prediction by ZEFSAII (Michael W. Deem and Ramdas Pophale) SiO2 
 PCOD9124563
Probable space group: C 2
;
_chemical_formula_sum "Si O2"
_cell_formula_units_Z 32
_cell_length_a 22.107206
_cell_length_b 6.390748
_cell_length_c 22.324917
_cell_angle_alpha 90.000000
_cell_angle_beta 28.344033
_cell_angle_gamma 90.000000
_cell_volume 1497.455260
_symmetry_space_group_name_H-M "C 2"
_symmetry_group_IT_number 5
_symmetry_cell_setting 'monoclinic'
loop_
_space_group_symop_operation_xyz
x,y,z
-x,y,-z
1/2+x,1/2+y,z
1/2-x,1/2+y,-z
loop_
_atom_site_type_symbol
_atom_site_label
_atom_site_fract_x
_atom_site_fract_y
_atom_site_fract_z
Si Si1 0.697272 0.584280 0.179681
Si Si2 0.337565 0.423005 0.981328
Si Si3 0.261329 0.833489 0.655148
Si Si4 0.900132 0.707600 0.814090
Si Si5 0.029577 0.411218 0.619117
Si Si6 0.187113 0.461724 0.797628
Si Si7 0.975040 0.100851 0.089469
Si Si8 0.395302 0.122995 0.627177
O O1 0.658437 0.361501 0.185636
O O2 0.561841 0.708261 0.300208
O O3 0.776262 0.585729 0.173634
O O4 0.786131 0.715699 0.058142
O O5 0.425452 0.355152 0.849158
O O6 0.405458 0.561586 0.972518
O O7 0.214068 0.551148 0.068144
O O8 0.331864 0.861226 0.529802
O O9 0.230098 0.600252 0.703872
O O10 0.136599 0.973514 0.778325
O O11 0.362945 0.924516 0.614360
O O12 0.013606 0.556013 0.692006
O O13 0.955551 0.554854 0.635740
O O14 0.056337 0.347391 0.892391
O O15 0.269879 0.256132 0.739278
O O16 0.000000 0.016880 0.000000
O O17 0.500000 0.256481 0.500000
#
# Coordination Sequence:
#
# PCOD9124563 Si02
#       8
#     4   4   4   4   4   4   4   4
#     4  11  21  35  65  93 130 169 218 271 331 390
#     4  11  24  43  66  94 132 168 226 279 328 392
#     4  10  22  38  57  92 133 173 213 258 333 400
#     4  11  22  41  67  98 123 172 227 281 326 386
#     4  10  21  36  61  95 131 167 222 277 322 391
#     4  11  21  34  57  94 128 175 207 250 337 404
#     4  11  25  42  62  93 138 173 210 274 330 407
#     4   9  18  30  52  86 127 159 199 258 309 378
#
# _framework density 21.369586999999999
#
# number of rings (size 3 to 8) (size 9 to 14) (size 15 to 20)
#    0.000    1.500    3.750    1.500    5.250    3.500 
#    0.000    0.000    2.750    0.000    0.000    0.000 
#    0.000    0.000    0.000    0.000    0.000    0.000 
#
# Total GULP energy -89123.906103 kJ/mol
# GULP energy per Si atom -5570.244131 kJ/mol
# Density = 2.132095 g / cm^3
# Si number density = 21.369587 Si / 1000 Ang^3
#
#
#
# Elastic Constant Matrix: (Units=GPa)
#
#
# Indices 1 2 3 4 5 6 
#
# 1 53.4456 18.4790 24.9648 0.0000 17.5469 -0.0023
# 2 18.4790 81.6699 39.7549 -0.0019 16.5026 -0.0033
# 3 24.9648 39.7549 109.3180 -0.0025 20.8744 -0.0012
# 4 0.0000 -0.0019 -0.0025 21.3983 0.0010 -2.4118
# 5 17.5469 16.5026 20.8744 0.0010 25.7236 0.0022
# 6 -0.0023 -0.0033 -0.0012 -2.4118 0.0022 22.4144
#
#
#
# Elastic Compliance Matrix: (Units=1/GPa)
#
#
# Indices 1 2 3 4 5 6 
#
# 1 0.025026 -0.001638 -0.002438 0.000001 -0.014041 0.000004
# 2 -0.001638 0.015841 -0.004330 0.000001 -0.005531 0.000003
# 3 -0.002438 -0.004330 0.012344 0.000001 -0.005576 0.000000
# 4 0.000001 0.000001 0.000001 0.047306 -0.000005 0.005090
# 5 -0.014041 -0.005531 -0.005576 -0.000005 0.056526 -0.000009
# 6 0.000004 0.000003 0.000000 0.005090 -0.000009 0.045162
#
#
# Mechanical properties :
#
#
# Convention : Reuss Voigt Hill
#
# Bulk Modulus (GPa) = 27.47506 45.64787 36.56147
# Shear Modulus (GPa) = 21.63094 24.65625 23.14360
#
# Velocity S-wave (km/s) = 3.18501 3.40045 3.29449
# Velocity P-wave (km/s) = 5.13913 6.06835 5.62297
#
# Compressibility (1/GPa) = 0.03639664
#
# Stress axis : x y z
#
# Youngs Moduli (GPa) = 39.95855 63.12896 81.01162
#
# Poissons Ratio (x) = 0.10343 0.19751
# Poissons Ratio (y) = 0.06547 0.35081
# Poissons Ratio (z) = 0.09742 0.27337
#
# Static dielectric constant tensor:
#      x y z
#    x 1.865440 0.000000 -0.040190 
#    y 0.000000 1.820420 0.000000 
#    z -0.040190 0.000000 1.928820 
# 
# From -- ./inp_files/69571.got.cif
#   From: 2010.05.17/outbox.cif.g08.bks.cpg/sg5_35_cif.got.tgz:69571.got - 2010.06.03 18:56:24.
