data_PCOD9124245
_publ_section_title
;
Structure prediction by ZEFSAII (Michael W. Deem and Ramdas Pophale) SiO2 
 PCOD9124245
Probable space group: C 2
;
_chemical_formula_sum "Si O2"
_cell_formula_units_Z 32
_cell_length_a 14.530582
_cell_length_b 11.275337
_cell_length_c 18.422947
_cell_angle_alpha 90.000000
_cell_angle_beta 29.912596
_cell_angle_gamma 90.000000
_cell_volume 1505.192759
_symmetry_space_group_name_H-M "C 2"
_symmetry_group_IT_number 5
_symmetry_cell_setting 'monoclinic'
loop_
_space_group_symop_operation_xyz
x,y,z
-x,y,-z
1/2+x,1/2+y,z
1/2-x,1/2+y,-z
loop_
_atom_site_type_symbol
_atom_site_label
_atom_site_fract_x
_atom_site_fract_y
_atom_site_fract_z
Si Si1 0.167169 0.589450 0.333915
Si Si2 0.579038 0.218807 0.753080
Si Si3 0.174614 0.057395 0.329376
Si Si4 0.190778 0.325585 0.683342
Si Si5 0.646374 0.979689 0.099365
Si Si6 0.997026 0.908473 0.082072
Si Si7 0.288786 0.955158 0.115205
Si Si8 0.976329 0.767838 0.362763
O O1 0.275567 0.700118 0.299305
O O2 0.314514 0.487876 0.216771
O O3 0.000000 0.547600 0.500000
O O4 0.057915 0.647447 0.341012
O O5 0.727837 0.174222 0.708620
O O6 0.478682 0.319464 0.867136
O O7 0.640095 0.259235 0.631762
O O8 0.464607 0.100923 0.815002
O O9 0.000000 0.052656 0.500000
O O10 0.269892 0.932694 0.287493
O O11 0.183850 0.053458 0.236380
O O12 0.345797 0.325733 0.513842
O O13 0.987328 0.365137 0.795636
O O14 0.702673 0.979982 0.975893
O O15 0.819658 0.986101 0.033947
O O16 0.000000 0.852503 0.000000
O O17 0.158158 0.842031 0.217260
O O18 0.500000 0.944913 0.000000
#
# Coordination Sequence:
#
# PCOD9124245 Si02
#       8
#     4   4   4   4   4   4   4   4
#     4  10  22  44  72  96 131 175 224 274 329 390
#     4  11  26  43  63  98 135 171 221 264 337 401
#     4  11  21  42  67  96 131 169 220 274 328 388
#     4  10  20  42  72 101 123 169 231 282 317 380
#     4  11  25  44  69  99 135 174 224 277 327 401
#     4  12  28  46  63  97 141 180 211 270 338 405
#     4  12  20  37  73 101 124 167 218 283 325 376
#     4  11  21  43  70  99 128 167 228 278 321 390
#
# _framework density 21.259734999999999
#
# number of rings (size 3 to 8) (size 9 to 14) (size 15 to 20)
#    0.000    1.000    6.250    1.125    3.500    3.000 
#   18.000    0.000    0.000    0.000    0.000    0.000 
#    0.000    0.000    0.000    0.000    0.000    0.000 
#
# Total GULP energy -89185.703602 kJ/mol
# GULP energy per Si atom -5574.106475 kJ/mol
# Density = 2.121135 g / cm^3
# Si number density = 21.259735 Si / 1000 Ang^3
#
#
#
# Elastic Constant Matrix: (Units=GPa)
#
#
# Indices 1 2 3 4 5 6 
#
# 1 64.8512 -1.7558 18.0324 0.0000 21.1006 0.0001
# 2 -1.7558 29.6603 8.4451 0.0003 6.5717 0.0001
# 3 18.0324 8.4451 102.5828 -0.0003 12.2919 0.0003
# 4 0.0000 0.0003 -0.0003 -7.8617 0.0003 8.3584
# 5 21.1006 6.5717 12.2919 0.0003 38.8080 0.0000
# 6 0.0001 0.0001 0.0003 8.3584 0.0000 12.1809
#
#
#
# Elastic Compliance Matrix: (Units=1/GPa)
#
#
# Indices 1 2 3 4 5 6 
#
# 1 0.019697 0.004243 -0.002539 0.000000 -0.010624 0.000000
# 2 0.004243 0.036454 -0.002838 0.000000 -0.007581 -0.000001
# 3 -0.002539 -0.002838 0.010608 0.000000 -0.001499 0.000000
# 4 0.000000 0.000000 0.000000 -0.073545 0.000001 0.050466
# 5 -0.010624 -0.007581 -0.001499 0.000001 0.033303 0.000000
# 6 0.000000 -0.000001 0.000000 0.050466 0.000000 0.047467
#
#
# Mechanical properties :
#
#
# Convention : Reuss Voigt Hill
#
# Bulk Modulus (GPa) = 15.50617 27.39307 21.44962
# Shear Modulus (GPa) = 51.15118 20.11696 35.63407
#
# Velocity S-wave (km/s) = 4.91043 3.07945 4.09850
# Velocity P-wave (km/s) = 6.28167 5.05539 5.70159
#
# Compressibility (1/GPa) = 0.06449046
#
# Stress axis : x y z
#
# Youngs Moduli (GPa) = 50.76790 27.43178 94.27051
#
# Poissons Ratio (x) = -0.11639 0.23933
# Poissons Ratio (y) = -0.21540 0.26759
# Poissons Ratio (z) = 0.12889 0.07787
#
# Static dielectric constant tensor:
#      x y z
#    x 1.829150 0.000000 0.012090 
#    y 0.000000 1.789020 0.000000 
#    z 0.012090 0.000000 2.567430 
# 
# From -- ./inp_files/61683.got.cif
#   From: 2010.05.17/outbox.cif.g08.bks.cpg/sg5_31_cif.got.tgz:61683.got - 2010.06.03 18:56:24.
