data_PCOD9124043
_publ_section_title
;
Structure prediction by ZEFSAII (Michael W. Deem and Ramdas Pophale) SiO2 
 PCOD9124043
Probable space group: C 2
;
_chemical_formula_sum "Si O2"
_cell_formula_units_Z 26
_cell_length_a 8.038815
_cell_length_b 9.934359
_cell_length_c 20.121078
_cell_angle_alpha 90.000000
_cell_angle_beta 47.980011
_cell_angle_gamma 90.000000
_cell_volume 1193.768501
_symmetry_space_group_name_H-M "C 2"
_symmetry_group_IT_number 5
_symmetry_cell_setting 'monoclinic'
loop_
_space_group_symop_operation_xyz
x,y,z
-x,y,-z
1/2+x,1/2+y,z
1/2-x,1/2+y,-z
loop_
_atom_site_type_symbol
_atom_site_label
_atom_site_fract_x
_atom_site_fract_y
_atom_site_fract_z
Si Si1 0.043329 0.864620 0.609386
Si Si2 0.971275 0.092055 0.931506
Si Si3 0.222474 0.096270 0.487474
Si Si4 0.104481 0.718474 0.220059
Si Si5 0.641406 0.308053 0.842361
Si Si6 0.931287 0.439270 0.319987
Si Si7 0.500000 0.126449 0.000000
O O1 0.995050 0.815373 0.696828
O O2 0.803469 0.877794 0.638693
O O3 0.183455 0.746822 0.535098
O O4 0.157731 0.010629 0.569644
O O5 0.127057 0.195160 0.847599
O O6 0.715385 0.065982 0.979427
O O7 0.086853 0.949355 0.890683
O O8 0.000000 0.134557 0.000000
O O9 0.000000 0.101312 0.500000
O O10 0.402992 0.003581 0.400379
O O11 0.038054 0.773144 0.166079
O O12 0.988355 0.572583 0.261262
O O13 0.876468 0.329879 0.742284
O O14 0.623397 0.204858 0.907177
#
# Coordination Sequence:
#
# PCOD9124043 Si02
#       7
#     4   4   4   4   4   4   2
#     4  10  20  41  67  94 130 175 219 277 335 399
#     4  11  23  42  63  96 133 171 227 279 325 397
#     4   9  20  39  62  94 131 173 216 276 337 389
#     4  10  22  41  64  92 133 173 218 278 332 393
#     4  11  23  41  63  91 129 172 217 280 337 391
#     4   9  21  40  62  88 128 168 217 274 332 397
#     4  12  24  38  66  94 124 178 222 268 344 392
#
# _framework density 21.779765999999999
#
# number of rings (size 3 to 8) (size 9 to 14) (size 15 to 20)
#    0.000    1.846    2.308    0.923    0.000    6.154 
#    0.000   17.692    0.000    0.000    0.000    0.000 
#    0.000    0.000    0.000    0.000    0.000    0.000 
#
# Total GULP energy -72524.185568 kJ/mol
# GULP energy per Si atom -5578.783505 kJ/mol
# Density = 2.173019 g / cm^3
# Si number density = 21.779766 Si / 1000 Ang^3
#
#
#
# Elastic Constant Matrix: (Units=GPa)
#
#
# Indices 1 2 3 4 5 6 
#
# 1 52.3750 8.6917 20.9790 0.0000 -14.3964 0.0000
# 2 8.6917 31.8221 25.0896 0.0000 -0.5394 0.0000
# 3 20.9790 25.0896 67.1448 0.0001 -15.6811 0.0000
# 4 0.0000 0.0000 0.0001 29.6178 0.0000 -2.4527
# 5 -14.3964 -0.5394 -15.6811 0.0000 38.3226 0.0000
# 6 0.0000 0.0000 0.0000 -2.4527 0.0000 22.4481
#
#
#
# Elastic Compliance Matrix: (Units=1/GPa)
#
#
# Indices 1 2 3 4 5 6 
#
# 1 0.023271 -0.002486 -0.004764 0.000000 0.006758 0.000000
# 2 -0.002486 0.046497 -0.018423 0.000000 -0.007818 0.000000
# 3 -0.004764 -0.018423 0.025195 0.000000 0.008260 0.000000
# 4 0.000000 0.000000 0.000000 0.034072 0.000000 0.003723
# 5 0.006758 -0.007818 0.008260 0.000000 0.031903 0.000000
# 6 0.000000 0.000000 0.000000 0.003723 0.000000 0.044954
#
#
# Mechanical properties :
#
#
# Convention : Reuss Voigt Hill
#
# Bulk Modulus (GPa) = 22.92675 28.98472 25.95573
# Shear Modulus (GPa) = 18.39750 24.51649 21.45699
#
# Velocity S-wave (km/s) = 2.90954 3.35872 3.14216
# Velocity P-wave (km/s) = 4.67297 5.32713 5.01074
#
# Compressibility (1/GPa) = 0.04361718
#
# Stress axis : x y z
#
# Youngs Moduli (GPa) = 42.97141 21.50697 39.69048
#
# Poissons Ratio (x) = 0.05346 0.18909
# Poissons Ratio (y) = 0.10681 0.73123
# Poissons Ratio (z) = 0.20472 0.39623
#
# Static dielectric constant tensor:
#      x y z
#    x 1.823440 0.000000 -0.045830 
#    y 0.000000 1.793060 0.000000 
#    z -0.045830 0.000000 1.861650 
# 
# From -- ./inp_files/64388.got.cif
#   From: 2010.05.17/outbox.cif.g08.bks.cpg/sg5_33_cif.got.tgz:64388.got - 2010.06.03 18:56:24.
