data_PCOD9124298
_publ_section_title
;
Structure prediction by ZEFSAII (Michael W. Deem and Ramdas Pophale) SiO2 
 PCOD9124298
Probable space group: C 2
;
_chemical_formula_sum "Si O2"
_cell_formula_units_Z 26
_cell_length_a 10.359243
_cell_length_b 9.394770
_cell_length_c 24.598289
_cell_angle_alpha 90.000000
_cell_angle_beta 147.781806
_cell_angle_gamma 90.000000
_cell_volume 1276.334109
_symmetry_space_group_name_H-M "C 2"
_symmetry_group_IT_number 5
_symmetry_cell_setting 'monoclinic'
loop_
_space_group_symop_operation_xyz
x,y,z
-x,y,-z
1/2+x,1/2+y,z
1/2-x,1/2+y,-z
loop_
_atom_site_type_symbol
_atom_site_label
_atom_site_fract_x
_atom_site_fract_y
_atom_site_fract_z
Si Si1 0.500000 0.885190 0.000000
Si Si2 0.091043 0.344485 0.280011
Si Si3 0.167989 0.188261 0.962970
Si Si4 0.992853 0.048345 0.195745
Si Si5 0.747544 0.955662 0.932091
Si Si6 0.413434 0.212203 0.532225
Si Si7 0.006292 0.425773 0.631784
O O1 0.552462 0.785614 0.967547
O O2 0.266805 0.977578 0.901851
O O3 0.378614 0.323846 0.374745
O O4 0.030525 0.415232 0.316155
O O5 0.003029 0.178967 0.241925
O O6 0.956143 0.431836 0.185057
O O7 0.975411 0.120077 0.852841
O O8 0.314793 0.302160 0.980459
O O9 0.323607 0.065642 0.046372
O O10 0.207195 0.934364 0.279407
O O11 0.000000 0.013285 0.000000
O O12 0.500000 0.180972 0.500000
O O13 0.156565 0.291926 0.444538
O O14 0.416710 0.070929 0.570319
#
# Coordination Sequence:
#
# PCOD9124298 Si02
#       7
#     2   4   4   4   4   4   4
#     4  12  24  38  58  90 132 166 212 250 300 364
#     4   9  21  38  66  90 121 164 211 256 313 370
#     4  11  23  38  58  90 130 166 211 255 294 365
#     4  10  23  40  60  93 128 168 208 253 305 370
#     4  11  22  38  60  87 125 166 208 254 305 363
#     4   9  20  43  64  91 123 156 205 262 312 380
#     4  10  20  43  68  90 123 161 204 261 321 369
#
# _framework density 20.370840999999999
#
# number of rings (size 3 to 8) (size 9 to 14) (size 15 to 20)
#    0.000    1.846    2.308    0.923    4.308    0.000 
#    2.769   16.154    0.000    0.000    0.000    0.000 
#    0.000    0.000    0.000    0.000    0.000    0.000 
#
# Total GULP energy -72457.778143 kJ/mol
# GULP energy per Si atom -5573.675242 kJ/mol
# Density = 2.032448 g / cm^3
# Si number density = 20.370841 Si / 1000 Ang^3
#
#
#
# Elastic Constant Matrix: (Units=GPa)
#
#
# Indices 1 2 3 4 5 6 
#
# 1 78.9554 50.6496 46.6259 0.0000 -5.9519 0.0000
# 2 50.6496 93.5824 62.7266 0.0000 -3.6912 0.0000
# 3 46.6259 62.7266 119.1874 0.0000 -0.3798 0.0000
# 4 0.0000 0.0000 0.0000 -48.6392 0.0000 38.2911
# 5 -5.9519 -3.6912 -0.3798 0.0000 34.8978 0.0000
# 6 0.0000 0.0000 0.0000 38.2911 0.0000 6.5864
#
#
#
# Elastic Compliance Matrix: (Units=1/GPa)
#
#
# Indices 1 2 3 4 5 6 
#
# 1 0.020439 -0.008665 -0.003427 0.000000 0.002532 0.000000
# 2 -0.008665 0.020279 -0.007281 0.000000 0.000588 0.000000
# 3 -0.003427 -0.007281 0.013559 0.000000 -0.001207 0.000000
# 4 0.000000 0.000000 0.000000 -0.003687 0.000000 0.021433
# 5 0.002532 0.000588 -0.001207 0.000000 0.029136 0.000000
# 6 0.000000 0.000000 0.000000 0.021433 0.000000 0.027225
#
#
# Mechanical properties :
#
#
# Convention : Reuss Voigt Hill
#
# Bulk Modulus (GPa) = 64.39043 67.96994 66.18019
# Shear Modulus (GPa) = 33.14022 7.35052 20.24537
#
# Velocity S-wave (km/s) = 4.03779 1.90163 3.15594
# Velocity P-wave (km/s) = 7.30863 6.18549 6.77039
#
# Compressibility (1/GPa) = 0.01553026
#
# Stress axis : x y z
#
# Youngs Moduli (GPa) = 48.92675 49.31221 73.75215
#
# Poissons Ratio (x) = 0.42729 0.25277
# Poissons Ratio (y) = 0.42395 0.53699
# Poissons Ratio (z) = 0.16769 0.35904
#
# Static dielectric constant tensor:
#      x y z
#    x 2.024540 0.000000 0.150280 
#    y 0.000000 1.735350 0.000000 
#    z 0.150280 0.000000 1.845670 
# 
# From -- ./inp_files/70312.got.cif
#   From: 2010.05.17/outbox.cif.g08.bks.cpg/sg5_36_cif.got.tgz:70312.got - 2010.06.03 18:56:24.
