data_PCOD9124764
_publ_section_title
;
Structure prediction by ZEFSAII (Michael W. Deem and Ramdas Pophale) SiO2 
 PCOD9124764
Probable space group: C 2
;
_chemical_formula_sum "Si O2"
_cell_formula_units_Z 24
_cell_length_a 21.032922
_cell_length_b 5.118794
_cell_length_c 11.618526
_cell_angle_alpha 90.000000
_cell_angle_beta 127.497601
_cell_angle_gamma 90.000000
_cell_volume 992.427762
_symmetry_space_group_name_H-M "C 2"
_symmetry_group_IT_number 5
_symmetry_cell_setting 'monoclinic'
loop_
_space_group_symop_operation_xyz
x,y,z
-x,y,-z
1/2+x,1/2+y,z
1/2-x,1/2+y,-z
loop_
_atom_site_type_symbol
_atom_site_label
_atom_site_fract_x
_atom_site_fract_y
_atom_site_fract_z
Si Si1 0.454585 0.475700 0.778736
Si Si2 0.676298 0.403672 0.803000
Si Si3 0.760024 0.199721 0.326005
Si Si4 0.136712 0.504003 0.386470
Si Si5 0.357183 0.905881 0.101514
Si Si6 0.606454 0.297646 0.040261
O O1 0.415434 0.755939 0.714551
O O2 0.425567 0.344998 0.867150
O O3 0.418883 0.256918 0.654253
O O4 0.549641 0.480761 0.901868
O O5 0.691246 0.479360 0.687728
O O6 0.634405 0.140540 0.797099
O O7 0.631392 0.648227 0.810939
O O8 0.765364 0.384726 0.956187
O O9 0.816016 0.405511 0.450238
O O10 0.701307 0.335723 0.166091
O O11 0.703912 0.072079 0.363263
O O12 0.400167 0.020334 0.032846
#
# Coordination Sequence:
#
# PCOD9124764 Si02
#       6
#     4   4   4   4   4   4
#     4  10  23  38  56  86 119 151 185 233 289 342
#     4   9  19  32  52  81 110 140 185 237 280 324
#     4  10  21  38  61  86 114 150 193 236 283 341
#     4  11  23  38  57  85 118 150 185 232 291 342
#     4   9  18  32  52  80 109 142 184 235 281 324
#     4   9  20  37  60  84 114 150 192 234 282 340
#
# _framework density 24.183119999999999
#
# number of rings (size 3 to 8) (size 9 to 14) (size 15 to 20)
#    0.000    2.333    0.000    2.000    0.000   18.667 
#    0.000    0.000    0.000    6.000    0.000    0.000 
#    0.000    0.000    0.000    0.000    0.000    0.000 
#
# Total GULP energy -66950.572144 kJ/mol
# GULP energy per Si atom -5579.214345 kJ/mol
# Density = 2.412808 g / cm^3
# Si number density = 24.183120 Si / 1000 Ang^3
#
#
#
# Elastic Constant Matrix: (Units=GPa)
#
#
# Indices 1 2 3 4 5 6 
#
# 1 15.1915 1.8786 22.6336 0.0000 -9.4393 0.0000
# 2 1.8786 122.1163 33.4326 0.0000 10.2264 0.0000
# 3 22.6336 33.4326 117.3316 0.0000 17.9377 0.0000
# 4 0.0000 0.0000 0.0000 2.4768 0.0000 -12.9634
# 5 -9.4393 10.2264 17.9377 0.0000 25.4440 0.0000
# 6 0.0000 0.0000 0.0000 -12.9634 0.0000 22.2334
#
#
#
# Elastic Compliance Matrix: (Units=1/GPa)
#
#
# Indices 1 2 3 4 5 6 
#
# 1 0.288115 0.004302 -0.081684 0.000000 0.162743 0.000000
# 2 0.004302 0.009038 -0.003468 0.000000 0.000408 0.000000
# 3 -0.081684 -0.003468 0.033274 0.000000 -0.052367 0.000000
# 4 0.000000 0.000000 0.000000 -0.196788 0.000000 -0.114739
# 5 0.162743 0.000408 -0.052367 0.000000 0.136431 0.000000
# 6 0.000000 0.000000 0.000000 -0.114739 0.000000 -0.021922
#
#
# Mechanical properties :
#
#
# Convention : Reuss Voigt Hill
#
# Bulk Modulus (GPa) = 5.92670 41.16989 23.54830
# Shear Modulus (GPa) = 10.72757 23.14381 16.93569
#
# Velocity S-wave (km/s) = 2.10846 3.09694 2.64921
# Velocity P-wave (km/s) = 2.89544 5.46344 4.37223
#
# Compressibility (1/GPa) = 0.16872800
#
# Stress axis : x y z
#
# Youngs Moduli (GPa) = 3.47084 110.64522 30.05352
#
# Poissons Ratio (x) = -0.47605 2.45490
# Poissons Ratio (y) = -0.01493 0.10421
# Poissons Ratio (z) = 0.28351 0.38368
#
# Static dielectric constant tensor:
#      x y z
#    x 2.089830 0.000000 0.012310 
#    y 0.000000 1.984750 0.000000 
#    z 0.012310 0.000000 1.932030 
# 
# From -- ./inp_files/47725.got.cif
#   From: 2010.05.17/outbox.cif.g08.bks.cpg/sg5_24_cif.got.tgz:47725.got - 2010.06.03 18:56:24.
