data_PCOD9124386
_publ_section_title
;
Structure prediction by ZEFSAII (Michael W. Deem and Ramdas Pophale) SiO2 
 PCOD9124386
Probable space group: C 2
;
_chemical_formula_sum "Si O2"
_cell_formula_units_Z 30
_cell_length_a 21.294224
_cell_length_b 8.115660
_cell_length_c 14.493858
_cell_angle_alpha 90.000000
_cell_angle_beta 148.338566
_cell_angle_gamma 90.000000
_cell_volume 1314.756372
_symmetry_space_group_name_H-M "C 2"
_symmetry_group_IT_number 5
_symmetry_cell_setting 'monoclinic'
loop_
_space_group_symop_operation_xyz
x,y,z
-x,y,-z
1/2+x,1/2+y,z
1/2-x,1/2+y,-z
loop_
_atom_site_type_symbol
_atom_site_label
_atom_site_fract_x
_atom_site_fract_y
_atom_site_fract_z
Si Si1 0.066845 0.973350 0.310892
Si Si2 0.282230 0.742288 0.922290
Si Si3 0.204531 0.630426 0.460549
Si Si4 0.591024 0.305588 0.029013
Si Si5 0.687595 0.003394 0.645080
Si Si6 0.624071 0.550658 0.784800
Si Si7 0.012792 0.452395 0.906669
Si Si8 0.000000 0.300817 0.500000
O O1 0.145901 0.810497 0.389344
O O2 0.161199 0.118613 0.410648
O O3 0.002504 0.991318 0.328503
O O4 0.958237 0.940652 0.103991
O O5 0.219406 0.635128 0.763970
O O6 0.197031 0.895869 0.839202
O O7 0.303702 0.638816 0.042210
O O8 0.410618 0.812425 0.047722
O O9 0.206050 0.577128 0.568285
O O10 0.116043 0.507792 0.293907
O O11 0.718014 0.357148 0.224506
O O12 0.500000 0.304634 0.000000
O O13 0.588572 0.121424 0.987608
O O14 0.559554 0.921717 0.500023
O O15 0.593867 0.684063 0.669088
O O16 0.000000 0.415641 0.000000
#
# Coordination Sequence:
#
# PCOD9124386 Si02
#       8
#     4   4   4   4   4   4   4   2
#     4  11  26  44  72 107 143 185 236 301 363 432
#     4  12  28  47  76 103 146 197 250 296 366 440
#     4  11  27  43  75 105 149 182 243 306 367 421
#     4  10  20  45  70 103 140 186 233 291 363 433
#     4  12  26  46  73 102 143 191 240 301 360 433
#     4  12  29  48  74 104 148 192 249 299 367 438
#     4  10  25  45  75 108 145 191 242 299 367 436
#     4  12  30  46  72 102 148 186 246 298 370 428
#
# _framework density 22.817916
#
# number of rings (size 3 to 8) (size 9 to 14) (size 15 to 20)
#    0.000    0.800    2.667    2.400   13.067    0.533 
#    0.000    0.000    0.000    0.000    0.000    0.000 
#    0.000    0.000    0.000    0.000    0.000    0.000 
#
# Total GULP energy -83987.776930 kJ/mol
# GULP energy per Si atom -5599.185129 kJ/mol
# Density = 2.276598 g / cm^3
# Si number density = 22.817916 Si / 1000 Ang^3
#
#
#
# Elastic Constant Matrix: (Units=GPa)
#
#
# Indices 1 2 3 4 5 6 
#
# 1 89.5280 22.2349 19.3562 0.0000 5.1459 0.0000
# 2 22.2349 80.6711 14.1431 0.0000 6.2725 0.0000
# 3 19.3562 14.1431 61.6893 0.0000 -13.2145 0.0000
# 4 0.0000 0.0000 0.0000 38.1082 0.0000 14.7894
# 5 5.1459 6.2725 -13.2145 0.0000 46.7264 0.0000
# 6 0.0000 0.0000 0.0000 14.7894 0.0000 29.8937
#
#
#
# Elastic Compliance Matrix: (Units=1/GPa)
#
#
# Indices 1 2 3 4 5 6 
#
# 1 0.012793 -0.002683 -0.003857 0.000000 -0.002139 0.000000
# 2 -0.002683 0.013815 -0.002831 0.000000 -0.002360 0.000000
# 3 -0.003857 -0.002831 0.019418 0.000000 0.006296 0.000000
# 4 0.000000 0.000000 0.000000 0.032477 0.000000 -0.016067
# 5 -0.002139 -0.002360 0.006296 0.000000 0.023734 0.000000
# 6 0.000000 0.000000 0.000000 -0.016067 0.000000 0.041401
#
#
# Mechanical properties :
#
#
# Convention : Reuss Voigt Hill
#
# Bulk Modulus (GPa) = 36.65173 38.15073 37.40123
# Shear Modulus (GPa) = 29.15861 34.68927 31.92394
#
# Velocity S-wave (km/s) = 3.57863 3.90329 3.74448
# Velocity P-wave (km/s) = 5.75960 6.08852 5.92634
#
# Compressibility (1/GPa) = 0.02728384
#
# Stress axis : x y z
#
# Youngs Moduli (GPa) = 78.16741 72.38291 51.49789
#
# Poissons Ratio (x) = 0.19424 0.19863
# Poissons Ratio (y) = 0.20976 0.14578
# Poissons Ratio (z) = 0.30150 0.20490
#
# Static dielectric constant tensor:
#      x y z
#    x 1.837200 0.000000 0.010620 
#    y 0.000000 1.868000 0.000000 
#    z 0.010620 0.000000 1.843690 
# 
# From -- ./inp_files/56946.got.cif
#   From: 2010.05.17/outbox.cif.g08.bks.cpg/sg5_29_cif.got.tgz:56946.got - 2010.06.03 18:56:24.
