data_PCOD9124061
_publ_section_title
;
Structure prediction by ZEFSAII (Michael W. Deem and Ramdas Pophale) SiO2 
 PCOD9124061
Probable space group: C 2
;
_chemical_formula_sum "Si O2"
_cell_formula_units_Z 16
_cell_length_a 12.748226
_cell_length_b 7.478350
_cell_length_c 16.775044
_cell_angle_alpha 90.000000
_cell_angle_beta 157.614702
_cell_angle_gamma 90.000000
_cell_volume 609.051374
_symmetry_space_group_name_H-M "C 2"
_symmetry_group_IT_number 5
_symmetry_cell_setting 'monoclinic'
loop_
_space_group_symop_operation_xyz
x,y,z
-x,y,-z
1/2+x,1/2+y,z
1/2-x,1/2+y,-z
loop_
_atom_site_type_symbol
_atom_site_label
_atom_site_fract_x
_atom_site_fract_y
_atom_site_fract_z
Si Si1 0.294307 0.995420 0.201726
Si Si2 0.414599 0.485204 0.676211
Si Si3 0.694455 0.747041 0.984634
Si Si4 0.695969 0.378250 0.710838
O O1 0.600466 0.932399 0.435984
O O2 0.277209 0.087906 0.103311
O O3 0.286402 0.166223 0.256248
O O4 0.000000 0.893189 0.000000
O O5 0.514385 0.346274 0.814404
O O6 0.571465 0.466780 0.701929
O O7 0.509495 0.673552 0.782425
O O8 0.506858 0.898283 0.898069
O O9 0.500000 0.416830 0.500000
#
# Coordination Sequence:
#
# PCOD9124061 Si02
#       4
#     4   4   4   4
#     4   9  20  38  65 102 137 181 233 280 349 418
#     4  11  22  39  72 110 134 187 236 285 357 413
#     4  10  23  40  69 105 137 186 235 288 348 423
#     4  10  20  41  69 102 138 183 227 289 349 415
#
# _framework density 26.27036
#
# number of rings (size 3 to 8) (size 9 to 14) (size 15 to 20)
#    0.000    2.000    2.500    2.250    3.500    0.000 
#    0.000    0.000    0.000   75.000    0.000    0.000 
#    0.000    0.000    0.000    0.000    0.000    0.000 
#
# Total GULP energy -44586.038316 kJ/mol
# GULP energy per Si atom -5573.254790 kJ/mol
# Density = 2.621057 g / cm^3
# Si number density = 26.270360 Si / 1000 Ang^3
#
#
#
# Elastic Constant Matrix: (Units=GPa)
#
#
# Indices 1 2 3 4 5 6 
#
# 1 97.4909 17.5752 68.9908 0.0018 -18.1030 -0.0008
# 2 17.5752 32.3916 42.0927 0.0061 -3.2179 0.0013
# 3 68.9908 42.0927 283.5647 0.0167 -21.1943 0.0025
# 4 0.0018 0.0061 0.0167 34.6484 0.0033 -6.5703
# 5 -18.1030 -3.2179 -21.1943 0.0033 40.7353 -0.0003
# 6 -0.0008 0.0013 0.0025 -6.5703 -0.0003 37.1170
#
#
#
# Elastic Compliance Matrix: (Units=1/GPa)
#
#
# Indices 1 2 3 4 5 6 
#
# 1 0.013444 -0.003759 -0.002381 0.000001 0.004439 0.000001
# 2 -0.003759 0.039302 -0.005007 -0.000005 -0.001171 -0.000002
# 3 -0.002381 -0.005007 0.004932 -0.000002 0.001112 0.000000
# 4 0.000001 -0.000005 -0.000002 0.029864 -0.000003 0.005286
# 5 0.004439 -0.001171 0.001112 -0.000003 0.027008 0.000000
# 6 0.000001 -0.000002 0.000000 0.005286 0.000000 0.027878
#
#
# Mechanical properties :
#
#
# Convention : Reuss Voigt Hill
#
# Bulk Modulus (GPa) = 28.26155 74.52941 51.39548
# Shear Modulus (GPa) = 28.32577 41.48604 34.90590
#
# Velocity S-wave (km/s) = 3.28722 3.97822 3.64911
# Velocity P-wave (km/s) = 5.01887 7.03800 6.11238
#
# Compressibility (1/GPa) = 0.03538376
#
# Stress axis : x y z
#
# Youngs Moduli (GPa) = 74.38027 25.44388 202.74717
#
# Poissons Ratio (x) = 0.09565 0.48278
# Poissons Ratio (y) = 0.27963 1.01514
# Poissons Ratio (z) = 0.17711 0.12740
#
# Static dielectric constant tensor:
#      x y z
#    x 2.170300 0.000000 0.145920 
#    y 0.000000 2.295800 -0.000010 
#    z 0.145920 -0.000010 2.120510 
# 
# From -- ./inp_files/41386.got.cif
#   From: 2010.05.17/outbox.cif.g08.bks.cpg/sg5_21_cif.got.tgz:41386.got - 2010.06.03 18:56:24.
