data_PCOD9124661
_publ_section_title
;
Structure prediction by ZEFSAII (Michael W. Deem and Ramdas Pophale) SiO2 
 PCOD9124661
Probable space group: C 2
;
_chemical_formula_sum "Si O2"
_cell_formula_units_Z 26
_cell_length_a 7.391597
_cell_length_b 8.638252
_cell_length_c 21.368929
_cell_angle_alpha 90.000000
_cell_angle_beta 131.202129
_cell_angle_gamma 90.000000
_cell_volume 1026.573787
_symmetry_space_group_name_H-M "C 2"
_symmetry_group_IT_number 5
_symmetry_cell_setting 'monoclinic'
loop_
_space_group_symop_operation_xyz
x,y,z
-x,y,-z
1/2+x,1/2+y,z
1/2-x,1/2+y,-z
loop_
_atom_site_type_symbol
_atom_site_label
_atom_site_fract_x
_atom_site_fract_y
_atom_site_fract_z
Si Si1 0.887580 0.000000 0.774825
Si Si2 0.221516 0.173828 0.920582
Si Si3 0.863171 0.997847 0.534837
Si Si4 0.766183 0.166842 0.311739
Si Si5 0.400976 0.981723 0.164756
Si Si6 0.000000 0.147651 0.000000
Si Si7 0.987193 0.661600 0.380128
O O1 0.810465 0.832990 0.731843
O O2 0.737455 0.028457 0.804012
O O3 0.785824 0.120896 0.700518
O O4 0.150458 0.017559 0.866366
O O5 0.130875 0.301418 0.851493
O O6 0.081431 0.217954 0.952752
O O7 0.500000 0.180199 0.000000
O O8 0.590923 0.034814 0.452550
O O9 0.000000 0.014934 0.500000
O O10 0.962984 0.126997 0.605886
O O11 0.941650 0.830727 0.578483
O O12 0.667341 0.043832 0.237976
O O13 0.628420 0.147074 0.346470
O O14 0.241830 0.053108 0.072923
#
# Coordination Sequence:
#
# PCOD9124661 Si02
#       7
#     4   4   4   4   4   2   4
#     4  10  23  42  62  94 131 168 222 278 328 401
#     4  11  24  46  69  97 132 180 226 277 344 399
#     4  10  21  37  61  91 126 169 214 268 329 393
#     4  10  22  39  61  91 130 169 214 273 329 391
#     4  10  22  43  62  90 134 165 217 282 325 393
#     4  10  24  44  64  98 134 166 224 292 324 404
#     4  10  21  39  61  93 127 169 216 269 329 394
#
# _framework density 25.326968000000001
#
# number of rings (size 3 to 8) (size 9 to 14) (size 15 to 20)
#    0.000    1.846    0.769    1.846    2.154    2.462 
#   11.077    0.000    0.000    0.000    0.000    0.000 
#    0.000    0.000    0.000    0.000    0.000    0.000 
#
# Total GULP energy -72573.280233 kJ/mol
# GULP energy per Si atom -5582.560018 kJ/mol
# Density = 2.526932 g / cm^3
# Si number density = 25.326968 Si / 1000 Ang^3
#
#
#
# Elastic Constant Matrix: (Units=GPa)
#
#
# Indices 1 2 3 4 5 6 
#
# 1 50.8923 -13.1014 38.6765 0.0000 -2.8841 0.0000
# 2 -13.1014 87.2714 82.2126 0.0000 20.3199 0.0000
# 3 38.6765 82.2126 220.1368 0.0000 27.7583 0.0000
# 4 0.0000 0.0000 0.0000 57.3418 0.0000 -7.0686
# 5 -2.8841 20.3199 27.7583 0.0000 45.9198 0.0000
# 6 0.0000 0.0000 0.0000 -7.0686 0.0000 22.2937
#
#
#
# Elastic Compliance Matrix: (Units=1/GPa)
#
#
# Indices 1 2 3 4 5 6 
#
# 1 0.032814 0.015565 -0.011874 0.000000 0.002352 0.000000
# 2 0.015565 0.025822 -0.011973 0.000000 -0.003211 0.000000
# 3 -0.011874 -0.011973 0.011395 0.000000 -0.002336 0.000000
# 4 0.000000 0.000000 0.000000 0.018149 0.000000 0.005754
# 5 0.002352 -0.003211 -0.002336 0.000000 0.024758 0.000000
# 6 0.000000 0.000000 0.000000 0.005754 0.000000 0.046680
#
#
# Mechanical properties :
#
#
# Convention : Reuss Voigt Hill
#
# Bulk Modulus (GPa) = 18.70395 63.76397 41.23396
# Shear Modulus (GPa) = 25.77259 41.81191 33.79225
#
# Velocity S-wave (km/s) = 3.19344 4.06752 3.65669
# Velocity P-wave (km/s) = 4.58240 6.87681 5.84333
#
# Compressibility (1/GPa) = 0.05346465
#
# Stress axis : x y z
#
# Youngs Moduli (GPa) = 30.47509 38.72676 87.75821
#
# Poissons Ratio (x) = -0.60277 1.04208
# Poissons Ratio (y) = -0.47434 1.05075
# Poissons Ratio (z) = 0.36188 0.46368
#
# Static dielectric constant tensor:
#      x y z
#    x 2.045690 0.000000 0.073650 
#    y 0.000000 2.067710 0.000000 
#    z 0.073650 0.000000 2.005350 
# 
# From -- ./inp_files/64409.got.cif
#   From: 2010.05.17/outbox.cif.g08.bks.cpg/sg5_33_cif.got.tgz:64409.got - 2010.06.03 18:56:24.
