data_PCOD9124457
_publ_section_title
;
Structure prediction by ZEFSAII (Michael W. Deem and Ramdas Pophale) SiO2 
 PCOD9124457
Probable space group: C 2
;
_chemical_formula_sum "Si O2"
_cell_formula_units_Z 22
_cell_length_a 13.337505
_cell_length_b 5.734783
_cell_length_c 14.609797
_cell_angle_alpha 90.000000
_cell_angle_beta 67.725735
_cell_angle_gamma 90.000000
_cell_volume 1034.084203
_symmetry_space_group_name_H-M "C 2"
_symmetry_group_IT_number 5
_symmetry_cell_setting 'monoclinic'
loop_
_space_group_symop_operation_xyz
x,y,z
-x,y,-z
1/2+x,1/2+y,z
1/2-x,1/2+y,-z
loop_
_atom_site_type_symbol
_atom_site_label
_atom_site_fract_x
_atom_site_fract_y
_atom_site_fract_z
Si Si1 0.175630 0.001440 0.417908
Si Si2 0.710182 0.534667 0.902301
Si Si3 0.869715 0.257740 0.743352
Si Si4 0.103705 0.294341 0.610751
Si Si5 0.801457 0.537113 0.076298
Si Si6 0.500000 0.139378 0.500000
O O1 0.158502 0.208183 0.352346
O O2 0.147416 0.085616 0.530872
O O3 0.295306 0.900921 0.371628
O O4 0.088402 0.806284 0.423804
O O5 0.807972 0.491354 0.796674
O O6 0.643909 0.289116 0.921350
O O7 0.652141 0.783876 0.913682
O O8 0.769412 0.534303 0.980797
O O9 0.809424 0.066631 0.826950
O O10 0.998594 0.241514 0.707620
O O11 0.059455 0.485056 0.554471
#
# Coordination Sequence:
#
# PCOD9124457 Si02
#       6
#     4   4   4   4   4   2
#     4  12  24  39  59  91 121 168 208 258 310 372
#     4   8  16  31  55  89 119 155 202 251 313 368
#     4  10  21  34  61  90 122 161 215 246 316 372
#     4  12  24  39  59  91 121 168 208 258 310 372
#     4   8  16  31  55  89 119 155 202 251 313 368
#     4  12  22  40  62  76 132 162 206 260 314 358
#
# _framework density 21.274864000000001
#
# number of rings (size 3 to 8) (size 9 to 14) (size 15 to 20)
#    1.091    0.727    5.455    0.000    2.545    0.000 
#    0.000    0.000    0.000    1.091    0.000    2.545 
#    0.000    0.000    0.000    0.000    0.000    0.000 
#
# Total GULP energy -61252.349536 kJ/mol
# GULP energy per Si atom -5568.395412 kJ/mol
# Density = 2.122644 g / cm^3
# Si number density = 21.274864 Si / 1000 Ang^3
#
#
#
# Elastic Constant Matrix: (Units=GPa)
#
#
# Indices 1 2 3 4 5 6 
#
# 1 72.2678 5.0248 4.2118 0.0000 -11.3064 0.0003
# 2 5.0248 127.7523 5.3060 0.0001 -3.9547 0.0008
# 3 4.2118 5.3060 60.5441 0.0000 2.0412 0.0000
# 4 0.0000 0.0001 0.0000 30.8374 -0.0001 3.0205
# 5 -11.3064 -3.9547 2.0412 -0.0001 3.0672 0.0000
# 6 0.0003 0.0008 0.0000 3.0205 0.0000 15.9095
#
#
#
# Elastic Compliance Matrix: (Units=1/GPa)
#
#
# Indices 1 2 3 4 5 6 
#
# 1 0.036706 0.003359 -0.007729 0.000000 0.144782 -0.000001
# 2 0.003359 0.008532 -0.001810 0.000000 0.024588 -0.000001
# 3 -0.007729 -0.001810 0.018671 0.000000 -0.043252 0.000000
# 4 0.000000 0.000000 0.000000 0.033043 0.000002 -0.006273
# 5 0.144782 0.024588 -0.043252 0.000002 0.920222 -0.000006
# 6 -0.000001 -0.000001 0.000000 -0.006273 -0.000006 0.064047
#
#
# Mechanical properties :
#
#
# Convention : Reuss Voigt Hill
#
# Bulk Modulus (GPa) = 19.39929 32.18327 25.79128
# Shear Modulus (GPa) = 4.50141 26.36427 15.43284
#
# Velocity S-wave (km/s) = 1.45617 3.52408 2.69625
# Velocity P-wave (km/s) = 3.45911 5.63197 4.67357
#
# Compressibility (1/GPa) = 0.05154827
#
# Stress axis : x y z
#
# Youngs Moduli (GPa) = 27.24371 117.20786 53.55776
#
# Poissons Ratio (x) = -0.39371 0.41395
# Poissons Ratio (y) = -0.09151 0.09696
# Poissons Ratio (z) = 0.21057 0.21219
#
# Static dielectric constant tensor:
#      x y z
#    x 1.705460 0.000000 -0.002860 
#    y 0.000000 1.878320 0.000000 
#    z -0.002860 0.000000 1.800990 
# 
# From -- ./inp_files/48845.got.cif
#   From: 2010.05.17/outbox.cif.g08.bks.cpg/sg5_25_cif.got.tgz:48845.got - 2010.06.03 18:56:24.
