data_PCOD9124917
_publ_section_title
;
Structure prediction by ZEFSAII (Michael W. Deem and Ramdas Pophale) SiO2 
 PCOD9124917
Probable space group: C 2
;
_chemical_formula_sum "Si O2"
_cell_formula_units_Z 30
_cell_length_a 17.957193
_cell_length_b 9.977673
_cell_length_c 8.105184
_cell_angle_alpha 90.000000
_cell_angle_beta 79.195860
_cell_angle_gamma 90.000000
_cell_volume 1426.471553
_symmetry_space_group_name_H-M "C 2"
_symmetry_group_IT_number 5
_symmetry_cell_setting 'monoclinic'
loop_
_space_group_symop_operation_xyz
x,y,z
-x,y,-z
1/2+x,1/2+y,z
1/2-x,1/2+y,-z
loop_
_atom_site_type_symbol
_atom_site_label
_atom_site_fract_x
_atom_site_fract_y
_atom_site_fract_z
Si Si1 0.262780 0.823640 0.103363
Si Si2 0.461748 0.107496 0.240385
Si Si3 0.213482 0.069847 0.706393
Si Si4 0.282943 0.584310 0.679119
Si Si5 0.000000 0.371081 0.000000
Si Si6 0.613487 0.783957 0.203141
Si Si7 0.157497 0.787853 0.859609
Si Si8 0.105805 0.543703 0.376454
O O1 0.303089 0.704459 0.186083
O O2 0.243867 0.945404 0.231009
O O3 0.320891 0.858008 0.931978
O O4 0.187195 0.777997 0.035687
O O5 0.451152 0.975767 0.130752
O O6 0.424497 0.229948 0.155564
O O7 0.550110 0.107728 0.260895
O O8 0.419725 0.091458 0.432960
O O9 0.196131 0.074602 0.520042
O O10 0.305108 0.065194 0.677796
O O11 0.172924 0.940429 0.799499
O O12 0.353025 0.644995 0.751427
O O13 0.216159 0.692843 0.734014
O O14 0.043965 0.280308 0.109825
O O15 0.594325 0.883732 0.360239
#
# Coordination Sequence:
#
# PCOD9124917 Si02
#       8
#     4   4   4   4   2   4   4   4
#     4  11  24  37  63  92 131 164 209 271 324 379
#     4  10  22  37  64  93 132 166 218 262 321 390
#     4  12  23  39  64  95 129 167 209 270 325 376
#     4  11  22  37  60  93 123 164 211 265 316 375
#     4  10  22  40  64  92 128 172 214 264 330 388
#     4  10  22  38  63  92 126 164 219 261 321 383
#     4  11  21  38  63  94 126 160 216 270 315 375
#     4  10  21  39  60  96 127 169 209 262 319 388
#
# _framework density 21.030915
#
# number of rings (size 3 to 8) (size 9 to 14) (size 15 to 20)
#    0.000    1.333    4.000    3.200    3.733    0.000 
#    0.000    0.000    5.867    0.000    0.000    0.000 
#    0.000    0.000    0.000    0.000    0.000    0.000 
#
# Total GULP energy -83752.896895 kJ/mol
# GULP energy per Si atom -5583.526460 kJ/mol
# Density = 2.098305 g / cm^3
# Si number density = 21.030915 Si / 1000 Ang^3
#
#
#
# Elastic Constant Matrix: (Units=GPa)
#
#
# Indices 1 2 3 4 5 6 
#
# 1 65.9259 34.0519 6.2567 0.0000 16.7885 0.0000
# 2 34.0519 122.7059 51.2631 0.0000 17.3953 0.0000
# 3 6.2567 51.2631 107.4224 0.0000 21.0671 0.0000
# 4 0.0000 0.0000 0.0000 -14.1412 0.0000 -17.5783
# 5 16.7885 17.3953 21.0671 0.0000 28.8105 0.0000
# 6 0.0000 0.0000 0.0000 -17.5783 0.0000 24.5000
#
#
#
# Elastic Compliance Matrix: (Units=1/GPa)
#
#
# Indices 1 2 3 4 5 6 
#
# 1 0.020630 -0.005678 0.003728 0.000000 -0.011319 0.000000
# 2 -0.005678 0.011973 -0.005386 0.000000 0.000018 0.000000
# 3 0.003728 -0.005386 0.013368 0.000000 -0.008695 0.000000
# 4 0.000000 0.000000 0.000000 -0.037379 0.000000 -0.026818
# 5 -0.011319 0.000018 -0.008695 0.000000 0.047653 0.000000
# 6 0.000000 0.000000 0.000000 -0.026818 0.000000 0.021575
#
#
# Mechanical properties :
#
#
# Convention : Reuss Voigt Hill
#
# Bulk Modulus (GPa) = 31.95131 53.24418 42.59774
# Shear Modulus (GPa) = 48.57941 21.46602 35.02271
#
# Velocity S-wave (km/s) = 4.81136 3.19829 4.08523
# Velocity P-wave (km/s) = 6.78904 6.24586 6.52311
#
# Compressibility (1/GPa) = 0.03129763
#
# Stress axis : x y z
#
# Youngs Moduli (GPa) = 48.47334 83.52204 74.80788
#
# Poissons Ratio (x) = 0.47421 -0.27886
# Poissons Ratio (y) = 0.27521 0.40295
# Poissons Ratio (z) = -0.18070 0.44989
#
# Static dielectric constant tensor:
#      x y z
#    x 1.830580 0.000000 0.003240 
#    y 0.000000 1.742690 0.000000 
#    z 0.003240 0.000000 1.753750 
# 
# From -- ./inp_files/28965.got.cif
#   From: 2010.05.17/outbox.cif.g08.bks.cpg/sg5_15_cif.got.tgz:28965.got - 2010.06.03 18:56:24.
