data_PCOD9124861
_publ_section_title
;
Structure prediction by ZEFSAII (Michael W. Deem and Ramdas Pophale) SiO2 
 PCOD9124861
Probable space group: C 2
;
_chemical_formula_sum "Si O2"
_cell_formula_units_Z 22
_cell_length_a 27.319714
_cell_length_b 8.084222
_cell_length_c 8.426451
_cell_angle_alpha 90.000000
_cell_angle_beta 33.188351
_cell_angle_gamma 90.000000
_cell_volume 1018.728339
_symmetry_space_group_name_H-M "C 2"
_symmetry_group_IT_number 5
_symmetry_cell_setting 'monoclinic'
loop_
_space_group_symop_operation_xyz
x,y,z
-x,y,-z
1/2+x,1/2+y,z
1/2-x,1/2+y,-z
loop_
_atom_site_type_symbol
_atom_site_label
_atom_site_fract_x
_atom_site_fract_y
_atom_site_fract_z
Si Si1 0.638029 0.845100 0.613357
Si Si2 0.412178 0.155378 0.433753
Si Si3 0.719616 0.539402 0.943359
Si Si4 0.664295 0.857515 0.915122
Si Si5 0.500000 0.053413 0.500000
Si Si6 0.354206 0.486524 0.516193
O O1 0.610896 0.660627 0.641279
O O2 0.578760 0.986592 0.690466
O O3 0.736245 0.885581 0.269603
O O4 0.643562 0.867270 0.785694
O O5 0.307940 0.134835 0.770620
O O6 0.476825 0.157587 0.407166
O O7 0.412377 0.322363 0.332754
O O8 0.675735 0.668239 0.941225
O O9 0.659011 0.500146 0.257555
O O10 0.585345 0.940570 0.229343
O O11 0.757579 0.949331 0.700161
#
# Coordination Sequence:
#
# PCOD9124861 Si02
#       6
#     4   4   4   4   2   4
#     4  10  21  38  66  93 122 161 214 272 303 364
#     4   9  22  37  59  93 121 164 212 246 325 362
#     4   9  19  39  61  93 116 165 211 253 302 375
#     4  11  22  37  64  95 126 166 212 252 329 363
#     4  12  22  40  64  92 130 178 198 264 316 388
#     4  11  19  39  66  90 125 162 214 269 297 380
#
# _framework density 21.595552000000001
#
# number of rings (size 3 to 8) (size 9 to 14) (size 15 to 20)
#    1.091    0.727    1.818    4.364    0.000    0.727 
#    0.000    3.636    0.000    4.364    0.000    0.000 
#    0.000    0.000    0.000    0.000    0.000    0.000 
#
# Total GULP energy -61398.914308 kJ/mol
# GULP energy per Si atom -5581.719483 kJ/mol
# Density = 2.154640 g / cm^3
# Si number density = 21.595552 Si / 1000 Ang^3
#
#
#
# Elastic Constant Matrix: (Units=GPa)
#
#
# Indices 1 2 3 4 5 6 
#
# 1 124.4803 48.4380 14.3061 0.0000 8.7974 0.0000
# 2 48.4380 165.4507 16.2769 0.0000 -4.3717 0.0000
# 3 14.3061 16.2769 66.3668 0.0000 1.7948 0.0000
# 4 0.0000 0.0000 0.0000 -22.3914 0.0000 10.7057
# 5 8.7974 -4.3717 1.7948 0.0000 28.5210 0.0000
# 6 0.0000 0.0000 0.0000 10.7057 0.0000 26.0767
#
#
#
# Elastic Compliance Matrix: (Units=1/GPa)
#
#
# Indices 1 2 3 4 5 6 
#
# 1 0.009475 -0.002734 -0.001284 0.000000 -0.003261 0.000000
# 2 -0.002734 0.007014 -0.001185 0.000000 0.001993 0.000000
# 3 -0.001284 -0.001185 0.015656 0.000000 -0.000771 0.000000
# 4 0.000000 0.000000 0.000000 -0.037332 0.000000 0.015327
# 5 -0.003261 0.001993 -0.000771 0.000000 0.036422 0.000000
# 6 0.000000 0.000000 0.000000 0.015327 0.000000 0.032056
#
#
# Mechanical properties :
#
#
# Convention : Reuss Voigt Hill
#
# Bulk Modulus (GPa) = 45.99811 57.14884 51.57347
# Shear Modulus (GPa) = 61.77261 24.92638 43.34949
#
# Velocity S-wave (km/s) = 5.35410 3.40109 4.48519
# Velocity P-wave (km/s) = 7.71803 6.47641 7.12432
#
# Compressibility (1/GPa) = 0.02174002
#
# Stress axis : x y z
#
# Youngs Moduli (GPa) = 105.53860 142.57847 63.87365
#
# Poissons Ratio (x) = 0.38979 0.08200
# Poissons Ratio (y) = 0.28853 0.07567
# Poissons Ratio (z) = 0.13549 0.16892
#
# Static dielectric constant tensor:
#      x y z
#    x 1.748180 0.000000 -0.029170 
#    y 0.000000 1.814040 0.000000 
#    z -0.029170 0.000000 1.787440 
# 
# From -- ./inp_files/32456.got.cif
#   From: 2010.05.17/outbox.cif.g08.bks.cpg/sg5_17_cif.got.tgz:32456.got - 2010.06.03 18:56:24.
