data_PCOD9124048
_publ_section_title
;
Structure prediction by ZEFSAII (Michael W. Deem and Ramdas Pophale) SiO2 
 PCOD9124048
Probable space group: C 2
;
_chemical_formula_sum "Si O2"
_cell_formula_units_Z 20
_cell_length_a 16.068379
_cell_length_b 9.497362
_cell_length_c 13.918492
_cell_angle_alpha 90.000000
_cell_angle_beta 153.113468
_cell_angle_gamma 90.000000
_cell_volume 960.554205
_symmetry_space_group_name_H-M "C 2"
_symmetry_group_IT_number 5
_symmetry_cell_setting 'monoclinic'
loop_
_space_group_symop_operation_xyz
x,y,z
-x,y,-z
1/2+x,1/2+y,z
1/2-x,1/2+y,-z
loop_
_atom_site_type_symbol
_atom_site_label
_atom_site_fract_x
_atom_site_fract_y
_atom_site_fract_z
Si Si1 0.695736 0.206750 0.429421
Si Si2 0.435091 0.844365 0.839356
Si Si3 0.804552 0.112064 0.344079
Si Si4 0.685888 0.276772 0.038807
Si Si5 0.121508 0.503762 0.875066
O O1 0.802550 0.266999 0.628999
O O2 0.823918 0.179427 0.469633
O O3 0.584935 0.065843 0.347768
O O4 0.526249 0.299299 0.212059
O O5 0.604235 0.902996 0.950104
O O6 0.324409 0.978242 0.768555
O O7 0.500000 0.760486 0.000000
O O8 0.710777 0.219263 0.171888
O O9 0.000000 0.073053 0.500000
O O10 0.801565 0.413470 0.132204
O O11 0.737028 0.141215 0.024293
#
# Coordination Sequence:
#
# PCOD9124048 Si02
#       5
#     4   4   4   4   4
#     4   9  22  37  64  99 131 165 215 274 317 384
#     4  11  20  39  63  95 130 170 225 259 320 393
#     4  11  21  37  69  95 122 176 218 263 326 387
#     4  10  20  41  67  99 129 168 216 268 324 390
#     4   9  21  38  67  98 131 163 218 268 324 380
#
# _framework density 20.821314000000001
#
# number of rings (size 3 to 8) (size 9 to 14) (size 15 to 20)
#    1.200    0.800    2.000    1.800    2.800    0.000 
#    0.000    0.000   17.600    0.000    0.000    0.000 
#    0.000    0.000    0.000    0.000    0.000    0.000 
#
# Total GULP energy -55725.666705 kJ/mol
# GULP energy per Si atom -5572.566671 kJ/mol
# Density = 2.077392 g / cm^3
# Si number density = 20.821314 Si / 1000 Ang^3
#
#
#
# Elastic Constant Matrix: (Units=GPa)
#
#
# Indices 1 2 3 4 5 6 
#
# 1 112.9964 40.9482 44.5256 0.0000 -10.3785 0.0000
# 2 40.9482 53.8150 29.6799 0.0000 -13.8511 0.0000
# 3 44.5256 29.6799 116.4946 0.0000 -33.7064 0.0000
# 4 0.0000 0.0000 0.0000 25.1642 0.0000 -6.5723
# 5 -10.3785 -13.8511 -33.7064 0.0000 39.0333 0.0000
# 6 0.0000 0.0000 0.0000 -6.5723 0.0000 38.0570
#
#
#
# Elastic Compliance Matrix: (Units=1/GPa)
#
#
# Indices 1 2 3 4 5 6 
#
# 1 0.013188 -0.008748 -0.003593 0.000000 -0.002701 0.000000
# 2 -0.008748 0.027875 -0.002092 0.000000 0.005759 0.000000
# 3 -0.003593 -0.002092 0.013330 0.000000 0.009813 0.000000
# 4 0.000000 0.000000 0.000000 0.041616 0.000000 0.007187
# 5 -0.002701 0.005759 0.009813 0.000000 0.035418 0.000000
# 6 0.000000 0.000000 0.000000 0.007187 0.000000 0.027518
#
#
# Mechanical properties :
#
#
# Convention : Reuss Voigt Hill
#
# Bulk Modulus (GPa) = 39.17581 57.06813 48.12197
# Shear Modulus (GPa) = 25.46877 31.66105 28.56491
#
# Velocity S-wave (km/s) = 3.50123 3.90373 3.70795
# Velocity P-wave (km/s) = 5.93304 6.91280 6.44157
#
# Compressibility (1/GPa) = 0.02552596
#
# Stress axis : x y z
#
# Youngs Moduli (GPa) = 75.82741 35.87488 75.02105
#
# Poissons Ratio (x) = 0.31384 0.26956
# Poissons Ratio (y) = 0.66335 0.15693
# Poissons Ratio (z) = 0.27246 0.07504
#
# Static dielectric constant tensor:
#      x y z
#    x 1.743820 0.000000 0.004830 
#    y 0.000000 1.781030 0.000000 
#    z 0.004830 0.000000 1.801190 
# 
# From -- ./inp_files/42289.got.cif
#   From: 2010.05.17/outbox.cif.g08.bks.cpg/sg5_22_cif.got.tgz:42289.got - 2010.06.03 18:56:24.
