data_PCOD9124770
_publ_section_title
;
Structure prediction by ZEFSAII (Michael W. Deem and Ramdas Pophale) SiO2 
 PCOD9124770
Probable space group: C 2
;
_chemical_formula_sum "Si O2"
_cell_formula_units_Z 26
_cell_length_a 12.420004
_cell_length_b 10.687194
_cell_length_c 14.523795
_cell_angle_alpha 90.000000
_cell_angle_beta 143.662974
_cell_angle_gamma 90.000000
_cell_volume 1142.296160
_symmetry_space_group_name_H-M "C 2"
_symmetry_group_IT_number 5
_symmetry_cell_setting 'monoclinic'
loop_
_space_group_symop_operation_xyz
x,y,z
-x,y,-z
1/2+x,1/2+y,z
1/2-x,1/2+y,-z
loop_
_atom_site_type_symbol
_atom_site_label
_atom_site_fract_x
_atom_site_fract_y
_atom_site_fract_z
Si Si1 0.290218 0.837810 0.887581
Si Si2 0.181652 0.335251 0.445504
Si Si3 0.185303 0.323306 0.882316
Si Si4 0.719324 0.562575 0.169535
Si Si5 0.000000 0.453204 0.500000
Si Si6 0.725581 0.605321 0.565279
Si Si7 0.703312 0.610117 0.755621
O O1 0.224310 0.706048 0.802825
O O2 0.216916 0.970673 0.803809
O O3 0.500000 0.843798 0.000000
O O4 0.255824 0.825639 0.972699
O O5 0.254893 0.464763 0.456746
O O6 0.304823 0.216312 0.556068
O O7 0.029758 0.293681 0.267495
O O8 0.083693 0.374909 0.473599
O O9 0.208937 0.460995 0.855135
O O10 0.267655 0.217199 0.871310
O O11 0.822566 0.521310 0.334352
O O12 0.500000 0.556807 0.000000
O O13 0.793325 0.617744 0.716713
O O14 0.510062 0.628782 0.409629
#
# Coordination Sequence:
#
# PCOD9124770 Si02
#       7
#     4   4   4   4   2   4   4
#     4  11  23  38  59  88 123 160 205 261 313 368
#     4  10  21  38  62  88 121 163 209 259 310 370
#     4  10  21  41  61  85 123 166 207 253 313 377
#     4  10  23  41  64  91 123 163 209 260 311 371
#     4  10  22  42  64  90 126 166 210 256 312 376
#     4  10  21  38  61  89 120 159 206 259 313 366
#     4  10  22  40  60  86 122 160 204 258 312 372
#
# _framework density 22.761171999999998
#
# number of rings (size 3 to 8) (size 9 to 14) (size 15 to 20)
#    0.000    1.846    0.000    4.615    0.000   11.692 
#    0.000    6.154    0.000    0.000    0.000    0.000 
#    0.000    0.000    0.000    0.000    0.000    0.000 
#
# Total GULP energy -72496.606711 kJ/mol
# GULP energy per Si atom -5576.662055 kJ/mol
# Density = 2.270937 g / cm^3
# Si number density = 22.761172 Si / 1000 Ang^3
#
#
#
# Elastic Constant Matrix: (Units=GPa)
#
#
# Indices 1 2 3 4 5 6 
#
# 1 37.7421 20.4836 18.8467 0.0000 -4.0384 0.0000
# 2 20.4836 187.7956 46.8907 0.0000 -21.8344 0.0000
# 3 18.8467 46.8907 101.6989 0.0000 -7.2353 0.0000
# 4 0.0000 0.0000 0.0000 39.5231 0.0000 6.7611
# 5 -4.0384 -21.8344 -7.2353 0.0000 26.9443 0.0000
# 6 0.0000 0.0000 0.0000 6.7611 0.0000 13.3122
#
#
#
# Elastic Compliance Matrix: (Units=1/GPa)
#
#
# Indices 1 2 3 4 5 6 
#
# 1 0.030000 -0.001939 -0.004544 0.000000 0.001705 0.000000
# 2 -0.001939 0.006652 -0.002390 0.000000 0.004458 0.000000
# 3 -0.004544 -0.002390 0.011817 0.000000 0.000555 0.000000
# 4 0.000000 0.000000 0.000000 0.027709 0.000000 -0.014073
# 5 0.001705 0.004458 0.000555 0.000000 0.041130 0.000000
# 6 0.000000 0.000000 0.000000 -0.014073 0.000000 0.082267
#
#
# Mechanical properties :
#
#
# Convention : Reuss Voigt Hill
#
# Bulk Modulus (GPa) = 32.55170 55.51987 44.03578
# Shear Modulus (GPa) = 21.97206 32.02361 26.99783
#
# Velocity S-wave (km/s) = 3.11035 3.75499 3.44777
# Velocity P-wave (km/s) = 5.21838 6.57611 5.93619
#
# Compressibility (1/GPa) = 0.03072036
#
# Stress axis : x y z
#
# Youngs Moduli (GPa) = 33.33373 150.33992 84.62636
#
# Poissons Ratio (x) = 0.29157 0.38454
# Poissons Ratio (y) = 0.06465 0.20229
# Poissons Ratio (z) = 0.15147 0.35936
#
# Static dielectric constant tensor:
#      x y z
#    x 1.903560 0.000000 0.052020 
#    y 0.000000 1.888280 0.000000 
#    z 0.052020 0.000000 1.877150 
# 
# From -- ./inp_files/54329.got.cif
#   From: 2010.05.17/outbox.cif.g08.bks.cpg/sg5_28_cif.got.tgz:54329.got - 2010.06.03 18:56:24.
