data_PCOD9124162
_publ_section_title
;
Structure prediction by ZEFSAII (Michael W. Deem and Ramdas Pophale) SiO2 
 PCOD9124162
Probable space group: C 2
;
_chemical_formula_sum "Si O2"
_cell_formula_units_Z 30
_cell_length_a 11.563807
_cell_length_b 8.275742
_cell_length_c 14.682042
_cell_angle_alpha 90.000000
_cell_angle_beta 108.836265
_cell_angle_gamma 90.000000
_cell_volume 1329.810214
_symmetry_space_group_name_H-M "C 2"
_symmetry_group_IT_number 5
_symmetry_cell_setting 'monoclinic'
loop_
_space_group_symop_operation_xyz
x,y,z
-x,y,-z
1/2+x,1/2+y,z
1/2-x,1/2+y,-z
loop_
_atom_site_type_symbol
_atom_site_label
_atom_site_fract_x
_atom_site_fract_y
_atom_site_fract_z
Si Si1 0.969893 0.277760 0.388064
Si Si2 0.918129 0.119742 0.067988
Si Si3 0.833718 0.551781 0.259026
Si Si4 0.268139 0.629088 0.589663
Si Si5 0.423067 0.364047 0.808630
Si Si6 0.500000 0.155574 0.000000
Si Si7 0.789865 0.746908 0.618040
Si Si8 0.817031 0.469875 0.064599
O O1 0.940489 0.435846 0.321956
O O2 0.837177 0.186956 0.365815
O O3 0.000000 0.321932 0.500000
O O4 0.091838 0.190574 0.382480
O O5 0.857249 0.284642 0.089105
O O6 0.989732 0.021327 0.164543
O O7 0.000000 0.162082 0.000000
O O8 0.820895 0.996050 0.000420
O O9 0.796855 0.674709 0.330689
O O10 0.712424 0.438856 0.216522
O O11 0.850349 0.589244 0.157503
O O12 0.198911 0.672395 0.478943
O O13 0.268791 0.436129 0.592786
O O14 0.458011 0.261820 0.904699
O O15 0.406301 0.252387 0.714687
O O16 0.609111 0.039108 0.000884
#
# Coordination Sequence:
#
# PCOD9124162 Si02
#       8
#     4   4   4   4   4   2   4   4
#     4   8  16  33  60  86 121 169 213 262 323 382
#     4  12  23  44  69  99 140 180 226 293 342 409
#     4  10  21  36  64  97 124 176 221 270 339 394
#     4   9  18  38  63  90 135 165 226 272 330 398
#     4  10  20  42  66  93 136 174 221 281 344 390
#     4  12  24  46  62 100 142 180 228 292 332 428
#     4   9  20  37  66  98 124 178 223 272 339 396
#     4  12  26  42  69  99 136 182 234 277 356 408
#
# _framework density 22.559609999999999
#
# number of rings (size 3 to 8) (size 9 to 14) (size 15 to 20)
#    0.000    2.133    2.667    1.600    3.733    0.000 
#    7.200    0.000   17.600    0.000    0.000    0.000 
#    0.000    0.000    0.000    0.000    0.000    0.000 
#
# Total GULP energy -83619.583353 kJ/mol
# GULP energy per Si atom -5574.638890 kJ/mol
# Density = 2.250826 g / cm^3
# Si number density = 22.559610 Si / 1000 Ang^3
#
#
#
# Elastic Constant Matrix: (Units=GPa)
#
#
# Indices 1 2 3 4 5 6 
#
# 1 78.8326 35.0363 37.0799 0.0000 -6.7557 0.0000
# 2 35.0363 66.7643 38.8367 0.0000 5.7853 0.0000
# 3 37.0799 38.8367 163.9277 0.0000 12.2547 0.0000
# 4 0.0000 0.0000 0.0000 40.2616 0.0000 -3.7259
# 5 -6.7557 5.7853 12.2547 0.0000 35.7003 0.0000
# 6 0.0000 0.0000 0.0000 -3.7259 0.0000 36.0808
#
#
#
# Elastic Compliance Matrix: (Units=1/GPa)
#
#
# Indices 1 2 3 4 5 6 
#
# 1 0.018155 -0.008564 -0.002503 0.000000 0.005683 0.000000
# 2 -0.008564 0.021484 -0.002844 0.000000 -0.004126 0.000000
# 3 -0.002503 -0.002844 0.007534 0.000000 -0.002599 0.000000
# 4 0.000000 0.000000 0.000000 0.025077 0.000000 0.002590
# 5 0.005683 -0.004126 -0.002599 0.000000 0.030647 0.000000
# 6 0.000000 0.000000 0.000000 0.002590 0.000000 0.027983
#
#
# Mechanical properties :
#
#
# Convention : Reuss Voigt Hill
#
# Bulk Modulus (GPa) = 51.67375 59.04783 55.36079
# Shear Modulus (GPa) = 30.27467 35.64665 32.96066
#
# Velocity S-wave (km/s) = 3.66729 3.97937 3.82651
# Velocity P-wave (km/s) = 6.39431 6.88076 6.64199
#
# Compressibility (1/GPa) = 0.01935219
#
# Stress axis : x y z
#
# Youngs Moduli (GPa) = 55.07976 46.54527 132.72350
#
# Poissons Ratio (x) = 0.39863 0.33214
# Poissons Ratio (y) = 0.47172 0.37751
# Poissons Ratio (z) = 0.13784 0.13239
#
# Static dielectric constant tensor:
#      x y z
#    x 1.937090 0.000000 -0.061230 
#    y 0.000000 1.830880 0.000000 
#    z -0.061230 0.000000 1.950100 
# 
# From -- ./inp_files/52494.got.cif
#   From: 2010.05.17/outbox.cif.g08.bks.cpg/sg5_27_cif.got.tgz:52494.got - 2010.06.03 18:56:24.
