data_PCOD9124515
_publ_section_title
;
Structure prediction by ZEFSAII (Michael W. Deem and Ramdas Pophale) SiO2 
 PCOD9124515
Probable space group: C 2
;
_chemical_formula_sum "Si O2"
_cell_formula_units_Z 26
_cell_length_a 10.694053
_cell_length_b 8.637826
_cell_length_c 24.329816
_cell_angle_alpha 90.000000
_cell_angle_beta 151.591105
_cell_angle_gamma 90.000000
_cell_volume 1069.237626
_symmetry_space_group_name_H-M "C 2"
_symmetry_group_IT_number 5
_symmetry_cell_setting 'monoclinic'
loop_
_space_group_symop_operation_xyz
x,y,z
-x,y,-z
1/2+x,1/2+y,z
1/2-x,1/2+y,-z
loop_
_atom_site_type_symbol
_atom_site_label
_atom_site_fract_x
_atom_site_fract_y
_atom_site_fract_z
Si Si1 0.000000 0.520540 0.500000
Si Si2 0.061374 0.806629 0.333520
Si Si3 0.067620 0.212202 0.828475
Si Si4 0.680837 0.003730 0.742465
Si Si5 0.508040 0.230798 0.913861
Si Si6 0.665642 0.016313 0.241195
Si Si7 0.640663 0.733319 0.438318
O O1 0.783644 0.405695 0.388866
O O2 0.832876 0.631593 0.474583
O O3 0.203211 0.775823 0.446909
O O4 0.954076 0.640134 0.273799
O O5 0.815689 0.914540 0.252487
O O6 0.269702 0.164185 0.859405
O O7 0.833311 0.098288 0.753454
O O8 0.957265 0.381179 0.769932
O O9 0.238669 0.233698 0.950058
O O10 0.905452 0.900499 0.857750
O O11 0.467873 0.883551 0.635842
O O12 0.530130 0.128825 0.867453
O O13 0.891460 0.123022 0.354131
#
# Coordination Sequence:
#
# PCOD9124515 Si02
#       7
#     2   4   4   4   4   4   4
#     4  10  22  38  56  78 116 154 188 236 272 324
#     4  10  21  36  56  84 115 151 188 227 280 333
#     4  10  21  39  61  81 114 150 186 240 288 335
#     4  10  21  36  59  88 114 149 194 233 278 343
#     4  10  21  38  60  86 111 149 191 232 291 336
#     4   9  20  36  56  83 114 145 186 235 277 334
#     4  10  21  37  58  85 116 153 191 229 282 335
#
# _framework density 24.316389000000001
#
# number of rings (size 3 to 8) (size 9 to 14) (size 15 to 20)
#    0.000    2.154    0.000    2.769    0.000   12.923 
#    0.000    4.615    0.000   16.615    0.000    0.000 
#    0.000    0.000    0.000    0.000    0.000    0.000 
#
# Total GULP energy -72732.077646 kJ/mol
# GULP energy per Si atom -5594.775204 kJ/mol
# Density = 2.426104 g / cm^3
# Si number density = 24.316389 Si / 1000 Ang^3
#
#
#
# Elastic Constant Matrix: (Units=GPa)
#
#
# Indices 1 2 3 4 5 6 
#
# 1 56.2490 29.1650 15.9037 0.0000 13.5169 0.0000
# 2 29.1650 161.5813 58.7873 0.0000 0.0747 0.0000
# 3 15.9037 58.7873 84.5004 0.0005 -6.9322 0.0002
# 4 0.0000 0.0000 0.0005 39.4545 0.0003 -0.9510
# 5 13.5169 0.0747 -6.9322 0.0003 36.0275 0.0002
# 6 0.0000 0.0000 0.0002 -0.9510 0.0002 41.7070
#
#
#
# Elastic Compliance Matrix: (Units=1/GPa)
#
#
# Indices 1 2 3 4 5 6 
#
# 1 0.022265 -0.002978 -0.002848 0.000000 -0.008895 0.000000
# 2 -0.002978 0.008731 -0.005511 0.000000 0.000039 0.000000
# 3 -0.002848 -0.005511 0.016554 0.000000 0.004265 0.000000
# 4 0.000000 0.000000 0.000000 0.025360 0.000000 0.000578
# 5 -0.008895 0.000039 0.004265 0.000000 0.031915 0.000000
# 6 0.000000 0.000000 0.000000 0.000578 0.000000 0.023990
#
#
# Mechanical properties :
#
#
# Convention : Reuss Voigt Hill
#
# Bulk Modulus (GPa) = 40.19924 56.67142 48.43533
# Shear Modulus (GPa) = 31.29276 36.66946 33.98111
#
# Velocity S-wave (km/s) = 3.59123 3.88753 3.74231
# Velocity P-wave (km/s) = 5.81064 6.59598 6.21573
#
# Compressibility (1/GPa) = 0.02487609
#
# Stress axis : x y z
#
# Youngs Moduli (GPa) = 44.91291 114.53001 60.40840
#
# Poissons Ratio (x) = 0.34113 0.17205
# Poissons Ratio (y) = 0.13377 0.33289
# Poissons Ratio (z) = 0.12792 0.63113
#
# Static dielectric constant tensor:
#      x y z
#    x 1.973680 0.000000 0.012960 
#    y 0.000000 1.956600 0.000000 
#    z 0.012960 0.000000 1.869200 
# 
# From -- ./inp_files/47865.got.cif
#   From: 2010.05.17/outbox.cif.g08.bks.cpg/sg5_24_cif.got.tgz:47865.got - 2010.06.03 18:56:24.
