data_PCOD9124097
_publ_section_title
;
Structure prediction by ZEFSAII (Michael W. Deem and Ramdas Pophale) SiO2 
 PCOD9124097
Probable space group: C 2
;
_chemical_formula_sum "Si O2"
_cell_formula_units_Z 28
_cell_length_a 11.485693
_cell_length_b 8.496777
_cell_length_c 13.760967
_cell_angle_alpha 90.000000
_cell_angle_beta 110.439527
_cell_angle_gamma 90.000000
_cell_volume 1258.401154
_symmetry_space_group_name_H-M "C 2"
_symmetry_group_IT_number 5
_symmetry_cell_setting 'monoclinic'
loop_
_space_group_symop_operation_xyz
x,y,z
-x,y,-z
1/2+x,1/2+y,z
1/2-x,1/2+y,-z
loop_
_atom_site_type_symbol
_atom_site_label
_atom_site_fract_x
_atom_site_fract_y
_atom_site_fract_z
Si Si1 0.243602 0.280940 0.779116
Si Si2 0.819470 0.219871 0.708078
Si Si3 0.871476 0.444508 0.083989
Si Si4 0.484798 0.490787 0.882025
Si Si5 0.411611 0.032937 0.385005
Si Si6 0.275793 0.289379 0.110516
Si Si7 0.906949 0.538126 0.724818
O O1 0.174143 0.297952 0.861661
O O2 0.373461 0.364468 0.844460
O O3 0.153601 0.385219 0.685964
O O4 0.289771 0.132582 0.731315
O O5 0.711223 0.129814 0.619744
O O6 0.747070 0.279111 0.782645
O O7 0.867879 0.371928 0.667398
O O8 0.931153 0.116867 0.788072
O O9 0.796067 0.608169 0.081476
O O10 0.006863 0.493511 0.158277
O O11 0.841554 0.377034 0.970987
O O12 0.607591 0.397786 0.884973
O O13 0.500000 0.542694 0.000000
O O14 0.500000 0.998209 0.500000
O O15 0.499612 0.113639 0.327228
#
# Coordination Sequence:
#
# PCOD9124097 Si02
#       7
#     4   4   4   4   4   4   4
#     4  10  20  42  61  91 128 164 214 258 316 379
#     4  11  25  40  61  97 127 163 217 260 316 394
#     4  11  24  37  58  91 134 175 218 254 305 375
#     4  11  20  37  61  84 129 178 210 255 313 362
#     4  10  23  48  70  90 123 159 212 279 327 383
#     4  12  22  39  58  91 133 177 214 258 306 377
#     4  11  24  41  63  94 127 165 211 266 328 380
#
# _framework density 22.250457000000001
#
# number of rings (size 3 to 8) (size 9 to 14) (size 15 to 20)
#    0.000    1.143    7.143    0.000    6.000    2.286 
#    0.000    0.714    0.000    0.000    0.000    0.000 
#    0.000    0.000    0.000    0.000    0.000    0.000 
#
# Total GULP energy -78098.872243 kJ/mol
# GULP energy per Si atom -5578.490875 kJ/mol
# Density = 2.219981 g / cm^3
# Si number density = 22.250457 Si / 1000 Ang^3
#
#
#
# Elastic Constant Matrix: (Units=GPa)
#
#
# Indices 1 2 3 4 5 6 
#
# 1 76.2166 20.6763 15.7479 0.0000 7.3589 0.0000
# 2 20.6763 52.2715 -12.5711 0.0000 5.8567 0.0000
# 3 15.7479 -12.5711 93.7193 0.0000 25.3329 0.0000
# 4 0.0000 0.0000 0.0000 11.3807 0.0000 4.1165
# 5 7.3589 5.8567 25.3329 0.0000 23.4184 0.0000
# 6 0.0000 0.0000 0.0000 4.1165 0.0000 37.5575
#
#
#
# Elastic Compliance Matrix: (Units=1/GPa)
#
#
# Indices 1 2 3 4 5 6 
#
# 1 0.015816 -0.007333 -0.003948 0.000000 0.001134 0.000000
# 2 -0.007333 0.025418 0.008108 0.000000 -0.012823 0.000000
# 3 -0.003948 0.008108 0.017855 0.000000 -0.020101 0.000000
# 4 0.000000 0.000000 0.000000 0.091495 0.000000 -0.010028
# 5 0.001134 -0.012823 -0.020101 0.000000 0.067297 0.000000
# 6 0.000000 0.000000 0.000000 -0.010028 0.000000 0.027725
#
#
# Mechanical properties :
#
#
# Convention : Reuss Voigt Hill
#
# Bulk Modulus (GPa) = 18.95977 29.99039 24.47508
# Shear Modulus (GPa) = 18.55069 27.69494 23.12282
#
# Velocity S-wave (km/s) = 2.89056 3.53185 3.22717
# Velocity P-wave (km/s) = 4.43621 5.48997 4.99098
#
# Compressibility (1/GPa) = 0.05274327
#
# Stress axis : x y z
#
# Youngs Moduli (GPa) = 63.22771 39.34223 56.00804
#
# Poissons Ratio (x) = 0.28848 0.22111
# Poissons Ratio (y) = 0.46362 -0.45410
# Poissons Ratio (z) = 0.24961 -0.31898
#
# Static dielectric constant tensor:
#      x y z
#    x 1.890130 0.000000 -0.003210 
#    y 0.000000 1.929340 0.000000 
#    z -0.003210 0.000000 1.786700 
# 
# From -- ./inp_files/52236.got.cif
#   From: 2010.05.17/outbox.cif.g08.bks.cpg/sg5_27_cif.got.tgz:52236.got - 2010.06.03 18:56:24.
