data_PCOD9124811
_publ_section_title
;
Structure prediction by ZEFSAII (Michael W. Deem and Ramdas Pophale) SiO2 
 PCOD9124811
Probable space group: C 2
;
_chemical_formula_sum "Si O2"
_cell_formula_units_Z 28
_cell_length_a 12.403420
_cell_length_b 8.152150
_cell_length_c 14.752585
_cell_angle_alpha 90.000000
_cell_angle_beta 117.901787
_cell_angle_gamma 90.000000
_cell_volume 1318.292172
_symmetry_space_group_name_H-M "C 2"
_symmetry_group_IT_number 5
_symmetry_cell_setting 'monoclinic'
loop_
_space_group_symop_operation_xyz
x,y,z
-x,y,-z
1/2+x,1/2+y,z
1/2-x,1/2+y,-z
loop_
_atom_site_type_symbol
_atom_site_label
_atom_site_fract_x
_atom_site_fract_y
_atom_site_fract_z
Si Si1 0.396937 0.303190 0.827465
Si Si2 0.244359 0.473437 0.264536
Si Si3 0.345557 0.219080 0.006644
Si Si4 0.763970 0.260889 0.563024
Si Si5 0.468142 0.665806 0.388054
Si Si6 0.136884 0.339302 0.045853
Si Si7 0.226115 0.425274 0.620752
O O1 0.347335 0.127579 0.772589
O O2 0.347182 0.311869 0.910784
O O3 0.333555 0.432993 0.736961
O O4 0.542145 0.292888 0.891904
O O5 0.246574 0.397152 0.364560
O O6 0.378787 0.546010 0.298809
O O7 0.199664 0.351936 0.168909
O O8 0.369859 0.027917 0.993511
O O9 0.220614 0.239712 0.010319
O O10 0.729191 0.324116 0.449899
O O11 0.906152 0.209327 0.610020
O O12 0.691888 0.102158 0.568991
O O13 0.500000 0.593910 0.500000
O O14 0.386375 0.826636 0.379170
O O15 0.000000 0.274893 0.000000
#
# Coordination Sequence:
#
# PCOD9124811 Si02
#       7
#     4   4   4   4   4   4   4
#     4   9  19  42  63  88 125 167 202 258 312 361
#     4  10  21  40  62  90 125 161 207 249 308 364
#     4  10  21  42  65  86 128 162 206 261 311 358
#     4  11  22  40  63  90 127 162 199 257 301 367
#     4   9  20  39  59  87 125 164 200 247 304 359
#     4  11  23  43  62  92 125 165 208 258 309 371
#     4  10  21  38  63  92 122 160 209 244 306 368
#
# _framework density 21.239602000000001
#
# number of rings (size 3 to 8) (size 9 to 14) (size 15 to 20)
#    0.000    2.000    2.857    2.571    2.000    4.571 
#    5.143    6.429    0.000    0.000    0.000    0.000 
#    0.000    0.000    0.000    0.000    0.000    0.000 
#
# Total GULP energy -78224.245338 kJ/mol
# GULP energy per Si atom -5587.446096 kJ/mol
# Density = 2.119126 g / cm^3
# Si number density = 21.239602 Si / 1000 Ang^3
#
#
#
# Elastic Constant Matrix: (Units=GPa)
#
#
# Indices 1 2 3 4 5 6 
#
# 1 114.3170 1.6858 24.8038 0.0000 5.4522 0.0000
# 2 1.6858 20.0227 12.5794 0.0000 -3.7843 0.0000
# 3 24.8038 12.5794 83.8041 0.0000 18.7677 0.0000
# 4 0.0000 0.0000 0.0000 6.3879 0.0000 -13.6741
# 5 5.4522 -3.7843 18.7677 0.0000 21.9020 0.0000
# 6 0.0000 0.0000 0.0000 -13.6741 0.0000 23.5915
#
#
#
# Elastic Compliance Matrix: (Units=1/GPa)
#
#
# Indices 1 2 3 4 5 6 
#
# 1 0.009372 0.001241 -0.003076 0.000000 0.000517 0.000000
# 2 0.001241 0.063971 -0.015315 0.000000 0.023867 0.000000
# 3 -0.003076 -0.015315 0.019259 0.000000 -0.018383 0.000000
# 4 0.000000 0.000000 0.000000 -0.650262 0.000000 -0.376904
# 5 0.000517 0.023867 -0.018383 0.000000 0.065405 0.000000
# 6 0.000000 0.000000 0.000000 -0.376904 0.000000 -0.176073
#
#
# Mechanical properties :
#
#
# Convention : Reuss Voigt Hill
#
# Bulk Modulus (GPa) = 17.15183 32.92019 25.03601
# Shear Modulus (GPa) = -8.13545 22.31461 7.08958
#
# Velocity S-wave (km/s) = -1.95924 3.24483 1.82898
# Velocity P-wave (km/s) = 1.72475 5.43798 4.03401
#
# Compressibility (1/GPa) = 0.05830282
#
# Stress axis : x y z
#
# Youngs Moduli (GPa) = 106.70028 15.63203 51.92474
#
# Poissons Ratio (x) = -0.01940 0.15972
# Poissons Ratio (y) = -0.13244 0.79521
# Poissons Ratio (z) = 0.32821 0.23940
#
# Static dielectric constant tensor:
#      x y z
#    x 1.731220 0.000000 0.013420 
#    y 0.000000 1.796390 0.000000 
#    z 0.013420 0.000000 1.770190 
# 
# From -- ./inp_files/52232.got.cif
#   From: 2010.05.17/outbox.cif.g08.bks.cpg/sg5_27_cif.got.tgz:52232.got - 2010.06.03 18:56:24.
