data_PCOD9124154
_publ_section_title
;
Structure prediction by ZEFSAII (Michael W. Deem and Ramdas Pophale) SiO2 
 PCOD9124154
Probable space group: C 2
;
_chemical_formula_sum "Si O2"
_cell_formula_units_Z 24
_cell_length_a 16.619187
_cell_length_b 7.660628
_cell_length_c 23.179220
_cell_angle_alpha 90.000000
_cell_angle_beta 156.673409
_cell_angle_gamma 90.000000
_cell_volume 1168.522626
_symmetry_space_group_name_H-M "C 2"
_symmetry_group_IT_number 5
_symmetry_cell_setting 'monoclinic'
loop_
_space_group_symop_operation_xyz
x,y,z
-x,y,-z
1/2+x,1/2+y,z
1/2-x,1/2+y,-z
loop_
_atom_site_type_symbol
_atom_site_label
_atom_site_fract_x
_atom_site_fract_y
_atom_site_fract_z
Si Si1 0.669224 0.678470 0.306098
Si Si2 0.293456 0.634750 0.979148
Si Si3 0.358625 0.679497 0.318261
Si Si4 0.500000 0.935129 0.500000
Si Si5 0.500000 0.440501 0.500000
Si Si6 0.922472 0.534432 0.049351
Si Si7 0.638621 0.816477 0.805245
O O1 0.556497 0.772185 0.284201
O O2 0.846953 0.544573 0.439369
O O3 0.801416 0.823900 0.360599
O O4 0.498595 0.597142 0.151599
O O5 0.117360 0.602573 0.911151
O O6 0.239936 0.499743 0.892595
O O7 0.334097 0.836606 0.988318
O O8 0.349133 0.825208 0.361366
O O9 0.524147 0.552779 0.457436
O O10 0.404878 0.779965 0.290022
O O11 0.151064 0.570209 0.179423
O O12 0.792376 0.663825 0.924685
#
# Coordination Sequence:
#
# PCOD9124154 Si02
#       7
#     4   4   4   2   2   4   4
#     4  10  21  41  64  95 122 173 225 252 332 392
#     4  11  20  40  71  93 129 168 214 271 332 390
#     4  11  23  42  62  96 130 171 220 267 329 380
#     4  10  24  40  68  84 132 182 214 268 314 402
#     4  10  20  42  66  84 132 180 212 266 306 402
#     4  11  21  40  67  97 125 171 216 267 336 389
#     4  11  24  40  65  99 131 164 215 281 322 387
#
# _framework density 20.538754999999998
#
# number of rings (size 3 to 8) (size 9 to 14) (size 15 to 20)
#    0.000    1.333    5.000    1.500    2.333    1.333 
#    6.000    1.667    0.000    0.000    0.000    0.000 
#    0.000    0.000    0.000    0.000    0.000    0.000 
#
# Total GULP energy -66803.285654 kJ/mol
# GULP energy per Si atom -5566.940471 kJ/mol
# Density = 2.049201 g / cm^3
# Si number density = 20.538755 Si / 1000 Ang^3
#
#
#
# Elastic Constant Matrix: (Units=GPa)
#
#
# Indices 1 2 3 4 5 6 
#
# 1 75.3907 28.9875 31.8469 -0.0024 -15.6376 0.0009
# 2 28.9875 108.7190 19.1075 -0.0022 -6.1898 0.0007
# 3 31.8469 19.1075 44.0112 0.0027 2.3784 -0.0004
# 4 -0.0024 -0.0022 0.0027 34.0739 0.0001 0.8573
# 5 -15.6376 -6.1898 2.3784 0.0001 33.9814 -0.0002
# 6 0.0009 0.0007 -0.0004 0.8573 -0.0002 16.7582
#
#
#
# Elastic Compliance Matrix: (Units=1/GPa)
#
#
# Indices 1 2 3 4 5 6 
#
# 1 0.023743 -0.002751 -0.016613 0.000003 0.011588 -0.000002
# 2 -0.002751 0.010432 -0.002582 0.000001 0.000815 0.000000
# 3 -0.016613 -0.002582 0.036440 -0.000004 -0.010666 0.000002
# 4 0.000003 0.000001 -0.000004 0.029386 0.000002 -0.001503
# 5 0.011588 0.000815 -0.010666 0.000002 0.035655 -0.000001
# 6 -0.000002 0.000000 0.000002 -0.001503 -0.000001 0.059749
#
#
# Mechanical properties :
#
#
# Convention : Reuss Voigt Hill
#
# Bulk Modulus (GPa) = 37.42100 43.11164 40.26632
# Shear Modulus (GPa) = 20.14463 26.84127 23.49295
#
# Velocity S-wave (km/s) = 3.13519 3.61897 3.38573
# Velocity P-wave (km/s) = 5.60046 6.20472 5.91032
#
# Compressibility (1/GPa) = 0.02672297
#
# Stress axis : x y z
#
# Youngs Moduli (GPa) = 42.11735 95.86082 27.44238
#
# Poissons Ratio (x) = 0.26373 0.45589
# Poissons Ratio (y) = 0.11587 0.07086
# Poissons Ratio (z) = 0.69968 0.24754
#
# Static dielectric constant tensor:
#      x y z
#    x 1.740240 0.000000 0.003650 
#    y 0.000000 1.821700 0.000000 
#    z 0.003650 0.000000 1.767380 
# 
# From -- ./inp_files/69123.got.cif
#   From: 2010.05.17/outbox.cif.g08.bks.cpg/sg5_35_cif.got.tgz:69123.got - 2010.06.03 18:56:24.
