data_PCOD9124197
_publ_section_title
;
Structure prediction by ZEFSAII (Michael W. Deem and Ramdas Pophale) SiO2 
 PCOD9124197
Probable space group: C 2
;
_chemical_formula_sum "Si O2"
_cell_formula_units_Z 30
_cell_length_a 8.667967
_cell_length_b 14.336932
_cell_length_c 12.439729
_cell_angle_alpha 90.000000
_cell_angle_beta 73.884897
_cell_angle_gamma 90.000000
_cell_volume 1485.165687
_symmetry_space_group_name_H-M "C 2"
_symmetry_group_IT_number 5
_symmetry_cell_setting 'monoclinic'
loop_
_space_group_symop_operation_xyz
x,y,z
-x,y,-z
1/2+x,1/2+y,z
1/2-x,1/2+y,-z
loop_
_atom_site_type_symbol
_atom_site_label
_atom_site_fract_x
_atom_site_fract_y
_atom_site_fract_z
Si Si1 0.191284 0.211750 0.979747
Si Si2 0.233556 0.249553 0.729063
Si Si3 0.638069 0.754418 0.220869
Si Si4 0.000000 0.588049 0.000000
Si Si5 0.155177 0.915851 0.417769
Si Si6 0.183291 0.567927 0.760402
Si Si7 0.066849 0.585544 0.370193
Si Si8 0.354444 0.874707 0.590777
O O1 0.180766 0.275343 0.088726
O O2 0.236331 0.257348 0.857440
O O3 0.345933 0.145128 0.978854
O O4 0.000000 0.177126 0.000000
O O5 0.354928 0.317865 0.643349
O O6 0.275620 0.143998 0.687905
O O7 0.051648 0.271097 0.729621
O O8 0.691162 0.647484 0.228710
O O9 0.717817 0.815113 0.298954
O O10 0.081737 0.536392 0.884011
O O11 0.248670 0.897716 0.509254
O O12 0.000000 0.961085 0.500000
O O13 0.234829 0.984042 0.317453
O O14 0.059643 0.610107 0.697843
O O15 0.091365 0.473976 0.369485
O O16 0.000000 0.611613 0.500000
O O17 0.500000 0.823788 0.500000
#
# Coordination Sequence:
#
# PCOD9124197 Si02
#       8
#     4   4   4   2   4   4   4   4
#     4   9  20  39  64  98 125 163 219 267 313 388
#     4  11  22  42  63  90 124 168 206 261 324 371
#     4  10  23  39  65  90 124 165 209 256 317 381
#     4  10  20  42  68  90 134 164 216 272 320 380
#     4  12  27  41  60  95 133 161 217 269 309 387
#     4  11  23  42  64  95 123 170 213 259 324 376
#     4  11  22  38  63  89 122 164 208 253 321 375
#     4  11  22  42  58  88 128 165 206 254 316 381
#
# _framework density 20.199764999999999
#
# number of rings (size 3 to 8) (size 9 to 14) (size 15 to 20)
#    0.000    1.333    5.333    0.400    5.600    0.533 
#    6.000    0.000    0.000    0.000    3.467    0.000 
#    0.000    0.000    0.000    0.000    0.000    0.000 
#
# Total GULP energy -83507.337067 kJ/mol
# GULP energy per Si atom -5567.155804 kJ/mol
# Density = 2.015379 g / cm^3
# Si number density = 20.199765 Si / 1000 Ang^3
#
#
#
# Elastic Constant Matrix: (Units=GPa)
#
#
# Indices 1 2 3 4 5 6 
#
# 1 52.1349 1.0451 37.3763 0.0000 7.0938 0.0000
# 2 1.0451 50.1785 44.2168 0.0000 -2.9061 0.0000
# 3 37.3763 44.2168 173.2404 0.0000 1.9068 0.0000
# 4 0.0000 0.0000 0.0000 21.2824 0.0000 0.7120
# 5 7.0938 -2.9061 1.9068 0.0000 34.4662 0.0000
# 6 0.0000 0.0000 0.0000 0.7120 0.0000 16.2957
#
#
#
# Elastic Compliance Matrix: (Units=1/GPa)
#
#
# Indices 1 2 3 4 5 6 
#
# 1 0.024282 0.004935 -0.006452 0.000000 -0.004225 0.000000
# 2 0.004935 0.026937 -0.007959 0.000000 0.001696 0.000000
# 3 -0.006452 -0.007959 0.009194 0.000000 0.000148 0.000000
# 4 0.000000 0.000000 0.000000 0.047056 0.000000 -0.002056
# 5 -0.004225 0.001696 0.000148 0.000000 0.030018 0.000000
# 6 0.000000 0.000000 0.000000 -0.002056 0.000000 0.061456
#
#
# Mechanical properties :
#
#
# Convention : Reuss Voigt Hill
#
# Bulk Modulus (GPa) = 24.11820 48.98114 36.54967
# Shear Modulus (GPa) = 21.57813 27.26989 24.42401
#
# Velocity S-wave (km/s) = 3.27193 3.67823 3.48102
# Velocity P-wave (km/s) = 5.12248 6.50694 5.85577
#
# Compressibility (1/GPa) = 0.04146246
#
# Stress axis : x y z
#
# Youngs Moduli (GPa) = 41.18203 37.12309 108.76632
#
# Poissons Ratio (x) = -0.18320 0.70176
# Poissons Ratio (y) = -0.20323 0.86564
# Poissons Ratio (z) = 0.26570 0.29545
#
# Static dielectric constant tensor:
#      x y z
#    x 1.734900 0.000000 0.012380 
#    y 0.000000 1.724240 0.000000 
#    z 0.012380 0.000000 1.692270 
# 
# From -- ./inp_files/36124.got.cif
#   From: 2010.05.17/outbox.cif.g08.bks.cpg/sg5_19_cif.got.tgz:36124.got - 2010.06.03 18:56:24.
