data_PCOD9124671
_publ_section_title
;
Structure prediction by ZEFSAII (Michael W. Deem and Ramdas Pophale) SiO2 
 PCOD9124671
Probable space group: C 2
;
_chemical_formula_sum "Si O2"
_cell_formula_units_Z 24
_cell_length_a 14.880161
_cell_length_b 17.188139
_cell_length_c 5.148190
_cell_angle_alpha 90.000000
_cell_angle_beta 118.092606
_cell_angle_gamma 90.000000
_cell_volume 1161.587752
_symmetry_space_group_name_H-M "C 2"
_symmetry_group_IT_number 5
_symmetry_cell_setting 'monoclinic'
loop_
_space_group_symop_operation_xyz
x,y,z
-x,y,-z
1/2+x,1/2+y,z
1/2-x,1/2+y,-z
loop_
_atom_site_type_symbol
_atom_site_label
_atom_site_fract_x
_atom_site_fract_y
_atom_site_fract_z
Si Si1 0.245689 0.541330 0.714531
Si Si2 0.861348 0.517879 0.932255
Si Si3 0.300896 0.341788 0.110534
Si Si4 0.113617 0.925062 0.261917
Si Si5 0.385056 0.169628 0.243784
Si Si6 0.438835 0.858609 0.162950
O O1 0.169037 0.501929 0.402867
O O2 0.352210 0.515510 0.734124
O O3 0.199101 0.627839 0.682238
O O4 0.233192 0.511903 0.993008
O O5 0.891579 0.607221 0.016758
O O6 0.937046 0.453191 0.140816
O O7 0.361558 0.387939 0.423529
O O8 0.347038 0.255764 0.144373
O O9 0.315946 0.380834 0.850782
O O10 0.180428 0.337389 0.007054
O O11 0.000000 0.914199 0.000000
O O12 0.500000 0.172557 0.500000
O O13 0.500000 0.834688 0.500000
O O14 0.500000 0.828010 0.000000
#
# Coordination Sequence:
#
# PCOD9124671 Si02
#       6
#     4   4   4   4   4   4
#     4  10  21  40  59  94 123 160 209 259 299 376
#     4  10  21  37  62  91 124 150 208 260 307 362
#     4  12  25  43  61  97 133 160 212 262 311 385
#     4  12  23  42  67  93 127 172 211 253 314 371
#     4  10  24  39  63  91 126 164 200 261 326 364
#     4  12  23  40  68  92 122 168 212 261 312 366
#
# _framework density 20.661377000000002
#
# number of rings (size 3 to 8) (size 9 to 14) (size 15 to 20)
#    1.000    0.000    3.333    4.000    4.667    0.000 
#    0.000    0.833    0.000    0.000    0.000    0.000 
#    0.000    0.000    0.000    0.000    0.000    0.000 
#
# Total GULP energy -66805.662797 kJ/mol
# GULP energy per Si atom -5567.138566 kJ/mol
# Density = 2.061435 g / cm^3
# Si number density = 20.661377 Si / 1000 Ang^3
#
#
#
# Elastic Constant Matrix: (Units=GPa)
#
#
# Indices 1 2 3 4 5 6 
#
# 1 62.0696 13.9182 23.7448 0.0000 8.9765 0.0000
# 2 13.9182 84.5268 17.6163 0.0000 4.4257 0.0000
# 3 23.7448 17.6163 119.3267 0.0000 0.2089 0.0000
# 4 0.0000 0.0000 0.0000 22.8958 0.0000 2.6879
# 5 8.9765 4.4257 0.2089 0.0000 42.5555 0.0000
# 6 0.0000 0.0000 0.0000 2.6879 0.0000 13.7642
#
#
#
# Elastic Compliance Matrix: (Units=1/GPa)
#
#
# Indices 1 2 3 4 5 6 
#
# 1 0.018395 -0.002143 -0.003338 0.000000 -0.003641 0.000000
# 2 -0.002143 0.012524 -0.001421 0.000000 -0.000844 0.000000
# 3 -0.003338 -0.001421 0.009253 0.000000 0.000806 0.000000
# 4 0.000000 0.000000 0.000000 0.044701 0.000000 -0.008729
# 5 -0.003641 -0.000844 0.000806 0.000000 0.024350 0.000000
# 6 0.000000 0.000000 0.000000 -0.008729 0.000000 0.074357
#
#
# Mechanical properties :
#
#
# Convention : Reuss Voigt Hill
#
# Bulk Modulus (GPa) = 37.92383 41.83130 39.87756
# Shear Modulus (GPa) = 24.25161 29.88603 27.06882
#
# Velocity S-wave (km/s) = 3.42974 3.80737 3.62348
# Velocity P-wave (km/s) = 5.83772 6.29430 6.07030
#
# Compressibility (1/GPa) = 0.02636865
#
# Stress axis : x y z
#
# Youngs Moduli (GPa) = 54.36322 79.84857 108.07427
#
# Poissons Ratio (x) = 0.17109 0.36072
# Poissons Ratio (y) = 0.11648 0.15358
# Poissons Ratio (z) = 0.18145 0.11347
#
# Static dielectric constant tensor:
#      x y z
#    x 1.790780 0.000000 0.002810 
#    y 0.000000 1.779370 0.000000 
#    z 0.002810 0.000000 1.728240 
# 
# From -- ./inp_files/7534.got.cif
#   From: 2010.05.17/outbox.cif.g08.bks.cpg/sg5_4_cif.got.tgz:7534.got - 2010.06.03 18:56:24.
