data_PCOD9124796
_publ_section_title
;
Structure prediction by ZEFSAII (Michael W. Deem and Ramdas Pophale) SiO2 
 PCOD9124796
Probable space group: C 2
;
_chemical_formula_sum "Si O2"
_cell_formula_units_Z 30
_cell_length_a 9.935200
_cell_length_b 22.048184
_cell_length_c 11.905630
_cell_angle_alpha 90.000000
_cell_angle_beta 143.031070
_cell_angle_gamma 90.000000
_cell_volume 1568.383053
_symmetry_space_group_name_H-M "C 2"
_symmetry_group_IT_number 5
_symmetry_cell_setting 'monoclinic'
loop_
_space_group_symop_operation_xyz
x,y,z
-x,y,-z
1/2+x,1/2+y,z
1/2-x,1/2+y,-z
loop_
_atom_site_type_symbol
_atom_site_label
_atom_site_fract_x
_atom_site_fract_y
_atom_site_fract_z
Si Si1 0.288085 0.480710 0.277701
Si Si2 0.463291 0.550671 0.740212
Si Si3 0.820666 0.153658 0.981482
Si Si4 0.000000 0.372540 0.000000
Si Si5 0.214609 0.789933 0.983073
Si Si6 0.774109 0.329041 0.275155
Si Si7 0.949231 0.555822 0.705792
Si Si8 0.299637 0.969589 0.275481
O O1 0.500000 0.470156 0.500000
O O2 0.373843 0.505275 0.216415
O O3 0.150598 0.535772 0.242117
O O4 0.154049 0.418765 0.173882
O O5 0.253258 0.561256 0.517649
O O6 0.382200 0.515350 0.796572
O O7 0.571515 0.613765 0.847091
O O8 0.601024 0.115060 0.802675
O O9 0.757653 0.220910 0.976208
O O10 0.000000 0.155551 0.000000
O O11 0.848249 0.332382 0.983471
O O12 0.296961 0.800145 0.166486
O O13 0.948108 0.804106 0.811196
O O14 0.729459 0.400382 0.222814
O O15 0.000000 0.322392 0.500000
O O16 0.098770 0.498428 0.767883
O O17 0.500000 0.970488 0.500000
#
# Coordination Sequence:
#
# PCOD9124796 Si02
#       8
#     4   4   4   2   4   4   4   4
#     4  10  22  38  61  95 128 157 197 251 315 372
#     4  10  21  38  62  92 121 154 199 252 306 365
#     4  12  24  41  61  84 120 164 206 252 303 360
#     4  12  22  40  62  94 136 168 200 250 308 368
#     4  11  26  41  62  93 125 168 218 249 291 375
#     4  10  23  45  67  91 124 162 207 263 313 358
#     4  10  21  38  62  92 121 154 199 252 306 365
#     4   9  17  34  62  91 116 149 198 247 302 363
#
# _framework density 19.127980999999998
#
# number of rings (size 3 to 8) (size 9 to 14) (size 15 to 20)
#    0.000    1.600    2.000    2.400    0.000    8.533 
#    0.000    1.333    0.000    0.000    0.000    0.000 
#    0.000    0.000    0.000    0.000    0.000    0.000 
#
# Total GULP energy -83787.075257 kJ/mol
# GULP energy per Si atom -5585.805017 kJ/mol
# Density = 1.908444 g / cm^3
# Si number density = 19.127981 Si / 1000 Ang^3
#
#
#
# Elastic Constant Matrix: (Units=GPa)
#
#
# Indices 1 2 3 4 5 6 
#
# 1 90.1199 30.6869 26.9623 0.0000 6.8625 0.0000
# 2 30.6869 143.5446 38.3333 0.0000 10.4882 0.0000
# 3 26.9623 38.3333 106.7987 0.0000 8.1188 0.0000
# 4 0.0000 0.0000 0.0000 34.4167 0.0000 -12.5605
# 5 6.8625 10.4882 8.1188 0.0000 18.9663 0.0000
# 6 0.0000 0.0000 0.0000 -12.5605 0.0000 8.7814
#
#
#
# Elastic Compliance Matrix: (Units=1/GPa)
#
#
# Indices 1 2 3 4 5 6 
#
# 1 0.012627 -0.001896 -0.002315 0.000000 -0.002529 0.000000
# 2 -0.001896 0.008180 -0.002238 0.000000 -0.002879 0.000000
# 3 -0.002315 -0.002238 0.010950 0.000000 -0.002612 0.000000
# 4 0.000000 0.000000 0.000000 0.060788 0.000000 0.086949
# 5 -0.002529 -0.002879 -0.002612 0.000000 0.056351 0.000000
# 6 0.000000 0.000000 0.000000 0.086949 0.000000 0.238246
#
#
# Mechanical properties :
#
#
# Convention : Reuss Voigt Hill
#
# Bulk Modulus (GPa) = 53.02911 59.15870 56.09391
# Shear Modulus (GPa) = 12.30534 28.73158 20.51846
#
# Velocity S-wave (km/s) = 2.53912 3.87986 3.27875
# Velocity P-wave (km/s) = 6.03156 7.14605 6.61233
#
# Compressibility (1/GPa) = 0.01885757
#
# Stress axis : x y z
#
# Youngs Moduli (GPa) = 79.19365 122.24898 91.32573
#
# Poissons Ratio (x) = 0.23184 0.21141
# Poissons Ratio (y) = 0.15019 0.20442
# Poissons Ratio (z) = 0.18333 0.27364
#
# Static dielectric constant tensor:
#      x y z
#    x 1.655470 0.000000 0.023400 
#    y 0.000000 1.622010 0.000000 
#    z 0.023400 0.000000 1.704400 
# 
# From -- ./inp_files/37550.got.cif
#   From: 2010.05.17/outbox.cif.g08.bks.cpg/sg5_19_cif.got.tgz:37550.got - 2010.06.03 18:56:24.
