data_PCOD9124591
_publ_section_title
;
Structure prediction by ZEFSAII (Michael W. Deem and Ramdas Pophale) SiO2 
 PCOD9124591
Probable space group: C 2
;
_chemical_formula_sum "Si O2"
_cell_formula_units_Z 28
_cell_length_a 18.187792
_cell_length_b 5.232013
_cell_length_c 15.232499
_cell_angle_alpha 90.000000
_cell_angle_beta 66.018691
_cell_angle_gamma 90.000000
_cell_volume 1324.381679
_symmetry_space_group_name_H-M "C 2"
_symmetry_group_IT_number 5
_symmetry_cell_setting 'monoclinic'
loop_
_space_group_symop_operation_xyz
x,y,z
-x,y,-z
1/2+x,1/2+y,z
1/2-x,1/2+y,-z
loop_
_atom_site_type_symbol
_atom_site_label
_atom_site_fract_x
_atom_site_fract_y
_atom_site_fract_z
Si Si1 0.641422 0.972920 0.557324
Si Si2 0.051215 0.411093 0.775295
Si Si3 0.719905 0.228371 0.247779
Si Si4 0.713530 0.118476 0.915950
Si Si5 0.137862 0.448945 0.134312
Si Si6 0.819461 0.977076 0.557350
Si Si7 0.862564 0.918979 0.193301
O O1 0.575422 0.899366 0.661409
O O2 0.727288 0.969843 0.566803
O O3 0.645274 0.751510 0.483114
O O4 0.634591 0.251104 0.517128
O O5 0.096088 0.669129 0.785899
O O6 0.956073 0.420102 0.833147
O O7 0.082555 0.161087 0.811276
O O8 0.781129 0.383458 0.154431
O O9 0.655623 0.108583 0.213580
O O10 0.683758 0.409247 0.338926
O O11 0.774007 0.010279 0.269821
O O12 0.806570 0.199660 0.880372
O O13 0.660548 0.337250 0.894513
O O14 0.676601 0.069599 0.028256
#
# Coordination Sequence:
#
# PCOD9124591 Si02
#       7
#     4   4   4   4   4   4   4
#     4  10  21  37  65 102 131 168 229 284 340 396
#     4  12  25  46  69 108 142 179 221 307 348 400
#     4  11  23  45  71 100 136 187 231 280 335 431
#     4  11  23  48  69 102 129 195 233 277 329 446
#     4  11  27  43  74  98 148 182 235 278 361 404
#     4  10  21  36  68  97 129 177 227 278 331 411
#     4  11  24  43  72  99 144 174 233 284 348 401
#
# _framework density 21.141942
#
# number of rings (size 3 to 8) (size 9 to 14) (size 15 to 20)
#    0.000    1.143    4.286    0.857   10.000    0.571 
#    2.571    0.714    0.000    0.000    0.000    0.000 
#    0.000    0.000    0.000    0.000    0.000    0.000 
#
# Total GULP energy -78212.998523 kJ/mol
# GULP energy per Si atom -5586.642752 kJ/mol
# Density = 2.109382 g / cm^3
# Si number density = 21.141942 Si / 1000 Ang^3
#
#
#
# Elastic Constant Matrix: (Units=GPa)
#
#
# Indices 1 2 3 4 5 6 
#
# 1 66.3569 40.9081 13.5610 -0.0004 1.8291 0.0018
# 2 40.9081 114.1214 17.2798 -0.0015 1.8702 0.0038
# 3 13.5610 17.2798 22.6500 0.0003 -3.0400 -0.0015
# 4 -0.0004 -0.0015 0.0003 29.2570 -0.0005 11.2433
# 5 1.8291 1.8702 -3.0400 -0.0005 16.7447 -0.0002
# 6 0.0018 0.0038 -0.0015 11.2433 -0.0002 27.6591
#
#
#
# Elastic Compliance Matrix: (Units=1/GPa)
#
#
# Indices 1 2 3 4 5 6 
#
# 1 0.020562 -0.006100 -0.008064 0.000000 -0.003029 -0.000001
# 2 -0.006100 0.011823 -0.005592 0.000001 -0.001669 -0.000002
# 3 -0.008064 -0.005592 0.054781 -0.000003 0.011451 0.000006
# 4 0.000000 0.000001 -0.000003 0.040508 0.000000 -0.016466
# 5 -0.003029 -0.001669 0.011451 0.000000 0.062317 0.000001
# 6 -0.000001 -0.000002 0.000006 -0.016466 0.000001 0.042848
#
#
# Mechanical properties :
#
#
# Convention : Reuss Voigt Hill
#
# Bulk Modulus (GPa) = 20.98410 38.51402 29.74906
# Shear Modulus (GPa) = 17.34696 23.49078 20.41887
#
# Velocity S-wave (km/s) = 2.86754 3.33693 3.11110
# Velocity P-wave (km/s) = 4.57281 5.75354 5.19682
#
# Compressibility (1/GPa) = 0.04765513
#
# Stress axis : x y z
#
# Youngs Moduli (GPa) = 48.63326 84.57865 18.25451
#
# Poissons Ratio (x) = 0.51594 0.14720
# Poissons Ratio (y) = 0.29667 0.10208
# Poissons Ratio (z) = 0.39216 0.47296
#
# Static dielectric constant tensor:
#      x y z
#    x 1.733210 0.000000 0.021090 
#    y 0.000000 1.853180 0.000000 
#    z 0.021090 0.000000 1.754810 
# 
# From -- ./inp_files/55413.got.cif
#   From: 2010.05.17/outbox.cif.g08.bks.cpg/sg5_28_cif.got.tgz:55413.got - 2010.06.03 18:56:24.
