data_PCOD9124398
_publ_section_title
;
Structure prediction by ZEFSAII (Michael W. Deem and Ramdas Pophale) SiO2 
 PCOD9124398
Probable space group: C 2
;
_chemical_formula_sum "Si O2"
_cell_formula_units_Z 22
_cell_length_a 20.396703
_cell_length_b 8.506348
_cell_length_c 5.124923
_cell_angle_alpha 90.000000
_cell_angle_beta 100.017560
_cell_angle_gamma 90.000000
_cell_volume 875.625562
_symmetry_space_group_name_H-M "C 2"
_symmetry_group_IT_number 5
_symmetry_cell_setting 'monoclinic'
loop_
_space_group_symop_operation_xyz
x,y,z
-x,y,-z
1/2+x,1/2+y,z
1/2-x,1/2+y,-z
loop_
_atom_site_type_symbol
_atom_site_label
_atom_site_fract_x
_atom_site_fract_y
_atom_site_fract_z
Si Si1 0.729311 0.112570 0.532548
Si Si2 0.322923 0.634895 0.095204
Si Si3 0.890165 0.831414 0.362262
Si Si4 0.618541 0.865547 0.496120
Si Si5 0.045302 0.078216 0.278500
Si Si6 0.000000 0.602145 0.500000
O O1 0.767637 0.139747 0.290026
O O2 0.674301 0.237666 0.589807
O O3 0.685530 0.955232 0.466992
O O4 0.781321 0.109139 0.805145
O O5 0.367619 0.478635 0.171879
O O6 0.366641 0.789366 0.206506
O O7 0.949624 0.717735 0.303702
O O8 0.920794 0.913233 0.639265
O O9 0.599120 0.715564 0.311665
O O10 0.556202 0.984563 0.425409
O O11 0.000000 0.112103 0.500000
O O12 0.000000 0.079167 0.000000
#
# Coordination Sequence:
#
# PCOD9124398 Si02
#       6
#     4   4   4   4   4   2
#     4  11  24  44  69 102 134 177 229 280 339 401
#     4  11  24  43  71  96 138 180 228 274 343 401
#     4  10  23  42  71 100 140 178 226 286 334 412
#     4  10  23  42  71 100 140 178 226 286 334 412
#     4  11  24  43  68  97 140 177 225 269 343 407
#     4  10  20  46  66 106 138 178 230 278 348 394
#
# _framework density 25.124896
#
# number of rings (size 3 to 8) (size 9 to 14) (size 15 to 20)
#    0.000    1.455    1.818    2.182    0.000    8.727 
#    0.000    1.818    0.000    0.000    0.000    0.000 
#    0.000    0.000    0.000    0.000    0.000    0.000 
#
# Total GULP energy -61544.307402 kJ/mol
# GULP energy per Si atom -5594.937037 kJ/mol
# Density = 2.506771 g / cm^3
# Si number density = 25.124896 Si / 1000 Ang^3
#
#
#
# Elastic Constant Matrix: (Units=GPa)
#
#
# Indices 1 2 3 4 5 6 
#
# 1 180.4324 57.7584 57.4684 0.0000 25.4866 0.0000
# 2 57.7584 121.0984 8.5462 0.0000 28.0140 0.0000
# 3 57.4684 8.5462 133.1046 0.0000 25.3082 0.0000
# 4 0.0000 0.0000 0.0000 19.0681 0.0000 23.8892
# 5 25.4866 28.0140 25.3082 0.0000 42.1761 0.0000
# 6 0.0000 0.0000 0.0000 23.8892 0.0000 67.9166
#
#
#
# Elastic Compliance Matrix: (Units=1/GPa)
#
#
# Indices 1 2 3 4 5 6 
#
# 1 0.007626 -0.003276 -0.002957 0.000000 -0.000658 0.000000
# 2 -0.003276 0.011220 0.001958 0.000000 -0.006648 0.000000
# 3 -0.002957 0.001958 0.009675 0.000000 -0.005319 0.000000
# 4 0.000000 0.000000 0.000000 0.093763 0.000000 -0.032981
# 5 -0.000658 -0.006648 -0.005319 0.000000 0.031715 0.000000
# 6 0.000000 0.000000 0.000000 -0.032981 0.000000 0.026325
#
#
# Mechanical properties :
#
#
# Convention : Reuss Voigt Hill
#
# Bulk Modulus (GPa) = 50.07360 75.79793 62.93577
# Shear Modulus (GPa) = 25.57137 46.55633 36.06385
#
# Velocity S-wave (km/s) = 3.19371 4.30931 3.79276
# Velocity P-wave (km/s) = 5.79421 7.41581 6.65459
#
# Compressibility (1/GPa) = 0.01997060
#
# Stress axis : x y z
#
# Youngs Moduli (GPa) = 131.13479 89.12625 103.35586
#
# Poissons Ratio (x) = 0.29201 0.30563
# Poissons Ratio (y) = 0.42964 -0.20238
# Poissons Ratio (z) = 0.38777 -0.17452
#
# Static dielectric constant tensor:
#      x y z
#    x 2.030400 0.000000 -0.063490 
#    y 0.000000 2.036300 0.000000 
#    z -0.063490 0.000000 1.964070 
# 
# From -- ./inp_files/10197.got.cif
#   From: 2010.05.17/outbox.cif.g08.bks.cpg/sg5_6_cif.got.tgz:10197.got - 2010.06.03 18:56:24.
