data_PCOD9124052
_publ_section_title
;
Structure prediction by ZEFSAII (Michael W. Deem and Ramdas Pophale) SiO2 
 PCOD9124052
Probable space group: C 2
;
_chemical_formula_sum "Si O2"
_cell_formula_units_Z 30
_cell_length_a 8.822736
_cell_length_b 16.466128
_cell_length_c 11.497633
_cell_angle_alpha 90.000000
_cell_angle_beta 111.645898
_cell_angle_gamma 90.000000
_cell_volume 1552.543821
_symmetry_space_group_name_H-M "C 2"
_symmetry_group_IT_number 5
_symmetry_cell_setting 'monoclinic'
loop_
_space_group_symop_operation_xyz
x,y,z
-x,y,-z
1/2+x,1/2+y,z
1/2-x,1/2+y,-z
loop_
_atom_site_type_symbol
_atom_site_label
_atom_site_fract_x
_atom_site_fract_y
_atom_site_fract_z
Si Si1 0.262372 0.349850 0.519899
Si Si2 0.234291 0.008769 0.876330
Si Si3 0.577767 0.786045 0.144676
Si Si4 0.559394 0.965799 0.844285
Si Si5 0.889976 0.857830 0.292533
Si Si6 0.000000 0.212833 0.500000
Si Si7 0.656553 0.017543 0.611642
Si Si8 0.480619 0.628762 0.724166
O O1 0.311263 0.363975 0.399348
O O2 0.426942 0.330828 0.637059
O O3 0.194615 0.434003 0.552831
O O4 0.141370 0.274589 0.499730
O O5 0.399915 0.013469 0.846751
O O6 0.123623 0.942178 0.779096
O O7 0.297230 0.981335 0.020989
O O8 0.119813 0.086271 0.840193
O O9 0.495527 0.871022 0.163828
O O10 0.770432 0.800538 0.187044
O O11 0.558398 0.713576 0.227142
O O12 0.500000 0.766375 0.000000
O O13 0.608067 0.992853 0.729514
O O14 0.049959 0.153363 0.618200
O O15 0.500000 0.055302 0.500000
O O16 0.816881 0.074633 0.661686
#
# Coordination Sequence:
#
# PCOD9124052 Si02
#       8
#     4   4   4   4   4   2   4   4
#     4  11  22  41  68  93 128 174 225 260 308 401
#     4  10  21  43  65  98 125 173 216 264 323 383
#     4  11  21  43  68  95 130 168 211 267 330 378
#     4  10  22  44  73  89 126 177 223 255 311 406
#     4  10  20  41  68  94 122 175 225 257 307 393
#     4  12  26  44  62  96 138 172 208 268 344 372
#     4  12  25  40  66  98 129 170 221 267 319 384
#     4  12  28  40  65 101 136 164 209 283 332 372
#
# _framework density 19.323128000000001
#
# number of rings (size 3 to 8) (size 9 to 14) (size 15 to 20)
#    0.000    1.067    6.000    2.400    5.600    1.067 
#    0.000    0.000    0.000    0.000    0.000    0.000 
#    0.000    0.000    0.000    0.000    0.000    0.000 
#
# Total GULP energy -83734.980702 kJ/mol
# GULP energy per Si atom -5582.332047 kJ/mol
# Density = 1.927915 g / cm^3
# Si number density = 19.323128 Si / 1000 Ang^3
#
#
#
# Elastic Constant Matrix: (Units=GPa)
#
#
# Indices 1 2 3 4 5 6 
#
# 1 63.8979 35.9104 36.8593 0.0000 17.4650 0.0000
# 2 35.9104 60.6150 22.8907 0.0000 12.4285 0.0000
# 3 36.8593 22.8907 102.9074 0.0000 23.0388 0.0000
# 4 0.0000 0.0000 0.0000 20.6802 0.0000 -2.2462
# 5 17.4650 12.4285 23.0388 0.0000 39.2022 0.0000
# 6 0.0000 0.0000 0.0000 -2.2462 0.0000 3.3145
#
#
#
# Elastic Compliance Matrix: (Units=1/GPa)
#
#
# Indices 1 2 3 4 5 6 
#
# 1 0.027833 -0.013275 -0.005968 0.000000 -0.004684 0.000000
# 2 -0.013275 0.024865 -0.000386 0.000000 -0.001742 0.000000
# 3 -0.005968 -0.000386 0.013033 0.000000 -0.004878 0.000000
# 4 0.000000 0.000000 0.000000 0.052198 0.000000 0.035374
# 5 -0.004684 -0.001742 -0.004878 0.000000 0.031015 0.000000
# 6 0.000000 0.000000 0.000000 0.035374 0.000000 0.325676
#
#
# Mechanical properties :
#
#
# Convention : Reuss Voigt Hill
#
# Bulk Modulus (GPa) = 37.77372 46.52678 42.15025
# Shear Modulus (GPa) = 9.56566 21.42338 15.49452
#
# Velocity S-wave (km/s) = 2.22736 3.33331 2.83479
# Velocity P-wave (km/s) = 5.11915 6.24061 5.70749
#
# Compressibility (1/GPa) = 0.02647343
#
# Stress axis : x y z
#
# Youngs Moduli (GPa) = 35.92805 40.21666 76.72822
#
# Poissons Ratio (x) = 0.53389 0.45789
# Poissons Ratio (y) = 0.47696 0.02962
# Poissons Ratio (z) = 0.21441 0.01553
#
# Static dielectric constant tensor:
#      x y z
#    x 1.691330 0.000000 0.001950 
#    y 0.000000 1.666640 0.000000 
#    z 0.001950 0.000000 1.676550 
# 
# From -- ./inp_files/36455.got.cif
#   From: 2010.05.17/outbox.cif.g08.bks.cpg/sg5_19_cif.got.tgz:36455.got - 2010.06.03 18:56:24.
