data_PCOD9124780
_publ_section_title
;
Structure prediction by ZEFSAII (Michael W. Deem and Ramdas Pophale) SiO2 
 PCOD9124780
Probable space group: C 2
;
_chemical_formula_sum "Si O2"
_cell_formula_units_Z 22
_cell_length_a 10.444387
_cell_length_b 9.863754
_cell_length_c 9.446528
_cell_angle_alpha 90.000000
_cell_angle_beta 76.215641
_cell_angle_gamma 90.000000
_cell_volume 945.160997
_symmetry_space_group_name_H-M "C 2"
_symmetry_group_IT_number 5
_symmetry_cell_setting 'monoclinic'
loop_
_space_group_symop_operation_xyz
x,y,z
-x,y,-z
1/2+x,1/2+y,z
1/2-x,1/2+y,-z
loop_
_atom_site_type_symbol
_atom_site_label
_atom_site_fract_x
_atom_site_fract_y
_atom_site_fract_z
Si Si1 0.619905 0.230440 0.256552
Si Si2 0.596058 0.932447 0.289902
Si Si3 0.146122 0.247031 0.032767
Si Si4 0.517350 0.490713 0.157757
Si Si5 0.000000 0.212413 0.500000
Si Si6 0.215357 0.089456 0.592627
O O1 0.537107 0.363170 0.253340
O O2 0.691407 0.215479 0.389201
O O3 0.547673 0.083565 0.262642
O O4 0.735510 0.240255 0.108989
O O5 0.669492 0.868314 0.136865
O O6 0.502022 0.812569 0.365354
O O7 0.688030 0.963618 0.402728
O O8 0.132148 0.103180 0.117417
O O9 0.000000 0.267144 0.000000
O O10 0.390897 0.566952 0.253848
O O11 0.500000 0.444683 0.000000
O O12 0.870578 0.119436 0.521507
#
# Coordination Sequence:
#
# PCOD9124780 Si02
#       6
#     4   4   4   4   2   4
#     4  10  21  38  61  98 125 150 217 255 305 375
#     4  10  23  42  63  97 121 165 213 252 306 373
#     4  11  17  37  67  93 130 163 194 259 322 370
#     4  11  19  38  66  92 130 163 194 258 324 370
#     4  12  22  46  64  82 134 170 208 258 300 364
#     4  10  23  42  59  91 122 164 214 247 310 360
#
# _framework density 23.276457000000001
#
# number of rings (size 3 to 8) (size 9 to 14) (size 15 to 20)
#    1.091    0.364    5.455    2.182    0.000    2.182 
#    3.273    3.636    0.000    0.000    0.000    0.000 
#    0.000    0.000    0.000    0.000    0.000    0.000 
#
# Total GULP energy -61274.112042 kJ/mol
# GULP energy per Si atom -5570.373822 kJ/mol
# Density = 2.322348 g / cm^3
# Si number density = 23.276457 Si / 1000 Ang^3
#
#
#
# Elastic Constant Matrix: (Units=GPa)
#
#
# Indices 1 2 3 4 5 6 
#
# 1 45.2391 44.9072 0.8615 0.0000 18.9776 0.0000
# 2 44.9072 118.2761 5.7395 0.0000 33.5477 0.0000
# 3 0.8615 5.7395 38.8251 0.0000 7.8562 0.0000
# 4 0.0000 0.0000 0.0000 27.7004 0.0000 10.2208
# 5 18.9776 33.5477 7.8562 0.0000 27.5643 0.0000
# 6 0.0000 0.0000 0.0000 10.2208 0.0000 30.2059
#
#
#
# Elastic Compliance Matrix: (Units=1/GPa)
#
#
# Indices 1 2 3 4 5 6 
#
# 1 0.038910 -0.010775 0.003711 0.000000 -0.014733 0.000000
# 2 -0.010775 0.015963 0.000328 0.000000 -0.012103 0.000000
# 3 0.003711 0.000328 0.027828 0.000000 -0.010886 0.000000
# 4 0.000000 0.000000 0.000000 0.041251 0.000000 -0.013958
# 5 -0.014733 -0.012103 -0.010886 0.000000 0.064255 0.000000
# 6 0.000000 0.000000 0.000000 -0.013958 0.000000 0.037829
#
#
# Mechanical properties :
#
#
# Convention : Reuss Voigt Hill
#
# Bulk Modulus (GPa) = 14.44460 33.92855 24.18658
# Shear Modulus (GPa) = 19.04150 27.14960 23.09555
#
# Velocity S-wave (km/s) = 2.86327 3.41896 3.15338
# Velocity P-wave (km/s) = 4.14129 5.49488 4.86539
#
# Compressibility (1/GPa) = 0.06923001
#
# Stress axis : x y z
#
# Youngs Moduli (GPa) = 25.70017 62.64606 35.93456
#
# Poissons Ratio (x) = 0.67499 -0.13334
# Poissons Ratio (y) = 0.27691 -0.01180
# Poissons Ratio (z) = -0.09536 -0.02057
#
# Static dielectric constant tensor:
#      x y z
#    x 1.910800 0.000000 0.039250 
#    y 0.000000 1.855760 0.000000 
#    z 0.039250 0.000000 1.907910 
# 
# From -- ./inp_files/38085.got.cif
#   From: 2010.05.17/outbox.cif.g08.bks.cpg/sg5_20_cif.got.tgz:38085.got - 2010.06.03 18:56:24.
