data_PCOD9124077
_publ_section_title
;
Structure prediction by ZEFSAII (Michael W. Deem and Ramdas Pophale) SiO2 
 PCOD9124077
Probable space group: C 2
;
_chemical_formula_sum "Si O2"
_cell_formula_units_Z 22
_cell_length_a 14.795041
_cell_length_b 9.338035
_cell_length_c 24.747212
_cell_angle_alpha 90.000000
_cell_angle_beta 160.975553
_cell_angle_gamma 90.000000
_cell_volume 1114.493806
_symmetry_space_group_name_H-M "C 2"
_symmetry_group_IT_number 5
_symmetry_cell_setting 'monoclinic'
loop_
_space_group_symop_operation_xyz
x,y,z
-x,y,-z
1/2+x,1/2+y,z
1/2-x,1/2+y,-z
loop_
_atom_site_type_symbol
_atom_site_label
_atom_site_fract_x
_atom_site_fract_y
_atom_site_fract_z
Si Si1 0.812708 0.739110 0.672546
Si Si2 0.452291 0.178460 0.873200
Si Si3 0.715173 0.486060 0.873737
Si Si4 0.500000 0.391953 0.000000
Si Si5 0.089354 0.504093 0.357455
Si Si6 0.629583 0.675222 0.397500
O O1 0.500000 0.800859 0.500000
O O2 0.934834 0.718806 0.801312
O O3 0.787179 0.595911 0.622059
O O4 0.036534 0.842920 0.771432
O O5 0.132044 0.156049 0.709541
O O6 0.542134 0.293518 0.970226
O O7 0.658520 0.044756 0.998849
O O8 0.498195 0.602634 0.727746
O O9 0.000000 0.476688 0.000000
O O10 0.768254 0.484330 0.162587
O O11 0.132341 0.588240 0.437824
O O12 0.197578 0.341365 0.426367
#
# Coordination Sequence:
#
# PCOD9124077 Si02
#       6
#     4   4   4   2   4   4
#     4  12  26  40  63  98 138 170 218 277 329 373
#     4  10  20  43  64  89 131 175 208 276 325 380
#     4  10  22  43  68  94 124 178 223 260 327 392
#     4  10  22  42  68  92 130 174 220 262 334 390
#     4  11  22  41  66  97 127 171 220 266 323 389
#     4  10  20  41  71  87 130 175 221 259 327 396
#
# _framework density 19.739903999999999
#
# number of rings (size 3 to 8) (size 9 to 14) (size 15 to 20)
#    0.000    1.455    6.364    1.091    6.364    0.000 
#    0.000    0.909    0.000    0.000    0.000    0.000 
#    0.000    0.000    0.000    0.000    0.000    0.000 
#
# Total GULP energy -61283.343993 kJ/mol
# GULP energy per Si atom -5571.213090 kJ/mol
# Density = 1.969497 g / cm^3
# Si number density = 19.739904 Si / 1000 Ang^3
#
#
#
# Elastic Constant Matrix: (Units=GPa)
#
#
# Indices 1 2 3 4 5 6 
#
# 1 31.4875 21.2117 22.0153 0.0269 -23.7538 0.0033
# 2 21.2117 98.8276 42.0669 0.0315 -10.5456 -0.0011
# 3 22.0153 42.0669 131.2305 0.1530 -19.6004 -0.0056
# 4 0.0269 0.0315 0.1530 33.7658 -0.0016 -0.3340
# 5 -23.7538 -10.5456 -19.6004 -0.0016 34.0790 -0.0031
# 6 0.0033 -0.0011 -0.0056 -0.3340 -0.0031 0.1680
#
#
#
# Elastic Compliance Matrix: (Units=1/GPa)
#
#
# Indices 1 2 3 4 5 6 
#
# 1 0.077955 -0.010443 -0.002294 -0.000048 0.049785 -0.000846
# 2 -0.010443 0.013197 -0.003233 0.000011 -0.005055 0.000111
# 3 -0.002294 -0.003233 0.009467 -0.000035 0.002845 0.000324
# 4 -0.000048 0.000011 -0.000035 0.030210 -0.000043 0.060058
# 5 0.049785 -0.005055 0.002845 -0.000043 0.064117 0.000190
# 6 -0.000846 0.000111 0.000324 0.060058 0.000190 6.072097
#
#
# Mechanical properties :
#
#
# Convention : Reuss Voigt Hill
#
# Bulk Modulus (GPa) = 14.56082 48.01483 31.28782
# Shear Modulus (GPa) = 0.79090 25.35267 13.07179
#
# Velocity S-wave (km/s) = 0.63367 3.58765 2.57612
# Velocity P-wave (km/s) = 2.81562 6.44501 4.97322
#
# Compressibility (1/GPa) = 0.06867745
#
# Stress axis : x y z
#
# Youngs Moduli (GPa) = 12.82788 75.77495 105.63490
#
# Poissons Ratio (x) = 0.79130 0.24237
# Poissons Ratio (y) = 0.13396 0.34157
# Poissons Ratio (z) = 0.02943 0.24502
#
# Static dielectric constant tensor:
#      x y z
#    x 1.709520 0.000010 -0.002940 
#    y 0.000010 1.742050 -0.000030 
#    z -0.002940 -0.000030 1.708640 
# 
# From -- ./inp_files/41407.got.cif
#   From: 2010.05.17/outbox.cif.g08.bks.cpg/sg5_21_cif.got.tgz:41407.got - 2010.06.03 18:56:24.
