data_PCOD9124367
_publ_section_title
;
Structure prediction by ZEFSAII (Michael W. Deem and Ramdas Pophale) SiO2 
 PCOD9124367
Probable space group: C 2
;
_chemical_formula_sum "Si O2"
_cell_formula_units_Z 26
_cell_length_a 11.644418
_cell_length_b 13.991896
_cell_length_c 8.015633
_cell_angle_alpha 90.000000
_cell_angle_beta 127.154041
_cell_angle_gamma 90.000000
_cell_volume 1040.874753
_symmetry_space_group_name_H-M "C 2"
_symmetry_group_IT_number 5
_symmetry_cell_setting 'monoclinic'
loop_
_space_group_symop_operation_xyz
x,y,z
-x,y,-z
1/2+x,1/2+y,z
1/2-x,1/2+y,-z
loop_
_atom_site_type_symbol
_atom_site_label
_atom_site_fract_x
_atom_site_fract_y
_atom_site_fract_z
Si Si1 0.725095 0.024490 0.473924
Si Si2 0.930308 0.178326 0.622104
Si Si3 0.649526 0.952771 0.068753
Si Si4 0.215705 0.268555 0.983519
Si Si5 0.000000 0.952265 0.000000
Si Si6 0.701432 0.069719 0.802612
Si Si7 0.786002 0.825703 0.662935
O O1 0.885848 0.070661 0.626174
O O2 0.649387 0.073147 0.566406
O O3 0.694252 0.028518 0.249735
O O4 0.703677 0.914008 0.505215
O O5 0.776961 0.233584 0.484771
O O6 0.000000 0.178766 0.500000
O O7 0.048605 0.232081 0.835709
O O8 0.500000 0.913551 0.000000
O O9 0.745844 0.859984 0.125047
O O10 0.624096 0.003176 0.869397
O O11 0.248275 0.302425 0.822992
O O12 0.295083 0.174143 0.114874
O O13 0.942649 0.874860 0.811048
O O14 0.860985 0.016477 0.931053
#
# Coordination Sequence:
#
# PCOD9124367 Si02
#       7
#     4   4   4   4   2   4   4
#     4  11  24  43  66 102 142 177 231 292 352 406
#     4  10  22  41  71 104 136 187 248 285 337 425
#     4  12  26  44  71 104 143 186 232 294 357 412
#     4  11  22  44  73 104 135 183 245 290 339 420
#     4  10  20  44  72  92 148 186 220 296 350 412
#     4  11  25  46  69 103 139 187 236 286 351 423
#     4  10  21  41  67 101 142 180 228 297 352 402
#
# _framework density 24.978988999999999
#
# number of rings (size 3 to 8) (size 9 to 14) (size 15 to 20)
#    0.000    1.231    3.077    4.615    5.385    0.615 
#    5.538    0.000    0.000    0.000    0.000    0.000 
#    0.000    0.000    0.000    0.000    0.000    0.000 
#
# Total GULP energy -72444.802591 kJ/mol
# GULP energy per Si atom -5572.677122 kJ/mol
# Density = 2.492214 g / cm^3
# Si number density = 24.978989 Si / 1000 Ang^3
#
#
#
# Elastic Constant Matrix: (Units=GPa)
#
#
# Indices 1 2 3 4 5 6 
#
# 1 72.2879 28.9151 8.2437 0.0000 -18.2896 0.0000
# 2 28.9151 131.9610 14.2346 0.0000 -14.6196 0.0000
# 3 8.2437 14.2346 69.0344 0.0000 -21.9329 0.0000
# 4 0.0000 0.0000 0.0000 45.3434 0.0000 -2.0215
# 5 -18.2896 -14.6196 -21.9329 0.0000 35.7224 0.0000
# 6 0.0000 0.0000 0.0000 -2.0215 0.0000 40.1578
#
#
#
# Elastic Compliance Matrix: (Units=1/GPa)
#
#
# Indices 1 2 3 4 5 6 
#
# 1 0.016947 -0.002932 0.001188 0.000000 0.008206 0.000000
# 2 -0.002932 0.008477 -0.000960 0.000000 0.001379 0.000000
# 3 0.001188 -0.000960 0.018151 0.000000 0.011360 0.000000
# 4 0.000000 0.000000 0.000000 0.022104 0.000000 0.001113
# 5 0.008206 0.001379 0.011360 0.000000 0.039734 0.000000
# 6 0.000000 0.000000 0.000000 0.001113 0.000000 0.024958
#
#
# Mechanical properties :
#
#
# Convention : Reuss Voigt Hill
#
# Bulk Modulus (GPa) = 26.20095 41.78557 33.99326
# Shear Modulus (GPa) = 33.66992 39.03738 36.35365
#
# Velocity S-wave (km/s) = 3.67540 3.95753 3.81907
# Velocity P-wave (km/s) = 5.34073 6.13574 5.75199
#
# Compressibility (1/GPa) = 0.03816655
#
# Stress axis : x y z
#
# Youngs Moduli (GPa) = 59.00635 117.96888 55.09449
#
# Poissons Ratio (x) = 0.34594 -0.06546
# Poissons Ratio (y) = 0.17304 0.05288
# Poissons Ratio (z) = -0.07011 0.11322
#
# Static dielectric constant tensor:
#      x y z
#    x 1.971950 0.000000 0.055190 
#    y 0.000000 1.928870 0.000000 
#    z 0.055190 0.000000 2.089890 
# 
# From -- ./inp_files/20466.got.cif
#   From: 2010.05.17/outbox.cif.g08.bks.cpg/sg5_11_cif.got.tgz:20466.got - 2010.06.03 18:56:24.
