data_PCOD9124529
_publ_section_title
;
Structure prediction by ZEFSAII (Michael W. Deem and Ramdas Pophale) SiO2 
 PCOD9124529
Probable space group: C 2
;
_chemical_formula_sum "Si O2"
_cell_formula_units_Z 28
_cell_length_a 21.622992
_cell_length_b 8.632800
_cell_length_c 20.463862
_cell_angle_alpha 90.000000
_cell_angle_beta 159.439726
_cell_angle_gamma 90.000000
_cell_volume 1341.529901
_symmetry_space_group_name_H-M "C 2"
_symmetry_group_IT_number 5
_symmetry_cell_setting 'monoclinic'
loop_
_space_group_symop_operation_xyz
x,y,z
-x,y,-z
1/2+x,1/2+y,z
1/2-x,1/2+y,-z
loop_
_atom_site_type_symbol
_atom_site_label
_atom_site_fract_x
_atom_site_fract_y
_atom_site_fract_z
Si Si1 0.800421 0.776430 0.639515
Si Si2 0.481824 0.870343 0.136878
Si Si3 0.384414 0.080877 0.165854
Si Si4 0.275565 0.536495 0.340807
Si Si5 0.167991 0.994575 0.754667
Si Si6 0.756546 0.124973 0.550341
Si Si7 0.278439 0.278035 0.951768
O O1 0.726155 0.713323 0.634162
O O2 0.723593 0.662776 0.507073
O O3 0.757304 0.947324 0.572295
O O4 0.012172 0.776859 0.852177
O O5 0.458445 0.975076 0.178666
O O6 0.591009 0.717354 0.262218
O O7 0.611394 0.959724 0.214928
O O8 0.291972 0.869957 0.913743
O O9 0.294122 0.952121 0.121413
O O10 0.552206 0.170681 0.360797
O O11 0.257936 0.202114 0.004088
O O12 0.460883 0.461609 0.545820
O O13 0.265715 0.520520 0.253579
O O14 0.192689 0.156206 0.817956
#
# Coordination Sequence:
#
# PCOD9124529 Si02
#       7
#     4   4   4   4   4   4   4
#     4  11  21  37  63  92 130 173 210 269 326 389
#     4  11  22  39  62  92 129 171 212 265 321 390
#     4  10  21  36  57  93 132 168 207 265 327 390
#     4  11  21  43  69  90 125 168 229 263 326 383
#     4  10  23  39  70  92 120 174 220 274 305 392
#     4  11  21  36  59  92 128 171 205 263 332 385
#     4  10  22  36  58  97 126 169 211 262 324 389
#
# _framework density 20.871693
#
# number of rings (size 3 to 8) (size 9 to 14) (size 15 to 20)
#    0.000    1.429    5.714    1.286    2.000    5.714 
#    0.000    0.000    6.286    1.714    0.000    0.000 
#    0.000    0.000    0.000    0.000    0.000    0.000 
#
# Total GULP energy -78141.296132 kJ/mol
# GULP energy per Si atom -5581.521152 kJ/mol
# Density = 2.082419 g / cm^3
# Si number density = 20.871693 Si / 1000 Ang^3
#
#
#
# Elastic Constant Matrix: (Units=GPa)
#
#
# Indices 1 2 3 4 5 6 
#
# 1 72.6523 10.6296 30.6452 -0.0001 -0.5737 0.0000
# 2 10.6296 44.0270 13.7902 -0.0001 -9.4754 0.0000
# 3 30.6452 13.7902 125.0994 -0.0003 -5.7946 -0.0002
# 4 -0.0001 -0.0001 -0.0003 42.6642 -0.0002 4.9156
# 5 -0.5737 -9.4754 -5.7946 -0.0002 29.6697 -0.0001
# 6 0.0000 0.0000 -0.0002 4.9156 -0.0001 20.1324
#
#
#
# Elastic Compliance Matrix: (Units=1/GPa)
#
#
# Indices 1 2 3 4 5 6 
#
# 1 0.015697 -0.002956 -0.003581 0.000000 -0.001340 0.000000
# 2 -0.002956 0.025650 -0.001742 0.000000 0.007794 0.000000
# 3 -0.003581 -0.001742 0.009117 0.000000 0.001155 0.000000
# 4 0.000000 0.000000 0.000000 0.024117 0.000000 -0.005889
# 5 -0.001340 0.007794 0.001155 0.000000 0.036393 0.000000
# 6 0.000000 0.000000 0.000000 -0.005889 0.000000 0.051109
#
#
# Mechanical properties :
#
#
# Convention : Reuss Voigt Hill
#
# Bulk Modulus (GPa) = 29.49545 39.10096 34.29821
# Shear Modulus (GPa) = 26.32351 30.94086 28.63218
#
# Velocity S-wave (km/s) = 3.55520 3.85441 3.70783
# Velocity P-wave (km/s) = 5.56912 6.21155 5.89908
#
# Compressibility (1/GPa) = 0.03390353
#
# Stress axis : x y z
#
# Youngs Moduli (GPa) = 63.70724 38.98593 109.69110
#
# Poissons Ratio (x) = 0.11526 0.39284
# Poissons Ratio (y) = 0.18834 0.19111
# Poissons Ratio (z) = 0.22816 0.06792
#
# Static dielectric constant tensor:
#      x y z
#    x 1.752490 0.000000 0.039220 
#    y 0.000000 1.781910 0.000000 
#    z 0.039220 0.000000 1.806700 
# 
# From -- ./inp_files/67393.got.cif
#   From: 2010.05.17/outbox.cif.g08.bks.cpg/sg5_34_cif.got.tgz:67393.got - 2010.06.03 18:56:24.
