data_PCOD9124414
_publ_section_title
;
Structure prediction by ZEFSAII (Michael W. Deem and Ramdas Pophale) SiO2 
 PCOD9124414
Probable space group: C 2
;
_chemical_formula_sum "Si O2"
_cell_formula_units_Z 24
_cell_length_a 11.896217
_cell_length_b 8.281764
_cell_length_c 9.555572
_cell_angle_alpha 90.000000
_cell_angle_beta 97.945182
_cell_angle_gamma 90.000000
_cell_volume 932.393821
_symmetry_space_group_name_H-M "C 2"
_symmetry_group_IT_number 5
_symmetry_cell_setting 'monoclinic'
loop_
_space_group_symop_operation_xyz
x,y,z
-x,y,-z
1/2+x,1/2+y,z
1/2-x,1/2+y,-z
loop_
_atom_site_type_symbol
_atom_site_label
_atom_site_fract_x
_atom_site_fract_y
_atom_site_fract_z
Si Si1 0.807440 0.349540 0.808320
Si Si2 0.524730 0.482042 0.281739
Si Si3 0.843428 0.842226 0.468461
Si Si4 0.000000 0.783048 0.000000
Si Si5 0.787546 0.559679 0.042957
Si Si6 0.950192 0.347240 0.226256
Si Si7 0.500000 0.057575 0.500000
O O1 0.771671 0.342851 0.639485
O O2 0.789999 0.173245 0.874267
O O3 0.938369 0.397906 0.841443
O O4 0.742415 0.484441 0.890160
O O5 0.431737 0.388479 0.359835
O O6 0.636956 0.462849 0.398865
O O7 0.537252 0.393486 0.136762
O O8 0.476565 0.661192 0.258774
O O9 0.892765 0.669865 0.526296
O O10 0.894844 0.674925 0.031510
O O11 0.835778 0.401464 0.130783
O O12 0.955776 0.448474 0.368117
#
# Coordination Sequence:
#
# PCOD9124414 Si02
#       7
#     4   4   4   2   4   4   2
#     4  12  27  45  73 108 146 196 253 303 379 458
#     4  10  24  41  74 102 145 190 242 304 378 428
#     4  10  22  47  68 101 150 192 236 312 369 442
#     4  12  22  48  74 100 148 198 236 324 370 426
#     4  12  27  47  70 110 148 191 255 308 375 444
#     4  12  25  46  74 107 145 198 246 315 372 446
#     4  10  20  46  74  96 150 194 242 310 380 430
#
# _framework density 25.740197999999999
#
# number of rings (size 3 to 8) (size 9 to 14) (size 15 to 20)
#    0.000    1.000    5.000    2.000    7.000    1.333 
#    0.000    0.000    0.000    0.000    0.000    0.000 
#    0.000    0.000    0.000    0.000    0.000    0.000 
#
# Total GULP energy -67218.414625 kJ/mol
# GULP energy per Si atom -5601.534552 kJ/mol
# Density = 2.568161 g / cm^3
# Si number density = 25.740198 Si / 1000 Ang^3
#
#
#
# Elastic Constant Matrix: (Units=GPa)
#
#
# Indices 1 2 3 4 5 6 
#
# 1 55.6049 7.2457 12.4476 0.0000 13.6922 0.0000
# 2 7.2457 140.9754 51.1234 0.0000 12.6299 0.0000
# 3 12.4476 51.1234 161.2287 0.0000 33.6843 0.0000
# 4 0.0000 0.0000 0.0000 50.3214 0.0000 -0.2336
# 5 13.6922 12.6299 33.6843 0.0000 41.5069 0.0000
# 6 0.0000 0.0000 0.0000 -0.2336 0.0000 37.9170
#
#
#
# Elastic Compliance Matrix: (Units=1/GPa)
#
#
# Indices 1 2 3 4 5 6 
#
# 1 0.019601 -0.000420 -0.000067 0.000000 -0.006283 0.000000
# 2 -0.000420 0.008031 -0.002448 0.000000 -0.000319 0.000000
# 3 -0.000067 -0.002448 0.008216 0.000000 -0.005901 0.000000
# 4 0.000000 0.000000 0.000000 0.019873 0.000000 0.000122
# 5 -0.006283 -0.000319 -0.005901 0.000000 0.031051 0.000000
# 6 0.000000 0.000000 0.000000 0.000122 0.000000 0.026374
#
#
# Mechanical properties :
#
#
# Convention : Reuss Voigt Hill
#
# Bulk Modulus (GPa) = 33.35677 55.49360 44.42518
# Shear Modulus (GPa) = 38.75679 45.08188 41.91934
#
# Velocity S-wave (km/s) = 3.88453 4.18954 4.03991
# Velocity P-wave (km/s) = 5.75384 6.70887 6.24962
#
# Compressibility (1/GPa) = 0.02997893
#
# Stress axis : x y z
#
# Youngs Moduli (GPa) = 51.01754 124.51490 121.70650
#
# Poissons Ratio (x) = 0.05231 0.00819
# Poissons Ratio (y) = 0.02143 0.29788
# Poissons Ratio (z) = 0.00344 0.30475
#
# Static dielectric constant tensor:
#      x y z
#    x 2.085570 0.000000 0.026840 
#    y 0.000000 2.019000 0.000000 
#    z 0.026840 0.000000 2.057280 
# 
# From -- ./inp_files/22922.got.cif
#   From: 2010.05.17/outbox.cif.g08.bks.cpg/sg5_12_cif.got.tgz:22922.got - 2010.06.03 18:56:24.
