data_PCOD9124379
_publ_section_title
;
Structure prediction by ZEFSAII (Michael W. Deem and Ramdas Pophale) SiO2 
 PCOD9124379
Probable space group: C 2
;
_chemical_formula_sum "Si O2"
_cell_formula_units_Z 26
_cell_length_a 6.074044
_cell_length_b 20.176199
_cell_length_c 11.496333
_cell_angle_alpha 90.000000
_cell_angle_beta 56.309236
_cell_angle_gamma 90.000000
_cell_volume 1172.256583
_symmetry_space_group_name_H-M "C 2"
_symmetry_group_IT_number 5
_symmetry_cell_setting 'monoclinic'
loop_
_space_group_symop_operation_xyz
x,y,z
-x,y,-z
1/2+x,1/2+y,z
1/2-x,1/2+y,-z
loop_
_atom_site_type_symbol
_atom_site_label
_atom_site_fract_x
_atom_site_fract_y
_atom_site_fract_z
Si Si1 0.277489 0.907670 0.852898
Si Si2 0.248566 0.002663 0.649870
Si Si3 0.500000 0.829531 0.000000
Si Si4 0.500000 0.240330 0.500000
Si Si5 0.000000 0.031021 0.500000
Si Si6 0.959082 0.716543 0.876756
Si Si7 0.488423 0.124015 0.674150
Si Si8 0.953742 0.290882 0.649485
O O1 0.474598 0.879000 0.895837
O O2 0.311237 0.854336 0.741810
O O3 0.271267 0.973117 0.773206
O O4 0.000000 0.905668 0.000000
O O5 0.500000 0.980148 0.500000
O O6 0.026918 0.991541 0.615138
O O7 0.271792 0.081790 0.666056
O O8 0.751889 0.778254 0.922619
O O9 0.567853 0.190217 0.582729
O O10 0.752811 0.281399 0.386579
O O11 0.256894 0.076529 0.402112
O O12 0.878635 0.651517 0.827872
O O13 0.254510 0.733598 0.745279
O O14 0.000000 0.704216 0.000000
O O15 0.000000 0.296069 0.500000
#
# Coordination Sequence:
#
# PCOD9124379 Si02
#       8
#     4   4   2   2   2   4   4   4
#     4  12  26  48  67  99 149 190 251 294 353 435
#     4  10  24  46  69 104 137 190 246 298 355 428
#     4  12  24  48  74  92 154 204 226 312 358 420
#     4  12  22  38  75 104 145 176 234 304 364 422
#     4  10  20  44  77  98 147 180 238 302 372 402
#     4  12  25  44  68 105 150 187 241 295 366 435
#     4  11  22  41  68 106 140 184 233 298 360 437
#     4  12  24  41  69 105 136 187 241 299 361 426
#
# _framework density 22.179445000000001
#
# number of rings (size 3 to 8) (size 9 to 14) (size 15 to 20)
#    0.000    0.615    6.923    2.308    0.000    2.462 
#    5.538    3.846    0.000    0.000    0.000    0.000 
#    0.000    0.000    0.000    0.000    0.000    0.000 
#
# Total GULP energy -72417.918447 kJ/mol
# GULP energy per Si atom -5570.609111 kJ/mol
# Density = 2.212896 g / cm^3
# Si number density = 22.179445 Si / 1000 Ang^3
#
#
#
# Elastic Constant Matrix: (Units=GPa)
#
#
# Indices 1 2 3 4 5 6 
#
# 1 79.9556 17.3507 44.1737 0.0000 13.5861 0.0000
# 2 17.3507 53.7002 36.8015 0.0000 9.2755 0.0000
# 3 44.1737 36.8015 161.9948 0.0000 25.7163 0.0000
# 4 0.0000 0.0000 0.0000 40.1640 0.0000 21.4708
# 5 13.5861 9.2755 25.7163 0.0000 50.9434 0.0000
# 6 0.0000 0.0000 0.0000 21.4708 0.0000 22.1855
#
#
#
# Elastic Compliance Matrix: (Units=1/GPa)
#
#
# Indices 1 2 3 4 5 6 
#
# 1 0.015163 -0.002298 -0.003302 0.000000 -0.001959 0.000000
# 2 -0.002298 0.022527 -0.004280 0.000000 -0.001328 0.000000
# 3 -0.003302 -0.004280 0.008460 0.000000 -0.002611 0.000000
# 4 0.000000 0.000000 0.000000 0.051586 0.000000 -0.049924
# 5 -0.001959 -0.001328 -0.002611 0.000000 0.021712 0.000000
# 6 0.000000 0.000000 0.000000 -0.049924 0.000000 0.093390
#
#
# Mechanical properties :
#
#
# Convention : Reuss Voigt Hill
#
# Bulk Modulus (GPa) = 37.89310 54.70027 46.29669
# Shear Modulus (GPa) = 20.71299 35.81358 28.26328
#
# Velocity S-wave (km/s) = 3.05926 4.02272 3.57361
# Velocity P-wave (km/s) = 5.44065 6.80386 6.16008
#
# Compressibility (1/GPa) = 0.02639003
#
# Stress axis : x y z
#
# Youngs Moduli (GPa) = 65.95211 44.39103 118.20113
#
# Poissons Ratio (x) = 0.10202 0.39025
# Poissons Ratio (y) = 0.15157 0.50592
# Poissons Ratio (z) = 0.21775 0.19000
#
# Static dielectric constant tensor:
#      x y z
#    x 1.975240 0.000000 0.014210 
#    y 0.000000 1.851710 0.000000 
#    z 0.014210 0.000000 1.911720 
# 
# From -- ./inp_files/33893.got.cif
#   From: 2010.05.17/outbox.cif.g08.bks.cpg/sg5_17_cif.got.tgz:33893.got - 2010.06.03 18:56:24.
