data_PCOD9124555
_publ_section_title
;
Structure prediction by ZEFSAII (Michael W. Deem and Ramdas Pophale) SiO2 
 PCOD9124555
Probable space group: C 2
;
_chemical_formula_sum "Si O2"
_cell_formula_units_Z 28
_cell_length_a 22.257446
_cell_length_b 11.919778
_cell_length_c 11.401181
_cell_angle_alpha 90.000000
_cell_angle_beta 152.324540
_cell_angle_gamma 90.000000
_cell_volume 1404.896266
_symmetry_space_group_name_H-M "C 2"
_symmetry_group_IT_number 5
_symmetry_cell_setting 'monoclinic'
loop_
_space_group_symop_operation_xyz
x,y,z
-x,y,-z
1/2+x,1/2+y,z
1/2-x,1/2+y,-z
loop_
_atom_site_type_symbol
_atom_site_label
_atom_site_fract_x
_atom_site_fract_y
_atom_site_fract_z
Si Si1 0.482452 0.297300 0.599450
Si Si2 0.205783 0.397436 0.137347
Si Si3 0.806420 0.072519 0.500274
Si Si4 0.042054 0.904575 0.950916
Si Si5 0.960814 0.539117 0.304256
Si Si6 0.545168 0.777691 0.203295
Si Si7 0.683334 0.993696 0.498386
O O1 0.500000 0.352186 0.500000
O O2 0.328068 0.314751 0.346447
O O3 0.537303 0.344899 0.816654
O O4 0.545398 0.173931 0.698986
O O5 0.233847 0.497226 0.279333
O O6 0.164606 0.469809 0.952762
O O7 0.083034 0.320748 0.955335
O O8 0.867370 0.191486 0.572521
O O9 0.717146 0.087631 0.460892
O O10 0.931317 0.999151 0.751678
O O11 0.183581 0.956874 0.211274
O O12 0.000000 0.841168 0.000000
O O13 0.000000 0.497621 0.500000
O O14 0.073808 0.520357 0.403275
O O15 0.631933 0.887883 0.334359
O O16 0.500000 0.729669 0.000000
#
# Coordination Sequence:
#
# PCOD9124555 Si02
#       7
#     4   4   4   4   4   4   4
#     4  10  23  42  65  89 120 169 204 253 310 362
#     4  10  23  43  59  92 127 151 210 255 294 378
#     4  10  21  37  61  93 122 159 199 254 313 362
#     4   9  20  37  58  94 121 154 209 251 311 367
#     4  10  24  41  59  87 121 166 202 254 308 357
#     4  11  21  36  62  91 127 162 193 248 313 364
#     4  10  21  36  60  89 124 157 201 255 303 366
#
# _framework density 19.930296999999999
#
# number of rings (size 3 to 8) (size 9 to 14) (size 15 to 20)
#    0.000    2.000    1.429    1.286    8.000    0.000 
#    0.000    0.000    0.000    7.714    0.000    0.000 
#    0.000    0.000    0.000    0.000    0.000    0.000 
#
# Total GULP energy -77955.411810 kJ/mol
# GULP energy per Si atom -5568.243701 kJ/mol
# Density = 1.988493 g / cm^3
# Si number density = 19.930297 Si / 1000 Ang^3
#
#
#
# Elastic Constant Matrix: (Units=GPa)
#
#
# Indices 1 2 3 4 5 6 
#
# 1 52.2241 -1.2592 -3.1301 0.0000 -18.0074 0.0000
# 2 -1.2592 41.4903 -4.0152 0.0000 -5.3627 0.0000
# 3 -3.1301 -4.0152 46.0433 0.0000 -10.6946 0.0000
# 4 0.0000 0.0000 0.0000 22.2861 0.0000 -2.7383
# 5 -18.0074 -5.3627 -10.6946 0.0000 31.1043 0.0000
# 6 0.0000 0.0000 0.0000 -2.7383 0.0000 18.3659
#
#
#
# Elastic Compliance Matrix: (Units=1/GPa)
#
#
# Indices 1 2 3 4 5 6 
#
# 1 0.025678 0.003651 0.006155 0.000000 0.017612 0.000000
# 2 0.003651 0.025673 0.004354 0.000000 0.008037 0.000000
# 3 0.006155 0.004354 0.025560 0.000000 0.013102 0.000000
# 4 0.000000 0.000000 0.000000 0.045708 0.000000 0.006815
# 5 0.017612 0.008037 0.013102 0.000000 0.048237 0.000000
# 6 0.000000 0.000000 0.000000 0.006815 0.000000 0.055465
#
#
# Mechanical properties :
#
#
# Convention : Reuss Voigt Hill
#
# Bulk Modulus (GPa) = 9.50294 13.66097 11.58196
# Shear Modulus (GPa) = 21.45208 24.22875 22.84041
#
# Velocity S-wave (km/s) = 3.28434 3.49043 3.38896
# Velocity P-wave (km/s) = 4.37733 4.80764 4.59752
#
# Compressibility (1/GPa) = 0.10523056
#
# Stress axis : x y z
#
# Youngs Moduli (GPa) = 38.94412 38.95144 39.12354
#
# Poissons Ratio (x) = -0.14222 -0.24080
# Poissons Ratio (y) = -0.14219 -0.17034
# Poissons Ratio (z) = -0.23969 -0.16959
#
# Static dielectric constant tensor:
#      x y z
#    x 1.743590 0.000000 -0.018120 
#    y 0.000000 1.738990 0.000000 
#    z -0.018120 0.000000 1.713140 
# 
# From -- ./inp_files/46423.got.cif
#   From: 2010.05.17/outbox.cif.g08.bks.cpg/sg5_24_cif.got.tgz:46423.got - 2010.06.03 18:56:24.
