data_PCOD9124815
_publ_section_title
;
Structure prediction by ZEFSAII (Michael W. Deem and Ramdas Pophale) SiO2 
 PCOD9124815
Probable space group: C 2
;
_chemical_formula_sum "Si O2"
_cell_formula_units_Z 20
_cell_length_a 7.062730
_cell_length_b 10.567833
_cell_length_c 11.426885
_cell_angle_alpha 90.000000
_cell_angle_beta 94.244033
_cell_angle_gamma 90.000000
_cell_volume 850.538323
_symmetry_space_group_name_H-M "C 2"
_symmetry_group_IT_number 5
_symmetry_cell_setting 'monoclinic'
loop_
_space_group_symop_operation_xyz
x,y,z
-x,y,-z
1/2+x,1/2+y,z
1/2-x,1/2+y,-z
loop_
_atom_site_type_symbol
_atom_site_label
_atom_site_fract_x
_atom_site_fract_y
_atom_site_fract_z
Si Si1 0.686327 0.229740 0.471362
Si Si2 0.789184 0.271519 0.104102
Si Si3 0.197762 0.989779 0.935758
Si Si4 0.039210 0.917357 0.276219
Si Si5 0.960957 0.192903 0.679617
O O1 0.500000 0.148596 0.500000
O O2 0.586109 0.343878 0.396635
O O3 0.810350 0.264406 0.591371
O O4 0.847105 0.174371 0.390767
O O5 0.727015 0.132918 0.057824
O O6 0.634370 0.327580 0.184911
O O7 0.972319 0.252454 0.195648
O O8 0.802642 0.376202 0.004854
O O9 0.156663 0.953281 0.798539
O O10 0.000000 0.001617 0.000000
O O11 0.128109 0.056336 0.296646
#
# Coordination Sequence:
#
# PCOD9124815 Si02
#       5
#     4   4   4   4   4
#     4  10  21  38  63  93 125 171 217 256 328 380
#     4   9  18  38  66  92 126 178 210 268 328 383
#     4   9  18  37  64  89 130 170 215 264 327 381
#     4   9  19  39  64  85 131 170 206 279 319 373
#     4   9  20  41  63  94 133 166 216 269 319 383
#
# _framework density 23.514517999999999
#
# number of rings (size 3 to 8) (size 9 to 14) (size 15 to 20)
#    0.000    2.800    0.000    0.000    2.800    0.000 
#   18.000    3.000   13.200    0.000    0.000    0.000 
#    0.000    0.000    0.000    0.000    0.000    0.000 
#
# Total GULP energy -55697.818658 kJ/mol
# GULP energy per Si atom -5569.781866 kJ/mol
# Density = 2.346100 g / cm^3
# Si number density = 23.514518 Si / 1000 Ang^3
#
#
#
# Elastic Constant Matrix: (Units=GPa)
#
#
# Indices 1 2 3 4 5 6 
#
# 1 93.1376 37.9911 21.4928 0.0000 6.4364 0.0000
# 2 37.9911 172.8886 91.2376 0.0000 19.5930 0.0000
# 3 21.4928 91.2376 158.3127 0.0000 35.0315 0.0000
# 4 0.0000 0.0000 0.0000 35.9182 0.0000 2.7056
# 5 6.4364 19.5930 35.0315 0.0000 29.9399 0.0000
# 6 0.0000 0.0000 0.0000 2.7056 0.0000 19.2225
#
#
#
# Elastic Compliance Matrix: (Units=1/GPa)
#
#
# Indices 1 2 3 4 5 6 
#
# 1 0.011817 -0.002520 0.000061 0.000000 -0.000963 0.000000
# 2 -0.002520 0.008850 -0.004853 0.000000 0.000429 0.000000
# 3 0.000061 -0.004853 0.011342 0.000000 -0.010108 0.000000
# 4 0.000000 0.000000 0.000000 0.028139 0.000000 -0.003961
# 5 -0.000963 0.000429 -0.010108 0.000000 0.045154 0.000000
# 6 0.000000 0.000000 0.000000 -0.003961 0.000000 0.052580
#
#
# Mechanical properties :
#
#
# Convention : Reuss Voigt Hill
#
# Bulk Modulus (GPa) = 57.52039 80.64244 69.08141
# Shear Modulus (GPa) = 28.04231 35.25728 31.64980
#
# Velocity S-wave (km/s) = 3.45708 3.87639 3.67272
# Velocity P-wave (km/s) = 6.36003 7.37593 6.88674
#
# Compressibility (1/GPa) = 0.01738514
#
# Stress axis : x y z
#
# Youngs Moduli (GPa) = 84.62310 112.98858 88.16699
#
# Poissons Ratio (x) = 0.28470 -0.00537
# Poissons Ratio (y) = 0.21323 0.42791
# Poissons Ratio (z) = -0.00515 0.54838
#
# Static dielectric constant tensor:
#      x y z
#    x 1.972840 0.000000 -0.029910 
#    y 0.000000 1.882990 0.000000 
#    z -0.029910 0.000000 1.966100 
# 
# From -- ./inp_files/34797.got.cif
#   From: 2010.05.17/outbox.cif.g08.bks.cpg/sg5_18_cif.got.tgz:34797.got - 2010.06.03 18:56:24.
