data_PCOD9124994
_publ_section_title
;
Structure prediction by ZEFSAII (Michael W. Deem and Ramdas Pophale) SiO2 
 PCOD9124994
Probable space group: C 2
;
_chemical_formula_sum "Si O2"
_cell_formula_units_Z 26
_cell_length_a 11.536457
_cell_length_b 8.867252
_cell_length_c 16.220174
_cell_angle_alpha 90.000000
_cell_angle_beta 124.793515
_cell_angle_gamma 90.000000
_cell_volume 1362.615266
_symmetry_space_group_name_H-M "C 2"
_symmetry_group_IT_number 5
_symmetry_cell_setting 'monoclinic'
loop_
_space_group_symop_operation_xyz
x,y,z
-x,y,-z
1/2+x,1/2+y,z
1/2-x,1/2+y,-z
loop_
_atom_site_type_symbol
_atom_site_label
_atom_site_fract_x
_atom_site_fract_y
_atom_site_fract_z
Si Si1 0.276536 0.445520 0.366712
Si Si2 0.500000 0.198369 0.500000
Si Si3 0.500250 0.946988 0.638658
Si Si4 0.000000 0.775320 0.000000
Si Si5 0.858236 0.496219 0.025531
Si Si6 0.500000 0.698174 0.500000
Si Si7 0.667583 0.849551 0.151509
Si Si8 0.281452 0.499658 0.852851
O O1 0.363865 0.304816 0.438307
O O2 0.366792 0.592015 0.426716
O O3 0.259670 0.418657 0.262384
O O4 0.122559 0.453035 0.343945
O O5 0.492507 0.092718 0.576766
O O6 0.477660 0.804614 0.569816
O O7 0.652028 0.946073 0.743921
O O8 0.909495 0.882090 0.903757
O O9 0.100679 0.662906 0.989621
O O10 0.771282 0.501797 0.073706
O O11 0.006950 0.408155 0.098466
O O12 0.786070 0.412147 0.919008
O O13 0.674537 0.668761 0.154255
#
# Coordination Sequence:
#
# PCOD9124994 Si02
#       8
#     4   2   4   2   4   2   4   4
#     4  11  21  43  64  88 123 162 202 249 309 359
#     4  10  22  42  62  90 122 156 206 254 304 358
#     4  11  23  39  65  91 121 161 200 256 305 357
#     4  10  24  38  60  90 122 158 198 246 292 364
#     4  10  23  42  60  87 126 157 203 250 298 365
#     4  10  26  40  62  92 124 156 210 254 298 364
#     4  10  21  39  64  89 119 162 200 247 302 364
#     4  12  22  40  64  91 123 160 201 247 307 356
#
# _framework density 19.080953999999998
#
# number of rings (size 3 to 8) (size 9 to 14) (size 15 to 20)
#    0.000    1.538    3.077    2.769    4.308    0.000 
#    0.000    1.538    0.000    0.000    0.000    0.000 
#    0.000    0.000    0.000    0.000    0.000    0.000 
#
# Total GULP energy -72643.436412 kJ/mol
# GULP energy per Si atom -5587.956647 kJ/mol
# Density = 1.903752 g / cm^3
# Si number density = 19.080954 Si / 1000 Ang^3
#
#
#
# Elastic Constant Matrix: (Units=GPa)
#
#
# Indices 1 2 3 4 5 6 
#
# 1 26.0605 17.4291 13.6156 0.0000 4.5146 0.0000
# 2 17.4291 122.0927 42.7600 0.0000 10.7034 0.0000
# 3 13.6156 42.7600 119.9172 0.0000 11.1302 0.0000
# 4 0.0000 0.0000 0.0000 61.7713 0.0000 13.3575
# 5 4.5146 10.7034 11.1302 0.0000 34.2230 0.0000
# 6 0.0000 0.0000 0.0000 13.3575 0.0000 12.5800
#
#
#
# Elastic Compliance Matrix: (Units=1/GPa)
#
#
# Indices 1 2 3 4 5 6 
#
# 1 0.043763 -0.004943 -0.002901 0.000000 -0.003283 0.000000
# 2 -0.004943 0.010039 -0.002874 0.000000 -0.001553 0.000000
# 3 -0.002901 -0.002874 0.009872 0.000000 -0.001929 0.000000
# 4 0.000000 0.000000 0.000000 0.021014 0.000000 -0.022312
# 5 -0.003283 -0.001553 -0.001929 0.000000 0.030766 0.000000
# 6 0.000000 0.000000 0.000000 -0.022312 0.000000 0.103182
#
#
# Mechanical properties :
#
#
# Convention : Reuss Voigt Hill
#
# Bulk Modulus (GPa) = 23.67631 46.18664 34.93148
# Shear Modulus (GPa) = 19.67318 34.66594 27.16956
#
# Velocity S-wave (km/s) = 3.21446 4.26700 3.77757
# Velocity P-wave (km/s) = 5.11979 6.96667 6.11338
#
# Compressibility (1/GPa) = 0.04223631
#
# Stress axis : x y z
#
# Youngs Moduli (GPa) = 22.85038 99.61213 101.29160
#
# Poissons Ratio (x) = 0.49241 0.29390
# Poissons Ratio (y) = 0.11296 0.29114
# Poissons Ratio (z) = 0.06630 0.28631
#
# Static dielectric constant tensor:
#      x y z
#    x 1.622330 0.000000 -0.001970 
#    y 0.000000 1.649860 0.000000 
#    z -0.001970 0.000000 1.653730 
# 
# From -- ./inp_files/38404.got.cif
#   From: 2010.05.17/outbox.cif.g08.bks.cpg/sg5_20_cif.got.tgz:38404.got - 2010.06.03 18:56:24.
