data_PCOD9124658
_publ_section_title
;
Structure prediction by ZEFSAII (Michael W. Deem and Ramdas Pophale) SiO2 
 PCOD9124658
Probable space group: C 2
;
_chemical_formula_sum "Si O2"
_cell_formula_units_Z 20
_cell_length_a 23.945261
_cell_length_b 4.965275
_cell_length_c 7.410879
_cell_angle_alpha 90.000000
_cell_angle_beta 58.775894
_cell_angle_gamma 90.000000
_cell_volume 753.482192
_symmetry_space_group_name_H-M "C 2"
_symmetry_group_IT_number 5
_symmetry_cell_setting 'monoclinic'
loop_
_space_group_symop_operation_xyz
x,y,z
-x,y,-z
1/2+x,1/2+y,z
1/2-x,1/2+y,-z
loop_
_atom_site_type_symbol
_atom_site_label
_atom_site_fract_x
_atom_site_fract_y
_atom_site_fract_z
Si Si1 0.119162 0.439030 0.957539
Si Si2 0.272451 0.303368 0.363814
Si Si3 0.825135 0.500133 0.739255
Si Si4 0.958794 0.935117 0.838642
Si Si5 0.904261 0.009920 0.524560
O O1 0.162029 0.447125 0.071423
O O2 0.056906 0.628017 0.093584
O O3 0.089127 0.144927 0.979047
O O4 0.163737 0.617796 0.751595
O O5 0.276284 0.587927 0.460051
O O6 0.244412 0.398084 0.216580
O O7 0.844617 0.797784 0.641928
O O8 0.877495 0.308663 0.553799
O O9 0.936060 0.982159 0.670256
O O10 0.036466 0.968437 0.712600
#
# Coordination Sequence:
#
# PCOD9124658 Si02
#       5
#     4   4   4   4   4
#     4  10  21  37  61  89 119 159 205 250 298 363
#     4  12  26  42  60  86 128 170 206 254 310 364
#     4  10  21  37  61  89 119 159 205 250 298 363
#     4   9  17  32  58  92 122 148 191 254 311 356
#     4   9  17  32  58  92 122 148 191 254 311 356
#
# _framework density 26.543429
#
# number of rings (size 3 to 8) (size 9 to 14) (size 15 to 20)
#    0.000    2.000    0.000    3.600    0.000   11.200 
#    0.000    0.000    0.000   18.000    0.000    0.000 
#    0.000    0.000    0.000    0.000    0.000    0.000 
#
# Total GULP energy -55937.724947 kJ/mol
# GULP energy per Si atom -5593.772495 kJ/mol
# Density = 2.648302 g / cm^3
# Si number density = 26.543429 Si / 1000 Ang^3
#
#
#
# Elastic Constant Matrix: (Units=GPa)
#
#
# Indices 1 2 3 4 5 6 
#
# 1 74.9117 15.6664 22.2206 0.0000 30.7368 0.0000
# 2 15.6664 135.5659 7.8346 0.0000 9.0262 0.0000
# 3 22.2206 7.8346 50.8896 0.0000 -10.5960 0.0000
# 4 0.0000 0.0000 0.0000 40.2186 0.0000 0.6808
# 5 30.7368 9.0262 -10.5960 0.0000 35.5190 0.0000
# 6 0.0000 0.0000 0.0000 0.6808 0.0000 18.7196
#
#
#
# Elastic Compliance Matrix: (Units=1/GPa)
#
#
# Indices 1 2 3 4 5 6 
#
# 1 0.036150 -0.000257 -0.023718 0.000000 -0.038293 0.000000
# 2 -0.000257 0.007638 -0.001516 0.000000 -0.002171 0.000000
# 3 -0.023718 -0.001516 0.036885 0.000000 0.031914 0.000000
# 4 0.000000 0.000000 0.000000 0.024879 0.000000 -0.000905
# 5 -0.038293 -0.002171 0.031914 0.000000 0.071364 0.000000
# 6 0.000000 0.000000 0.000000 -0.000905 0.000000 0.053453
#
#
# Mechanical properties :
#
#
# Convention : Reuss Voigt Hill
#
# Bulk Modulus (GPa) = 33.67997 39.20115 36.44056
# Shear Modulus (GPa) = 17.16741 33.26780 25.21761
#
# Velocity S-wave (km/s) = 2.54592 3.54409 3.08563
# Velocity P-wave (km/s) = 4.62152 5.61677 5.14328
#
# Compressibility (1/GPa) = 0.02969123
#
# Stress axis : x y z
#
# Youngs Moduli (GPa) = 27.66226 130.91877 27.11118
#
# Poissons Ratio (x) = 0.03368 0.64304
# Poissons Ratio (y) = 0.00712 0.04109
# Poissons Ratio (z) = 0.65611 0.19841
#
# Static dielectric constant tensor:
#      x y z
#    x 2.116790 0.000000 0.025550 
#    y 0.000000 1.937080 0.000000 
#    z 0.025550 0.000000 2.138220 
# 
# From -- ./inp_files/31343.got.cif
#   From: 2010.05.17/outbox.cif.g08.bks.cpg/sg5_16_cif.got.tgz:31343.got - 2010.06.03 18:56:24.
