data_PCOD9124394
_publ_section_title
;
Structure prediction by ZEFSAII (Michael W. Deem and Ramdas Pophale) SiO2 
 PCOD9124394
Probable space group: C 2
;
_chemical_formula_sum "Si O2"
_cell_formula_units_Z 24
_cell_length_a 15.246128
_cell_length_b 13.665002
_cell_length_c 11.722936
_cell_angle_alpha 90.000000
_cell_angle_beta 27.254963
_cell_angle_gamma 90.000000
_cell_volume 1118.470649
_symmetry_space_group_name_H-M "C 2"
_symmetry_group_IT_number 5
_symmetry_cell_setting 'monoclinic'
loop_
_space_group_symop_operation_xyz
x,y,z
-x,y,-z
1/2+x,1/2+y,z
1/2-x,1/2+y,-z
loop_
_atom_site_type_symbol
_atom_site_label
_atom_site_fract_x
_atom_site_fract_y
_atom_site_fract_z
Si Si1 0.500000 0.892951 0.000000
Si Si2 0.353767 0.786803 0.385586
Si Si3 0.160566 0.069816 0.548205
Si Si4 0.389591 0.062100 0.971029
Si Si5 0.086231 0.437981 0.275065
Si Si6 0.993023 0.888970 0.142984
Si Si7 0.500000 0.586956 0.500000
O O1 0.389244 0.827315 0.218531
O O2 0.370324 0.962061 0.068657
O O3 0.417172 0.675647 0.326970
O O4 0.459092 0.857159 0.355526
O O5 0.129307 0.799199 0.669069
O O6 0.051730 0.036911 0.559550
O O7 0.121080 0.986824 0.686178
O O8 0.387044 0.084759 0.264119
O O9 0.212480 0.130128 0.218602
O O10 0.388227 0.030437 0.839800
O O11 0.000000 0.460864 0.500000
O O12 0.295728 0.394501 0.052514
O O13 0.000000 0.884721 0.000000
#
# Coordination Sequence:
#
# PCOD9124394 Si02
#       7
#     2   4   4   4   4   4   2
#     4  10  20  46  62  92 128 168 214 266 320 386
#     4  11  26  42  67  97 133 170 219 274 321 393
#     4  12  25  41  66 103 128 174 218 275 324 384
#     4  11  21  41  70  93 129 172 218 266 330 387
#     4  11  22  43  66  93 130 176 219 264 325 393
#     4  12  23  44  70  91 133 178 217 266 332 384
#     4  12  22  38  68  96 132 166 218 266 328 394
#
# _framework density 21.457871999999998
#
# number of rings (size 3 to 8) (size 9 to 14) (size 15 to 20)
#    0.000    0.667    8.333    0.000    2.333    2.667 
#    0.000    0.000    0.000    0.000    0.000    0.000 
#    0.000    0.000    0.000    0.000    0.000    0.000 
#
# Total GULP energy -66907.669932 kJ/mol
# GULP energy per Si atom -5575.639161 kJ/mol
# Density = 2.140903 g / cm^3
# Si number density = 21.457872 Si / 1000 Ang^3
#
#
#
# Elastic Constant Matrix: (Units=GPa)
#
#
# Indices 1 2 3 4 5 6 
#
# 1 121.1335 11.1033 43.3560 -0.0007 15.5900 0.0003
# 2 11.1033 67.9230 10.1346 -0.0006 22.2610 0.0004
# 3 43.3560 10.1346 125.8213 -0.0017 3.8627 0.0014
# 4 -0.0007 -0.0006 -0.0017 4.3820 0.0012 -5.4487
# 5 15.5900 22.2610 3.8627 0.0012 56.3242 -0.0007
# 6 0.0003 0.0004 0.0014 -5.4487 -0.0007 4.8869
#
#
#
# Elastic Compliance Matrix: (Units=1/GPa)
#
#
# Indices 1 2 3 4 5 6 
#
# 1 0.009756 -0.000340 -0.003262 -0.000002 -0.002342 -0.000002
# 2 -0.000340 0.017096 -0.001057 -0.000004 -0.006590 -0.000006
# 3 -0.003262 -0.001057 0.009136 0.000000 0.000694 -0.000002
# 4 -0.000002 -0.000004 0.000000 -0.590592 0.000006 -0.658495
# 5 -0.002342 -0.006590 0.000694 0.000006 0.020960 0.000010
# 6 -0.000002 -0.000006 -0.000002 -0.658495 0.000010 -0.529575
#
#
# Mechanical properties :
#
#
# Convention : Reuss Voigt Hill
#
# Bulk Modulus (GPa) = 37.49964 49.34061 43.42013
# Shear Modulus (GPa) = -4.78464 29.80421 12.50979
#
# Velocity S-wave (km/s) = -1.49487 3.73092 2.41714
# Velocity P-wave (km/s) = 3.81240 6.45010 5.29803
#
# Compressibility (1/GPa) = 0.02666692
#
# Stress axis : x y z
#
# Youngs Moduli (GPa) = 102.50498 58.49393 109.45981
#
# Poissons Ratio (x) = 0.01991 0.35709
# Poissons Ratio (y) = 0.03489 0.11574
# Poissons Ratio (z) = 0.33440 0.06185
#
# Static dielectric constant tensor:
#      x y z
#    x 1.759460 0.000000 -0.026020 
#    y 0.000000 1.757620 0.000000 
#    z -0.026020 0.000000 1.848670 
# 
# From -- ./inp_files/39793.got.cif
#   From: 2010.05.17/outbox.cif.g08.bks.cpg/sg5_20_cif.got.tgz:39793.got - 2010.06.03 18:56:24.
