data_PCOD9124269
_publ_section_title
;
Structure prediction by ZEFSAII (Michael W. Deem and Ramdas Pophale) SiO2 
 PCOD9124269
Probable space group: C 2
;
_chemical_formula_sum "Si O2"
_cell_formula_units_Z 22
_cell_length_a 24.535038
_cell_length_b 8.751501
_cell_length_c 16.281265
_cell_angle_alpha 90.000000
_cell_angle_beta 163.167644
_cell_angle_gamma 90.000000
_cell_volume 1012.312368
_symmetry_space_group_name_H-M "C 2"
_symmetry_group_IT_number 5
_symmetry_cell_setting 'monoclinic'
loop_
_space_group_symop_operation_xyz
x,y,z
-x,y,-z
1/2+x,1/2+y,z
1/2-x,1/2+y,-z
loop_
_atom_site_type_symbol
_atom_site_label
_atom_site_fract_x
_atom_site_fract_y
_atom_site_fract_z
Si Si1 0.378389 0.954490 0.746268
Si Si2 0.161359 0.724386 0.664758
Si Si3 0.722519 0.052319 0.143106
Si Si4 0.000000 0.309529 0.500000
Si Si5 0.914689 0.211407 0.665399
Si Si6 0.517353 0.966056 0.689010
O O1 0.334342 0.809241 0.626268
O O2 0.203023 0.059002 0.516939
O O3 0.500000 0.905454 0.000000
O O4 0.522188 0.057811 0.899124
O O5 0.174741 0.906036 0.668348
O O6 0.108953 0.614211 0.513885
O O7 0.000000 0.706473 0.500000
O O8 0.366585 0.681435 0.996730
O O9 0.681704 0.010697 0.988918
O O10 0.843424 0.202823 0.315038
O O11 0.916995 0.405651 0.304833
O O12 0.912612 0.328901 0.586084
#
# Coordination Sequence:
#
# PCOD9124269 Si02
#       6
#     4   4   4   2   4   4
#     4  10  22  44  62  90 127 164 213 258 310 366
#     4  10  20  43  62  89 130 164 202 254 311 373
#     4  10  25  39  62  92 124 167 209 253 310 372
#     4  12  22  36  62  92 122 166 202 256 312 360
#     4  10  25  42  64  96 124 166 214 256 310 374
#     4  10  23  39  61  95 123 161 210 248 318 369
#
# _framework density 21.732423000000001
#
# number of rings (size 3 to 8) (size 9 to 14) (size 15 to 20)
#    0.000    2.182    1.818    1.091    5.091    8.727 
#    0.000    0.000    0.000    0.000    0.000    0.000 
#    0.000    0.000    0.000    0.000    0.000    0.000 
#
# Total GULP energy -61417.626201 kJ/mol
# GULP energy per Si atom -5583.420564 kJ/mol
# Density = 2.168296 g / cm^3
# Si number density = 21.732423 Si / 1000 Ang^3
#
#
#
# Elastic Constant Matrix: (Units=GPa)
#
#
# Indices 1 2 3 4 5 6 
#
# 1 59.5435 26.3802 15.1722 0.0000 -21.5977 0.0000
# 2 26.3802 80.7990 44.3037 0.0000 -12.5298 0.0000
# 3 15.1722 44.3037 45.5351 0.0000 -8.3679 0.0000
# 4 0.0000 0.0000 0.0000 28.1843 0.0000 -8.3164
# 5 -21.5977 -12.5298 -8.3679 0.0000 41.1289 0.0000
# 6 0.0000 0.0000 0.0000 -8.3164 0.0000 34.7044
#
#
#
# Elastic Compliance Matrix: (Units=1/GPa)
#
#
# Indices 1 2 3 4 5 6 
#
# 1 0.023197 -0.005944 -0.000042 0.000000 0.010362 0.000000
# 2 -0.005944 0.028400 -0.025592 0.000000 0.000324 0.000000
# 3 -0.000042 -0.025592 0.047203 0.000000 0.001785 0.000000
# 4 0.000000 0.000000 0.000000 0.038181 0.000000 0.009149
# 5 0.010362 0.000324 0.001785 0.000000 0.030217 0.000000
# 6 0.000000 0.000000 0.000000 0.009149 0.000000 0.031007
#
#
# Mechanical properties :
#
#
# Convention : Reuss Voigt Hill
#
# Bulk Modulus (GPa) = 28.05479 39.73221 33.89350
# Shear Modulus (GPa) = 18.29888 27.47160 22.88524
#
# Velocity S-wave (km/s) = 2.90489 3.55925 3.24859
# Velocity P-wave (km/s) = 4.91817 5.93407 5.44984
#
# Compressibility (1/GPa) = 0.03564454
#
# Stress axis : x y z
#
# Youngs Moduli (GPa) = 43.10904 35.21168 21.18519
#
# Poissons Ratio (x) = 0.20929 0.00089
# Poissons Ratio (y) = 0.25623 0.54217
# Poissons Ratio (z) = 0.00181 0.90113
#
# Static dielectric constant tensor:
#      x y z
#    x 1.824440 0.000000 -0.006560 
#    y 0.000000 1.792590 0.000000 
#    z -0.006560 0.000000 1.762330 
# 
# From -- ./inp_files/57659.got.cif
#   From: 2010.05.17/outbox.cif.g08.bks.cpg/sg5_29_cif.got.tgz:57659.got - 2010.06.03 18:56:24.
