data_PCOD9124860
_publ_section_title
;
Structure prediction by ZEFSAII (Michael W. Deem and Ramdas Pophale) SiO2 
 PCOD9124860
Probable space group: C 2
;
_chemical_formula_sum "Si O2"
_cell_formula_units_Z 24
_cell_length_a 21.261525
_cell_length_b 14.045624
_cell_length_c 12.242785
_cell_angle_alpha 90.000000
_cell_angle_beta 18.207966
_cell_angle_gamma 90.000000
_cell_volume 1142.404277
_symmetry_space_group_name_H-M "C 2"
_symmetry_group_IT_number 5
_symmetry_cell_setting 'monoclinic'
loop_
_space_group_symop_operation_xyz
x,y,z
-x,y,-z
1/2+x,1/2+y,z
1/2-x,1/2+y,-z
loop_
_atom_site_type_symbol
_atom_site_label
_atom_site_fract_x
_atom_site_fract_y
_atom_site_fract_z
Si Si1 0.453377 0.564410 0.694505
Si Si2 0.972447 0.272620 0.169316
Si Si3 0.794539 0.455944 0.555344
Si Si4 0.732510 0.244300 0.140041
Si Si5 0.615446 0.928937 0.199955
Si Si6 0.897720 0.049050 0.323304
O O1 0.500000 0.610572 0.500000
O O2 0.612240 0.540461 0.528415
O O3 0.302981 0.637443 0.002097
O O4 0.334756 0.471389 0.853314
O O5 0.819395 0.343521 0.484756
O O6 0.909243 0.161954 0.279401
O O7 0.000000 0.302962 0.000000
O O8 0.191193 0.274522 0.866295
O O9 0.774101 0.507548 0.472268
O O10 0.991763 0.474119 0.303496
O O11 0.600561 0.492753 0.945527
O O12 0.500000 0.254242 0.500000
O O13 0.860419 0.316676 0.855363
O O14 0.500000 0.950787 0.500000
#
# Coordination Sequence:
#
# PCOD9124860 Si02
#       6
#     4   4   4   4   4   4
#     4  11  23  39  64  92 127 168 215 266 321 389
#     4  10  21  38  66  92 129 167 220 262 325 392
#     4  10  21  38  66  94 122 175 209 268 324 388
#     4  10  23  39  61  92 128 167 210 266 324 380
#     4  11  21  38  62  90 125 165 214 260 323 385
#     4  10  21  42  65  89 135 168 215 269 331 375
#
# _framework density 21.008324000000002
#
# number of rings (size 3 to 8) (size 9 to 14) (size 15 to 20)
#    0.000    1.667    3.333    1.500    2.333    4.000 
#    0.000    0.000   14.667    0.000    0.000    0.000 
#    0.000    0.000    0.000    0.000    0.000    0.000 
#
# Total GULP energy -66854.172731 kJ/mol
# GULP energy per Si atom -5571.181061 kJ/mol
# Density = 2.096051 g / cm^3
# Si number density = 21.008324 Si / 1000 Ang^3
#
#
#
# Elastic Constant Matrix: (Units=GPa)
#
#
# Indices 1 2 3 4 5 6 
#
# 1 192.7920 30.0602 33.6336 0.0002 -3.0188 -0.0019
# 2 30.0602 97.9477 13.7955 0.0002 -5.2653 -0.0011
# 3 33.6336 13.7955 30.9205 -0.0016 11.2972 -0.0012
# 4 0.0002 0.0002 -0.0016 27.2573 0.0003 -0.3373
# 5 -3.0188 -5.2653 11.2972 0.0003 24.5582 0.0018
# 6 -0.0019 -0.0011 -0.0012 -0.3373 0.0018 24.3642
#
#
#
# Elastic Compliance Matrix: (Units=1/GPa)
#
#
# Indices 1 2 3 4 5 6 
#
# 1 0.006939 -0.000588 -0.009077 -0.000001 0.004902 0.000000
# 2 -0.000588 0.011598 -0.006512 -0.000001 0.005410 0.000000
# 3 -0.009077 -0.006512 0.055338 0.000004 -0.027969 0.000004
# 4 -0.000001 -0.000001 0.000004 0.036694 -0.000002 0.000508
# 5 0.004902 0.005410 -0.027969 -0.000002 0.055348 -0.000005
# 6 0.000000 0.000000 0.000004 0.000508 -0.000005 0.041051
#
#
# Mechanical properties :
#
#
# Convention : Reuss Voigt Hill
#
# Bulk Modulus (GPa) = 24.08337 52.95986 38.52162
# Shear Modulus (GPa) = 19.75025 31.51398 25.63212
#
# Velocity S-wave (km/s) = 3.06946 3.87728 3.49677
# Velocity P-wave (km/s) = 4.90415 6.73113 5.88892
#
# Compressibility (1/GPa) = 0.04152243
#
# Stress axis : x y z
#
# Youngs Moduli (GPa) = 144.11739 86.22269 18.07066
#
# Poissons Ratio (x) = 0.05066 0.16402
# Poissons Ratio (y) = 0.08468 0.11768
# Poissons Ratio (z) = 1.30810 0.56149
#
# Static dielectric constant tensor:
#      x y z
#    x 1.773080 0.000000 0.008350 
#    y 0.000000 1.728750 0.000000 
#    z 0.008350 0.000000 1.760130 
# 
# From -- ./inp_files/46565.got.cif
#   From: 2010.05.17/outbox.cif.g08.bks.cpg/sg5_24_cif.got.tgz:46565.got - 2010.06.03 18:56:24.
