data_PCOD9124221
_publ_section_title
;
Structure prediction by ZEFSAII (Michael W. Deem and Ramdas Pophale) SiO2 
 PCOD9124221
Probable space group: C 2
;
_chemical_formula_sum "Si O2"
_cell_formula_units_Z 32
_cell_length_a 13.416963
_cell_length_b 12.256151
_cell_length_c 14.239194
_cell_angle_alpha 90.000000
_cell_angle_beta 144.403699
_cell_angle_gamma 90.000000
_cell_volume 1362.916669
_symmetry_space_group_name_H-M "C 2"
_symmetry_group_IT_number 5
_symmetry_cell_setting 'monoclinic'
loop_
_space_group_symop_operation_xyz
x,y,z
-x,y,-z
1/2+x,1/2+y,z
1/2-x,1/2+y,-z
loop_
_atom_site_type_symbol
_atom_site_label
_atom_site_fract_x
_atom_site_fract_y
_atom_site_fract_z
Si Si1 0.944765 0.509770 0.618666
Si Si2 0.503357 0.562107 0.889941
Si Si3 0.643961 0.097815 0.937360
Si Si4 0.163369 0.951949 0.533290
Si Si5 0.075184 0.816330 0.952731
Si Si6 0.257904 0.207677 0.417243
Si Si7 0.803046 0.065838 0.258883
Si Si8 0.553513 0.785797 0.686972
O O1 0.756035 0.477352 0.507344
O O2 0.922405 0.632240 0.565936
O O3 0.054368 0.515575 0.797959
O O4 0.013664 0.405511 0.615498
O O5 0.344894 0.632621 0.734016
O O6 0.500000 0.563763 0.000000
O O7 0.671291 0.613724 0.970670
O O8 0.511014 0.433471 0.869225
O O9 0.536060 0.209973 0.861519
O O10 0.683412 0.061810 0.075265
O O11 0.183279 0.825567 0.572110
O O12 0.256129 0.022306 0.686174
O O13 0.969938 0.990618 0.372569
O O14 0.281490 0.809331 0.120191
O O15 0.000000 0.801348 0.000000
O O16 0.114947 0.237188 0.389159
O O17 0.872239 0.189449 0.320212
#
# Coordination Sequence:
#
# PCOD9124221 Si02
#       8
#     4   4   4   4   4   4   4   4
#     4  11  23  40  68 103 142 186 237 291 364 432
#     4  11  23  47  68  96 138 191 242 302 365 428
#     4  11  23  41  71 101 137 188 242 288 360 425
#     4  10  23  43  67 102 138 186 242 289 368 423
#     4  10  22  40  68 100 137 179 240 300 353 428
#     4  11  23  47  67 101 147 188 240 303 366 437
#     4  10  21  45  68  97 143 184 238 304 342 431
#     4  10  20  42  69  99 141 182 236 294 354 429
#
# _framework density 23.479058999999999
#
# number of rings (size 3 to 8) (size 9 to 14) (size 15 to 20)
#    0.000    1.500    5.000    0.000    3.500    3.000 
#   11.250    2.500    0.000    0.000    0.000    0.000 
#    0.000    0.000    0.000    0.000    0.000    0.000 
#
# Total GULP energy -89307.308431 kJ/mol
# GULP energy per Si atom -5581.706777 kJ/mol
# Density = 2.342562 g / cm^3
# Si number density = 23.479059 Si / 1000 Ang^3
#
#
#
# Elastic Constant Matrix: (Units=GPa)
#
#
# Indices 1 2 3 4 5 6 
#
# 1 49.8035 40.9524 13.9119 0.0000 -5.9641 0.0000
# 2 40.9524 226.9997 43.7322 0.0000 -14.3927 0.0000
# 3 13.9119 43.7322 88.7158 0.0001 -10.3996 0.0000
# 4 0.0000 0.0000 0.0001 38.9836 0.0001 0.0401
# 5 -5.9641 -14.3927 -10.3996 0.0001 29.4450 0.0000
# 6 0.0000 0.0000 0.0000 0.0401 0.0000 29.4297
#
#
#
# Elastic Compliance Matrix: (Units=1/GPa)
#
#
# Indices 1 2 3 4 5 6 
#
# 1 0.023991 -0.003873 -0.001570 0.000000 0.002412 0.000000
# 2 -0.003873 0.005566 -0.001992 0.000000 0.001233 0.000000
# 3 -0.001570 -0.001992 0.012882 0.000000 0.003258 0.000000
# 4 0.000000 0.000000 0.000000 0.025652 0.000000 -0.000035
# 5 0.002412 0.001233 0.003258 0.000000 0.036203 0.000000
# 6 0.000000 0.000000 0.000000 -0.000035 0.000000 0.033979
#
#
# Mechanical properties :
#
#
# Convention : Reuss Voigt Hill
#
# Bulk Modulus (GPa) = 36.27282 62.52354 49.39818
# Shear Modulus (GPa) = 30.80095 37.36648 34.08372
#
# Velocity S-wave (km/s) = 3.62587 3.99367 3.81420
# Velocity P-wave (km/s) = 5.74559 6.92482 6.36258
#
# Compressibility (1/GPa) = 0.02756885
#
# Stress axis : x y z
#
# Youngs Moduli (GPa) = 41.68266 179.66720 77.62753
#
# Poissons Ratio (x) = 0.69579 0.12190
# Poissons Ratio (y) = 0.16142 0.15462
# Poissons Ratio (z) = 0.06546 0.35788
#
# Static dielectric constant tensor:
#      x y z
#    x 1.930810 0.000000 -0.000690 
#    y 0.000000 1.903820 0.000000 
#    z -0.000690 0.000000 1.944050 
# 
# From -- ./inp_files/54602.got.cif
#   From: 2010.05.17/outbox.cif.g08.bks.cpg/sg5_28_cif.got.tgz:54602.got - 2010.06.03 18:56:24.
