data_PCOD9124512
_publ_section_title
;
Structure prediction by ZEFSAII (Michael W. Deem and Ramdas Pophale) SiO2 
 PCOD9124512
Probable space group: C 2
;
_chemical_formula_sum "Si O2"
_cell_formula_units_Z 20
_cell_length_a 26.853504
_cell_length_b 5.245868
_cell_length_c 7.487848
_cell_angle_alpha 90.000000
_cell_angle_beta 47.833609
_cell_angle_gamma 90.000000
_cell_volume 781.825566
_symmetry_space_group_name_H-M "C 2"
_symmetry_group_IT_number 5
_symmetry_cell_setting 'monoclinic'
loop_
_space_group_symop_operation_xyz
x,y,z
-x,y,-z
1/2+x,1/2+y,z
1/2-x,1/2+y,-z
loop_
_atom_site_type_symbol
_atom_site_label
_atom_site_fract_x
_atom_site_fract_y
_atom_site_fract_z
Si Si1 0.260931 0.609320 0.080537
Si Si2 0.288866 0.954969 0.447060
Si Si3 0.575231 0.287562 0.735094
Si Si4 0.530155 0.772634 0.723893
Si Si5 0.612103 0.616840 0.978243
O O1 0.206761 0.578415 0.369793
O O2 0.333058 0.564907 0.001658
O O3 0.245083 0.391629 0.978492
O O4 0.250654 0.681187 0.558884
O O5 0.357678 0.866096 0.194393
O O6 0.569201 0.037754 0.622808
O O7 0.612472 0.391068 0.827698
O O8 0.580306 0.534750 0.595737
O O9 0.500000 0.278257 0.000000
O O10 0.500000 0.771767 0.000000
O O11 0.462318 0.698323 0.780561
#
# Coordination Sequence:
#
# PCOD9124512 Si02
#       5
#     4   4   4   4   4
#     4  11  23  37  53  82 120 156 190 223 276 351
#     4  10  21  36  56  81 109 151 199 235 274 326
#     4   8  15  26  45  77 102 126 171 226 274 315
#     4   8  15  26  45  77 102 126 171 226 274 315
#     4   9  19  35  57  79 115 149 182 240 281 315
#
# _framework density 25.581154000000002
#
# number of rings (size 3 to 8) (size 9 to 14) (size 15 to 20)
#    0.000    3.200    0.000    2.400    0.000   19.200 
#    0.000    0.000    0.000    0.000    0.000   49.000 
#    0.000    0.000    0.000    0.000    0.000    0.000 
#
# Total GULP energy -55723.040509 kJ/mol
# GULP energy per Si atom -5572.304051 kJ/mol
# Density = 2.552293 g / cm^3
# Si number density = 25.581154 Si / 1000 Ang^3
#
#
#
# Elastic Constant Matrix: (Units=GPa)
#
#
# Indices 1 2 3 4 5 6 
#
# 1 169.6648 30.2108 1.9577 0.0000 -30.9204 0.0000
# 2 30.2108 214.2509 -2.6313 0.0000 -4.9228 0.0000
# 3 1.9577 -2.6313 42.7783 0.0000 10.6878 0.0000
# 4 0.0000 0.0000 0.0000 15.6577 0.0000 10.0001
# 5 -30.9204 -4.9228 10.6878 0.0000 20.1482 0.0000
# 6 0.0000 0.0000 0.0000 10.0001 0.0000 24.1338
#
#
#
# Elastic Compliance Matrix: (Units=1/GPa)
#
#
# Indices 1 2 3 4 5 6 
#
# 1 0.009032 -0.000961 -0.004469 0.000000 0.015997 0.000000
# 2 -0.000961 0.004796 0.000478 0.000000 -0.000556 0.000000
# 3 -0.004469 0.000478 0.029159 0.000000 -0.022209 0.000000
# 4 0.000000 0.000000 0.000000 0.086850 0.000000 -0.035987
# 5 0.015997 -0.000556 -0.022209 0.000000 0.085827 0.000000
# 6 0.000000 0.000000 0.000000 -0.035987 0.000000 0.056347
#
#
# Mechanical properties :
#
#
# Convention : Reuss Voigt Hill
#
# Bulk Modulus (GPa) = 30.22701 53.97427 42.10064
# Shear Modulus (GPa) = 17.06818 38.46507 27.76662
#
# Velocity S-wave (km/s) = 2.58586 3.88190 3.29816
# Velocity P-wave (km/s) = 4.55602 6.42162 5.56752
#
# Compressibility (1/GPa) = 0.03308299
#
# Stress axis : x y z
#
# Youngs Moduli (GPa) = 110.71800 208.50687 34.29470
#
# Poissons Ratio (x) = 0.20035 0.15327
# Poissons Ratio (y) = 0.10639 -0.01639
# Poissons Ratio (z) = 0.49481 -0.09966
#
# Static dielectric constant tensor:
#      x y z
#    x 2.224770 0.000000 -0.099150 
#    y 0.000000 2.102010 0.000000 
#    z -0.099150 0.000000 2.125540 
# 
# From -- ./inp_files/31254.got.cif
#   From: 2010.05.17/outbox.cif.g08.bks.cpg/sg5_16_cif.got.tgz:31254.got - 2010.06.03 18:56:24.
