data_PCOD9124459
_publ_section_title
;
Structure prediction by ZEFSAII (Michael W. Deem and Ramdas Pophale) SiO2 
 PCOD9124459
Probable space group: C 2
;
_chemical_formula_sum "Si O2"
_cell_formula_units_Z 30
_cell_length_a 25.807133
_cell_length_b 4.971336
_cell_length_c 19.962113
_cell_angle_alpha 90.000000
_cell_angle_beta 153.877225
_cell_angle_gamma 90.000000
_cell_volume 1127.623778
_symmetry_space_group_name_H-M "C 2"
_symmetry_group_IT_number 5
_symmetry_cell_setting 'monoclinic'
loop_
_space_group_symop_operation_xyz
x,y,z
-x,y,-z
1/2+x,1/2+y,z
1/2-x,1/2+y,-z
loop_
_atom_site_type_symbol
_atom_site_label
_atom_site_fract_x
_atom_site_fract_y
_atom_site_fract_z
Si Si1 0.820674 0.369640 0.780581
Si Si2 0.618471 0.046906 0.288434
Si Si3 0.142141 0.528109 0.815212
Si Si4 0.500000 0.767797 0.500000
Si Si5 0.398595 0.554574 0.648155
Si Si6 0.939728 0.869622 0.552310
Si Si7 0.774599 0.880120 0.812874
Si Si8 0.288168 0.040091 0.956982
O O1 0.901227 0.429493 0.809137
O O2 0.694519 0.272742 0.606459
O O3 0.794719 0.666466 0.777282
O O4 0.838480 0.152379 0.860973
O O5 0.566015 0.836929 0.279886
O O6 0.580678 0.340347 0.268566
O O7 0.759472 0.051307 0.467351
O O8 0.175413 0.221923 0.844513
O O9 0.241677 0.732669 0.899278
O O10 0.139108 0.576988 0.891097
O O11 0.020209 0.609564 0.642254
O O12 0.473828 0.562399 0.531188
O O13 0.631333 0.910142 0.657289
O O14 0.457789 0.496628 0.646333
O O15 0.826029 0.702086 0.934789
#
# Coordination Sequence:
#
# PCOD9124459 Si02
#       8
#     4   4   4   2   4   4   4   4
#     4  10  22  32  54  79 108 134 175 207 272 312
#     4   9  17  34  48  73 100 133 164 221 250 310
#     4  10  21  36  53  70 103 138 184 215 241 292
#     4  10  22  32  52  74 126 134 170 212 258 314
#     4   9  18  30  52  69 102 132 174 203 261 302
#     4  10  21  35  51  82 105 145 169 213 257 315
#     4  11  21  34  50  78 107 145 172 205 256 322
#     4  10  21  36  52  71  99 147 179 211 246 289
#
# _framework density 26.604620000000001
#
# number of rings (size 3 to 8) (size 9 to 14) (size 15 to 20)
#    0.000    2.133    1.333    1.600    3.733    8.000 
#    0.000    0.000    0.000    0.000    0.000    5.600 
#    0.000    0.000    0.000    0.000    0.000    0.000 
#
# Total GULP energy -83846.607423 kJ/mol
# GULP energy per Si atom -5589.773828 kJ/mol
# Density = 2.654407 g / cm^3
# Si number density = 26.604620 Si / 1000 Ang^3
#
#
#
# Elastic Constant Matrix: (Units=GPa)
#
#
# Indices 1 2 3 4 5 6 
#
# 1 129.6473 15.6057 7.9929 -0.0006 -14.2820 -0.0001
# 2 15.6057 103.4733 -9.3966 0.0042 11.0184 -0.0006
# 3 7.9929 -9.3966 42.5238 0.0012 -1.2517 -0.0004
# 4 -0.0006 0.0042 0.0012 22.0532 0.0000 -7.1648
# 5 -14.2820 11.0184 -1.2517 0.0000 29.7141 -0.0003
# 6 -0.0001 -0.0006 -0.0004 -7.1648 -0.0003 45.5861
#
#
#
# Elastic Compliance Matrix: (Units=1/GPa)
#
#
# Indices 1 2 3 4 5 6 
#
# 1 0.008597 -0.001980 -0.001912 0.000001 0.004786 0.000000
# 2 -0.001980 0.010711 0.002597 -0.000002 -0.004814 0.000000
# 3 -0.001912 0.002597 0.024425 -0.000002 -0.000853 0.000000
# 4 0.000001 -0.000002 -0.000002 0.047785 0.000001 0.007510
# 5 0.004786 -0.004814 -0.000853 0.000001 0.037703 0.000000
# 6 0.000000 0.000000 0.000000 0.007510 0.000000 0.023117
#
#
# Mechanical properties :
#
#
# Convention : Reuss Voigt Hill
#
# Bulk Modulus (GPa) = 24.30563 33.78318 29.04440
# Shear Modulus (GPa) = 29.64864 36.90018 33.27441
#
# Velocity S-wave (km/s) = 3.34191 3.72826 3.54036
# Velocity P-wave (km/s) = 4.90376 5.59098 5.25861
#
# Compressibility (1/GPa) = 0.04114273
#
# Stress axis : x y z
#
# Youngs Moduli (GPa) = 116.32472 93.35823 40.94246
#
# Poissons Ratio (x) = 0.18483 0.07830
# Poissons Ratio (y) = 0.23030 -0.10634
# Poissons Ratio (z) = 0.22247 -0.24248
#
# Static dielectric constant tensor:
#      x y z
#    x 2.111850 0.000000 -0.018610 
#    y 0.000000 2.003440 0.000000 
#    z -0.018610 0.000000 2.186600 
# 
# From -- ./inp_files/63155.got.cif
#   From: 2010.05.17/outbox.cif.g08.bks.cpg/sg5_32_cif.got.tgz:63155.got - 2010.06.03 18:56:24.
