data_PCOD9124084
_publ_section_title
;
Structure prediction by ZEFSAII (Michael W. Deem and Ramdas Pophale) SiO2 
 PCOD9124084
Probable space group: C 2
;
_chemical_formula_sum "Si O2"
_cell_formula_units_Z 20
_cell_length_a 10.016043
_cell_length_b 15.037891
_cell_length_c 10.273395
_cell_angle_alpha 90.000000
_cell_angle_beta 39.333816
_cell_angle_gamma 90.000000
_cell_volume 980.787716
_symmetry_space_group_name_H-M "C 2"
_symmetry_group_IT_number 5
_symmetry_cell_setting 'monoclinic'
loop_
_space_group_symop_operation_xyz
x,y,z
-x,y,-z
1/2+x,1/2+y,z
1/2-x,1/2+y,-z
loop_
_atom_site_type_symbol
_atom_site_label
_atom_site_fract_x
_atom_site_fract_y
_atom_site_fract_z
Si Si1 0.745622 0.353790 0.812057
Si Si2 0.552899 0.144876 0.611474
Si Si3 0.331199 0.547524 0.019694
Si Si4 0.190913 0.324041 0.539893
Si Si5 0.900619 0.006326 0.437399
O O1 0.243865 0.455952 0.148273
O O2 0.790732 0.348031 0.625687
O O3 0.938309 0.307938 0.746084
O O4 0.500000 0.323936 0.000000
O O5 0.500000 0.130101 0.500000
O O6 0.664818 0.239534 0.540687
O O7 0.718451 0.073029 0.534792
O O8 0.344643 0.123642 0.852396
O O9 0.432699 0.517346 0.806613
O O10 0.500000 0.578732 0.000000
O O11 0.293744 0.409249 0.531833
O O12 0.000000 0.031491 0.500000
#
# Coordination Sequence:
#
# PCOD9124084 Si02
#       5
#     4   4   4   4   4
#     4  10  20  41  73  98 130 187 234 278 347 417
#     4  12  25  45  71 100 140 192 238 286 348 428
#     4  11  21  45  75  98 127 196 239 280 349 427
#     4  11  23  41  70 103 140 181 233 292 348 412
#     4  12  26  45  67 105 145 180 235 300 353 403
#
# _framework density 20.391770999999999
#
# number of rings (size 3 to 8) (size 9 to 14) (size 15 to 20)
#    0.000    0.800    8.000    0.600    2.800    2.400 
#    0.000    0.000    0.000    0.000    0.000    0.000 
#    0.000    0.000    0.000    0.000    0.000    0.000 
#
# Total GULP energy -55790.318738 kJ/mol
# GULP energy per Si atom -5579.031874 kJ/mol
# Density = 2.034536 g / cm^3
# Si number density = 20.391771 Si / 1000 Ang^3
#
#
#
# Elastic Constant Matrix: (Units=GPa)
#
#
# Indices 1 2 3 4 5 6 
#
# 1 135.9537 53.3606 54.9667 -0.0002 -19.2033 -0.0006
# 2 53.3606 111.3356 38.2927 0.0004 -21.5241 -0.0014
# 3 54.9667 38.2927 95.0373 -0.0055 -24.6987 0.0023
# 4 -0.0002 0.0004 -0.0055 28.8412 0.0022 -4.0199
# 5 -19.2033 -21.5241 -24.6987 0.0022 27.5565 0.0013
# 6 -0.0006 -0.0014 0.0023 -4.0199 0.0013 -44.8471
#
#
#
# Elastic Compliance Matrix: (Units=1/GPa)
#
#
# Indices 1 2 3 4 5 6 
#
# 1 0.010645 -0.003390 -0.004630 -0.000001 0.000621 0.000000
# 2 -0.003390 0.012244 -0.001436 -0.000001 0.005914 0.000000
# 3 -0.004630 -0.001436 0.016489 0.000002 0.010432 0.000001
# 4 -0.000001 -0.000001 0.000002 0.034245 -0.000002 -0.003070
# 5 0.000621 0.005914 0.010432 -0.000002 0.050691 0.000002
# 6 0.000000 0.000000 0.000001 -0.003070 0.000002 -0.022023
#
#
# Mechanical properties :
#
#
# Convention : Reuss Voigt Hill
#
# Bulk Modulus (GPa) = 48.85630 70.61850 59.73740
# Shear Modulus (GPa) = 39.05490 15.35722 27.20606
#
# Velocity S-wave (km/s) = 4.38108 2.74726 3.65659
# Velocity P-wave (km/s) = 7.04292 6.69099 6.86921
#
# Compressibility (1/GPa) = 0.02046819
#
# Stress axis : x y z
#
# Youngs Moduli (GPa) = 93.93692 81.67509 60.64496
#
# Poissons Ratio (x) = 0.27685 0.28077
# Poissons Ratio (y) = 0.31841 0.08707
# Poissons Ratio (z) = 0.43491 0.11726
#
# Static dielectric constant tensor:
#      x y z
#    x 1.702820 0.000000 -0.040170 
#    y 0.000000 1.722040 0.000000 
#    z -0.040170 0.000000 1.848240 
# 
# From -- ./inp_files/36740.got.cif
#   From: 2010.05.17/outbox.cif.g08.bks.cpg/sg5_19_cif.got.tgz:36740.got - 2010.06.03 18:56:24.
