data_PCOD9124518
_publ_section_title
;
Structure prediction by ZEFSAII (Michael W. Deem and Ramdas Pophale) SiO2 
 PCOD9124518
Probable space group: C 2
;
_chemical_formula_sum "Si O2"
_cell_formula_units_Z 30
_cell_length_a 5.208626
_cell_length_b 13.297145
_cell_length_c 22.936688
_cell_angle_alpha 90.000000
_cell_angle_beta 96.016219
_cell_angle_gamma 90.000000
_cell_volume 1579.842149
_symmetry_space_group_name_H-M "C 2"
_symmetry_group_IT_number 5
_symmetry_cell_setting 'monoclinic'
loop_
_space_group_symop_operation_xyz
x,y,z
-x,y,-z
1/2+x,1/2+y,z
1/2-x,1/2+y,-z
loop_
_atom_site_type_symbol
_atom_site_label
_atom_site_fract_x
_atom_site_fract_y
_atom_site_fract_z
Si Si1 0.438801 0.151420 0.339762
Si Si2 0.475907 0.383814 0.373709
Si Si3 0.508398 0.974084 0.431203
Si Si4 0.500000 0.075431 0.000000
Si Si5 0.523908 0.522403 0.851672
Si Si6 0.906333 0.061603 0.282508
Si Si7 0.901169 0.199343 0.063805
Si Si8 0.929343 0.431987 0.094956
O O1 0.459689 0.267644 0.356584
O O2 0.647825 0.118733 0.296239
O O3 0.153827 0.123999 0.310597
O O4 0.498757 0.080315 0.396857
O O5 0.758186 0.412662 0.403808
O O6 0.417098 0.455195 0.316773
O O7 0.263235 0.415348 0.416440
O O8 0.500000 0.987749 0.500000
O O9 0.382053 0.151596 0.950050
O O10 0.660237 0.996512 0.964118
O O11 0.574007 0.543984 0.785559
O O12 0.476346 0.626800 0.885159
O O13 0.269440 0.457158 0.858308
O O14 0.778361 0.466681 0.883638
O O15 0.918625 0.314704 0.080633
O O16 0.000000 0.186029 0.000000
#
# Coordination Sequence:
#
# PCOD9124518 Si02
#       8
#     4   4   4   2   4   4   4   4
#     4  10  21  39  63  85 117 163 199 238 295 345
#     4  10  21  38  60  86 119 163 199 244 296 343
#     4  10  21  36  56  89 124 155 198 245 287 346
#     4  10  22  38  58  80 114 146 186 230 286 364
#     4  11  25  41  59  91 117 149 196 251 291 353
#     4  10  22  40  61  85 119 152 203 249 292 345
#     4  11  23  38  61  82 116 152 189 236 301 363
#     4  11  24  38  60  84 113 149 189 232 301 355
#
# _framework density 18.989239000000001
#
# number of rings (size 3 to 8) (size 9 to 14) (size 15 to 20)
#    0.000    1.600    2.000    2.000    1.867    3.200 
#    0.000    0.000    0.000    0.000    0.000    0.000 
#    0.000    0.000    0.000    0.000    0.000    0.000 
#
# Total GULP energy -83715.748020 kJ/mol
# GULP energy per Si atom -5581.049868 kJ/mol
# Density = 1.894602 g / cm^3
# Si number density = 18.989239 Si / 1000 Ang^3
#
#
#
# Elastic Constant Matrix: (Units=GPa)
#
#
# Indices 1 2 3 4 5 6 
#
# 1 67.2786 37.1882 -0.0115 0.0000 -27.0873 0.0000
# 2 37.1882 158.3251 46.3604 0.0000 -8.8891 0.0000
# 3 -0.0115 46.3604 115.4841 0.0000 -32.5279 0.0000
# 4 0.0000 0.0000 0.0000 7.5767 0.0000 0.5974
# 5 -27.0873 -8.8891 -32.5279 0.0000 28.3152 0.0000
# 6 0.0000 0.0000 0.0000 0.5974 0.0000 14.4444
#
#
#
# Elastic Compliance Matrix: (Units=1/GPa)
#
#
# Indices 1 2 3 4 5 6 
#
# 1 0.064163 -0.019918 0.034786 0.000000 0.095089 0.000000
# 2 -0.019918 0.013387 -0.014132 0.000000 -0.031087 0.000000
# 3 0.034786 -0.014132 0.033203 0.000000 0.066983 0.000000
# 4 0.000000 0.000000 0.000000 0.132416 0.000000 -0.005476
# 5 0.095089 -0.031087 0.066983 0.000000 0.193472 0.000000
# 6 0.000000 0.000000 0.000000 -0.005476 0.000000 0.069458
#
#
# Mechanical properties :
#
#
# Convention : Reuss Voigt Hill
#
# Bulk Modulus (GPa) = 8.91073 56.46245 32.68659
# Shear Modulus (GPa) = 9.22446 27.23729 18.23087
#
# Velocity S-wave (km/s) = 2.20642 3.79140 3.10185
# Velocity P-wave (km/s) = 3.34570 6.99748 5.48445
#
# Compressibility (1/GPa) = 0.11222428
#
# Stress axis : x y z
#
# Youngs Moduli (GPa) = 15.58520 74.69680 30.11787
#
# Poissons Ratio (x) = 1.48782 -1.04767
# Poissons Ratio (y) = 0.31043 0.42563
# Poissons Ratio (z) = -0.54214 1.05564
#
# Static dielectric constant tensor:
#      x y z
#    x 1.738140 0.000000 0.002790 
#    y 0.000000 1.615590 0.000000 
#    z 0.002790 0.000000 1.647110 
# 
# From -- ./inp_files/64019.got.cif
#   From: 2010.05.17/outbox.cif.g08.bks.cpg/sg5_33_cif.got.tgz:64019.got - 2010.06.03 18:56:24.
