data_PCOD9124211
_publ_section_title
;
Structure prediction by ZEFSAII (Michael W. Deem and Ramdas Pophale) SiO2 
 PCOD9124211
Probable space group: C 2
;
_chemical_formula_sum "Si O2"
_cell_formula_units_Z 26
_cell_length_a 14.318797
_cell_length_b 7.613270
_cell_length_c 13.189402
_cell_angle_alpha 90.000000
_cell_angle_beta 48.770290
_cell_angle_gamma 90.000000
_cell_volume 1081.341854
_symmetry_space_group_name_H-M "C 2"
_symmetry_group_IT_number 5
_symmetry_cell_setting 'monoclinic'
loop_
_space_group_symop_operation_xyz
x,y,z
-x,y,-z
1/2+x,1/2+y,z
1/2-x,1/2+y,-z
loop_
_atom_site_type_symbol
_atom_site_label
_atom_site_fract_x
_atom_site_fract_y
_atom_site_fract_z
Si Si1 0.367944 0.569670 0.784879
Si Si2 0.500000 0.566045 0.500000
Si Si3 0.918493 0.497697 0.966343
Si Si4 0.559943 0.103261 0.666558
Si Si5 0.206864 0.326593 0.448007
Si Si6 0.912747 0.079315 0.973508
Si Si7 0.166920 0.471029 0.261853
O O1 0.427145 0.477262 0.644790
O O2 0.431530 0.516512 0.845073
O O3 0.371122 0.778050 0.754858
O O4 0.223842 0.533399 0.907086
O O5 0.607917 0.679777 0.480025
O O6 0.932863 0.287937 0.950545
O O7 0.975019 0.581636 0.826019
O O8 0.000000 0.566777 0.000000
O O9 0.645664 0.933177 0.583161
O O10 0.456681 0.088178 0.652573
O O11 0.661397 0.252811 0.610708
O O12 0.217554 0.447026 0.339490
O O13 0.000000 0.007702 0.000000
O O14 0.773921 0.042997 0.112139
#
# Coordination Sequence:
#
# PCOD9124211 Si02
#       7
#     4   2   4   4   4   4   4
#     4  11  20  43  70  94 139 190 234 296 374 430
#     4  10  20  42  68  96 140 184 228 306 368 420
#     4  11  23  41  67 101 139 179 241 302 358 439
#     4  12  23  46  73 103 146 197 244 309 371 439
#     4  11  24  44  75 100 142 200 241 305 383 432
#     4  11  23  40  66  99 143 191 239 298 368 439
#     4  11  23  46  70 102 149 187 242 309 363 440
#
# _framework density 24.044201000000001
#
# number of rings (size 3 to 8) (size 9 to 14) (size 15 to 20)
#    0.000    0.923    6.154    1.846    0.000    5.538 
#    5.538    0.000    0.000    0.000    0.000    0.000 
#    0.000    0.000    0.000    0.000    0.000    0.000 
#
# Total GULP energy -72706.584070 kJ/mol
# GULP energy per Si atom -5592.814159 kJ/mol
# Density = 2.398947 g / cm^3
# Si number density = 24.044201 Si / 1000 Ang^3
#
#
#
# Elastic Constant Matrix: (Units=GPa)
#
#
# Indices 1 2 3 4 5 6 
#
# 1 152.7591 26.5475 64.8534 0.0000 -6.4400 0.0000
# 2 26.5475 57.0391 15.0949 0.0000 -7.0675 0.0000
# 3 64.8534 15.0949 178.7739 0.0000 4.7849 0.0000
# 4 0.0000 0.0000 0.0000 27.1467 0.0000 -23.4845
# 5 -6.4400 -7.0675 4.7849 0.0000 38.0107 0.0000
# 6 0.0000 0.0000 0.0000 -23.4845 0.0000 9.2360
#
#
#
# Elastic Compliance Matrix: (Units=1/GPa)
#
#
# Indices 1 2 3 4 5 6 
#
# 1 0.008299 -0.002975 -0.002792 0.000000 0.001204 0.000000
# 2 -0.002975 0.019485 -0.000652 0.000000 0.003201 0.000000
# 3 -0.002792 -0.000652 0.006700 0.000000 -0.001438 0.000000
# 4 0.000000 0.000000 0.000000 -0.030705 0.000000 -0.078075
# 5 0.001204 0.003201 -0.001438 0.000000 0.027289 0.000000
# 6 0.000000 0.000000 0.000000 -0.078075 0.000000 -0.090250
#
#
# Mechanical properties :
#
#
# Convention : Reuss Voigt Hill
#
# Bulk Modulus (GPa) = 46.19337 66.84039 56.51688
# Shear Modulus (GPa) = -127.78069 33.68376 -47.04846
#
# Velocity S-wave (km/s) = -7.29791 3.74693 -4.42831
# Velocity P-wave (km/s) = 7.19438 6.82486 1.60941
#
# Compressibility (1/GPa) = 0.02164813
#
# Stress axis : x y z
#
# Youngs Moduli (GPa) = 120.49333 51.32042 149.25522
#
# Poissons Ratio (x) = 0.15266 0.41668
# Poissons Ratio (y) = 0.35842 0.09729
# Poissons Ratio (z) = 0.33639 0.03345
#
# Static dielectric constant tensor:
#      x y z
#    x 1.949870 0.000000 0.037590 
#    y 0.000000 1.951440 0.000000 
#    z 0.037590 0.000000 1.892580 
# 
# From -- ./inp_files/54292.got.cif
#   From: 2010.05.17/outbox.cif.g08.bks.cpg/sg5_28_cif.got.tgz:54292.got - 2010.06.03 18:56:24.
