data_PCOD9124506
_publ_section_title
;
Structure prediction by ZEFSAII (Michael W. Deem and Ramdas Pophale) SiO2 
 PCOD9124506
Probable space group: C 2
;
_chemical_formula_sum "Si O2"
_cell_formula_units_Z 28
_cell_length_a 5.215438
_cell_length_b 33.950134
_cell_length_c 8.543560
_cell_angle_alpha 90.000000
_cell_angle_beta 116.081606
_cell_angle_gamma 90.000000
_cell_volume 1358.717289
_symmetry_space_group_name_H-M "C 2"
_symmetry_group_IT_number 5
_symmetry_cell_setting 'monoclinic'
loop_
_space_group_symop_operation_xyz
x,y,z
-x,y,-z
1/2+x,1/2+y,z
1/2-x,1/2+y,-z
loop_
_atom_site_type_symbol
_atom_site_label
_atom_site_fract_x
_atom_site_fract_y
_atom_site_fract_z
Si Si1 0.663872 0.115530 0.709535
Si Si2 0.824254 0.243360 0.108195
Si Si3 0.160484 0.310434 0.377995
Si Si4 0.148816 0.480195 0.209426
Si Si5 0.339815 0.662517 0.288306
Si Si6 0.664755 0.898074 0.379285
Si Si7 0.343614 0.525237 0.790578
O O1 0.500000 0.116665 0.500000
O O2 0.435568 0.134234 0.767820
O O3 0.779005 0.071311 0.756609
O O4 0.937655 0.143077 0.770384
O O5 0.779157 0.206060 0.210533
O O6 0.027212 0.276511 0.236974
O O7 0.500000 0.259070 0.000000
O O8 0.000000 0.230906 0.000000
O O9 0.500000 0.305892 0.500000
O O10 0.093054 0.354482 0.296392
O O11 0.000000 0.308082 0.500000
O O12 0.131667 0.434985 0.256463
O O13 0.452854 0.501967 0.274964
O O14 0.958807 0.504086 0.280533
O O15 0.000000 0.483339 0.000000
O O16 0.500000 0.664804 0.500000
O O17 0.500000 0.904003 0.500000
O O18 0.000000 0.896395 0.500000
O O19 0.500000 0.520825 0.000000
#
# Coordination Sequence:
#
# PCOD9124506 Si02
#       7
#     4   4   4   4   4   4   4
#     4  10  21  37  58  84 110 147 199 245 290 349
#     4  12  25  40  62  96 125 154 206 257 302 359
#     4  10  22  42  65  88 123 167 204 245 307 370
#     4  10  21  37  56  82 117 154 190 235 297 357
#     4  10  22  40  60  82 116 157 194 240 302 362
#     4  10  21  38  61  89 116 153 204 248 291 351
#     4  10  21  36  55  81 114 152 190 234 296 358
#
# _framework density 20.607672999999998
#
# number of rings (size 3 to 8) (size 9 to 14) (size 15 to 20)
#    0.000    1.714    0.000    3.857    0.000    5.714 
#    0.000    2.143    0.000    0.000    0.000    0.000 
#    0.000    0.000    0.000    0.000    0.000    0.000 
#
# Total GULP energy -78158.611281 kJ/mol
# GULP energy per Si atom -5582.757949 kJ/mol
# Density = 2.056077 g / cm^3
# Si number density = 20.607673 Si / 1000 Ang^3
#
#
#
# Elastic Constant Matrix: (Units=GPa)
#
#
# Indices 1 2 3 4 5 6 
#
# 1 177.2135 53.7992 36.3348 0.0000 8.5329 0.0000
# 2 53.7992 150.1972 33.7025 0.0000 5.6069 0.0000
# 3 36.3348 33.7025 26.6768 0.0000 2.4684 0.0000
# 4 0.0000 0.0000 0.0000 176.4544 0.0000 -8.0641
# 5 8.5329 5.6069 2.4684 0.0000 15.1851 0.0000
# 6 0.0000 0.0000 0.0000 -8.0641 0.0000 40.8192
#
#
#
# Elastic Compliance Matrix: (Units=1/GPa)
#
#
# Indices 1 2 3 4 5 6 
#
# 1 0.007970 -0.000523 -0.009947 0.000000 -0.002668 0.000000
# 2 -0.000523 0.009362 -0.010988 0.000000 -0.001377 0.000000
# 3 -0.009947 -0.010988 0.065002 0.000000 -0.000919 0.000000
# 4 0.000000 0.000000 0.000000 0.005719 0.000000 0.001130
# 5 -0.002668 -0.001377 -0.000919 0.000000 0.068011 0.000000
# 6 0.000000 0.000000 0.000000 0.001130 0.000000 0.024721
#
#
# Mechanical properties :
#
#
# Convention : Reuss Voigt Hill
#
# Bulk Modulus (GPa) = 25.37010 66.86228 46.11619
# Shear Modulus (GPa) = 21.11116 61.84180 41.47648
#
# Velocity S-wave (km/s) = 3.20415 5.48400 4.49115
# Velocity P-wave (km/s) = 5.10161 8.52143 7.02286
#
# Compressibility (1/GPa) = 0.03941647
#
# Stress axis : x y z
#
# Youngs Moduli (GPa) = 125.47474 106.81159 15.38416
#
# Poissons Ratio (x) = 0.05586 0.15303
# Poissons Ratio (y) = 0.06562 0.16905
# Poissons Ratio (z) = 1.24816 1.17367
#
# Static dielectric constant tensor:
#      x y z
#    x 1.668690 0.000000 0.030330 
#    y 0.000000 1.781370 0.000000 
#    z 0.030330 0.000000 1.711910 
# 
# From -- ./inp_files/13279.got.cif
#   From: 2010.05.17/outbox.cif.g08.bks.cpg/sg5_7_cif.got.tgz:13279.got - 2010.06.03 18:56:24.
