data_PCOD9124902
_publ_section_title
;
Structure prediction by ZEFSAII (Michael W. Deem and Ramdas Pophale) SiO2 
 PCOD9124902
Probable space group: C 2
;
_chemical_formula_sum "Si O2"
_cell_formula_units_Z 28
_cell_length_a 5.035283
_cell_length_b 24.214483
_cell_length_c 12.828906
_cell_angle_alpha 90.000000
_cell_angle_beta 78.226686
_cell_angle_gamma 90.000000
_cell_volume 1531.280588
_symmetry_space_group_name_H-M "C 2"
_symmetry_group_IT_number 5
_symmetry_cell_setting 'monoclinic'
loop_
_space_group_symop_operation_xyz
x,y,z
-x,y,-z
1/2+x,1/2+y,z
1/2-x,1/2+y,-z
loop_
_atom_site_type_symbol
_atom_site_label
_atom_site_fract_x
_atom_site_fract_y
_atom_site_fract_z
Si Si1 0.942733 0.084670 0.387217
Si Si2 0.478267 0.101922 0.750721
Si Si3 0.781311 0.693416 0.925156
Si Si4 0.487970 0.424227 0.196539
Si Si5 0.199616 0.956351 0.570637
Si Si6 0.464207 0.989894 0.879625
Si Si7 0.718189 0.319025 0.074112
O O1 0.676660 0.103909 0.347244
O O2 0.000000 0.105082 0.500000
O O3 0.202135 0.099671 0.296789
O O4 0.904087 0.018625 0.399547
O O5 0.382934 0.152811 0.828001
O O6 0.407227 0.045520 0.818817
O O7 0.742070 0.756489 0.888899
O O8 0.500000 0.674756 0.000000
O O9 0.000000 0.693531 0.000000
O O10 0.325135 0.425985 0.317605
O O11 0.282355 0.447969 0.125553
O O12 0.603299 0.363988 0.162038
O O13 0.752210 0.463495 0.180941
O O14 0.500000 0.958891 0.500000
O O15 0.000000 0.931604 0.500000
O O16 0.500000 0.000621 0.000000
O O17 0.500000 0.315573 0.000000
O O18 0.000000 0.338116 0.000000
#
# Coordination Sequence:
#
# PCOD9124902 Si02
#       7
#     4   4   4   4   4   4   4
#     4  11  22  37  58  82 115 149 194 232 277 342
#     4  12  21  38  57  85 116 150 186 232 287 336
#     4  10  22  39  60  84 114 154 195 228 271 339
#     4  12  22  37  56  84 115 151 187 234 284 334
#     4  11  21  36  56  80 111 148 189 230 275 336
#     4  12  23  34  52  85 121 149 177 227 292 347
#     4  10  21  39  59  82 112 153 196 229 269 336
#
# _framework density 18.285349
#
# number of rings (size 3 to 8) (size 9 to 14) (size 15 to 20)
#    0.000    0.857    2.857    6.857    0.000    1.143 
#    0.000    0.000    0.000    2.571    0.000    0.000 
#    0.000    0.000    0.000    0.000    0.000    0.000 
#
# Total GULP energy -78230.363427 kJ/mol
# GULP energy per Si atom -5587.883102 kJ/mol
# Density = 1.824373 g / cm^3
# Si number density = 18.285349 Si / 1000 Ang^3
#
#
#
# Elastic Constant Matrix: (Units=GPa)
#
#
# Indices 1 2 3 4 5 6 
#
# 1 102.0451 7.0422 18.5020 0.0000 -10.9521 0.0000
# 2 7.0422 70.7859 41.3595 0.0000 -11.6887 0.0000
# 3 18.5020 41.3595 93.5720 0.0000 -8.7826 0.0000
# 4 0.0000 0.0000 0.0000 15.3732 0.0000 -4.9897
# 5 -10.9521 -11.6887 -8.7826 0.0000 44.7447 0.0000
# 6 0.0000 0.0000 0.0000 -4.9897 0.0000 8.0354
#
#
#
# Elastic Compliance Matrix: (Units=1/GPa)
#
#
# Indices 1 2 3 4 5 6 
#
# 1 0.010384 0.000563 -0.002088 0.000000 0.002279 0.000000
# 2 0.000563 0.019594 -0.008434 0.000000 0.003601 0.000000
# 3 -0.002088 -0.008434 0.014846 0.000000 0.000200 0.000000
# 4 0.000000 0.000000 0.000000 0.081468 0.000000 0.050590
# 5 0.002279 0.003601 0.000200 0.000000 0.023887 0.000000
# 6 0.000000 0.000000 0.000000 0.050590 0.000000 0.155865
#
#
# Mechanical properties :
#
#
# Convention : Reuss Voigt Hill
#
# Bulk Modulus (GPa) = 40.15045 44.46782 42.30914
# Shear Modulus (GPa) = 14.95827 26.93061 20.94444
#
# Velocity S-wave (km/s) = 2.86325 3.84187 3.38808
# Velocity P-wave (km/s) = 5.73902 6.63713 6.20435
#
# Compressibility (1/GPa) = 0.02490632
#
# Stress axis : x y z
#
# Youngs Moduli (GPa) = 96.30254 51.03732 67.35600
#
# Poissons Ratio (x) = -0.02876 0.14066
# Poissons Ratio (y) = -0.05427 0.56807
# Poissons Ratio (z) = 0.20112 0.43044
#
# Static dielectric constant tensor:
#      x y z
#    x 1.623610 0.000000 0.011850 
#    y 0.000000 1.628290 0.000000 
#    z 0.011850 0.000000 1.634340 
# 
# From -- ./inp_files/33914.got.cif
#   From: 2010.05.17/outbox.cif.g08.bks.cpg/sg5_17_cif.got.tgz:33914.got - 2010.06.03 18:56:24.
