data_PCOD9124237
_publ_section_title
;
Structure prediction by ZEFSAII (Michael W. Deem and Ramdas Pophale) SiO2 
 PCOD9124237
Probable space group: C 2
;
_chemical_formula_sum "Si O2"
_cell_formula_units_Z 26
_cell_length_a 17.334014
_cell_length_b 7.260821
_cell_length_c 10.586368
_cell_angle_alpha 90.000000
_cell_angle_beta 53.431572
_cell_angle_gamma 90.000000
_cell_volume 1070.104779
_symmetry_space_group_name_H-M "C 2"
_symmetry_group_IT_number 5
_symmetry_cell_setting 'monoclinic'
loop_
_space_group_symop_operation_xyz
x,y,z
-x,y,-z
1/2+x,1/2+y,z
1/2-x,1/2+y,-z
loop_
_atom_site_type_symbol
_atom_site_label
_atom_site_fract_x
_atom_site_fract_y
_atom_site_fract_z
Si Si1 0.500000 0.866091 0.000000
Si Si2 0.882130 0.786303 0.103227
Si Si3 0.057500 0.606311 0.185522
Si Si4 0.466476 0.460613 0.385910
Si Si5 0.368129 0.730513 0.821297
Si Si6 0.805652 0.170623 0.160884
Si Si7 0.275978 0.531497 0.670552
O O1 0.691210 0.701200 0.992820
O O2 0.517030 0.985687 0.108624
O O3 0.829456 0.624921 0.235929
O O4 0.907684 0.244835 0.108099
O O5 0.000000 0.819868 0.000000
O O6 0.986470 0.753412 0.317654
O O7 0.128537 0.734231 0.034306
O O8 0.393736 0.947374 0.777850
O O9 0.500000 0.460585 0.500000
O O10 0.535028 0.609776 0.252760
O O11 0.357018 0.532074 0.483970
O O12 0.319973 0.640596 0.746704
O O13 0.185977 0.960606 0.808603
O O14 0.730729 0.315056 0.288821
#
# Coordination Sequence:
#
# PCOD9124237 Si02
#       7
#     2   4   4   4   4   4   4
#     4  10  20  42  70  98 124 180 244 276 326 406
#     4  12  23  40  74  96 134 183 233 287 338 400
#     4  11  21  42  73  97 134 184 228 280 344 406
#     4  10  24  43  65 101 144 180 219 281 356 419
#     4  10  23  40  66  99 137 179 220 278 349 411
#     4  11  22  40  69  97 134 176 235 286 333 401
#     4  11  25  41  65 104 141 169 238 287 335 413
#
# _framework density 24.296685
#
# number of rings (size 3 to 8) (size 9 to 14) (size 15 to 20)
#    0.000    1.231    6.154    0.000    2.154    5.538 
#    0.000    0.000   27.077    0.000    0.000    0.000 
#    0.000    0.000    0.000    0.000    0.000    0.000 
#
# Total GULP energy -72543.055693 kJ/mol
# GULP energy per Si atom -5580.235053 kJ/mol
# Density = 2.424138 g / cm^3
# Si number density = 24.296685 Si / 1000 Ang^3
#
#
#
# Elastic Constant Matrix: (Units=GPa)
#
#
# Indices 1 2 3 4 5 6 
#
# 1 59.3655 7.5269 13.5857 0.0000 -14.5466 0.0000
# 2 7.5269 144.3534 13.2659 0.0000 -14.3253 0.0000
# 3 13.5857 13.2659 74.1145 0.0000 -29.9660 0.0000
# 4 0.0000 0.0000 0.0000 43.6505 0.0000 -7.7890
# 5 -14.5466 -14.3253 -29.9660 0.0000 28.6045 0.0000
# 6 0.0000 0.0000 0.0000 -7.7890 0.0000 34.4205
#
#
#
# Elastic Compliance Matrix: (Units=1/GPa)
#
#
# Indices 1 2 3 4 5 6 
#
# 1 0.019266 -0.000025 0.000745 0.000000 0.010566 0.000000
# 2 -0.000025 0.007294 0.000296 0.000000 0.003951 0.000000
# 3 0.000745 0.000296 0.023448 0.000000 0.025091 0.000000
# 4 0.000000 0.000000 0.000000 0.023873 0.000000 0.005402
# 5 0.010566 0.003951 0.025091 0.000000 0.068596 0.000000
# 6 0.000000 0.000000 0.000000 0.005402 0.000000 0.030275
#
#
# Mechanical properties :
#
#
# Convention : Reuss Voigt Hill
#
# Bulk Modulus (GPa) = 19.21573 38.51005 28.86289
# Shear Modulus (GPa) = 26.58631 37.56541 32.07586
#
# Velocity S-wave (km/s) = 3.31151 3.93633 3.63736
# Velocity P-wave (km/s) = 4.74841 6.04516 5.43559
#
# Compressibility (1/GPa) = 0.05204071
#
# Stress axis : x y z
#
# Youngs Moduli (GPa) = 51.90366 137.10767 42.64764
#
# Poissons Ratio (x) = 0.00336 -0.03175
# Poissons Ratio (y) = 0.00127 -0.01264
# Poissons Ratio (z) = -0.03865 -0.04063
#
# Static dielectric constant tensor:
#      x y z
#    x 2.023630 0.000000 -0.060360 
#    y 0.000000 2.026050 0.000000 
#    z -0.060360 0.000000 1.931030 
# 
# From -- ./inp_files/63531.got.cif
#   From: 2010.05.17/outbox.cif.g08.bks.cpg/sg5_32_cif.got.tgz:63531.got - 2010.06.03 18:56:24.
