data_PCOD9124619
_publ_section_title
;
Structure prediction by ZEFSAII (Michael W. Deem and Ramdas Pophale) SiO2 
 PCOD9124619
Probable space group: C 2
;
_chemical_formula_sum "Si O2"
_cell_formula_units_Z 28
_cell_length_a 10.199801
_cell_length_b 13.369426
_cell_length_c 11.253704
_cell_angle_alpha 90.000000
_cell_angle_beta 108.378372
_cell_angle_gamma 90.000000
_cell_volume 1456.343817
_symmetry_space_group_name_H-M "C 2"
_symmetry_group_IT_number 5
_symmetry_cell_setting 'monoclinic'
loop_
_space_group_symop_operation_xyz
x,y,z
-x,y,-z
1/2+x,1/2+y,z
1/2-x,1/2+y,-z
loop_
_atom_site_type_symbol
_atom_site_label
_atom_site_fract_x
_atom_site_fract_y
_atom_site_fract_z
Si Si1 0.517843 0.190650 0.727664
Si Si2 0.355117 0.261286 0.000235
Si Si3 0.114672 0.872984 0.428620
Si Si4 0.648916 0.879596 0.088693
Si Si5 0.770972 0.251044 0.657441
Si Si6 0.790097 0.591561 0.796270
Si Si7 0.975736 0.086131 0.631172
O O1 0.604911 0.192689 0.874395
O O2 0.443405 0.297706 0.686485
O O3 0.631066 0.189205 0.654124
O O4 0.391873 0.113455 0.712767
O O5 0.254557 0.346101 0.017348
O O6 0.500000 0.305771 0.000000
O O7 0.297712 0.190059 0.880809
O O8 0.240080 0.818904 0.532522
O O9 0.000000 0.879125 0.500000
O O10 0.118311 0.986205 0.384922
O O11 0.694646 0.822939 0.222138
O O12 0.651647 0.996595 0.117176
O O13 0.500000 0.847412 0.000000
O O14 0.895655 0.176001 0.670295
O O15 0.630917 0.568669 0.722235
O O16 0.000000 0.110351 0.500000
#
# Coordination Sequence:
#
# PCOD9124619 Si02
#       7
#     4   4   4   4   4   4   4
#     4   9  18  36  57  78 109 147 185 226 274 330
#     4   9  19  36  55  79 109 147 189 228 272 328
#     4   9  18  35  58  80 109 147 184 224 278 332
#     4  11  21  37  57  82 115 150 186 233 282 330
#     4  10  21  37  58  84 112 147 189 233 277 331
#     4  11  21  37  58  82 112 150 188 230 281 333
#     4  11  21  36  58  85 112 146 186 232 281 334
#
# _framework density 19.226229
#
# number of rings (size 3 to 8) (size 9 to 14) (size 15 to 20)
#    0.000    2.000    0.000    6.429    0.000    0.000 
#    0.000   16.429    0.000    0.000    0.000    0.000 
#    0.000    0.000    0.000    0.000    0.000    0.000 
#
# Total GULP energy -78040.858140 kJ/mol
# GULP energy per Si atom -5574.347010 kJ/mol
# Density = 1.918247 g / cm^3
# Si number density = 19.226229 Si / 1000 Ang^3
#
#
#
# Elastic Constant Matrix: (Units=GPa)
#
#
# Indices 1 2 3 4 5 6 
#
# 1 95.1273 36.1221 11.7615 0.0000 5.2275 0.0000
# 2 36.1221 71.3515 4.0247 0.0000 -9.3841 0.0000
# 3 11.7615 4.0247 64.7162 0.0000 9.7927 0.0000
# 4 0.0000 0.0000 0.0000 25.5949 0.0000 -1.6995
# 5 5.2275 -9.3841 9.7927 0.0000 26.1140 0.0000
# 6 0.0000 0.0000 0.0000 -1.6995 0.0000 24.5070
#
#
#
# Elastic Compliance Matrix: (Units=1/GPa)
#
#
# Indices 1 2 3 4 5 6 
#
# 1 0.013827 -0.007587 -0.001283 0.000000 -0.005014 0.000000
# 2 -0.007587 0.019078 -0.001139 0.000000 0.008802 0.000000
# 3 -0.001283 -0.001139 0.016728 0.000000 -0.006426 0.000000
# 4 0.000000 0.000000 0.000000 0.039251 0.000000 0.002722
# 5 -0.005014 0.008802 -0.006426 0.000000 0.044870 0.000000
# 6 0.000000 0.000000 0.000000 0.002722 0.000000 0.040994
#
#
# Mechanical properties :
#
#
# Convention : Reuss Voigt Hill
#
# Bulk Modulus (GPa) = 33.76610 37.22350 35.49480
# Shear Modulus (GPa) = 24.43334 27.19561 25.81447
#
# Velocity S-wave (km/s) = 3.56874 3.76507 3.66822
# Velocity P-wave (km/s) = 5.88064 6.18901 6.03679
#
# Compressibility (1/GPa) = 0.02961550
#
# Stress axis : x y z
#
# Youngs Moduli (GPa) = 72.32045 52.41622 59.77868
#
# Poissons Ratio (x) = 0.39769 0.07667
# Poissons Ratio (y) = 0.54871 0.06811
# Poissons Ratio (z) = 0.09275 0.05973
#
# Static dielectric constant tensor:
#      x y z
#    x 1.690450 0.000000 0.000000 
#    y 0.000000 1.653190 0.000000 
#    z 0.000000 0.000000 1.702990 
# 
# From -- ./inp_files/36071.got.cif
#   From: 2010.05.17/outbox.cif.g08.bks.cpg/sg5_19_cif.got.tgz:36071.got - 2010.06.03 18:56:24.
