data_PCOD9124178
_publ_section_title
;
Structure prediction by ZEFSAII (Michael W. Deem and Ramdas Pophale) SiO2 
 PCOD9124178
Probable space group: C 2
;
_chemical_formula_sum "Si O2"
_cell_formula_units_Z 28
_cell_length_a 17.885084
_cell_length_b 8.900081
_cell_length_c 14.160786
_cell_angle_alpha 90.000000
_cell_angle_beta 38.063790
_cell_angle_gamma 90.000000
_cell_volume 1389.736454
_symmetry_space_group_name_H-M "C 2"
_symmetry_group_IT_number 5
_symmetry_cell_setting 'monoclinic'
loop_
_space_group_symop_operation_xyz
x,y,z
-x,y,-z
1/2+x,1/2+y,z
1/2-x,1/2+y,-z
loop_
_atom_site_type_symbol
_atom_site_label
_atom_site_fract_x
_atom_site_fract_y
_atom_site_fract_z
Si Si1 0.810888 0.300720 0.997569
Si Si2 0.966352 0.471073 0.134479
Si Si3 0.272079 0.731258 0.250177
Si Si4 0.577297 0.445963 0.514404
Si Si5 0.346695 0.485102 0.293719
Si Si6 0.591346 0.475069 0.137934
Si Si7 0.242003 0.658336 0.573528
O O1 0.866351 0.147878 0.901325
O O2 0.919048 0.413651 0.920017
O O3 0.755527 0.260826 0.155751
O O4 0.710687 0.373012 0.028639
O O5 0.885029 0.329782 0.178413
O O6 0.885283 0.575614 0.281422
O O7 0.000000 0.547188 0.000000
O O8 0.155605 0.796151 0.420092
O O9 0.301694 0.558912 0.242031
O O10 0.500000 0.474891 0.500000
O O11 0.491259 0.435246 0.689696
O O12 0.670056 0.582735 0.437104
O O13 0.491678 0.461620 0.153774
O O14 0.305006 0.609358 0.413198
O O15 0.279535 0.333397 0.390898
#
# Coordination Sequence:
#
# PCOD9124178 Si02
#       7
#     4   4   4   4   4   4   4
#     4  11  23  41  62  93 132 174 203 267 332 386
#     4   9  19  38  62  87 122 170 211 252 319 390
#     4  10  20  43  68  87 120 173 220 260 320 387
#     4  10  20  42  67  88 124 171 217 262 327 383
#     4  11  22  41  65  95 122 167 221 268 314 382
#     4  11  24  39  64  91 131 167 211 270 323 385
#     4  10  22  37  65  92 123 161 216 272 315 375
#
# _framework density 20.147705999999999
#
# number of rings (size 3 to 8) (size 9 to 14) (size 15 to 20)
#    0.000    1.714    2.857    2.571    4.000    0.000 
#    5.143    0.714    0.000    0.000    0.000    0.000 
#    0.000    0.000    0.000    0.000    0.000    0.000 
#
# Total GULP energy -78142.656507 kJ/mol
# GULP energy per Si atom -5581.618322 kJ/mol
# Density = 2.010185 g / cm^3
# Si number density = 20.147706 Si / 1000 Ang^3
#
#
#
# Elastic Constant Matrix: (Units=GPa)
#
#
# Indices 1 2 3 4 5 6 
#
# 1 77.6397 31.5844 10.0246 0.0000 -22.6542 0.0000
# 2 31.5844 68.5529 7.6068 0.0000 -14.7325 0.0000
# 3 10.0246 7.6068 68.6998 0.0000 -13.8596 0.0000
# 4 0.0000 0.0000 0.0000 -13.9804 0.0000 -9.6094
# 5 -22.6542 -14.7325 -13.8596 0.0000 26.8232 0.0000
# 6 0.0000 0.0000 0.0000 -9.6094 0.0000 14.6549
#
#
#
# Elastic Compliance Matrix: (Units=1/GPa)
#
#
# Indices 1 2 3 4 5 6 
#
# 1 0.019084 -0.006042 0.000521 0.000000 0.013068 0.000000
# 2 -0.006042 0.018452 -0.000163 0.000000 0.004948 0.000000
# 3 0.000521 -0.000163 0.016264 0.000000 0.008754 0.000000
# 4 0.000000 0.000000 0.000000 -0.049306 0.000000 -0.032331
# 5 0.013068 0.004948 0.008754 0.000000 0.055559 0.000000
# 6 0.000000 0.000000 0.000000 -0.032331 0.000000 0.047037
#
#
# Mechanical properties :
#
#
# Convention : Reuss Voigt Hill
#
# Bulk Modulus (GPa) = 23.56744 34.81378 29.19061
# Shear Modulus (GPa) = 37.70672 16.54466 27.12569
#
# Velocity S-wave (km/s) = 4.33079 2.86871 3.67323
# Velocity P-wave (km/s) = 6.06056 5.31878 5.70175
#
# Compressibility (1/GPa) = 0.04243141
#
# Stress axis : x y z
#
# Youngs Moduli (GPa) = 52.40061 54.19375 61.48470
#
# Poissons Ratio (x) = 0.32743 -0.03202
# Poissons Ratio (y) = 0.31659 0.01005
# Poissons Ratio (z) = -0.02729 0.00885
#
# Static dielectric constant tensor:
#      x y z
#    x 1.767830 0.000000 0.019230 
#    y 0.000000 1.712290 0.000000 
#    z 0.019230 0.000000 1.746570 
# 
# From -- ./inp_files/45992.got.cif
#   From: 2010.05.17/outbox.cif.g08.bks.cpg/sg5_23_cif.got.tgz:45992.got - 2010.06.03 18:56:24.
