data_PCOD9124648
_publ_section_title
;
Structure prediction by ZEFSAII (Michael W. Deem and Ramdas Pophale) SiO2 
 PCOD9124648
Probable space group: C 2
;
_chemical_formula_sum "Si O2"
_cell_formula_units_Z 28
_cell_length_a 8.794191
_cell_length_b 17.334985
_cell_length_c 12.580512
_cell_angle_alpha 90.000000
_cell_angle_beta 133.670919
_cell_angle_gamma 90.000000
_cell_volume 1387.224604
_symmetry_space_group_name_H-M "C 2"
_symmetry_group_IT_number 5
_symmetry_cell_setting 'monoclinic'
loop_
_space_group_symop_operation_xyz
x,y,z
-x,y,-z
1/2+x,1/2+y,z
1/2-x,1/2+y,-z
loop_
_atom_site_type_symbol
_atom_site_label
_atom_site_fract_x
_atom_site_fract_y
_atom_site_fract_z
Si Si1 0.668439 0.243420 0.889894
Si Si2 0.210964 0.653833 0.542646
Si Si3 0.610744 0.578045 0.730329
Si Si4 0.271741 0.727610 0.351380
Si Si5 0.206959 0.070867 0.026884
Si Si6 0.056669 0.451086 0.153774
Si Si7 0.584404 0.781802 0.205805
O O1 0.430338 0.273178 0.791375
O O2 0.674550 0.150388 0.889977
O O3 0.775429 0.271016 0.832461
O O4 0.839846 0.266133 0.061354
O O5 0.361026 0.580881 0.596291
O O6 0.175897 0.693366 0.413359
O O7 0.329939 0.719091 0.670514
O O8 0.000000 0.632714 0.500000
O O9 0.681709 0.656782 0.705802
O O10 0.742146 0.507044 0.749047
O O11 0.650231 0.578662 0.875234
O O12 0.500000 0.760556 0.500000
O O13 0.362957 0.998752 0.109336
O O14 0.000000 0.065647 0.000000
O O15 0.098710 0.372264 0.236131
O O16 0.000000 0.435534 0.000000
#
# Coordination Sequence:
#
# PCOD9124648 Si02
#       7
#     4   4   4   4   4   4   4
#     4  11  18  35  65  89 123 157 220 258 303 386
#     4  11  21  37  62  92 122 164 219 267 303 377
#     4  10  21  37  60  90 125 168 207 268 316 380
#     4  10  22  37  58  93 123 163 215 260 313 369
#     4  11  20  35  63  94 124 162 213 268 314 376
#     4  10  21  37  61  93 134 161 207 263 336 383
#     4  11  21  37  63 100 120 167 208 266 324 379
#
# _framework density 20.184187000000001
#
# number of rings (size 3 to 8) (size 9 to 14) (size 15 to 20)
#    0.000    1.429    7.143    0.000    0.000    0.000 
#    0.000    5.000    0.000    0.857    0.000    0.000 
#    0.000    0.000    0.000    0.000    0.000    0.000 
#
# Total GULP energy -78082.968537 kJ/mol
# GULP energy per Si atom -5577.354896 kJ/mol
# Density = 2.013825 g / cm^3
# Si number density = 20.184187 Si / 1000 Ang^3
#
#
#
# Elastic Constant Matrix: (Units=GPa)
#
#
# Indices 1 2 3 4 5 6 
#
# 1 87.8618 2.3309 31.8544 0.0000 22.6950 0.0000
# 2 2.3309 60.4214 17.7514 0.0000 10.3244 0.0000
# 3 31.8544 17.7514 92.3237 0.0000 31.7626 0.0000
# 4 0.0000 0.0000 0.0000 9.9183 0.0000 -1.1774
# 5 22.6950 10.3244 31.7626 0.0000 42.5064 0.0000
# 6 0.0000 0.0000 0.0000 -1.1774 0.0000 13.8807
#
#
#
# Elastic Compliance Matrix: (Units=1/GPa)
#
#
# Indices 1 2 3 4 5 6 
#
# 1 0.013889 0.001319 -0.003209 0.000000 -0.005338 0.000000
# 2 0.001319 0.017842 -0.002897 0.000000 -0.002873 0.000000
# 3 -0.003209 -0.002897 0.015700 0.000000 -0.009315 0.000000
# 4 0.000000 0.000000 0.000000 0.101849 0.000000 0.008639
# 5 -0.005338 -0.002873 -0.009315 0.000000 0.034034 0.000000
# 6 0.000000 0.000000 0.000000 0.008639 0.000000 0.072775
#
#
# Mechanical properties :
#
#
# Convention : Reuss Voigt Hill
#
# Bulk Modulus (GPa) = 26.41579 38.27559 32.34569
# Shear Modulus (GPa) = 17.96731 25.83910 21.90320
#
# Velocity S-wave (km/s) = 2.98680 3.58182 3.29776
# Velocity P-wave (km/s) = 5.00105 6.00918 5.52814
#
# Compressibility (1/GPa) = 0.03785614
#
# Stress axis : x y z
#
# Youngs Moduli (GPa) = 72.00042 56.04870 63.69241
#
# Poissons Ratio (x) = -0.07394 0.20441
# Poissons Ratio (y) = -0.09498 0.18453
# Poissons Ratio (z) = 0.23107 0.16239
#
# Static dielectric constant tensor:
#      x y z
#    x 1.735410 0.000000 -0.003780 
#    y 0.000000 1.687850 0.000000 
#    z -0.003780 0.000000 1.857760 
# 
# From -- ./inp_files/51397.got.cif
#   From: 2010.05.17/outbox.cif.g08.bks.cpg/sg5_26_cif.got.tgz:51397.got - 2010.06.03 18:56:24.
