data_PCOD9124739
_publ_section_title
;
Structure prediction by ZEFSAII (Michael W. Deem and Ramdas Pophale) SiO2 
 PCOD9124739
Probable space group: C 2
;
_chemical_formula_sum "Si O2"
_cell_formula_units_Z 30
_cell_length_a 18.570420
_cell_length_b 5.199026
_cell_length_c 14.529098
_cell_angle_alpha 90.000000
_cell_angle_beta 109.687422
_cell_angle_gamma 90.000000
_cell_volume 1320.757940
_symmetry_space_group_name_H-M "C 2"
_symmetry_group_IT_number 5
_symmetry_cell_setting 'monoclinic'
loop_
_space_group_symop_operation_xyz
x,y,z
-x,y,-z
1/2+x,1/2+y,z
1/2-x,1/2+y,-z
loop_
_atom_site_type_symbol
_atom_site_label
_atom_site_fract_x
_atom_site_fract_y
_atom_site_fract_z
Si Si1 0.647012 0.199620 0.480436
Si Si2 0.347934 0.293298 0.210017
Si Si3 0.197979 0.593488 0.192202
Si Si4 0.797623 0.855097 0.999345
Si Si5 0.273193 0.466917 0.639387
Si Si6 0.095721 0.353887 0.284295
Si Si7 0.933107 0.291427 0.300888
Si Si8 0.000000 0.602103 0.500000
O O1 0.701588 0.397926 0.453520
O O2 0.694124 0.109541 0.589135
O O3 0.563522 0.276797 0.478275
O O4 0.628145 0.995195 0.390816
O O5 0.259683 0.370666 0.193907
O O6 0.360989 0.339632 0.106290
O O7 0.371218 0.000157 0.238350
O O8 0.399277 0.504286 0.285454
O O9 0.117222 0.513596 0.202583
O O10 0.238050 0.738113 0.294945
O O11 0.185533 0.768721 0.097202
O O12 0.736857 0.638539 0.006600
O O13 0.348363 0.613407 0.705057
O O14 0.008050 0.297367 0.267313
O O15 0.961170 0.412280 0.409214
#
# Coordination Sequence:
#
# PCOD9124739 Si02
#       8
#     4   4   4   4   4   4   4   2
#     4  10  21  38  58  91 124 179 216 281 320 397
#     4  11  24  44  71  98 131 176 226 277 339 402
#     4  10  24  39  71  97 125 173 228 283 335 403
#     4  10  22  42  71 103 135 164 219 289 343 390
#     4  11  21  38  65  91 132 173 230 268 342 400
#     4  10  24  41  61  90 137 177 217 276 336 400
#     4  11  26  45  65  97 141 181 218 277 338 397
#     4  10  24  40  62  96 136 174 232 272 332 388
#
# _framework density 22.714230000000001
#
# number of rings (size 3 to 8) (size 9 to 14) (size 15 to 20)
#    0.000    1.600    1.333    2.400   13.067    0.533 
#    2.400    0.667    0.000    0.000    0.000    0.000 
#    0.000    0.000    0.000    0.000    0.000    0.000 
#
# Total GULP energy -83765.128604 kJ/mol
# GULP energy per Si atom -5584.341907 kJ/mol
# Density = 2.266253 g / cm^3
# Si number density = 22.714230 Si / 1000 Ang^3
#
#
#
# Elastic Constant Matrix: (Units=GPa)
#
#
# Indices 1 2 3 4 5 6 
#
# 1 117.8070 22.0493 16.7529 0.0000 -19.6222 0.0000
# 2 22.0493 36.8405 -8.9230 0.0000 -2.0923 0.0000
# 3 16.7529 -8.9230 85.1281 0.0000 -20.4277 0.0000
# 4 0.0000 0.0000 0.0000 38.4381 0.0000 -4.4426
# 5 -19.6222 -2.0923 -20.4277 0.0000 27.8779 0.0000
# 6 0.0000 0.0000 0.0000 -4.4426 0.0000 27.0855
#
#
#
# Elastic Compliance Matrix: (Units=1/GPa)
#
#
# Indices 1 2 3 4 5 6 
#
# 1 0.010936 -0.006516 -0.001341 0.000000 0.006225 0.000000
# 2 -0.006516 0.032353 0.005042 0.000000 0.001536 0.000000
# 3 -0.001341 0.005042 0.015050 0.000000 0.010462 0.000000
# 4 0.000000 0.000000 0.000000 0.026519 0.000000 0.004350
# 5 0.006225 0.001536 0.010462 0.000000 0.048034 0.000000
# 6 0.000000 0.000000 0.000000 0.004350 0.000000 0.037634
#
#
# Mechanical properties :
#
#
# Convention : Reuss Voigt Hill
#
# Bulk Modulus (GPa) = 18.97266 33.28153 26.12710
# Shear Modulus (GPa) = 25.80980 32.67341 29.24160
#
# Velocity S-wave (km/s) = 3.37454 3.79681 3.59189
# Velocity P-wave (km/s) = 4.85327 5.82281 5.36001
#
# Compressibility (1/GPa) = 0.05270743
#
# Stress axis : x y z
#
# Youngs Moduli (GPa) = 91.44316 30.90940 66.44484
#
# Poissons Ratio (x) = 0.20142 0.08912
# Poissons Ratio (y) = 0.59588 -0.33503
# Poissons Ratio (z) = 0.12265 -0.15585
#
# Static dielectric constant tensor:
#      x y z
#    x 1.828690 0.000000 -0.022550 
#    y 0.000000 1.917350 0.000000 
#    z -0.022550 0.000000 1.870240 
# 
# From -- ./inp_files/55483.got.cif
#   From: 2010.05.17/outbox.cif.g08.bks.cpg/sg5_28_cif.got.tgz:55483.got - 2010.06.03 18:56:24.
