data_PCOD9124753
_publ_section_title
;
Structure prediction by ZEFSAII (Michael W. Deem and Ramdas Pophale) SiO2 
 PCOD9124753
Probable space group: C 2
;
_chemical_formula_sum "Si O2"
_cell_formula_units_Z 32
_cell_length_a 8.169755
_cell_length_b 24.074314
_cell_length_c 13.481698
_cell_angle_alpha 90.000000
_cell_angle_beta 32.590825
_cell_angle_gamma 90.000000
_cell_volume 1428.245360
_symmetry_space_group_name_H-M "C 2"
_symmetry_group_IT_number 5
_symmetry_cell_setting 'monoclinic'
loop_
_space_group_symop_operation_xyz
x,y,z
-x,y,-z
1/2+x,1/2+y,z
1/2-x,1/2+y,-z
loop_
_atom_site_type_symbol
_atom_site_label
_atom_site_fract_x
_atom_site_fract_y
_atom_site_fract_z
Si Si1 0.864659 0.812600 0.798800
Si Si2 0.349872 0.627291 0.685417
Si Si3 0.756231 0.348580 0.790077
Si Si4 0.136282 0.912792 0.539237
Si Si5 0.647644 0.092189 0.187084
Si Si6 0.739202 0.031383 0.465464
Si Si7 0.642708 0.203806 0.316166
Si Si8 0.858039 0.233923 0.810152
O O1 0.960799 0.753665 0.701796
O O2 0.066066 0.825805 0.793237
O O3 0.948300 0.862836 0.683277
O O4 0.500000 0.812310 0.000000
O O5 0.500000 0.627103 0.500000
O O6 0.509076 0.579358 0.667282
O O7 0.414535 0.686164 0.701379
O O8 0.001373 0.612070 0.840239
O O9 0.948891 0.296099 0.734218
O O10 0.008165 0.394817 0.640342
O O11 0.500000 0.366342 0.000000
O O12 0.000000 0.921534 0.500000
O O13 0.115700 0.970829 0.607219
O O14 0.448310 0.042947 0.336793
O O15 0.613028 0.144691 0.279604
O O16 0.000000 0.078139 0.000000
O O17 0.500000 0.037379 0.500000
O O18 0.500000 0.206051 0.500000
O O19 0.994192 0.216280 0.162090
O O20 0.500000 0.237424 0.000000
#
# Coordination Sequence:
#
# PCOD9124753 Si02
#       8
#     4   4   4   4   4   4   4   4
#     4  12  24  42  65  96 131 169 214 266 322 385
#     4  10  21  38  60  86 121 163 203 250 306 367
#     4  11  24  42  65  95 129 167 212 264 319 383
#     4  12  25  45  68  92 124 167 215 268 324 381
#     4  11  22  39  63  95 128 166 211 265 319 377
#     4  11  24  44  64  88 121 162 213 265 316 381
#     4  12  23  38  63  95 131 172 211 258 318 385
#     4  11  21  36  57  89 125 160 199 250 306 367
#
# _framework density 22.405114000000001
#
# number of rings (size 3 to 8) (size 9 to 14) (size 15 to 20)
#    0.000    0.750    0.000   10.875    0.000    1.500 
#    0.000    4.375    0.000    0.000    0.000    0.000 
#    0.000    0.000    0.000    0.000    0.000    0.000 
#
# Total GULP energy -89564.400192 kJ/mol
# GULP energy per Si atom -5597.775012 kJ/mol
# Density = 2.235412 g / cm^3
# Si number density = 22.405114 Si / 1000 Ang^3
#
#
#
# Elastic Constant Matrix: (Units=GPa)
#
#
# Indices 1 2 3 4 5 6 
#
# 1 109.7149 -12.3426 -10.5050 0.0000 -11.4097 0.0000
# 2 -12.3426 70.4851 -0.5180 0.0000 5.7891 0.0000
# 3 -10.5050 -0.5180 65.0195 0.0000 -11.5616 0.0000
# 4 0.0000 0.0000 0.0000 18.0036 0.0000 -6.6145
# 5 -11.4097 5.7891 -11.5616 0.0000 29.3066 0.0000
# 6 0.0000 0.0000 0.0000 -6.6145 0.0000 36.6912
#
#
#
# Elastic Compliance Matrix: (Units=1/GPa)
#
#
# Indices 1 2 3 4 5 6 
#
# 1 0.009980 0.001390 0.002436 0.000000 0.004572 0.000000
# 2 0.001390 0.014626 -0.000082 0.000000 -0.002380 0.000000
# 3 0.002436 -0.000082 0.017147 0.000000 0.007730 0.000000
# 4 0.000000 0.000000 0.000000 0.059484 0.000000 0.010724
# 5 0.004572 -0.002380 0.007730 0.000000 0.039421 0.000000
# 6 0.000000 0.000000 0.000000 0.010724 0.000000 0.029188
#
#
# Mechanical properties :
#
#
# Convention : Reuss Voigt Hill
#
# Bulk Modulus (GPa) = 20.30822 22.05424 21.18123
# Shear Modulus (GPa) = 27.96864 34.70595 31.33729
#
# Velocity S-wave (km/s) = 3.53698 3.94003 3.74393
# Velocity P-wave (km/s) = 5.07584 5.52840 5.30694
#
# Compressibility (1/GPa) = 0.04924115
#
# Stress axis : x y z
#
# Youngs Moduli (GPa) = 100.20410 68.37286 58.31770
#
# Poissons Ratio (x) = -0.09503 -0.14209
# Poissons Ratio (y) = -0.13928 0.00479
# Poissons Ratio (z) = -0.24414 0.00562
#
# Static dielectric constant tensor:
#      x y z
#    x 1.866510 0.000000 -0.007380 
#    y 0.000000 1.804840 0.000000 
#    z -0.007380 0.000000 1.930670 
# 
# From -- ./inp_files/51675.got.cif
#   From: 2010.05.17/outbox.cif.g08.bks.cpg/sg5_26_cif.got.tgz:51675.got - 2010.06.03 18:56:24.
