data_PCOD9124587
_publ_section_title
;
Structure prediction by ZEFSAII (Michael W. Deem and Ramdas Pophale) SiO2 
 PCOD9124587
Probable space group: C 2
;
_chemical_formula_sum "Si O2"
_cell_formula_units_Z 32
_cell_length_a 16.951580
_cell_length_b 7.900356
_cell_length_c 10.491889
_cell_angle_alpha 90.000000
_cell_angle_beta 83.784216
_cell_angle_gamma 90.000000
_cell_volume 1396.850272
_symmetry_space_group_name_H-M "C 2"
_symmetry_group_IT_number 5
_symmetry_cell_setting 'monoclinic'
loop_
_space_group_symop_operation_xyz
x,y,z
-x,y,-z
1/2+x,1/2+y,z
1/2-x,1/2+y,-z
loop_
_atom_site_type_symbol
_atom_site_label
_atom_site_fract_x
_atom_site_fract_y
_atom_site_fract_z
Si Si1 0.545263 0.398440 0.617635
Si Si2 0.797144 0.723980 0.428274
Si Si3 0.432067 0.488172 0.101838
Si Si4 0.334314 0.936948 0.620427
Si Si5 0.844189 0.448511 0.228157
Si Si6 0.011144 0.527848 0.281395
Si Si7 0.237684 0.135501 0.833845
Si Si8 0.615259 0.138446 0.021167
O O1 0.500000 0.464555 0.500000
O O2 0.639807 0.377014 0.579308
O O3 0.539274 0.488099 0.756272
O O4 0.511230 0.207443 0.649193
O O5 0.824296 0.599710 0.533735
O O6 0.809321 0.617435 0.297109
O O7 0.707188 0.785116 0.445686
O O8 0.347755 0.578447 0.101669
O O9 0.500000 0.562758 0.000000
O O10 0.416905 0.295597 0.055856
O O11 0.424181 0.926881 0.648714
O O12 0.278926 0.981520 0.751348
O O13 0.783718 0.295331 0.250712
O O14 0.930230 0.425694 0.276529
O O15 0.862404 0.487815 0.077934
O O16 0.053538 0.577767 0.140163
O O17 0.303355 0.191935 0.923588
#
# Coordination Sequence:
#
# PCOD9124587 Si02
#       8
#     4   4   4   4   4   4   4   4
#     4  11  20  39  66  95 124 176 219 261 319 406
#     4  11  22  38  67  87 129 164 221 264 331 387
#     4  12  22  42  68  95 127 173 223 274 322 394
#     4  11  22  41  62  94 120 169 213 271 320 395
#     4  11  22  40  60  89 125 168 208 271 327 388
#     4  10  21  36  66  87 121 166 220 254 323 397
#     4  11  25  39  60  93 134 159 211 276 333 381
#     4  11  20  39  64  90 120 170 218 262 328 397
#
# _framework density 22.908683
#
# number of rings (size 3 to 8) (size 9 to 14) (size 15 to 20)
#    0.000    1.000    6.250    1.875    0.000    2.000 
#    0.000    2.500    0.000    0.000    0.000    0.000 
#    0.000    0.000    0.000    0.000    0.000    0.000 
#
# Total GULP energy -89484.131034 kJ/mol
# GULP energy per Si atom -5592.758190 kJ/mol
# Density = 2.285654 g / cm^3
# Si number density = 22.908683 Si / 1000 Ang^3
#
#
#
# Elastic Constant Matrix: (Units=GPa)
#
#
# Indices 1 2 3 4 5 6 
#
# 1 138.9157 19.8847 35.3508 0.0000 33.9813 0.0000
# 2 19.8847 29.3634 5.3715 0.0000 15.2748 0.0000
# 3 35.3508 5.3715 93.7626 0.0000 18.5488 0.0000
# 4 0.0000 0.0000 0.0000 2.4835 0.0000 -0.8843
# 5 33.9813 15.2748 18.5488 0.0000 41.0636 0.0000
# 6 0.0000 0.0000 0.0000 -0.8843 0.0000 25.2524
#
#
#
# Elastic Compliance Matrix: (Units=1/GPa)
#
#
# Indices 1 2 3 4 5 6 
#
# 1 0.009646 -0.003100 -0.002315 0.000000 -0.005784 0.000000
# 2 -0.003100 0.043272 0.001501 0.000000 -0.014209 0.000000
# 3 -0.002315 0.001501 0.012281 0.000000 -0.004190 0.000000
# 4 0.000000 0.000000 0.000000 0.407746 0.000000 0.014278
# 5 -0.005784 -0.014209 -0.004190 0.000000 0.036317 0.000000
# 6 0.000000 0.000000 0.000000 0.014278 0.000000 0.040100
#
#
# Mechanical properties :
#
#
# Convention : Reuss Voigt Hill
#
# Bulk Modulus (GPa) = 17.43058 42.58395 30.00727
# Shear Modulus (GPa) = 8.67581 27.18887 17.93234
#
# Velocity S-wave (km/s) = 1.94817 3.44879 2.80085
# Velocity P-wave (km/s) = 3.56170 5.87263 4.85662
#
# Compressibility (1/GPa) = 0.05737043
#
# Stress axis : x y z
#
# Youngs Moduli (GPa) = 103.66658 23.10940 81.42677
#
# Poissons Ratio (x) = 0.07165 0.18851
# Poissons Ratio (y) = 0.32140 -0.12220
# Poissons Ratio (z) = 0.24000 -0.03468
#
# Static dielectric constant tensor:
#      x y z
#    x 1.839800 0.000000 -0.012920 
#    y 0.000000 1.857740 0.000000 
#    z -0.012920 0.000000 1.901770 
# 
# From -- ./inp_files/41984.got.cif
#   From: 2010.05.17/outbox.cif.g08.bks.cpg/sg5_21_cif.got.tgz:41984.got - 2010.06.03 18:56:24.
