data_PCOD9124166
_publ_section_title
;
Structure prediction by ZEFSAII (Michael W. Deem and Ramdas Pophale) SiO2 
 PCOD9124166
Probable space group: C 2
;
_chemical_formula_sum "Si O2"
_cell_formula_units_Z 22
_cell_length_a 19.402803
_cell_length_b 7.869181
_cell_length_c 8.680266
_cell_angle_alpha 90.000000
_cell_angle_beta 136.993254
_cell_angle_gamma 90.000000
_cell_volume 903.993278
_symmetry_space_group_name_H-M "C 2"
_symmetry_group_IT_number 5
_symmetry_cell_setting 'monoclinic'
loop_
_space_group_symop_operation_xyz
x,y,z
-x,y,-z
1/2+x,1/2+y,z
1/2-x,1/2+y,-z
loop_
_atom_site_type_symbol
_atom_site_label
_atom_site_fract_x
_atom_site_fract_y
_atom_site_fract_z
Si Si1 0.030974 0.650580 0.879818
Si Si2 0.351638 0.328657 0.472416
Si Si3 0.265248 0.313383 0.845859
Si Si4 0.379510 0.554604 0.244376
Si Si5 0.197102 0.169397 0.422908
Si Si6 0.500000 0.830863 0.000000
O O1 0.964600 0.757840 0.656056
O O2 0.146363 0.672233 0.027356
O O3 0.004888 0.454331 0.860070
O O4 0.000000 0.721298 0.000000
O O5 0.333768 0.403180 0.276264
O O6 0.288985 0.182376 0.454465
O O7 0.329092 0.492237 0.540918
O O8 0.218544 0.301657 0.597650
O O9 0.176486 0.232327 0.806724
O O10 0.330757 0.480214 0.004165
O O11 0.500000 0.568423 0.500000
O O12 0.099520 0.224721 0.171014
#
# Coordination Sequence:
#
# PCOD9124166 Si02
#       6
#     4   4   4   4   4   2
#     4  10  20  42  66  94 133 166 219 286 331 398
#     4  11  22  42  69  96 135 172 227 279 349 393
#     4  11  24  46  67  95 136 177 228 272 344 399
#     4  11  25  47  67  99 137 184 224 277 335 414
#     4  11  23  40  67 101 131 176 226 286 333 408
#     4  10  22  36  60 106 132 164 228 276 340 394
#
# _framework density 24.336462999999998
#
# number of rings (size 3 to 8) (size 9 to 14) (size 15 to 20)
#    0.545    0.727    3.636    3.273    1.273    2.909 
#   13.091    0.000    0.000    0.000    0.000    0.000 
#    0.000    0.000    0.000    0.000    0.000    0.000 
#
# Total GULP energy -61291.382460 kJ/mol
# GULP energy per Si atom -5571.943860 kJ/mol
# Density = 2.428107 g / cm^3
# Si number density = 24.336463 Si / 1000 Ang^3
#
#
#
# Elastic Constant Matrix: (Units=GPa)
#
#
# Indices 1 2 3 4 5 6 
#
# 1 66.6010 21.0719 30.2834 0.0000 25.2836 0.0000
# 2 21.0719 70.0382 42.9130 0.0000 4.1519 0.0000
# 3 30.2834 42.9130 122.2467 0.0000 30.3897 0.0000
# 4 0.0000 0.0000 0.0000 33.9583 0.0000 7.3649
# 5 25.2836 4.1519 30.3897 0.0000 36.6399 0.0000
# 6 0.0000 0.0000 0.0000 7.3649 0.0000 70.0700
#
#
#
# Elastic Compliance Matrix: (Units=1/GPa)
#
#
# Indices 1 2 3 4 5 6 
#
# 1 0.022535 -0.006072 0.000307 0.000000 -0.015117 0.000000
# 2 -0.006072 0.020323 -0.007683 0.000000 0.008260 0.000000
# 3 0.000307 -0.007683 0.013400 0.000000 -0.010456 0.000000
# 4 0.000000 0.000000 0.000000 0.030135 0.000000 -0.003167
# 5 -0.015117 0.008260 -0.010456 0.000000 0.045460 0.000000
# 6 0.000000 0.000000 0.000000 -0.003167 0.000000 0.014604
#
#
# Mechanical properties :
#
#
# Convention : Reuss Voigt Hill
#
# Bulk Modulus (GPa) = 34.05752 49.71360 41.88556
# Shear Modulus (GPa) = 27.30133 39.10815 33.20474
#
# Velocity S-wave (km/s) = 3.35300 4.01306 3.69779
# Velocity P-wave (km/s) = 5.38656 6.47648 5.95650
#
# Compressibility (1/GPa) = 0.02936209
#
# Stress axis : x y z
#
# Youngs Moduli (GPa) = 44.37507 49.20630 74.62467
#
# Poissons Ratio (x) = 0.29878 -0.02291
# Poissons Ratio (y) = 0.26944 0.57335
# Poissons Ratio (z) = -0.01362 0.37806
#
# Static dielectric constant tensor:
#      x y z
#    x 1.515430 0.000000 -0.192460 
#    y 0.000000 1.947200 0.000000 
#    z -0.192460 0.000000 1.930480 
# 
# From -- ./inp_files/29058.got.cif
#   From: 2010.05.17/outbox.cif.g08.bks.cpg/sg5_15_cif.got.tgz:29058.got - 2010.06.03 18:56:24.
