data_PCOD9124076
_publ_section_title
;
Structure prediction by ZEFSAII (Michael W. Deem and Ramdas Pophale) SiO2 
 PCOD9124076
Probable space group: C 2
;
_chemical_formula_sum "Si O2"
_cell_formula_units_Z 26
_cell_length_a 12.211852
_cell_length_b 16.297695
_cell_length_c 5.276795
_cell_angle_alpha 90.000000
_cell_angle_beta 70.899226
_cell_angle_gamma 90.000000
_cell_volume 992.394248
_symmetry_space_group_name_H-M "C 2"
_symmetry_group_IT_number 5
_symmetry_cell_setting 'monoclinic'
loop_
_space_group_symop_operation_xyz
x,y,z
-x,y,-z
1/2+x,1/2+y,z
1/2-x,1/2+y,-z
loop_
_atom_site_type_symbol
_atom_site_label
_atom_site_fract_x
_atom_site_fract_y
_atom_site_fract_z
Si Si1 0.627727 0.676850 0.761434
Si Si2 0.500000 0.423685 0.500000
Si Si3 0.365892 0.573683 0.766793
Si Si4 0.629379 0.012210 0.811306
Si Si5 0.127349 0.819767 0.782053
Si Si6 0.623805 0.164545 0.516456
Si Si7 0.879875 0.351818 0.464074
O O1 0.624158 0.613864 0.522818
O O2 0.764530 0.693530 0.716819
O O3 0.589199 0.764404 0.684975
O O4 0.592047 0.638643 0.058127
O O5 0.437758 0.489358 0.732102
O O6 0.599299 0.366062 0.538084
O O7 0.232793 0.546959 0.903640
O O8 0.636305 0.068763 0.556621
O O9 0.647117 0.918572 0.729116
O O10 0.500000 0.026418 0.000000
O O11 0.131910 0.721123 0.760744
O O12 0.262607 0.844732 0.726516
O O13 0.000000 0.838140 0.000000
O O14 0.500000 0.183259 0.500000
O O15 0.000000 0.380605 0.500000
#
# Coordination Sequence:
#
# PCOD9124076 Si02
#       7
#     4   2   4   4   4   4   4
#     4  10  26  48  76 108 154 207 261 326 403 473
#     4  12  26  46  76 110 152 204 276 338 406 468
#     4  11  26  49  76 111 150 204 269 332 396 471
#     4  11  23  42  72 112 154 208 260 326 404 484
#     4  11  25  46  77 113 156 205 268 339 404 479
#     4  10  20  41  71 109 148 196 259 324 399 473
#     4  11  26  50  73 119 163 214 271 329 409 495
#
# _framework density 26.199266999999999
#
# number of rings (size 3 to 8) (size 9 to 14) (size 15 to 20)
#    0.000    1.231    2.308    1.846    3.231    6.154 
#    0.000    0.000    0.000    0.000    0.000    0.000 
#    0.000    0.000    0.000    0.000    0.000    0.000 
#
# Total GULP energy -72605.780691 kJ/mol
# GULP energy per Si atom -5585.060053 kJ/mol
# Density = 2.613964 g / cm^3
# Si number density = 26.199267 Si / 1000 Ang^3
#
#
#
# Elastic Constant Matrix: (Units=GPa)
#
#
# Indices 1 2 3 4 5 6 
#
# 1 142.9515 7.3801 31.7819 0.0000 -14.7219 0.0000
# 2 7.3801 133.1387 17.2653 0.0000 13.5147 0.0000
# 3 31.7819 17.2653 97.4195 0.0000 -11.7846 0.0000
# 4 0.0000 0.0000 0.0000 21.1298 0.0000 -3.4976
# 5 -14.7219 13.5147 -11.7846 0.0000 36.8103 0.0000
# 6 0.0000 0.0000 0.0000 -3.4976 0.0000 29.8949
#
#
#
# Elastic Compliance Matrix: (Units=1/GPa)
#
#
# Indices 1 2 3 4 5 6 
#
# 1 0.007758 -0.000412 -0.002148 0.000000 0.002567 0.000000
# 2 -0.000412 0.008139 -0.001757 0.000000 -0.003716 0.000000
# 3 -0.002148 -0.001757 0.011704 0.000000 0.003533 0.000000
# 4 0.000000 0.000000 0.000000 0.048261 0.000000 0.005646
# 5 0.002567 -0.003716 0.003533 0.000000 0.030688 0.000000
# 6 0.000000 0.000000 0.000000 0.005646 0.000000 0.034111
#
#
# Mechanical properties :
#
#
# Convention : Reuss Voigt Hill
#
# Bulk Modulus (GPa) = 52.72182 54.04045 53.38114
# Shear Modulus (GPa) = 32.12978 38.70583 35.41781
#
# Velocity S-wave (km/s) = 3.50574 3.84782 3.68076
# Velocity P-wave (km/s) = 6.04600 6.35708 6.20349
#
# Compressibility (1/GPa) = 0.01896748
#
# Stress axis : x y z
#
# Youngs Moduli (GPa) = 128.89174 122.86715 85.43793
#
# Poissons Ratio (x) = 0.05063 0.18348
# Poissons Ratio (y) = 0.05312 0.15015
# Poissons Ratio (z) = 0.27680 0.21593
#
# Static dielectric constant tensor:
#      x y z
#    x 2.081820 0.000000 -0.080310 
#    y 0.000000 1.931840 0.000000 
#    z -0.080310 0.000000 2.246060 
# 
# From -- ./inp_files/7156.got.cif
#   From: 2010.05.17/outbox.cif.g08.bks.cpg/sg5_4_cif.got.tgz:7156.got - 2010.06.03 18:56:24.
