data_PCOD9124635
_publ_section_title
;
Structure prediction by ZEFSAII (Michael W. Deem and Ramdas Pophale) SiO2 
 PCOD9124635
Probable space group: C 2
;
_chemical_formula_sum "Si O2"
_cell_formula_units_Z 24
_cell_length_a 22.653870
_cell_length_b 9.836918
_cell_length_c 15.958279
_cell_angle_alpha 90.000000
_cell_angle_beta 161.216836
_cell_angle_gamma 90.000000
_cell_volume 1145.055509
_symmetry_space_group_name_H-M "C 2"
_symmetry_group_IT_number 5
_symmetry_cell_setting 'monoclinic'
loop_
_space_group_symop_operation_xyz
x,y,z
-x,y,-z
1/2+x,1/2+y,z
1/2-x,1/2+y,-z
loop_
_atom_site_type_symbol
_atom_site_label
_atom_site_fract_x
_atom_site_fract_y
_atom_site_fract_z
Si Si1 0.372242 0.869620 0.684736
Si Si2 0.057272 0.146255 0.844984
Si Si3 0.823334 0.554457 0.956429
Si Si4 0.404560 0.323026 0.283000
Si Si5 0.020280 0.836013 0.801244
Si Si6 0.804002 0.581338 0.738825
O O1 0.496953 0.736056 0.844638
O O2 0.163129 0.825253 0.389678
O O3 0.478494 0.978657 0.768598
O O4 0.349633 0.954223 0.739640
O O5 0.876676 0.150289 0.542622
O O6 0.092719 0.988518 0.910744
O O7 0.234039 0.219791 0.045616
O O8 0.844311 0.713832 0.996227
O O9 0.682612 0.473648 0.824757
O O10 0.767466 0.535023 0.784373
O O11 0.500000 0.292247 0.500000
O O12 0.517781 0.317439 0.349668
O O13 0.000000 0.660497 0.000000
#
# Coordination Sequence:
#
# PCOD9124635 Si02
#       6
#     4   4   4   4   4   4
#     4   9  18  34  59  85 115 151 191 233 286 351
#     4  10  21  37  59  88 121 153 194 247 294 339
#     4  10  21  37  61  87 115 158 201 237 290 358
#     4  11  23  40  58  82 119 165 203 235 289 359
#     4  11  20  36  60  89 120 151 194 253 293 335
#     4   9  17  34  62  89 114 150 196 237 285 354
#
# _framework density 20.959682000000001
#
# number of rings (size 3 to 8) (size 9 to 14) (size 15 to 20)
#    0.000    2.000    0.000    6.000    0.000    1.333 
#    0.000    5.833    0.000   39.000    0.000    0.000 
#    0.000    0.000    0.000    0.000    0.000    0.000 
#
# Total GULP energy -66872.662487 kJ/mol
# GULP energy per Si atom -5572.721874 kJ/mol
# Density = 2.091198 g / cm^3
# Si number density = 20.959682 Si / 1000 Ang^3
#
#
#
# Elastic Constant Matrix: (Units=GPa)
#
#
# Indices 1 2 3 4 5 6 
#
# 1 63.2033 8.1446 9.3820 0.0000 7.3112 0.0000
# 2 8.1446 121.7585 30.3675 0.0000 2.3747 0.0000
# 3 9.3820 30.3675 93.7224 0.0000 10.3175 0.0000
# 4 0.0000 0.0000 0.0000 30.5088 0.0000 2.0506
# 5 7.3112 2.3747 10.3175 0.0000 31.9701 0.0000
# 6 0.0000 0.0000 0.0000 2.0506 0.0000 15.0281
#
#
#
# Elastic Compliance Matrix: (Units=1/GPa)
#
#
# Indices 1 2 3 4 5 6 
#
# 1 0.016465 -0.000780 -0.001024 0.000000 -0.003377 0.000000
# 2 -0.000780 0.008974 -0.002878 0.000000 0.000441 0.000000
# 3 -0.001024 -0.002878 0.012085 0.000000 -0.003452 0.000000
# 4 0.000000 0.000000 0.000000 0.033081 0.000000 -0.004514
# 5 -0.003377 0.000441 -0.003452 0.000000 0.033133 0.000000
# 6 0.000000 0.000000 0.000000 -0.004514 0.000000 0.067158
#
#
# Mechanical properties :
#
#
# Convention : Reuss Voigt Hill
#
# Bulk Modulus (GPa) = 35.51112 41.60805 38.55959
# Shear Modulus (GPa) = 26.36477 30.88741 28.62609
#
# Velocity S-wave (km/s) = 3.55051 3.84299 3.69964
# Velocity P-wave (km/s) = 5.81270 6.29174 6.05696
#
# Compressibility (1/GPa) = 0.02816019
#
# Stress axis : x y z
#
# Youngs Moduli (GPa) = 60.73451 111.42767 82.74772
#
# Poissons Ratio (x) = 0.08694 0.08471
# Poissons Ratio (y) = 0.04739 0.23817
# Poissons Ratio (z) = 0.06217 0.32072
#
# Static dielectric constant tensor:
#      x y z
#    x 1.773280 0.000000 -0.011870 
#    y 0.000000 1.776390 0.000000 
#    z -0.011870 0.000000 1.866030 
# 
# From -- ./inp_files/63319.got.cif
#   From: 2010.05.17/outbox.cif.g08.bks.cpg/sg5_32_cif.got.tgz:63319.got - 2010.06.03 18:56:24.
