data_PCOD9124935
_publ_section_title
;
Structure prediction by ZEFSAII (Michael W. Deem and Ramdas Pophale) SiO2 
 PCOD9124935
Probable space group: C 2
;
_chemical_formula_sum "Si O2"
_cell_formula_units_Z 24
_cell_length_a 17.911596
_cell_length_b 8.268026
_cell_length_c 15.087259
_cell_angle_alpha 90.000000
_cell_angle_beta 28.682255
_cell_angle_gamma 90.000000
_cell_volume 1072.368634
_symmetry_space_group_name_H-M "C 2"
_symmetry_group_IT_number 5
_symmetry_cell_setting 'monoclinic'
loop_
_space_group_symop_operation_xyz
x,y,z
-x,y,-z
1/2+x,1/2+y,z
1/2-x,1/2+y,-z
loop_
_atom_site_type_symbol
_atom_site_label
_atom_site_fract_x
_atom_site_fract_y
_atom_site_fract_z
Si Si1 0.888783 0.984540 0.810400
Si Si2 0.816837 0.036882 0.196870
Si Si3 0.307415 0.131134 0.841504
Si Si4 0.721898 0.593767 0.432922
Si Si5 0.183974 0.190040 0.284856
Si Si6 0.875906 0.465839 0.436292
O O1 0.833157 0.803202 0.858466
O O2 0.815399 0.097306 0.808968
O O3 0.073090 0.983292 0.606300
O O4 0.839280 0.053306 0.956389
O O5 0.769154 0.862112 0.204181
O O6 0.749997 0.042955 0.365295
O O7 0.725509 0.156991 0.227472
O O8 0.000000 0.059260 0.000000
O O9 0.454948 0.014521 0.704024
O O10 0.754867 0.591258 0.294060
O O11 0.855560 0.536925 0.359509
O O12 0.662463 0.775356 0.518820
O O13 0.000000 0.213811 0.500000
#
# Coordination Sequence:
#
# PCOD9124935 Si02
#       6
#     4   4   4   4   4   4
#     4  11  23  40  63  89 122 160 204 252 302 361
#     4  11  23  40  62  89 122 158 200 250 305 362
#     4  12  24  40  62  88 121 162 204 253 306 359
#     4  10  21  39  61  92 125 161 202 246 297 355
#     4   9  20  40  63  89 124 160 197 245 299 359
#     4  11  23  39  63  91 126 163 201 248 299 358
#
# _framework density 22.380362999999999
#
# number of rings (size 3 to 8) (size 9 to 14) (size 15 to 20)
#    0.000    1.333    0.000    7.500    0.000    9.333 
#    0.000    0.833    0.000    0.000    0.000    0.000 
#    0.000    0.000    0.000    0.000    0.000    0.000 
#
# Total GULP energy -67132.129128 kJ/mol
# GULP energy per Si atom -5594.344094 kJ/mol
# Density = 2.232942 g / cm^3
# Si number density = 22.380363 Si / 1000 Ang^3
#
#
#
# Elastic Constant Matrix: (Units=GPa)
#
#
# Indices 1 2 3 4 5 6 
#
# 1 114.9313 -15.6351 0.6196 0.0000 -1.4742 0.0000
# 2 -15.6351 39.3325 -22.8000 0.0000 3.6739 0.0000
# 3 0.6196 -22.8000 33.5826 0.0000 5.7400 0.0000
# 4 0.0000 0.0000 0.0000 23.4209 0.0000 3.7110
# 5 -1.4742 3.6739 5.7400 0.0000 31.3879 0.0000
# 6 0.0000 0.0000 0.0000 3.7110 0.0000 31.7123
#
#
#
# Elastic Compliance Matrix: (Units=1/GPa)
#
#
# Indices 1 2 3 4 5 6 
#
# 1 0.009538 0.006435 0.004382 0.000000 -0.001107 0.000000
# 2 0.006435 0.049862 0.035799 0.000000 -0.012081 0.000000
# 3 0.004382 0.035799 0.056446 0.000000 -0.014307 0.000000
# 4 0.000000 0.000000 0.000000 0.043504 0.000000 -0.005091
# 5 -0.001107 -0.012081 -0.014307 0.000000 0.035838 0.000000
# 6 0.000000 0.000000 0.000000 -0.005091 0.000000 0.032129
#
#
# Mechanical properties :
#
#
# Convention : Reuss Voigt Hill
#
# Bulk Modulus (GPa) = 4.78286 12.46838 8.62562
# Shear Modulus (GPa) = 24.53643 32.34835 28.44239
#
# Velocity S-wave (km/s) = 3.31469 3.80595 3.56878
# Velocity P-wave (km/s) = 4.09772 4.98968 4.56553
#
# Compressibility (1/GPa) = 0.20907994
#
# Stress axis : x y z
#
# Youngs Moduli (GPa) = 104.83851 20.05519 17.71590
#
# Poissons Ratio (x) = -0.12906 -0.07763
# Poissons Ratio (y) = -0.67466 -0.63421
# Poissons Ratio (z) = -0.45942 -0.71795
#
# Static dielectric constant tensor:
#      x y z
#    x 1.846910 0.000000 -0.001390 
#    y 0.000000 1.838590 0.000000 
#    z -0.001390 0.000000 1.769460 
# 
# From -- ./inp_files/32454.got.cif
#   From: 2010.05.17/outbox.cif.g08.bks.cpg/sg5_17_cif.got.tgz:32454.got - 2010.06.03 18:56:24.
