data_PCOD9124243
_publ_section_title
;
Structure prediction by ZEFSAII (Michael W. Deem and Ramdas Pophale) SiO2 
 PCOD9124243
Probable space group: C 2
;
_chemical_formula_sum "Si O2"
_cell_formula_units_Z 30
_cell_length_a 7.118789
_cell_length_b 12.310150
_cell_length_c 13.976839
_cell_angle_alpha 90.000000
_cell_angle_beta 94.766901
_cell_angle_gamma 90.000000
_cell_volume 1220.600697
_symmetry_space_group_name_H-M "C 2"
_symmetry_group_IT_number 5
_symmetry_cell_setting 'monoclinic'
loop_
_space_group_symop_operation_xyz
x,y,z
-x,y,-z
1/2+x,1/2+y,z
1/2-x,1/2+y,-z
loop_
_atom_site_type_symbol
_atom_site_label
_atom_site_fract_x
_atom_site_fract_y
_atom_site_fract_z
Si Si1 0.208451 0.366450 0.148475
Si Si2 0.215717 0.051434 0.574359
Si Si3 0.862682 0.827400 0.341309
Si Si4 0.000000 0.207571 0.000000
Si Si5 0.277687 0.014060 0.016027
Si Si6 0.372493 0.104110 0.383733
Si Si7 0.349909 0.955730 0.228432
Si Si8 0.055755 0.282782 0.614287
O O1 0.372754 0.332043 0.227797
O O2 0.064865 0.280329 0.093385
O O3 0.069763 0.443996 0.205002
O O4 0.296815 0.429209 0.064148
O O5 0.227332 0.076039 0.461322
O O6 0.438047 0.032022 0.601717
O O7 0.141778 0.161928 0.618431
O O8 0.115589 0.942070 0.606001
O O9 0.961550 0.724551 0.392456
O O10 0.648673 0.784047 0.346804
O O11 0.175902 0.127563 0.993839
O O12 0.252779 0.965017 0.120983
O O13 0.500000 0.024303 0.000000
O O14 0.298191 0.068439 0.278158
O O15 0.322201 0.863632 0.311069
O O16 0.000000 0.310517 0.500000
#
# Coordination Sequence:
#
# PCOD9124243 Si02
#       8
#     4   4   4   2   4   4   4   4
#     4  10  21  42  67  96 134 173 222 286 337 414
#     4  11  24  40  62  95 129 173 226 275 337 408
#     4  11  23  43  65  92 135 172 222 282 337 405
#     4  12  22  44  76  98 140 184 232 286 356 422
#     4  10  23  46  69 103 140 180 230 290 352 418
#     4  11  22  40  66  90 128 175 217 279 338 397
#     4  10  20  42  71  91 134 182 219 274 358 408
#     4  11  21  42  66  91 132 181 221 278 344 396
#
# _framework density 24.578061000000002
#
# number of rings (size 3 to 8) (size 9 to 14) (size 15 to 20)
#    0.000    1.333    6.000    1.600    0.000    2.133 
#    8.400    0.000    0.000    0.000    0.000    0.000 
#    0.000    0.000    0.000    0.000    0.000    0.000 
#
# Total GULP energy -83673.169696 kJ/mol
# GULP energy per Si atom -5578.211313 kJ/mol
# Density = 2.452212 g / cm^3
# Si number density = 24.578061 Si / 1000 Ang^3
#
#
#
# Elastic Constant Matrix: (Units=GPa)
#
#
# Indices 1 2 3 4 5 6 
#
# 1 53.6057 18.9906 5.2416 0.0000 8.1077 0.0000
# 2 18.9906 176.4635 85.8200 0.0000 -4.3531 0.0000
# 3 5.2416 85.8200 198.0738 0.0000 3.2045 0.0000
# 4 0.0000 0.0000 0.0000 67.6893 0.0000 7.0612
# 5 8.1077 -4.3531 3.2045 0.0000 20.2235 0.0000
# 6 0.0000 0.0000 0.0000 7.0612 0.0000 40.1915
#
#
#
# Elastic Compliance Matrix: (Units=1/GPa)
#
#
# Indices 1 2 3 4 5 6 
#
# 1 0.020985 -0.002897 0.000848 0.000000 -0.009171 0.000000
# 2 -0.002897 0.007665 -0.003298 0.000000 0.003334 0.000000
# 3 0.000848 -0.003298 0.006489 0.000000 -0.002078 0.000000
# 4 0.000000 0.000000 0.000000 0.015049 0.000000 -0.002644
# 5 -0.009171 0.003334 -0.002078 0.000000 0.054171 0.000000
# 6 0.000000 0.000000 0.000000 -0.002644 0.000000 0.025345
#
#
# Mechanical properties :
#
#
# Convention : Reuss Voigt Hill
#
# Bulk Modulus (GPa) = 40.90855 72.02750 56.46802
# Shear Modulus (GPa) = 33.65929 46.82692 40.24311
#
# Velocity S-wave (km/s) = 3.70467 4.36963 4.05082
# Velocity P-wave (km/s) = 5.91438 7.40456 6.70102
#
# Compressibility (1/GPa) = 0.02444477
#
# Stress axis : x y z
#
# Youngs Moduli (GPa) = 47.65249 130.46306 154.11011
#
# Poissons Ratio (x) = 0.37798 -0.13073
# Poissons Ratio (y) = 0.13806 0.50830
# Poissons Ratio (z) = -0.04042 0.43031
#
# Static dielectric constant tensor:
#      x y z
#    x 2.022130 0.000000 0.073680 
#    y 0.000000 2.093210 0.000000 
#    z 0.073680 0.000000 2.003270 
# 
# From -- ./inp_files/50318.got.cif
#   From: 2010.05.17/outbox.cif.g08.bks.cpg/sg5_26_cif.got.tgz:50318.got - 2010.06.03 18:56:24.
