data_PCOD9124523
_publ_section_title
;
Structure prediction by ZEFSAII (Michael W. Deem and Ramdas Pophale) SiO2 
 PCOD9124523
Probable space group: C 2
;
_chemical_formula_sum "Si O2"
_cell_formula_units_Z 28
_cell_length_a 4.835194
_cell_length_b 29.337341
_cell_length_c 10.095106
_cell_angle_alpha 90.000000
_cell_angle_beta 114.701172
_cell_angle_gamma 90.000000
_cell_volume 1300.979013
_symmetry_space_group_name_H-M "C 2"
_symmetry_group_IT_number 5
_symmetry_cell_setting 'monoclinic'
loop_
_space_group_symop_operation_xyz
x,y,z
-x,y,-z
1/2+x,1/2+y,z
1/2-x,1/2+y,-z
loop_
_atom_site_type_symbol
_atom_site_label
_atom_site_fract_x
_atom_site_fract_y
_atom_site_fract_z
Si Si1 0.423709 0.154760 0.340752
Si Si2 0.851266 0.776543 0.102437
Si Si3 0.846374 0.581163 0.103300
Si Si4 0.812923 0.847346 0.331397
Si Si5 0.592786 0.718794 0.661947
Si Si6 0.818131 0.408163 0.332402
Si Si7 0.851652 0.479437 0.105282
O O1 0.500000 0.135823 0.500000
O O2 0.332339 0.116068 0.221042
O O3 0.738505 0.173199 0.347896
O O4 0.199517 0.199046 0.316709
O O5 0.804399 0.810090 0.216281
O O6 0.138871 0.744374 0.204111
O O7 0.500000 0.759209 0.000000
O O8 0.000000 0.798625 0.000000
O O9 0.982126 0.530546 0.157592
O O10 0.500000 0.573321 0.000000
O O11 0.000000 0.600234 0.000000
O O12 0.481036 0.862318 0.311823
O O13 0.000000 0.832626 0.500000
O O14 0.983708 0.892273 0.308755
O O15 0.500000 0.741371 0.500000
O O16 0.859695 0.446550 0.231893
O O17 0.000000 0.421890 0.500000
O O18 0.500000 0.482888 0.000000
O O19 0.000000 0.460904 0.000000
#
# Coordination Sequence:
#
# PCOD9124523 Si02
#       7
#     4   4   4   4   4   4   4
#     4  10  21  39  63  88 114 154 205 248 295 360
#     4  12  26  41  62  94 123 153 205 260 306 361
#     4  10  21  37  58  87 122 159 196 241 303 363
#     4  10  23  41  61  85 119 162 200 243 306 368
#     4  10  23  42  63  87 120 160 199 247 311 370
#     4  10  21  38  60  87 117 156 205 248 293 353
#     4  10  21  36  57  86 121 160 197 239 299 361
#
# _framework density 21.522255000000001
#
# number of rings (size 3 to 8) (size 9 to 14) (size 15 to 20)
#    0.000    1.714    0.000    3.429    0.000   10.857 
#    0.000    0.000    0.000   10.286    0.000    0.000 
#    0.000    0.000    0.000    0.000    0.000    0.000 
#
# Total GULP energy -78057.283461 kJ/mol
# GULP energy per Si atom -5575.520247 kJ/mol
# Density = 2.147327 g / cm^3
# Si number density = 21.522255 Si / 1000 Ang^3
#
#
#
# Elastic Constant Matrix: (Units=GPa)
#
#
# Indices 1 2 3 4 5 6 
#
# 1 98.4466 3.4406 32.7577 0.0000 -2.8569 0.0000
# 2 3.4406 56.5770 70.5470 0.0000 -4.7641 0.0000
# 3 32.7577 70.5470 147.2249 0.0000 -14.2043 0.0000
# 4 0.0000 0.0000 0.0000 46.8939 0.0000 -5.3529
# 5 -2.8569 -4.7641 -14.2043 0.0000 39.1924 0.0000
# 6 0.0000 0.0000 0.0000 -5.3529 0.0000 22.4127
#
#
#
# Elastic Compliance Matrix: (Units=1/GPa)
#
#
# Indices 1 2 3 4 5 6 
#
# 1 0.011833 0.006408 -0.005746 0.000000 -0.000441 0.000000
# 2 0.006408 0.047597 -0.024486 0.000000 -0.002622 0.000000
# 3 -0.005746 -0.024486 0.020182 0.000000 0.003919 0.000000
# 4 0.000000 0.000000 0.000000 0.021922 0.000000 0.005236
# 5 -0.000441 -0.002622 0.003919 0.000000 0.026585 0.000000
# 6 0.000000 0.000000 0.000000 0.005236 0.000000 0.045868
#
#
# Mechanical properties :
#
#
# Convention : Reuss Voigt Hill
#
# Bulk Modulus (GPa) = 31.28532 57.30436 44.29484
# Shear Modulus (GPa) = 21.52486 34.73334 28.12910
#
# Velocity S-wave (km/s) = 3.16590 4.02161 3.61914
# Velocity P-wave (km/s) = 5.28505 6.94607 6.17170
#
# Compressibility (1/GPa) = 0.03196387
#
# Stress axis : x y z
#
# Youngs Moduli (GPa) = 84.50944 21.00989 49.54887
#
# Poissons Ratio (x) = -0.13463 0.28471
# Poissons Ratio (y) = -0.54154 1.21325
# Poissons Ratio (z) = 0.48559 0.51445
#
# Static dielectric constant tensor:
#      x y z
#    x 1.746500 0.000000 0.002210 
#    y 0.000000 1.795510 0.000000 
#    z 0.002210 0.000000 1.850310 
# 
# From -- ./inp_files/13382.got.cif
#   From: 2010.05.17/outbox.cif.g08.bks.cpg/sg5_7_cif.got.tgz:13382.got - 2010.06.03 18:56:24.
