data_PCOD9124845
_publ_section_title
;
Structure prediction by ZEFSAII (Michael W. Deem and Ramdas Pophale) SiO2 
 PCOD9124845
Probable space group: C 2
;
_chemical_formula_sum "Si O2"
_cell_formula_units_Z 28
_cell_length_a 13.036637
_cell_length_b 4.977984
_cell_length_c 20.524683
_cell_angle_alpha 90.000000
_cell_angle_beta 112.667656
_cell_angle_gamma 90.000000
_cell_volume 1229.086098
_symmetry_space_group_name_H-M "C 2"
_symmetry_group_IT_number 5
_symmetry_cell_setting 'monoclinic'
loop_
_space_group_symop_operation_xyz
x,y,z
-x,y,-z
1/2+x,1/2+y,z
1/2-x,1/2+y,-z
loop_
_atom_site_type_symbol
_atom_site_label
_atom_site_fract_x
_atom_site_fract_y
_atom_site_fract_z
Si Si1 0.133567 0.115600 0.394299
Si Si2 0.524933 0.071015 0.080437
Si Si3 0.712632 0.845864 0.952374
Si Si4 0.392666 0.700977 0.383694
Si Si5 0.162183 0.049810 0.141820
Si Si6 0.119053 0.793444 0.504434
Si Si7 0.256534 0.200090 0.302855
O O1 0.255778 0.194039 0.451319
O O2 0.146526 0.178689 0.321259
O O3 0.018813 0.237982 0.391761
O O4 0.116088 0.826486 0.425368
O O5 0.413392 0.941163 0.080050
O O6 0.612525 0.827000 0.101990
O O7 0.566479 0.327927 0.130478
O O8 0.500000 0.159251 0.000000
O O9 0.765957 0.903457 0.895796
O O10 0.725913 0.543661 0.981048
O O11 0.383864 0.574044 0.454104
O O12 0.322302 0.479444 0.325212
O O13 0.333156 0.978363 0.355907
O O14 0.227939 0.121184 0.222886
O O15 0.000000 0.668772 0.500000
#
# Coordination Sequence:
#
# PCOD9124845 Si02
#       7
#     4   4   4   4   4   4   4
#     4  10  21  38  65  91 130 168 211 256 317 361
#     4  12  23  41  68  93 125 159 204 257 318 373
#     4  12  23  39  64  90 120 157 196 251 310 363
#     4  10  23  41  63  90 126 167 215 259 303 370
#     4  12  25  42  63  95 127 161 208 259 311 379
#     4   9  19  36  61  98 125 164 213 264 307 362
#     4  11  25  42  62  90 128 168 209 257 311 374
#
# _framework density 22.781153
#
# number of rings (size 3 to 8) (size 9 to 14) (size 15 to 20)
#    0.000    1.143    2.857    3.000    0.000    8.000 
#    0.000    3.571    0.000    0.000    0.000    0.000 
#    0.000    0.000    0.000    0.000    0.000    0.000 
#
# Total GULP energy -78168.341909 kJ/mol
# GULP energy per Si atom -5583.452994 kJ/mol
# Density = 2.272930 g / cm^3
# Si number density = 22.781153 Si / 1000 Ang^3
#
#
#
# Elastic Constant Matrix: (Units=GPa)
#
#
# Indices 1 2 3 4 5 6 
#
# 1 149.0651 25.8668 24.3652 0.0000 -5.5091 0.0000
# 2 25.8668 53.4211 -20.6816 0.0000 2.2395 0.0001
# 3 24.3652 -20.6816 60.5297 0.0000 -9.9525 0.0000
# 4 0.0000 0.0000 0.0000 21.9336 0.0000 4.5743
# 5 -5.5091 2.2395 -9.9525 0.0000 26.2166 0.0000
# 6 0.0000 0.0001 0.0000 4.5743 0.0000 29.2823
#
#
#
# Elastic Compliance Matrix: (Units=1/GPa)
#
#
# Indices 1 2 3 4 5 6 
#
# 1 0.008770 -0.006463 -0.005701 0.000000 0.000231 0.000000
# 2 -0.006463 0.026362 0.011749 0.000000 0.000850 0.000000
# 3 -0.005701 0.011749 0.023964 0.000000 0.006896 0.000000
# 4 0.000000 0.000000 0.000000 0.047127 0.000000 -0.007362
# 5 0.000231 0.000850 0.006896 0.000000 0.040737 0.000000
# 6 0.000000 0.000000 0.000000 -0.007362 0.000000 0.035300
#
#
# Mechanical properties :
#
#
# Convention : Reuss Voigt Hill
#
# Bulk Modulus (GPa) = 17.16313 35.79076 26.47694
# Shear Modulus (GPa) = 24.68973 31.05088 27.87031
#
# Velocity S-wave (km/s) = 3.29565 3.69590 3.50150
# Velocity P-wave (km/s) = 4.69383 5.82732 5.29102
#
# Compressibility (1/GPa) = 0.05826443
#
# Stress axis : x y z
#
# Youngs Moduli (GPa) = 114.01987 37.93404 41.72996
#
# Poissons Ratio (x) = 0.24518 0.23789
# Poissons Ratio (y) = 0.73695 -0.49027
# Poissons Ratio (z) = 0.65000 -0.44567
#
# Static dielectric constant tensor:
#      x y z
#    x 1.909370 0.000000 -0.010770 
#    y 0.000000 1.897220 0.000000 
#    z -0.010770 0.000000 1.864420 
# 
# From -- ./inp_files/64986.got.cif
#   From: 2010.05.17/outbox.cif.g08.bks.cpg/sg5_33_cif.got.tgz:64986.got - 2010.06.03 18:56:24.
