data_PCOD9124809
_publ_section_title
;
Structure prediction by ZEFSAII (Michael W. Deem and Ramdas Pophale) SiO2 
 PCOD9124809
Probable space group: C 2
;
_chemical_formula_sum "Si O2"
_cell_formula_units_Z 32
_cell_length_a 19.120857
_cell_length_b 17.085110
_cell_length_c 7.643894
_cell_angle_alpha 90.000000
_cell_angle_beta 142.058193
_cell_angle_gamma 90.000000
_cell_volume 1535.382548
_symmetry_space_group_name_H-M "C 2"
_symmetry_group_IT_number 5
_symmetry_cell_setting 'monoclinic'
loop_
_space_group_symop_operation_xyz
x,y,z
-x,y,-z
1/2+x,1/2+y,z
1/2-x,1/2+y,-z
loop_
_atom_site_type_symbol
_atom_site_label
_atom_site_fract_x
_atom_site_fract_y
_atom_site_fract_z
Si Si1 0.237298 0.871370 0.760407
Si Si2 0.863780 0.749705 0.926845
Si Si3 0.765226 0.588269 0.771138
Si Si4 0.167463 0.922488 0.007265
Si Si5 0.661229 0.043711 0.480800
Si Si6 0.556482 0.967635 0.795094
Si Si7 0.379256 0.218754 0.540822
Si Si8 0.939530 0.985998 0.697618
O O1 0.205116 0.908423 0.883573
O O2 0.208122 0.780577 0.711316
O O3 0.150585 0.914722 0.456730
O O4 0.365677 0.897767 0.976158
O O5 0.783478 0.679847 0.835870
O O6 0.872875 0.734552 0.737098
O O7 0.824477 0.837091 0.888051
O O8 0.990807 0.737641 0.254341
O O9 0.805687 0.563994 0.653642
O O10 0.637050 0.556218 0.529213
O O11 0.854392 0.538628 0.061208
O O12 0.039217 0.953213 0.773322
O O13 0.245497 0.987244 0.252265
O O14 0.649615 0.128656 0.548067
O O15 0.541843 0.999804 0.273709
O O16 0.500000 0.944610 0.500000
O O17 0.000000 0.006430 0.000000
#
# Coordination Sequence:
#
# PCOD9124809 Si02
#       8
#     4   4   4   4   4   4   4   4
#     4  11  24  39  62  93 129 164 206 257 316 363
#     4  10  21  38  63  91 124 154 213 259 302 364
#     4  10  22  40  65  95 124 162 205 262 316 361
#     4  12  23  39  64  96 125 165 206 255 309 373
#     4  11  22  41  67  93 122 164 209 256 309 372
#     4  11  22  39  62  92 128 161 208 255 312 368
#     4  10  21  40  62  93 122 160 208 261 304 360
#     4  11  21  38  65  93 125 162 207 255 312 365
#
# _framework density 20.841712000000001
#
# number of rings (size 3 to 8) (size 9 to 14) (size 15 to 20)
#    0.000    1.250    5.000    1.500    1.750    1.000 
#    0.000    1.250    0.000    0.000    0.000    0.000 
#    0.000    0.000    0.000    0.000    0.000    0.000 
#
# Total GULP energy -89429.804472 kJ/mol
# GULP energy per Si atom -5589.362779 kJ/mol
# Density = 2.079427 g / cm^3
# Si number density = 20.841712 Si / 1000 Ang^3
#
#
#
# Elastic Constant Matrix: (Units=GPa)
#
#
# Indices 1 2 3 4 5 6 
#
# 1 53.6348 38.9642 19.4926 0.0000 13.7698 0.0000
# 2 38.9642 166.1540 69.3626 0.0000 24.1064 0.0000
# 3 19.4926 69.3626 109.9671 0.0000 25.3116 0.0000
# 4 0.0000 0.0000 0.0000 28.5699 0.0000 7.7763
# 5 13.7698 24.1064 25.3116 0.0000 26.6830 0.0000
# 6 0.0000 0.0000 0.0000 7.7763 0.0000 27.0206
#
#
#
# Elastic Compliance Matrix: (Units=1/GPa)
#
#
# Indices 1 2 3 4 5 6 
#
# 1 0.024042 -0.004647 0.000715 0.000000 -0.008887 0.000000
# 2 -0.004647 0.009286 -0.004675 0.000000 -0.001556 0.000000
# 3 0.000715 -0.004675 0.014109 0.000000 -0.009529 0.000000
# 4 0.000000 0.000000 0.000000 0.037977 0.000000 -0.010929
# 5 -0.008887 -0.001556 -0.009529 0.000000 0.052508 0.000000
# 6 0.000000 0.000000 0.000000 -0.010929 0.000000 0.040154
#
#
# Mechanical properties :
#
#
# Convention : Reuss Voigt Hill
#
# Bulk Modulus (GPa) = 33.08764 65.04384 49.06574
# Shear Modulus (GPa) = 24.34683 29.91713 27.13198
#
# Velocity S-wave (km/s) = 3.42157 3.79284 3.61198
# Velocity P-wave (km/s) = 5.61424 7.10331 6.40222
#
# Compressibility (1/GPa) = 0.03022277
#
# Stress axis : x y z
#
# Youngs Moduli (GPa) = 41.59318 107.69160 70.87587
#
# Poissons Ratio (x) = 0.50047 -0.05069
# Poissons Ratio (y) = 0.19330 0.33136
# Poissons Ratio (z) = -0.02975 0.50348
#
# Static dielectric constant tensor:
#      x y z
#    x 1.804800 0.000000 -0.034220 
#    y 0.000000 1.741650 0.000000 
#    z -0.034220 0.000000 1.771020 
# 
# From -- ./inp_files/31095.got.cif
#   From: 2010.05.17/outbox.cif.g08.bks.cpg/sg5_16_cif.got.tgz:31095.got - 2010.06.03 18:56:24.
