data_PCOD9124858
_publ_section_title
;
Structure prediction by ZEFSAII (Michael W. Deem and Ramdas Pophale) SiO2 
 PCOD9124858
Probable space group: C 2
;
_chemical_formula_sum "Si O2"
_cell_formula_units_Z 28
_cell_length_a 28.765162
_cell_length_b 5.002162
_cell_length_c 10.018021
_cell_angle_alpha 90.000000
_cell_angle_beta 60.283658
_cell_angle_gamma 90.000000
_cell_volume 1251.905129
_symmetry_space_group_name_H-M "C 2"
_symmetry_group_IT_number 5
_symmetry_cell_setting 'monoclinic'
loop_
_space_group_symop_operation_xyz
x,y,z
-x,y,-z
1/2+x,1/2+y,z
1/2-x,1/2+y,-z
loop_
_atom_site_type_symbol
_atom_site_label
_atom_site_fract_x
_atom_site_fract_y
_atom_site_fract_z
Si Si1 0.497470 0.298560 0.848723
Si Si2 0.902196 0.958192 0.805915
Si Si3 0.283089 0.384952 0.917796
Si Si4 0.320970 0.714790 0.401880
Si Si5 0.064104 0.463074 0.399631
Si Si6 0.065130 0.287663 0.686913
Si Si7 0.281292 0.214454 0.616782
O O1 0.438924 0.356473 0.874385
O O2 0.537262 0.500999 0.716937
O O3 0.520559 0.002203 0.794350
O O4 0.500000 0.365136 0.000000
O O5 0.839313 0.921895 0.911826
O O6 0.920002 0.761813 0.660450
O O7 0.915286 0.258974 0.742187
O O8 0.291710 0.277570 0.755483
O O9 0.253157 0.667232 0.956614
O O10 0.383356 0.774060 0.291001
O O11 0.313226 0.423264 0.477657
O O12 0.281624 0.744205 0.331677
O O13 0.298386 0.922710 0.543495
O O14 0.085619 0.375126 0.512344
O O15 0.000000 0.443579 0.500000
#
# Coordination Sequence:
#
# PCOD9124858 Si02
#       7
#     4   4   4   4   4   4   4
#     4  12  26  41  58  86 127 165 198 240 296 375
#     4  12  24  43  63  93 126 160 204 265 303 356
#     4  12  26  42  64  89 124 170 211 247 301 368
#     4  10  21  38  66  90 119 153 195 263 308 354
#     4  12  21  39  69  94 124 153 202 260 314 361
#     4  12  23  39  63  93 119 157 202 243 310 367
#     4  10  21  41  61  91 121 153 203 255 309 347
#
# _framework density 22.365908999999998
#
# number of rings (size 3 to 8) (size 9 to 14) (size 15 to 20)
#    0.000    0.571    2.857    6.000    0.000    2.286 
#    0.000    0.000    0.000    0.000    0.000    0.000 
#    0.000    0.000    0.000    0.000    0.000    0.000 
#
# Total GULP energy -78401.015468 kJ/mol
# GULP energy per Si atom -5600.072533 kJ/mol
# Density = 2.231500 g / cm^3
# Si number density = 22.365909 Si / 1000 Ang^3
#
#
#
# Elastic Constant Matrix: (Units=GPa)
#
#
# Indices 1 2 3 4 5 6 
#
# 1 146.6556 -19.4669 8.3864 0.0000 -33.9725 0.0000
# 2 -19.4669 48.3757 -18.1046 0.0000 -15.7998 0.0000
# 3 8.3864 -18.1046 29.4539 0.0000 9.4541 0.0000
# 4 0.0000 0.0000 0.0000 22.1371 0.0000 5.2791
# 5 -33.9725 -15.7998 9.4541 0.0000 28.2680 0.0000
# 6 0.0000 0.0000 0.0000 5.2791 0.0000 16.9920
#
#
#
# Elastic Compliance Matrix: (Units=1/GPa)
#
#
# Indices 1 2 3 4 5 6 
#
# 1 0.015143 0.013111 -0.004981 0.000000 0.027193 0.000000
# 2 0.013111 0.041387 0.010333 0.000000 0.035433 0.000000
# 3 -0.004981 0.010333 0.046815 0.000000 -0.015868 0.000000
# 4 0.000000 0.000000 0.000000 0.048788 0.000000 -0.015157
# 5 0.027193 0.035433 -0.015868 0.000000 0.093167 0.000000
# 6 0.000000 0.000000 0.000000 -0.015157 0.000000 0.063560
#
#
# Mechanical properties :
#
#
# Convention : Reuss Voigt Hill
#
# Bulk Modulus (GPa) = 7.12904 18.45723 12.79313
# Shear Modulus (GPa) = 15.68917 30.39078 23.03998
#
# Velocity S-wave (km/s) = 2.65141 3.69019 3.21306
# Velocity P-wave (km/s) = 3.54510 5.14072 4.41558
#
# Compressibility (1/GPa) = 0.14027136
#
# Stress axis : x y z
#
# Youngs Moduli (GPa) = 66.03704 24.16192 21.36083
#
# Poissons Ratio (x) = -0.31678 0.10640
# Poissons Ratio (y) = -0.86580 -0.22073
# Poissons Ratio (z) = 0.32894 -0.24968
#
# Static dielectric constant tensor:
#      x y z
#    x 1.849270 0.000000 0.004550 
#    y 0.000000 1.780560 0.000000 
#    z 0.004550 0.000000 1.806740 
# 
# From -- ./inp_files/32225.got.cif
#   From: 2010.05.17/outbox.cif.g08.bks.cpg/sg5_17_cif.got.tgz:32225.got - 2010.06.03 18:56:24.
