data_PCOD9124879
_publ_section_title
;
Structure prediction by ZEFSAII (Michael W. Deem and Ramdas Pophale) SiO2 
 PCOD9124879
Probable space group: C 2
;
_chemical_formula_sum "Si O2"
_cell_formula_units_Z 20
_cell_length_a 10.406585
_cell_length_b 18.037765
_cell_length_c 5.207279
_cell_angle_alpha 90.000000
_cell_angle_beta 61.938906
_cell_angle_gamma 90.000000
_cell_volume 862.561742
_symmetry_space_group_name_H-M "C 2"
_symmetry_group_IT_number 5
_symmetry_cell_setting 'monoclinic'
loop_
_space_group_symop_operation_xyz
x,y,z
-x,y,-z
1/2+x,1/2+y,z
1/2-x,1/2+y,-z
loop_
_atom_site_type_symbol
_atom_site_label
_atom_site_fract_x
_atom_site_fract_y
_atom_site_fract_z
Si Si1 0.327338 0.803660 0.637842
Si Si2 0.299840 0.978747 0.736023
Si Si3 0.328985 0.238850 0.719139
Si Si4 0.351994 0.065043 0.194219
Si Si5 0.146985 0.109219 0.750681
O O1 0.500000 0.784740 0.500000
O O2 0.312091 0.892356 0.680633
O O3 0.263076 0.776110 0.426892
O O4 0.228831 0.771048 0.959582
O O5 0.385613 0.019044 0.423209
O O6 0.149983 0.022544 0.818524
O O7 0.328021 0.004429 0.998569
O O8 0.500000 0.247466 0.500000
O O9 0.279905 0.152839 0.759734
O O10 0.500000 0.110213 0.000000
O O11 0.203187 0.109153 0.402562
O O12 0.000000 0.142553 0.000000
#
# Coordination Sequence:
#
# PCOD9124879 Si02
#       5
#     4   4   4   4   4
#     4  12  25  48  76 105 146 192 245 295 359 437
#     4  10  24  42  74 102 137 179 236 295 355 424
#     4  12  29  47  72 104 151 194 241 297 367 429
#     4  10  21  38  68 102 137 172 229 288 357 414
#     4  10  26  45  71 104 141 185 242 296 357 423
#
# _framework density 23.186745999999999
#
# number of rings (size 3 to 8) (size 9 to 14) (size 15 to 20)
#    1.200    0.000    0.000    5.400    5.600    2.400 
#    0.000    0.000    0.000    0.000    0.000    0.000 
#    0.000    0.000    0.000    0.000    0.000    0.000 
#
# Total GULP energy -55714.479865 kJ/mol
# GULP energy per Si atom -5571.447986 kJ/mol
# Density = 2.313397 g / cm^3
# Si number density = 23.186746 Si / 1000 Ang^3
#
#
#
# Elastic Constant Matrix: (Units=GPa)
#
#
# Indices 1 2 3 4 5 6 
#
# 1 75.0810 -8.7790 56.5975 0.0000 -28.0392 0.0000
# 2 -8.7790 72.6686 33.0316 0.0000 -14.8193 0.0000
# 3 56.5975 33.0316 178.2812 0.0000 -19.6813 0.0000
# 4 0.0000 0.0000 0.0000 27.7979 0.0000 8.6105
# 5 -28.0392 -14.8193 -19.6813 0.0000 60.7380 0.0000
# 6 0.0000 0.0000 0.0000 8.6105 0.0000 28.5078
#
#
#
# Elastic Compliance Matrix: (Units=1/GPa)
#
#
# Indices 1 2 3 4 5 6 
#
# 1 0.024698 0.008980 -0.008301 0.000000 0.010903 0.000000
# 2 0.008980 0.018789 -0.005568 0.000000 0.006926 0.000000
# 3 -0.008301 -0.005568 0.009026 0.000000 -0.002266 0.000000
# 4 0.000000 0.000000 0.000000 0.039687 0.000000 -0.011987
# 5 0.010903 0.006926 -0.002266 0.000000 0.022453 0.000000
# 6 0.000000 0.000000 0.000000 -0.011987 0.000000 0.038699
#
#
# Mechanical properties :
#
#
# Convention : Reuss Voigt Hill
#
# Bulk Modulus (GPa) = 23.39897 54.19232 38.79565
# Shear Modulus (GPa) = 28.18903 39.75412 33.97157
#
# Velocity S-wave (km/s) = 3.49053 4.14517 3.83185
# Velocity P-wave (km/s) = 5.13405 6.80682 6.02873
#
# Compressibility (1/GPa) = 0.04273693
#
# Stress axis : x y z
#
# Youngs Moduli (GPa) = 40.48877 53.22208 110.79370
#
# Poissons Ratio (x) = -0.47796 0.91970
# Poissons Ratio (y) = -0.36361 0.61685
# Poissons Ratio (z) = 0.33610 0.29632
#
# Static dielectric constant tensor:
#      x y z
#    x 1.935700 0.000000 -0.026520 
#    y 0.000000 1.878050 0.000000 
#    z -0.026520 0.000000 1.966160 
# 
# From -- ./inp_files/2807.got.cif
#   From: 2010.05.17/outbox.cif.g08.bks.cpg/sg5_2_cif.got.tgz:2807.got - 2010.06.03 18:56:24.
