data_PCOD9124423
_publ_section_title
;
Structure prediction by ZEFSAII (Michael W. Deem and Ramdas Pophale) SiO2 
 PCOD9124423
Probable space group: C 2
;
_chemical_formula_sum "Si O2"
_cell_formula_units_Z 18
_cell_length_a 16.405866
_cell_length_b 7.426208
_cell_length_c 7.668504
_cell_angle_alpha 90.000000
_cell_angle_beta 131.889141
_cell_angle_gamma 90.000000
_cell_volume 695.513417
_symmetry_space_group_name_H-M "C 2"
_symmetry_group_IT_number 5
_symmetry_cell_setting 'monoclinic'
loop_
_space_group_symop_operation_xyz
x,y,z
-x,y,-z
1/2+x,1/2+y,z
1/2-x,1/2+y,-z
loop_
_atom_site_type_symbol
_atom_site_label
_atom_site_fract_x
_atom_site_fract_y
_atom_site_fract_z
Si Si1 0.586282 0.170050 0.249912
Si Si2 0.125211 0.230014 0.620414
Si Si3 0.728253 0.116119 0.878479
Si Si4 0.683486 0.791247 0.322206
Si Si5 0.000000 0.682077 0.500000
O O1 0.688796 0.294882 0.439332
O O2 0.527276 0.110514 0.344104
O O3 0.631775 0.987535 0.228008
O O4 0.500000 0.259934 0.000000
O O5 0.172247 0.427236 0.745300
O O6 0.129108 0.209200 0.418147
O O7 0.000000 0.207605 0.500000
O O8 0.210925 0.111369 0.851754
O O9 0.813301 0.177847 0.850486
O O10 0.622910 0.250884 0.721424
#
# Coordination Sequence:
#
# PCOD9124423 Si02
#       5
#     4   4   4   4   2
#     4  11  24  43  72  92 135 178 217 277 336 388
#     4  12  26  48  71  98 138 182 225 276 336 403
#     4  11  25  42  75  99 133 181 227 273 339 399
#     4  11  24  41  70 103 130 175 228 272 333 402
#     4  10  20  48  66  96 130 180 220 268 334 400
#
# _framework density 25.880161999999999
#
# number of rings (size 3 to 8) (size 9 to 14) (size 15 to 20)
#    0.000    0.889    5.556    1.333    9.333    0.000 
#    2.000    3.333    4.889    0.000    0.000    0.000 
#    0.000    0.000    0.000    0.000    0.000    0.000 
#
# Total GULP energy -50253.644186 kJ/mol
# GULP energy per Si atom -5583.738243 kJ/mol
# Density = 2.582126 g / cm^3
# Si number density = 25.880162 Si / 1000 Ang^3
#
#
#
# Elastic Constant Matrix: (Units=GPa)
#
#
# Indices 1 2 3 4 5 6 
#
# 1 194.9408 15.4389 25.6965 0.0000 -2.1571 0.0000
# 2 15.4389 40.2271 8.8272 0.0000 9.4378 0.0000
# 3 25.6965 8.8272 78.1127 0.0000 9.3592 0.0000
# 4 0.0000 0.0000 0.0000 26.4567 0.0000 1.6360
# 5 -2.1571 9.4378 9.3592 0.0000 24.2062 0.0000
# 6 0.0000 0.0000 0.0000 1.6360 0.0000 20.3941
#
#
#
# Elastic Compliance Matrix: (Units=1/GPa)
#
#
# Indices 1 2 3 4 5 6 
#
# 1 0.005570 -0.002222 -0.001829 0.000000 0.002070 0.000000
# 2 -0.002222 0.028520 -0.001191 0.000000 -0.010857 0.000000
# 3 -0.001829 -0.001191 0.014158 0.000000 -0.005173 0.000000
# 4 0.000000 0.000000 0.000000 0.037986 0.000000 -0.003047
# 5 0.002070 -0.010857 -0.005173 0.000000 0.047729 0.000000
# 6 0.000000 0.000000 0.000000 -0.003047 0.000000 0.049278
#
#
# Mechanical properties :
#
#
# Convention : Reuss Voigt Hill
#
# Bulk Modulus (GPa) = 26.48041 45.91175 36.19608
# Shear Modulus (GPa) = 24.23489 31.76593 28.00041
#
# Velocity S-wave (km/s) = 3.06343 3.50726 3.29283
# Velocity P-wave (km/s) = 4.77147 5.84635 5.33605
#
# Compressibility (1/GPa) = 0.03776376
#
# Stress axis : x y z
#
# Youngs Moduli (GPa) = 179.54123 35.06278 70.63073
#
# Poissons Ratio (x) = 0.07791 0.12920
# Poissons Ratio (y) = 0.39892 0.08413
# Poissons Ratio (z) = 0.32841 0.04176
#
# Static dielectric constant tensor:
#      x y z
#    x 2.047300 0.000000 -0.009060 
#    y 0.000000 2.200000 0.000000 
#    z -0.009060 0.000000 2.030730 
# 
# From -- ./inp_files/26359.got.cif
#   From: 2010.05.17/outbox.cif.g08.bks.cpg/sg5_14_cif.got.tgz:26359.got - 2010.06.03 18:56:24.
