data_PCOD9124106
_publ_section_title
;
Structure prediction by ZEFSAII (Michael W. Deem and Ramdas Pophale) SiO2 
 PCOD9124106
Probable space group: C 2
;
_chemical_formula_sum "Si O2"
_cell_formula_units_Z 32
_cell_length_a 13.578367
_cell_length_b 11.965671
_cell_length_c 16.328522
_cell_angle_alpha 90.000000
_cell_angle_beta 148.229992
_cell_angle_gamma 90.000000
_cell_volume 1396.814686
_symmetry_space_group_name_H-M "C 2"
_symmetry_group_IT_number 5
_symmetry_cell_setting 'monoclinic'
loop_
_space_group_symop_operation_xyz
x,y,z
-x,y,-z
1/2+x,1/2+y,z
1/2-x,1/2+y,-z
loop_
_atom_site_type_symbol
_atom_site_label
_atom_site_fract_x
_atom_site_fract_y
_atom_site_fract_z
Si Si1 0.233960 0.160230 0.779168
Si Si2 0.612014 0.745957 0.941544
Si Si3 0.745069 0.926430 0.136819
Si Si4 0.423874 0.996964 0.532381
Si Si5 0.910366 0.278707 0.626483
Si Si6 0.507485 0.511859 0.174430
Si Si7 0.001416 0.741099 0.599506
Si Si8 0.034958 0.767673 0.907004
O O1 0.335662 0.206847 0.770636
O O2 0.018712 0.191760 0.643234
O O3 0.284250 0.030952 0.824710
O O4 0.340695 0.225129 0.928874
O O5 0.508203 0.771981 0.783624
O O6 0.542479 0.622018 0.912423
O O7 0.585096 0.851800 0.980879
O O8 0.834277 0.741344 0.078212
O O9 0.857643 0.987155 0.141046
O O10 0.861779 0.832132 0.266387
O O11 0.500000 0.952185 0.500000
O O12 0.539104 0.108567 0.635619
O O13 0.435957 0.901009 0.607100
O O14 0.207522 0.027304 0.360098
O O15 0.694172 0.258254 0.491767
O O16 0.503783 0.399272 0.119149
O O17 0.000000 0.757866 0.500000
#
# Coordination Sequence:
#
# PCOD9124106 Si02
#       8
#     4   4   4   4   4   4   4   4
#     4  10  20  42  62  95 140 167 222 283 321 398
#     4  10  22  40  69  98 136 178 222 279 340 404
#     4  11  22  42  68  95 135 183 218 275 346 394
#     4  11  23  41  70  97 135 178 228 280 339 408
#     4  11  21  43  69  93 133 185 219 281 342 388
#     4  11  19  41  65  95 137 170 223 283 327 406
#     4  11  25  45  64  97 139 179 228 281 334 408
#     4   9  20  36  64  95 128 174 214 271 339 382
#
# _framework density 22.909265999999999
#
# number of rings (size 3 to 8) (size 9 to 14) (size 15 to 20)
#    0.000    1.500    5.000    0.750    0.000    3.000 
#    4.500    3.125    0.000    0.000    0.000    0.000 
#    0.000    0.000    0.000    0.000    0.000    0.000 
#
# Total GULP energy -89378.095965 kJ/mol
# GULP energy per Si atom -5586.130998 kJ/mol
# Density = 2.285712 g / cm^3
# Si number density = 22.909266 Si / 1000 Ang^3
#
#
#
# Elastic Constant Matrix: (Units=GPa)
#
#
# Indices 1 2 3 4 5 6 
#
# 1 62.3380 17.7543 -1.5785 0.0000 13.2797 0.0002
# 2 17.7543 193.7615 40.2484 0.0001 -4.9214 0.0003
# 3 -1.5785 40.2484 46.2064 0.0002 10.6701 0.0003
# 4 0.0000 0.0001 0.0002 43.3681 0.0001 -13.5686
# 5 13.2797 -4.9214 10.6701 0.0001 22.5019 0.0001
# 6 0.0002 0.0003 0.0003 -13.5686 0.0001 105.5073
#
#
#
# Elastic Compliance Matrix: (Units=1/GPa)
#
#
# Indices 1 2 3 4 5 6 
#
# 1 0.021093 -0.004089 0.008269 0.000000 -0.017263 0.000000
# 2 -0.004089 0.007521 -0.008566 0.000000 0.008120 0.000000
# 3 0.008269 -0.008566 0.034751 0.000000 -0.023232 0.000000
# 4 0.000000 0.000000 0.000000 0.024025 0.000000 0.003090
# 5 -0.017263 0.008120 -0.023232 0.000000 0.067421 0.000000
# 6 0.000000 0.000000 0.000000 0.003090 0.000000 0.009875
#
#
# Mechanical properties :
#
#
# Convention : Reuss Voigt Hill
#
# Bulk Modulus (GPa) = 18.31755 46.12827 32.22291
# Shear Modulus (GPa) = 26.08829 50.66756 38.37792
#
# Velocity S-wave (km/s) = 3.37822 4.70793 4.09738
# Velocity P-wave (km/s) = 4.81971 7.05207 6.03992
#
# Compressibility (1/GPa) = 0.05459245
#
# Stress axis : x y z
#
# Youngs Moduli (GPa) = 47.40899 132.95620 28.77621
#
# Poissons Ratio (x) = 0.54363 -0.23794
# Poissons Ratio (y) = 0.19385 0.24650
# Poissons Ratio (z) = -0.39201 1.13893
#
# Static dielectric constant tensor:
#      x y z
#    x 1.951750 0.000000 0.038390 
#    y 0.000000 1.823520 0.000000 
#    z 0.038390 0.000000 1.519530 
# 
# From -- ./inp_files/61730.got.cif
#   From: 2010.05.17/outbox.cif.g08.bks.cpg/sg5_31_cif.got.tgz:61730.got - 2010.06.03 18:56:24.
