data_PCOD9124302
_publ_section_title
;
Structure prediction by ZEFSAII (Michael W. Deem and Ramdas Pophale) SiO2 
 PCOD9124302
Probable space group: C 2
;
_chemical_formula_sum "Si O2"
_cell_formula_units_Z 32
_cell_length_a 10.620348
_cell_length_b 8.362573
_cell_length_c 28.077718
_cell_angle_alpha 90.000000
_cell_angle_beta 29.859446
_cell_angle_gamma 90.000000
_cell_volume 1241.537798
_symmetry_space_group_name_H-M "C 2"
_symmetry_group_IT_number 5
_symmetry_cell_setting 'monoclinic'
loop_
_space_group_symop_operation_xyz
x,y,z
-x,y,-z
1/2+x,1/2+y,z
1/2-x,1/2+y,-z
loop_
_atom_site_type_symbol
_atom_site_label
_atom_site_fract_x
_atom_site_fract_y
_atom_site_fract_z
Si Si1 0.374691 0.996280 0.991116
Si Si2 0.323505 0.478043 0.204710
Si Si3 0.205776 0.399716 0.086529
Si Si4 0.599058 0.415164 0.681285
Si Si5 0.996701 0.684463 0.788133
Si Si6 0.945528 0.074125 0.400472
Si Si7 0.071936 0.434357 0.592751
Si Si8 0.164394 0.218744 0.184773
O O1 0.361176 0.895171 0.946907
O O2 0.564400 0.136695 0.913292
O O3 0.500000 0.934054 0.000000
O O4 0.084347 0.043257 0.096546
O O5 0.437425 0.339381 0.201942
O O6 0.193116 0.379748 0.204956
O O7 0.090228 0.531621 0.314849
O O8 0.056953 0.276050 0.169458
O O9 0.163743 0.573563 0.124437
O O10 0.500000 0.369460 0.000000
O O11 0.432410 0.269502 0.758744
O O12 0.607109 0.442585 0.622716
O O13 0.486698 0.581714 0.738757
O O14 0.877873 0.403544 0.612307
O O15 0.253775 0.588102 0.694448
O O16 0.859828 0.253915 0.412873
O O17 0.808616 0.026655 0.493890
#
# Coordination Sequence:
#
# PCOD9124302 Si02
#       8
#     4   4   4   4   4   4   4   4
#     4  12  25  45  73 103 150 199 240 305 380 432
#     4  10  21  44  67 102 143 190 239 299 367 439
#     4  12  26  44  73 110 150 190 258 313 361 453
#     4  10  20  43  72 101 140 192 239 297 376 440
#     4  10  23  43  69 103 146 188 239 309 370 437
#     4  10  20  43  69  99 147 185 245 303 366 447
#     4  10  22  39  70 101 139 190 241 303 367 439
#     4  12  23  46  75 102 145 196 243 309 367 445
#
# _framework density 25.774486
#
# number of rings (size 3 to 8) (size 9 to 14) (size 15 to 20)
#    0.000    1.500    5.000    2.250    0.000    2.500 
#    2.250    1.250    0.000    0.000    0.000    0.000 
#    0.000    0.000    0.000    0.000    0.000    0.000 
#
# Total GULP energy -89367.236405 kJ/mol
# GULP energy per Si atom -5585.452275 kJ/mol
# Density = 2.571582 g / cm^3
# Si number density = 25.774486 Si / 1000 Ang^3
#
#
#
# Elastic Constant Matrix: (Units=GPa)
#
#
# Indices 1 2 3 4 5 6 
#
# 1 106.0314 1.2685 24.9879 -0.0014 35.4778 0.0010
# 2 1.2685 31.0939 12.9186 -0.0005 16.2236 0.0001
# 3 24.9879 12.9186 128.3349 -0.0111 27.2289 0.0027
# 4 -0.0014 -0.0005 -0.0111 48.2125 0.0013 16.4201
# 5 35.4778 16.2236 27.2289 0.0013 38.2216 -0.0005
# 6 0.0010 0.0001 0.0027 16.4201 -0.0005 46.1123
#
#
#
# Elastic Compliance Matrix: (Units=1/GPa)
#
#
# Indices 1 2 3 4 5 6 
#
# 1 0.015328 0.008736 -0.000069 0.000001 -0.017886 -0.000001
# 2 0.008736 0.046317 -0.000556 0.000002 -0.027372 -0.000001
# 3 -0.000069 -0.000556 0.009186 0.000003 -0.006245 -0.000002
# 4 0.000001 0.000002 0.000003 0.023604 -0.000005 -0.008405
# 5 -0.017886 -0.027372 -0.006245 -0.000005 0.058832 0.000003
# 6 -0.000001 -0.000001 -0.000002 -0.008405 0.000003 0.024679
#
#
# Mechanical properties :
#
#
# Convention : Reuss Voigt Hill
#
# Bulk Modulus (GPa) = 11.48728 38.20114 24.84421
# Shear Modulus (GPa) = 26.21342 41.59496 33.90419
#
# Velocity S-wave (km/s) = 3.19255 4.02158 3.63080
# Velocity P-wave (km/s) = 4.24928 6.03470 5.21890
#
# Compressibility (1/GPa) = 0.08705277
#
# Stress axis : x y z
#
# Youngs Moduli (GPa) = 65.24216 21.59040 108.85700
#
# Poissons Ratio (x) = -0.18860 0.00749
# Poissons Ratio (y) = -0.56993 0.06049
# Poissons Ratio (z) = 0.00449 0.01200
#
# Static dielectric constant tensor:
#      x y z
#    x 2.099280 0.000000 0.016750 
#    y 0.000000 2.138710 0.000000 
#    z 0.016750 0.000000 2.047090 
# 
# From -- ./inp_files/71693.got.cif
#   From: 2010.05.17/outbox.cif.g08.bks.cpg/sg5_36_cif.got.tgz:71693.got - 2010.06.03 18:56:24.
