data_PCOD9124216
_publ_section_title
;
Structure prediction by ZEFSAII (Michael W. Deem and Ramdas Pophale) SiO2 
 PCOD9124216
Probable space group: C 2
;
_chemical_formula_sum "Si O2"
_cell_formula_units_Z 28
_cell_length_a 31.666421
_cell_length_b 5.090906
_cell_length_c 8.742173
_cell_angle_alpha 90.000000
_cell_angle_beta 64.764795
_cell_angle_gamma 90.000000
_cell_volume 1274.833193
_symmetry_space_group_name_H-M "C 2"
_symmetry_group_IT_number 5
_symmetry_cell_setting 'monoclinic'
loop_
_space_group_symop_operation_xyz
x,y,z
-x,y,-z
1/2+x,1/2+y,z
1/2-x,1/2+y,-z
loop_
_atom_site_type_symbol
_atom_site_label
_atom_site_fract_x
_atom_site_fract_y
_atom_site_fract_z
Si Si1 0.870405 0.227970 0.172393
Si Si2 0.788534 0.066798 0.093653
Si Si3 0.809406 0.559616 0.869298
Si Si4 0.053580 0.122568 0.171143
Si Si5 0.405348 0.211317 0.281001
Si Si6 0.500000 0.919604 0.500000
Si Si7 0.907923 0.763744 0.621570
Si Si8 0.500000 0.279467 0.000000
O O1 0.819064 0.173354 0.186199
O O2 0.874970 0.452757 0.292660
O O3 0.887630 0.944934 0.201427
O O4 0.907925 0.297269 0.978504
O O5 0.732692 0.101267 0.186393
O O6 0.804042 0.262802 0.934006
O O7 0.800455 0.770514 0.020908
O O8 0.860727 0.610820 0.730790
O O9 0.012394 0.256728 0.330503
O O10 0.082693 0.969492 0.257228
O O11 0.026529 0.947549 0.088576
O O12 0.403562 0.339543 0.451361
O O13 0.458355 0.133102 0.152129
O O14 0.454002 0.088065 0.549613
#
# Coordination Sequence:
#
# PCOD9124216 Si02
#       8
#     4   4   4   4   4   2   4   2
#     4  11  24  43  67  95 130 180 225 278 332 410
#     4  10  20  42  69 101 132 168 228 272 342 396
#     4  10  22  39  71 102 131 172 218 285 330 408
#     4  11  25  42  67  92 135 180 225 283 336 409
#     4  11  27  40  65  92 138 175 230 274 336 400
#     4  12  26  38  68  94 136 176 224 280 346 392
#     4  12  26  44  63 104 133 181 224 286 337 407
#     4  10  24  44  60  94 126 184 228 270 334 404
#
# _framework density 21.963656
#
# number of rings (size 3 to 8) (size 9 to 14) (size 15 to 20)
#    0.000    1.143    1.429    3.857   14.000    0.571 
#    0.000    1.429    0.000    0.000    0.000    0.000 
#    0.000    0.000    0.000    0.000    0.000    0.000 
#
# Total GULP energy -78195.800878 kJ/mol
# GULP energy per Si atom -5585.414348 kJ/mol
# Density = 2.191367 g / cm^3
# Si number density = 21.963656 Si / 1000 Ang^3
#
#
#
# Elastic Constant Matrix: (Units=GPa)
#
#
# Indices 1 2 3 4 5 6 
#
# 1 143.0306 9.4213 31.2849 0.0000 0.5837 0.0000
# 2 9.4213 50.2658 -2.8394 0.0000 5.7876 0.0000
# 3 31.2849 -2.8394 40.7643 0.0000 0.2556 0.0000
# 4 0.0000 0.0000 0.0000 69.8629 0.0000 -56.0152
# 5 0.5837 5.7876 0.2556 0.0000 39.5709 0.0000
# 6 0.0000 0.0000 0.0000 -56.0152 0.0000 96.6374
#
#
#
# Elastic Compliance Matrix: (Units=1/GPa)
#
#
# Indices 1 2 3 4 5 6 
#
# 1 0.008598 -0.002017 -0.006740 0.000000 0.000212 0.000000
# 2 -0.002017 0.020791 0.003015 0.000000 -0.003031 0.000000
# 3 -0.006740 0.003015 0.029917 0.000000 -0.000535 0.000000
# 4 0.000000 0.000000 0.000000 0.026742 0.000000 0.015501
# 5 0.000212 -0.003031 -0.000535 0.000000 0.025715 0.000000
# 6 0.000000 0.000000 0.000000 0.015501 0.000000 0.019333
#
#
# Mechanical properties :
#
#
# Convention : Reuss Voigt Hill
#
# Bulk Modulus (GPa) = 20.91053 34.42159 27.66606
# Shear Modulus (GPa) = 31.54150 54.29384 42.91767
#
# Velocity S-wave (km/s) = 3.79367 4.97730 4.42524
# Velocity P-wave (km/s) = 5.36008 6.98122 6.22366
#
# Compressibility (1/GPa) = 0.04782281
#
# Stress axis : x y z
#
# Youngs Moduli (GPa) = 116.30939 48.09669 33.42531
#
# Poissons Ratio (x) = 0.09699 0.22529
# Poissons Ratio (y) = 0.23455 -0.10077
# Poissons Ratio (z) = 0.78395 -0.14501
#
# Static dielectric constant tensor:
#      x y z
#    x 1.718430 0.000000 0.020530 
#    y 0.000000 1.828260 0.000000 
#    z 0.020530 0.000000 1.896420 
# 
# From -- ./inp_files/31436.got.cif
#   From: 2010.05.17/outbox.cif.g08.bks.cpg/sg5_16_cif.got.tgz:31436.got - 2010.06.03 18:56:24.
