data_PCOD9124466
_publ_section_title
;
Structure prediction by ZEFSAII (Michael W. Deem and Ramdas Pophale) SiO2 
 PCOD9124466
Probable space group: C 2
;
_chemical_formula_sum "Si O2"
_cell_formula_units_Z 32
_cell_length_a 26.819734
_cell_length_b 9.083305
_cell_length_c 20.624078
_cell_angle_alpha 90.000000
_cell_angle_beta 19.494889
_cell_angle_gamma 90.000000
_cell_volume 1676.713058
_symmetry_space_group_name_H-M "C 2"
_symmetry_group_IT_number 5
_symmetry_cell_setting 'monoclinic'
loop_
_space_group_symop_operation_xyz
x,y,z
-x,y,-z
1/2+x,1/2+y,z
1/2-x,1/2+y,-z
loop_
_atom_site_type_symbol
_atom_site_label
_atom_site_fract_x
_atom_site_fract_y
_atom_site_fract_z
Si Si1 0.616054 0.027540 0.409597
Si Si2 0.369329 0.541733 0.621117
Si Si3 0.654909 0.669174 0.550369
Si Si4 0.955893 0.278568 0.681883
Si Si5 0.657025 0.967097 0.773252
Si Si6 0.846411 0.141850 0.226265
Si Si7 0.874109 0.917940 0.309589
Si Si8 0.202876 0.789110 0.900140
O O1 0.500000 0.093833 0.500000
O O2 0.720698 0.126184 0.325446
O O3 0.524253 0.932415 0.574790
O O4 0.715886 0.913707 0.243988
O O5 0.500000 0.460777 0.500000
O O6 0.465777 0.662418 0.463048
O O7 0.276759 0.450100 0.683902
O O8 0.249555 0.634038 0.810253
O O9 0.515641 0.730629 0.678833
O O10 0.777886 0.596652 0.350920
O O11 0.739471 0.802370 0.482149
O O12 0.610511 0.537272 0.652233
O O13 0.782619 0.285070 0.873188
O O14 0.649072 0.806776 0.750127
O O15 0.500000 0.003122 0.000000
O O16 0.838063 0.014002 0.289707
O O17 0.000000 0.121556 0.000000
O O18 0.029350 0.828446 0.114006
#
# Coordination Sequence:
#
# PCOD9124466 Si02
#       8
#     4   4   4   4   4   4   4   4
#     4   9  16  31  57  88 111 140 187 234 284 335
#     4   8  15  30  55  85 110 137 181 235 284 333
#     4  11  23  39  57  81 114 155 196 235 285 343
#     4   8  16  33  56  81 110 140 186 239 276 339
#     4  10  21  35  55  82 119 148 184 233 288 334
#     4  11  21  34  54  88 118 150 190 238 283 337
#     4  12  23  37  59  80 117 153 196 236 287 342
#     4   9  17  32  59  86 107 144 191 232 288 339
#
# _framework density 19.084959000000001
#
# number of rings (size 3 to 8) (size 9 to 14) (size 15 to 20)
#    0.000    2.250    2.500    3.000    0.000    1.000 
#    0.000    1.250    2.750    3.000    0.000    0.000 
#    0.000    0.000    0.000    0.000    0.000    0.000 
#
# Total GULP energy -89126.754180 kJ/mol
# GULP energy per Si atom -5570.422136 kJ/mol
# Density = 1.904152 g / cm^3
# Si number density = 19.084959 Si / 1000 Ang^3
#
#
#
# Elastic Constant Matrix: (Units=GPa)
#
#
# Indices 1 2 3 4 5 6 
#
# 1 109.7380 25.8323 35.3173 0.0000 -18.3652 0.0000
# 2 25.8323 60.0401 11.4343 0.0012 -0.8373 -0.0001
# 3 35.3173 11.4343 39.3347 0.0014 -15.7824 -0.0002
# 4 0.0000 0.0012 0.0014 61.7245 0.0000 5.7801
# 5 -18.3652 -0.8373 -15.7824 0.0000 21.8683 0.0000
# 6 0.0000 -0.0001 -0.0002 5.7801 0.0000 28.1820
#
#
#
# Elastic Compliance Matrix: (Units=1/GPa)
#
#
# Indices 1 2 3 4 5 6 
#
# 1 0.013895 -0.004127 -0.009371 0.000000 0.004748 0.000000
# 2 -0.004127 0.019144 -0.004161 0.000000 -0.005736 0.000000
# 3 -0.009371 -0.004161 0.044796 -0.000001 0.024301 0.000000
# 4 0.000000 0.000000 -0.000001 0.016518 0.000000 -0.003388
# 5 0.004748 -0.005736 0.024301 0.000000 0.067034 0.000000
# 6 0.000000 0.000000 0.000000 -0.003388 0.000000 0.036178
#
#
# Mechanical properties :
#
#
# Convention : Reuss Voigt Hill
#
# Bulk Modulus (GPa) = 23.51988 39.36450 31.44219
# Shear Modulus (GPa) = 20.23846 31.45688 25.84767
#
# Velocity S-wave (km/s) = 3.25997 4.06428 3.68414
# Velocity P-wave (km/s) = 5.14980 6.53415 5.88284
#
# Compressibility (1/GPa) = 0.04251722
#
# Stress axis : x y z
#
# Youngs Moduli (GPa) = 71.97066 52.23651 22.32342
#
# Poissons Ratio (x) = 0.21560 0.20918
# Poissons Ratio (y) = 0.29705 0.09288
# Poissons Ratio (z) = 0.67441 0.21733
#
# Static dielectric constant tensor:
#      x y z
#    x 1.692210 0.000000 -0.009540 
#    y 0.000000 1.655950 0.000000 
#    z -0.009540 0.000000 1.635780 
# 
# From -- ./inp_files/67563.got.cif
#   From: 2010.05.17/outbox.cif.g08.bks.cpg/sg5_34_cif.got.tgz:67563.got - 2010.06.03 18:56:24.
