data_PCOD9124877
_publ_section_title
;
Structure prediction by ZEFSAII (Michael W. Deem and Ramdas Pophale) SiO2 
 PCOD9124877
Probable space group: C 2
;
_chemical_formula_sum "Si O2"
_cell_formula_units_Z 20
_cell_length_a 10.755386
_cell_length_b 14.893678
_cell_length_c 5.682993
_cell_angle_alpha 90.000000
_cell_angle_beta 86.352228
_cell_angle_gamma 90.000000
_cell_volume 908.498724
_symmetry_space_group_name_H-M "C 2"
_symmetry_group_IT_number 5
_symmetry_cell_setting 'monoclinic'
loop_
_space_group_symop_operation_xyz
x,y,z
-x,y,-z
1/2+x,1/2+y,z
1/2-x,1/2+y,-z
loop_
_atom_site_type_symbol
_atom_site_label
_atom_site_fract_x
_atom_site_fract_y
_atom_site_fract_z
Si Si1 0.638143 0.040480 0.375903
Si Si2 0.000000 0.608128 0.000000
Si Si3 0.000000 0.017426 0.000000
Si Si4 0.327180 0.214919 0.362736
Si Si5 0.630807 0.420722 0.609087
Si Si6 0.442620 0.696567 0.764551
O O1 0.500000 0.023322 0.500000
O O2 0.688872 0.140037 0.434033
O O3 0.741144 0.972623 0.460203
O O4 0.606980 0.046910 0.103138
O O5 0.060705 0.673149 0.800857
O O6 0.104523 0.952997 0.880489
O O7 0.957533 0.089667 0.808520
O O8 0.352576 0.315522 0.435110
O O9 0.202111 0.217967 0.227286
O O10 0.500000 0.442867 0.500000
O O11 0.500000 0.719729 0.500000
O O12 0.500000 0.737058 0.000000
#
# Coordination Sequence:
#
# PCOD9124877 Si02
#       6
#     4   2   2   4   4   4
#     4  10  23  43  66  92 135 181 227 286 350 421
#     4  10  21  42  63  94 128 184 225 288 349 420
#     4  10  21  38  67  98 140 176 231 288 341 414
#     4  11  23  41  68  96 135 183 234 289 352 416
#     4  12  24  41  66 103 135 183 235 294 349 417
#     4  10  23  43  72 101 138 189 230 283 352 415
#
# _framework density 22.014340000000001
#
# number of rings (size 3 to 8) (size 9 to 14) (size 15 to 20)
#    0.600    0.800    0.000    6.600    2.800    2.400 
#    1.800    0.000    0.000    0.000    0.000    0.000 
#    0.000    0.000    0.000    0.000    0.000    0.000 
#
# Total GULP energy -55725.678603 kJ/mol
# GULP energy per Si atom -5572.567860 kJ/mol
# Density = 2.196423 g / cm^3
# Si number density = 22.014340 Si / 1000 Ang^3
#
#
#
# Elastic Constant Matrix: (Units=GPa)
#
#
# Indices 1 2 3 4 5 6 
#
# 1 149.3345 51.2751 25.9636 0.0000 35.9465 0.0000
# 2 51.2751 84.1744 14.3403 0.0000 11.2716 0.0000
# 3 25.9636 14.3403 69.3193 0.0000 20.4402 0.0000
# 4 0.0000 0.0000 0.0000 5.0414 0.0000 -3.7267
# 5 35.9465 11.2716 20.4402 0.0000 41.9574 0.0000
# 6 0.0000 0.0000 0.0000 -3.7267 0.0000 12.2283
#
#
#
# Elastic Compliance Matrix: (Units=1/GPa)
#
#
# Indices 1 2 3 4 5 6 
#
# 1 0.010317 -0.005216 -0.000691 0.000000 -0.007101 0.000000
# 2 -0.005216 0.015164 -0.001518 0.000000 0.001134 0.000000
# 3 -0.000691 -0.001518 0.017171 0.000000 -0.007365 0.000000
# 4 0.000000 0.000000 0.000000 0.256038 0.000000 0.078029
# 5 -0.007101 0.001134 -0.007365 0.000000 0.033200 0.000000
# 6 0.000000 0.000000 0.000000 0.078029 0.000000 0.105558
#
#
# Mechanical properties :
#
#
# Convention : Reuss Voigt Hill
#
# Bulk Modulus (GPa) = 35.96965 53.99847 44.98406
# Shear Modulus (GPa) = 10.83273 25.92868 18.38070
#
# Velocity S-wave (km/s) = 2.22068 3.43564 2.89267
# Velocity P-wave (km/s) = 4.79061 6.34982 5.62451
#
# Compressibility (1/GPa) = 0.02780121
#
# Stress axis : x y z
#
# Youngs Moduli (GPa) = 96.93032 65.94552 58.23895
#
# Poissons Ratio (x) = 0.34396 0.04026
# Poissons Ratio (y) = 0.50557 0.08840
# Poissons Ratio (z) = 0.06701 0.10010
#
# Static dielectric constant tensor:
#      x y z
#    x 1.834900 0.000000 0.018600 
#    y 0.000000 1.794190 0.000000 
#    z 0.018600 0.000000 1.974520 
# 
# From -- ./inp_files/4692.got.cif
#   From: 2010.05.17/outbox.cif.g08.bks.cpg/sg5_3_cif.got.tgz:4692.got - 2010.06.03 18:56:24.
