data_PCOD9124001
_publ_section_title
;
Structure prediction by ZEFSAII (Michael W. Deem and Ramdas Pophale) SiO2 
 PCOD9124001
Probable space group: C 2
;
_chemical_formula_sum "Si O2"
_cell_formula_units_Z 32
_cell_length_a 9.717902
_cell_length_b 19.437758
_cell_length_c 14.723240
_cell_angle_alpha 90.000000
_cell_angle_beta 147.506078
_cell_angle_gamma 90.000000
_cell_volume 1494.053939
_symmetry_space_group_name_H-M "C 2"
_symmetry_group_IT_number 5
_symmetry_cell_setting 'monoclinic'
loop_
_space_group_symop_operation_xyz
x,y,z
-x,y,-z
1/2+x,1/2+y,z
1/2-x,1/2+y,-z
loop_
_atom_site_type_symbol
_atom_site_label
_atom_site_fract_x
_atom_site_fract_y
_atom_site_fract_z
Si Si1 0.805327 0.069820 0.965570
Si Si2 0.435339 0.943908 0.759475
Si Si3 0.052135 0.292609 0.827031
Si Si4 0.691037 0.570185 0.831685
Si Si5 0.843047 0.720670 0.142813
Si Si6 0.056580 0.939739 0.388024
Si Si7 0.682953 0.711096 0.730145
Si Si8 0.317462 0.288442 0.537147
O O1 0.709667 0.140772 0.869786
O O2 0.599281 0.010879 0.871360
O O3 0.893504 0.093230 0.114868
O O4 0.000000 0.040032 0.000000
O O5 0.603093 0.874471 0.852170
O O6 0.284795 0.960221 0.582850
O O7 0.206394 0.928365 0.702302
O O8 0.217599 0.249255 0.846500
O O9 0.772309 0.290025 0.619169
O O10 0.121747 0.260849 0.963568
O O11 0.527070 0.501825 0.722277
O O12 0.644584 0.630630 0.732720
O O13 0.000000 0.559306 0.000000
O O14 0.085061 0.722587 0.208556
O O15 0.927827 0.752776 0.285525
O O16 0.152615 0.865737 0.407900
O O17 0.418470 0.745907 0.552133
#
# Coordination Sequence:
#
# PCOD9124001 Si02
#       8
#     4   4   4   4   4   4   4   4
#     4  12  27  43  61 103 136 171 229 284 345 403
#     4  10  22  43  66  95 133 179 220 287 339 404
#     4   9  21  38  61  95 131 170 219 279 333 393
#     4  12  21  43  72  99 131 180 233 280 340 415
#     4  12  21  40  68  92 131 181 222 277 336 412
#     4  10  22  42  69  97 130 174 232 274 341 410
#     4  10  20  41  63  97 129 169 229 276 334 399
#     4   9  23  37  59 105 132 162 221 285 332 399
#
# _framework density 21.418234999999999
#
# number of rings (size 3 to 8) (size 9 to 14) (size 15 to 20)
#    0.750    0.750    3.750    0.750    3.500    2.000 
#    0.000    0.625    0.000    0.000    0.000    0.000 
#    0.000    0.000    0.000    0.000    0.000    0.000 
#
# Total GULP energy -89116.993556 kJ/mol
# GULP energy per Si atom -5569.812097 kJ/mol
# Density = 2.136949 g / cm^3
# Si number density = 21.418235 Si / 1000 Ang^3
#
#
#
# Elastic Constant Matrix: (Units=GPa)
#
#
# Indices 1 2 3 4 5 6 
#
# 1 54.3298 6.0253 29.1142 -0.0007 6.0310 -0.0031
# 2 6.0253 136.9005 63.1442 -0.0001 -2.0081 -0.0004
# 3 29.1142 63.1442 86.5290 0.0198 2.3550 0.0187
# 4 -0.0007 -0.0001 0.0198 44.3576 0.0051 6.0530
# 5 6.0310 -2.0081 2.3550 0.0051 31.1300 0.0024
# 6 -0.0031 -0.0004 0.0187 6.0530 0.0024 134.8497
#
#
#
# Elastic Compliance Matrix: (Units=1/GPa)
#
#
# Indices 1 2 3 4 5 6 
#
# 1 0.024216 0.003910 -0.010903 0.000005 -0.003615 0.000002
# 2 0.003910 0.011696 -0.009871 0.000004 0.000744 0.000001
# 3 -0.010903 -0.009871 0.022435 -0.000010 -0.000222 -0.000003
# 4 0.000005 0.000004 -0.000010 0.022683 -0.000004 -0.001018
# 5 -0.003615 0.000744 -0.000222 -0.000004 0.032888 0.000000
# 6 0.000002 0.000001 -0.000003 -0.001018 0.000000 0.007461
#
#
# Mechanical properties :
#
#
# Convention : Reuss Voigt Hill
#
# Bulk Modulus (GPa) = 40.61856 52.70297 46.66076
# Shear Modulus (GPa) = 30.61558 54.03250 42.32404
#
# Velocity S-wave (km/s) = 3.78486 5.02813 4.45013
# Velocity P-wave (km/s) = 6.17300 7.63999 6.94534
#
# Compressibility (1/GPa) = 0.02461929
#
# Stress axis : x y z
#
# Youngs Moduli (GPa) = 41.29428 85.49597 44.57330
#
# Poissons Ratio (x) = -0.33430 0.48599
# Poissons Ratio (y) = -0.16147 0.44000
# Poissons Ratio (z) = 0.45023 0.84396
#
# Static dielectric constant tensor:
#      x y z
#    x 1.655540 0.000020 0.006890 
#    y 0.000020 1.773470 -0.000010 
#    z 0.006890 -0.000010 1.810590 
# 
# From -- ./inp_files/60806.got.cif
#   From: 2010.05.17/outbox.cif.g08.bks.cpg/sg5_31_cif.got.tgz:60806.got - 2010.06.03 18:56:24.
