data_PCOD9124527
_publ_section_title
;
Structure prediction by ZEFSAII (Michael W. Deem and Ramdas Pophale) SiO2 
 PCOD9124527
Probable space group: C 2
;
_chemical_formula_sum "Si O2"
_cell_formula_units_Z 28
_cell_length_a 13.430299
_cell_length_b 5.158805
_cell_length_c 26.131790
_cell_angle_alpha 90.000000
_cell_angle_beta 55.982200
_cell_angle_gamma 90.000000
_cell_volume 1500.676668
_symmetry_space_group_name_H-M "C 2"
_symmetry_group_IT_number 5
_symmetry_cell_setting 'monoclinic'
loop_
_space_group_symop_operation_xyz
x,y,z
-x,y,-z
1/2+x,1/2+y,z
1/2-x,1/2+y,-z
loop_
_atom_site_type_symbol
_atom_site_label
_atom_site_fract_x
_atom_site_fract_y
_atom_site_fract_z
Si Si1 0.182930 0.451920 0.231030
Si Si2 0.711202 0.106380 0.541104
Si Si3 0.394106 0.439848 0.571848
Si Si4 0.964607 0.940470 0.134257
Si Si5 0.157484 0.949867 0.169488
Si Si6 0.065211 0.454133 0.375818
Si Si7 0.560791 0.938416 0.927395
O O1 0.327903 0.452483 0.194605
O O2 0.144345 0.707923 0.211469
O O3 0.123031 0.438320 0.303517
O O4 0.148020 0.208678 0.205890
O O5 0.759152 0.896099 0.485953
O O6 0.780311 0.039305 0.573033
O O7 0.570710 0.057461 0.587536
O O8 0.500000 0.393598 0.500000
O O9 0.432536 0.673415 0.598105
O O10 0.369865 0.173077 0.608404
O O11 0.973999 0.682718 0.097547
O O12 0.061030 0.944435 0.151885
O O13 0.977900 0.183499 0.092512
O O14 0.294217 0.937179 0.109091
O O15 0.500000 0.950579 0.000000
#
# Coordination Sequence:
#
# PCOD9124527 Si02
#       7
#     4   4   4   4   4   4   4
#     4  10  23  39  58  84 114 147 197 239 280 336
#     4  12  23  38  59  82 110 144 179 224 285 343
#     4  12  23  39  61  83 113 147 182 229 293 349
#     4  10  21  38  60  83 118 158 189 238 283 327
#     4  10  21  39  60  82 118 155 190 240 281 327
#     4  12  24  40  60  86 113 147 189 238 284 347
#     4  10  21  36  57  91 121 152 194 233 280 336
#
# _framework density 18.658249999999999
#
# number of rings (size 3 to 8) (size 9 to 14) (size 15 to 20)
#    0.000    1.143    2.857    3.429    0.000    3.429 
#    0.000    0.000    0.000    0.000    0.000    0.000 
#    0.000    0.000    0.000    0.000    0.000    0.000 
#
# Total GULP energy -78282.595771 kJ/mol
# GULP energy per Si atom -5591.613984 kJ/mol
# Density = 1.861578 g / cm^3
# Si number density = 18.658250 Si / 1000 Ang^3
#
#
#
# Elastic Constant Matrix: (Units=GPa)
#
#
# Indices 1 2 3 4 5 6 
#
# 1 306.8277 532.9349 492.3779 0.3543 122.8309 -0.2044
# 2 532.9349 1455.9977 1221.7292 0.9322 254.9933 -0.5412
# 3 492.3779 1221.7292 1189.8800 0.8160 224.9642 -0.4741
# 4 0.3543 0.9322 0.8160 -43.1340 0.1635 43.7961
# 5 122.8309 254.9933 224.9642 0.1635 62.0314 -0.0956
# 6 -0.2044 -0.5412 -0.4741 43.7961 -0.0956 -12.2279
#
#
#
# Elastic Compliance Matrix: (Units=1/GPa)
#
#
# Indices 1 2 3 4 5 6 
#
# 1 0.017475 0.000939 -0.002937 0.000000 -0.027809 -0.000003
# 2 0.000939 0.005864 -0.004774 0.000004 -0.008652 -0.000007
# 3 -0.002937 -0.004774 0.006832 0.000002 0.000661 -0.000002
# 4 0.000000 0.000004 0.000002 0.008793 0.000000 0.031493
# 5 -0.027809 -0.008652 0.000661 0.000000 0.104354 0.000008
# 6 -0.000003 -0.000007 -0.000002 0.031493 0.000008 0.031017
#
#
# Mechanical properties :
#
#
# Convention : Reuss Voigt Hill
#
# Bulk Modulus (GPa) = 60.14365 827.42104 443.78235
# Shear Modulus (GPa) = 25.85014 48.37815 37.11415
#
# Velocity S-wave (km/s) = 3.72621 5.09753 4.46483
# Velocity P-wave (km/s) = 7.12861 21.88768 16.27709
#
# Compressibility (1/GPa) = 0.01662686
#
# Stress axis : x y z
#
# Youngs Moduli (GPa) = 57.22367 170.52900 146.36197
#
# Poissons Ratio (x) = -0.16007 0.42992
# Poissons Ratio (y) = -0.05371 0.69869
# Poissons Ratio (z) = 0.16809 0.81406
#
# Static dielectric constant tensor:
#      x y z
#    x 1.636120 -0.000220 -0.002320 
#    y -0.000220 1.514380 0.000050 
#    z -0.002320 0.000050 1.595430 
# 
# From -- ./inp_files/64957.got.cif
#   From: 2010.05.17/outbox.cif.g08.bks.cpg/sg5_33_cif.got.tgz:64957.got - 2010.06.03 18:56:24.
