data_PCOD9124498
_publ_section_title
;
Structure prediction by ZEFSAII (Michael W. Deem and Ramdas Pophale) SiO2 
 PCOD9124498
Probable space group: C 2
;
_chemical_formula_sum "Si O2"
_cell_formula_units_Z 32
_cell_length_a 15.618804
_cell_length_b 25.791665
_cell_length_c 8.956546
_cell_angle_alpha 90.000000
_cell_angle_beta 154.642950
_cell_angle_gamma 90.000000
_cell_volume 1545.158563
_symmetry_space_group_name_H-M "C 2"
_symmetry_group_IT_number 5
_symmetry_cell_setting 'monoclinic'
loop_
_space_group_symop_operation_xyz
x,y,z
-x,y,-z
1/2+x,1/2+y,z
1/2-x,1/2+y,-z
loop_
_atom_site_type_symbol
_atom_site_label
_atom_site_fract_x
_atom_site_fract_y
_atom_site_fract_z
Si Si1 0.148567 0.375000 0.097033
Si Si2 0.214771 0.949991 0.928138
Si Si3 0.713639 0.567624 0.912384
Si Si4 0.931629 0.874062 0.065058
Si Si5 0.347722 0.760634 0.896600
Si Si6 0.463422 0.146472 0.114437
Si Si7 0.930181 0.759836 0.062542
Si Si8 0.222038 0.659056 0.779299
O O1 0.145746 0.417478 0.964036
O O2 0.365413 0.373022 0.517026
O O3 0.110026 0.317334 0.971940
O O4 0.000000 0.384858 0.000000
O O5 0.000000 0.950648 0.500000
O O6 0.191552 0.919245 0.047402
O O7 0.279118 0.009322 0.050772
O O8 0.500000 0.564421 0.500000
O O9 0.857105 0.598507 0.025609
O O10 0.698396 0.605972 0.028951
O O11 0.832358 0.816647 0.924852
O O12 0.000000 0.881966 0.000000
O O13 0.351515 0.710481 0.007311
O O14 0.123508 0.761789 0.475431
O O15 0.500000 0.753947 0.000000
O O16 0.346114 0.201605 0.952303
O O17 0.676377 0.153497 0.532295
O O18 0.500000 0.137783 0.000000
O O19 0.000000 0.759314 0.000000
O O20 0.000000 0.666690 0.500000
#
# Coordination Sequence:
#
# PCOD9124498 Si02
#       8
#     4   4   4   4   4   4   4   4
#     4   9  18  33  53  77 103 131 164 205 252 302
#     4   9  19  35  53  72  99 136 173 207 250 299
#     4  10  21  36  50  71 102 134 173 216 249 288
#     4   9  17  33  55  77 101 130 164 205 251 304
#     4   9  17  29  50  78 103 126 160 204 248 298
#     4   9  18  34  54  76 100 131 168 204 250 308
#     4   8  15  28  50  76 102 127 157 198 251 308
#     4   9  19  34  51  73 103 135 166 203 252 305
#
# _framework density 20.709848999999998
#
# number of rings (size 3 to 8) (size 9 to 14) (size 15 to 20)
#    0.000    3.000    0.000    0.000    0.000    8.000 
#    0.000    8.750    0.000    0.000    0.000    0.000 
#    0.000    0.000    0.000    0.000    0.000    0.000 
#
# Total GULP energy -89134.912253 kJ/mol
# GULP energy per Si atom -5570.932016 kJ/mol
# Density = 2.066271 g / cm^3
# Si number density = 20.709849 Si / 1000 Ang^3
#
#
#
# Elastic Constant Matrix: (Units=GPa)
#
#
# Indices 1 2 3 4 5 6 
#
# 1 78.9753 87.7211 5.6033 0.0000 -18.8716 0.0000
# 2 87.7211 249.4412 17.0151 0.0000 -1.9859 0.0000
# 3 5.6033 17.0151 29.3644 -0.0001 -8.0256 0.0000
# 4 0.0000 0.0000 -0.0001 15.9737 0.0000 -2.0951
# 5 -18.8716 -1.9859 -8.0256 0.0000 26.8336 0.0000
# 6 0.0000 0.0000 0.0000 -2.0951 0.0000 17.2028
#
#
#
# Elastic Compliance Matrix: (Units=1/GPa)
#
#
# Indices 1 2 3 4 5 6 
#
# 1 0.028949 -0.010446 0.006406 0.000000 0.021502 0.000000
# 2 -0.010446 0.007948 -0.004857 0.000000 -0.008211 0.000000
# 3 0.006406 -0.004857 0.040054 0.000000 0.016125 0.000000
# 4 0.000000 0.000000 0.000000 0.063619 0.000000 0.007748
# 5 0.021502 -0.008211 0.016125 0.000000 0.056604 0.000000
# 6 0.000000 0.000000 0.000000 0.007748 0.000000 0.059074
#
#
# Mechanical properties :
#
#
# Convention : Reuss Voigt Hill
#
# Bulk Modulus (GPa) = 16.90414 64.27335 40.58874
# Shear Modulus (GPa) = 17.02066 28.49811 22.75939
#
# Velocity S-wave (km/s) = 2.86993 3.71356 3.31866
# Velocity P-wave (km/s) = 4.37745 7.03491 5.85884
#
# Compressibility (1/GPa) = 0.05915712
#
# Stress axis : x y z
#
# Youngs Moduli (GPa) = 34.54387 125.81029 24.96640
#
# Poissons Ratio (x) = 1.31424 -0.15993
# Poissons Ratio (y) = 0.36085 0.12125
# Poissons Ratio (z) = -0.22128 0.61100
#
# Static dielectric constant tensor:
#      x y z
#    x 1.740420 0.000000 0.005640 
#    y 0.000000 1.795340 0.000000 
#    z 0.005640 0.000000 1.821910 
# 
# From -- ./inp_files/25648.got.cif
#   From: 2010.05.17/outbox.cif.g08.bks.cpg/sg5_13_cif.got.tgz:25648.got - 2010.06.03 18:56:24.
