data_PCOD9124140
_publ_section_title
;
Structure prediction by ZEFSAII (Michael W. Deem and Ramdas Pophale) SiO2 
 PCOD9124140
Probable space group: C 2
;
_chemical_formula_sum "Si O2"
_cell_formula_units_Z 32
_cell_length_a 11.961032
_cell_length_b 8.035685
_cell_length_c 17.780078
_cell_angle_alpha 90.000000
_cell_angle_beta 135.652492
_cell_angle_gamma 90.000000
_cell_volume 1194.559154
_symmetry_space_group_name_H-M "C 2"
_symmetry_group_IT_number 5
_symmetry_cell_setting 'monoclinic'
loop_
_space_group_symop_operation_xyz
x,y,z
-x,y,-z
1/2+x,1/2+y,z
1/2-x,1/2+y,-z
loop_
_atom_site_type_symbol
_atom_site_label
_atom_site_fract_x
_atom_site_fract_y
_atom_site_fract_z
Si Si1 0.515980 0.892820 0.661864
Si Si2 0.641801 0.118994 0.293849
Si Si3 0.830264 0.801322 0.177053
Si Si4 0.780776 0.101789 0.745840
Si Si5 0.747570 0.438089 0.425132
Si Si6 0.101907 0.269944 0.945993
Si Si7 0.346139 0.110619 0.964856
Si Si8 0.464905 0.529988 0.393775
O O1 0.410200 0.982531 0.546362
O O2 0.496330 0.704668 0.629354
O O3 0.438751 0.965210 0.700106
O O4 0.702710 0.937041 0.744899
O O5 0.488928 0.242718 0.209589
O O6 0.752611 0.251559 0.393133
O O7 0.769661 0.038651 0.299632
O O8 0.828403 0.736127 0.261347
O O9 0.679986 0.714903 0.062742
O O10 0.782098 0.993567 0.141603
O O11 0.957194 0.158878 0.850473
O O12 0.771753 0.066677 0.652980
O O13 0.599403 0.427797 0.411847
O O14 0.244196 0.248304 0.956097
O O15 0.072839 0.466169 0.943292
O O16 0.500000 0.184835 0.000000
O O17 0.500000 0.504144 0.500000
#
# Coordination Sequence:
#
# PCOD9124140 Si02
#       8
#     4   4   4   4   4   4   4   4
#     4  11  22  41  70  93 134 182 211 272 337 387
#     4  11  23  45  66  95 136 174 219 275 334 388
#     4   9  21  43  67  93 130 176 218 275 326 394
#     4  11  20  40  68  96 129 177 216 266 337 389
#     4  12  23  41  68 100 133 178 221 270 335 393
#     4  10  21  42  68  92 129 175 221 270 333 389
#     4  10  20  42  65  90 131 166 215 277 326 381
#     4  12  23  45  66  94 142 170 219 283 318 398
#
# _framework density 26.788128
#
# number of rings (size 3 to 8) (size 9 to 14) (size 15 to 20)
#    0.750    0.500    5.000    1.500    0.000    0.000 
#   13.500    2.500    0.000    0.000    0.000    0.000 
#    0.000    0.000    0.000    0.000    0.000    0.000 
#
# Total GULP energy -89329.271102 kJ/mol
# GULP energy per Si atom -5583.079444 kJ/mol
# Density = 2.672716 g / cm^3
# Si number density = 26.788128 Si / 1000 Ang^3
#
#
#
# Elastic Constant Matrix: (Units=GPa)
#
#
# Indices 1 2 3 4 5 6 
#
# 1 170.6986 10.7104 37.1843 0.0000 7.6370 0.0000
# 2 10.7104 31.1335 3.6610 0.0000 -9.8298 0.0000
# 3 37.1843 3.6610 89.0368 0.0000 22.3927 0.0000
# 4 0.0000 0.0000 0.0000 21.9258 0.0000 2.6816
# 5 7.6370 -9.8298 22.3927 0.0000 46.0006 0.0000
# 6 0.0000 0.0000 0.0000 2.6816 0.0000 40.3746
#
#
#
# Elastic Compliance Matrix: (Units=1/GPa)
#
#
# Indices 1 2 3 4 5 6 
#
# 1 0.006562 -0.002036 -0.002591 0.000000 -0.000263 0.000000
# 2 -0.002036 0.036194 -0.003040 0.000000 0.009552 0.000000
# 3 -0.002591 -0.003040 0.014236 0.000000 -0.007150 0.000000
# 4 0.000000 0.000000 0.000000 0.045982 0.000000 -0.003054
# 5 -0.000263 0.009552 -0.007150 0.000000 0.027304 0.000000
# 6 0.000000 0.000000 0.000000 -0.003054 0.000000 0.024971
#
#
# Mechanical properties :
#
#
# Convention : Reuss Voigt Hill
#
# Bulk Modulus (GPa) = 24.00478 43.77559 33.89019
# Shear Modulus (GPa) = 27.10484 37.61442 32.35963
#
# Velocity S-wave (km/s) = 3.18437 3.75126 3.47938
# Velocity P-wave (km/s) = 4.74349 5.92786 5.36843
#
# Compressibility (1/GPa) = 0.04165836
#
# Stress axis : x y z
#
# Youngs Moduli (GPa) = 152.38952 27.62924 70.24269
#
# Poissons Ratio (x) = 0.05625 0.18197
# Poissons Ratio (y) = 0.31027 0.21355
# Poissons Ratio (z) = 0.39477 0.08400
#
# Static dielectric constant tensor:
#      x y z
#    x 2.064710 0.000000 -0.050570 
#    y 0.000000 2.114860 0.000000 
#    z -0.050570 0.000000 2.235640 
# 
# From -- ./inp_files/65137.got.cif
#   From: 2010.05.17/outbox.cif.g08.bks.cpg/sg5_33_cif.got.tgz:65137.got - 2010.06.03 18:56:24.
