data_PCOD9124681
_publ_section_title
;
Structure prediction by ZEFSAII (Michael W. Deem and Ramdas Pophale) SiO2 
 PCOD9124681
Probable space group: C 2
;
_chemical_formula_sum "Si O2"
_cell_formula_units_Z 20
_cell_length_a 21.471775
_cell_length_b 9.504347
_cell_length_c 13.174993
_cell_angle_alpha 90.000000
_cell_angle_beta 157.336801
_cell_angle_gamma 90.000000
_cell_volume 1035.988077
_symmetry_space_group_name_H-M "C 2"
_symmetry_group_IT_number 5
_symmetry_cell_setting 'monoclinic'
loop_
_space_group_symop_operation_xyz
x,y,z
-x,y,-z
1/2+x,1/2+y,z
1/2-x,1/2+y,-z
loop_
_atom_site_type_symbol
_atom_site_label
_atom_site_fract_x
_atom_site_fract_y
_atom_site_fract_z
Si Si1 0.653265 0.213470 0.168565
Si Si2 0.338610 0.654661 0.863843
Si Si3 0.686835 0.568271 0.400504
Si Si4 0.509189 0.944438 0.836053
Si Si5 0.600684 0.934461 0.552660
O O1 0.763847 0.145646 0.422525
O O2 0.760621 0.321161 0.266447
O O3 0.500000 0.275531 0.000000
O O4 0.583436 0.086445 0.994965
O O5 0.293182 0.650845 0.676437
O O6 0.190479 0.584538 0.699808
O O7 0.494284 0.553403 0.115192
O O8 0.396347 0.808866 0.981661
O O9 0.820121 0.445536 0.587497
O O10 0.506839 0.943845 0.710912
O O11 0.500000 0.896897 0.500000
#
# Coordination Sequence:
#
# PCOD9124681 Si02
#       5
#     4   4   4   4   4
#     4  10  22  39  64  94 123 154 200 253 308 358
#     4  10  21  37  63  89 125 159 196 252 305 354
#     4   9  20  33  62  96 121 148 195 251 309 352
#     4  10  22  40  60  92 124 157 202 251 300 359
#     4  11  25  43  60  87 125 166 207 246 298 365
#
# _framework density 19.305242
#
# number of rings (size 3 to 8) (size 9 to 14) (size 15 to 20)
#    0.000    2.000    2.000    0.000   14.000    1.600 
#    3.600    1.000    0.000    0.000    0.000    0.000 
#    0.000    0.000    0.000    0.000    0.000    0.000 
#
# Total GULP energy -55782.463340 kJ/mol
# GULP energy per Si atom -5578.246334 kJ/mol
# Density = 1.926130 g / cm^3
# Si number density = 19.305242 Si / 1000 Ang^3
#
#
#
# Elastic Constant Matrix: (Units=GPa)
#
#
# Indices 1 2 3 4 5 6 
#
# 1 126.9040 53.5439 56.2521 0.0000 14.7809 0.0000
# 2 53.5439 109.5703 52.2721 0.0000 0.8562 0.0000
# 3 56.2521 52.2721 90.4418 0.0000 -12.4819 0.0000
# 4 0.0000 0.0000 0.0000 38.5257 0.0000 -2.1185
# 5 14.7809 0.8562 -12.4819 0.0000 26.1127 0.0000
# 6 0.0000 0.0000 0.0000 -2.1185 0.0000 19.9284
#
#
#
# Elastic Compliance Matrix: (Units=1/GPa)
#
#
# Indices 1 2 3 4 5 6 
#
# 1 0.014561 -0.002577 -0.009307 0.000000 -0.012606 0.000000
# 2 -0.002577 0.013496 -0.006485 0.000000 -0.002084 0.000000
# 3 -0.009307 -0.006485 0.022858 0.000000 0.016407 0.000000
# 4 0.000000 0.000000 0.000000 0.026109 0.000000 0.002776
# 5 -0.012606 -0.002084 0.016407 0.000000 0.053342 0.000000
# 6 0.000000 0.000000 0.000000 0.002776 0.000000 0.050475
#
#
# Mechanical properties :
#
#
# Convention : Reuss Voigt Hill
#
# Bulk Modulus (GPa) = 70.53633 72.33915 71.43774
# Shear Modulus (GPa) = 22.49172 27.90322 25.19747
#
# Velocity S-wave (km/s) = 3.41700 3.80593 3.61669
# Velocity P-wave (km/s) = 7.22389 7.54096 7.38412
#
# Compressibility (1/GPa) = 0.01417709
#
# Stress axis : x y z
#
# Youngs Moduli (GPa) = 68.67656 74.09680 43.74885
#
# Poissons Ratio (x) = 0.19095 0.40717
# Poissons Ratio (y) = 0.17698 0.28370
# Poissons Ratio (z) = 0.63916 0.48050
#
# Static dielectric constant tensor:
#      x y z
#    x 1.636250 0.000000 -0.001350 
#    y 0.000000 1.739080 0.000000 
#    z -0.001350 0.000000 1.701760 
# 
# From -- ./inp_files/52037.got.cif
#   From: 2010.05.17/outbox.cif.g08.bks.cpg/sg5_27_cif.got.tgz:52037.got - 2010.06.03 18:56:24.
