data_PCOD9124493
_publ_section_title
;
Structure prediction by ZEFSAII (Michael W. Deem and Ramdas Pophale) SiO2 
 PCOD9124493
Probable space group: C 2
;
_chemical_formula_sum "Si O2"
_cell_formula_units_Z 26
_cell_length_a 16.344135
_cell_length_b 9.645361
_cell_length_c 7.880209
_cell_angle_alpha 90.000000
_cell_angle_beta 124.961060
_cell_angle_gamma 90.000000
_cell_volume 1018.097115
_symmetry_space_group_name_H-M "C 2"
_symmetry_group_IT_number 5
_symmetry_cell_setting 'monoclinic'
loop_
_space_group_symop_operation_xyz
x,y,z
-x,y,-z
1/2+x,1/2+y,z
1/2-x,1/2+y,-z
loop_
_atom_site_type_symbol
_atom_site_label
_atom_site_fract_x
_atom_site_fract_y
_atom_site_fract_z
Si Si1 0.852216 0.458230 0.389089
Si Si2 0.368023 0.340407 0.935270
Si Si3 0.378327 0.675016 0.561594
Si Si4 0.140593 0.518121 0.972520
Si Si5 0.648579 0.213394 0.417067
Si Si6 0.135879 0.921502 0.702654
Si Si7 0.500000 0.802485 0.000000
O O1 0.731397 0.433086 0.227370
O O2 0.894254 0.306881 0.462176
O O3 0.890200 0.518322 0.259110
O O4 0.880643 0.554545 0.582089
O O5 0.407881 0.306129 0.791432
O O6 0.409403 0.402830 0.162238
O O7 0.350762 0.178074 0.962828
O O8 0.264405 0.695531 0.496624
O O9 0.394947 0.543205 0.463006
O O10 0.448087 0.700064 0.804578
O O11 0.074947 0.409141 0.998015
O O12 0.250228 0.455587 0.119640
O O13 0.636308 0.286895 0.583540
#
# Coordination Sequence:
#
# PCOD9124493 Si02
#       7
#     4   4   4   4   4   4   2
#     4  10  21  37  70 102 135 176 242 297 340 410
#     4  10  21  35  65 106 131 178 235 293 346 398
#     4  11  22  40  64 105 138 184 229 294 355 413
#     4  11  21  40  63 106 140 182 233 289 356 420
#     4  11  19  38  66 104 135 173 233 299 343 403
#     4  11  21  40  66 105 139 172 241 298 337 409
#     4  12  26  40  68 106 150 190 232 284 374 434
#
# _framework density 25.537838000000001
#
# number of rings (size 3 to 8) (size 9 to 14) (size 15 to 20)
#    0.000    1.231    6.154    2.769    0.000    0.615 
#    2.769    0.000    0.000    8.308    8.000    0.000 
#    0.000    0.000    0.000    0.000    0.000    0.000 
#
# Total GULP energy -72644.319062 kJ/mol
# GULP energy per Si atom -5588.024543 kJ/mol
# Density = 2.547971 g / cm^3
# Si number density = 25.537838 Si / 1000 Ang^3
#
#
#
# Elastic Constant Matrix: (Units=GPa)
#
#
# Indices 1 2 3 4 5 6 
#
# 1 116.3368 48.1479 58.5002 0.0000 -10.5896 0.0000
# 2 48.1479 127.3602 55.6276 0.0000 -21.4262 0.0000
# 3 58.5002 55.6276 179.3706 0.0000 -34.7085 0.0000
# 4 0.0000 0.0000 0.0000 59.7260 0.0000 -20.9199
# 5 -10.5896 -21.4262 -34.7085 0.0000 40.3605 0.0000
# 6 0.0000 0.0000 0.0000 -20.9199 0.0000 14.5951
#
#
#
# Elastic Compliance Matrix: (Units=1/GPa)
#
#
# Indices 1 2 3 4 5 6 
#
# 1 0.011277 -0.003195 -0.002930 0.000000 -0.001257 0.000000
# 2 -0.003195 0.010275 -0.001501 0.000000 0.003325 0.000000
# 3 -0.002930 -0.001501 0.008029 0.000000 0.005339 0.000000
# 4 0.000000 0.000000 0.000000 0.033624 0.000000 0.048195
# 5 -0.001257 0.003325 0.005339 0.000000 0.030804 0.000000
# 6 0.000000 0.000000 0.000000 0.048195 0.000000 0.137597
#
#
# Mechanical properties :
#
#
# Convention : Reuss Voigt Hill
#
# Bulk Modulus (GPa) = 69.79014 83.06877 76.42946
# Shear Modulus (GPa) = 19.87007 40.32246 30.09627
#
# Velocity S-wave (km/s) = 2.79241 3.97789 3.43665
# Velocity P-wave (km/s) = 6.14688 7.32779 6.76316
#
# Compressibility (1/GPa) = 0.01432867
#
# Stress axis : x y z
#
# Youngs Moduli (GPa) = 88.67544 97.32769 124.54186
#
# Poissons Ratio (x) = 0.31095 0.36496
# Poissons Ratio (y) = 0.28330 0.18693
# Poissons Ratio (z) = 0.25985 0.14609
#
# Static dielectric constant tensor:
#      x y z
#    x 2.052710 0.000000 0.033220 
#    y 0.000000 1.928730 0.000000 
#    z 0.033220 0.000000 2.065620 
# 
# From -- ./inp_files/29153.got.cif
#   From: 2010.05.17/outbox.cif.g08.bks.cpg/sg5_15_cif.got.tgz:29153.got - 2010.06.03 18:56:24.
