data_PCOD9124643
_publ_section_title
;
Structure prediction by ZEFSAII (Michael W. Deem and Ramdas Pophale) SiO2 
 PCOD9124643
Probable space group: C 2
;
_chemical_formula_sum "Si O2"
_cell_formula_units_Z 32
_cell_length_a 24.730694
_cell_length_b 7.485079
_cell_length_c 20.036930
_cell_angle_alpha 90.000000
_cell_angle_beta 156.452213
_cell_angle_gamma 90.000000
_cell_volume 1481.820687
_symmetry_space_group_name_H-M "C 2"
_symmetry_group_IT_number 5
_symmetry_cell_setting 'monoclinic'
loop_
_space_group_symop_operation_xyz
x,y,z
-x,y,-z
1/2+x,1/2+y,z
1/2-x,1/2+y,-z
loop_
_atom_site_type_symbol
_atom_site_label
_atom_site_fract_x
_atom_site_fract_y
_atom_site_fract_z
Si Si1 0.864558 0.285350 0.316766
Si Si2 0.391801 0.868277 0.195948
Si Si3 0.635487 0.376922 0.683257
Si Si4 0.560294 0.300056 0.996722
Si Si5 0.593099 0.867693 0.310535
Si Si6 0.939756 0.362422 0.003344
Si Si7 0.907263 0.795071 0.689821
Si Si8 0.608687 0.293674 0.804562
O O1 0.885710 0.284076 0.261619
O O2 0.000000 0.371059 0.500000
O O3 0.859545 0.081148 0.337113
O O4 0.715923 0.361122 0.164156
O O5 0.507716 0.800754 0.277274
O O6 0.408012 0.081009 0.223520
O O7 0.250383 0.830735 0.000312
O O8 0.500000 0.291257 0.500000
O O9 0.784149 0.301234 0.835893
O O10 0.614462 0.378008 0.738553
O O11 0.470125 0.359652 0.831254
O O12 0.500000 0.353871 0.000000
O O13 0.560767 0.081240 0.995851
O O14 0.750242 0.831587 0.500141
O O15 0.574503 0.081350 0.288462
O O16 0.529973 0.802970 0.168873
O O17 0.000000 0.308606 0.000000
O O18 0.993152 0.861690 0.723783
#
# Coordination Sequence:
#
# PCOD9124643 Si02
#       8
#     4   4   4   4   4   4   4   4
#     4  10  21  37  60  88 115 150 196 238 287 350
#     4  11  22  39  61  85 118 154 194 245 292 342
#     4  10  21  37  60  88 115 150 196 238 287 350
#     4   9  18  35  56  81 114 148 186 235 283 333
#     4  10  22  38  58  85 116 149 191 238 286 345
#     4   9  18  35  56  81 114 148 186 235 283 333
#     4  10  22  38  58  85 116 149 191 238 286 345
#     4  11  22  39  61  85 118 154 194 245 292 342
#
# _framework density 21.595054000000001
#
# number of rings (size 3 to 8) (size 9 to 14) (size 15 to 20)
#    0.000    2.000    2.500    0.750    3.500    2.500 
#    0.000    0.000    0.000    1.500    0.000    0.000 
#    0.000    0.000    0.000    0.000    0.000    0.000 
#
# Total GULP energy -89367.841679 kJ/mol
# GULP energy per Si atom -5585.490105 kJ/mol
# Density = 2.154590 g / cm^3
# Si number density = 21.595054 Si / 1000 Ang^3
#
#
#
# Elastic Constant Matrix: (Units=GPa)
#
#
# Indices 1 2 3 4 5 6 
#
# 1 201.5726 -4.9517 117.3689 0.0000 21.3967 0.0000
# 2 -4.9517 65.5744 -8.8304 0.0000 1.7077 0.0000
# 3 117.3689 -8.8304 220.2961 0.0000 16.8499 0.0000
# 4 0.0000 0.0000 0.0000 16.7511 0.0000 -1.3731
# 5 21.3967 1.7077 16.8499 0.0000 42.3685 0.0000
# 6 0.0000 0.0000 0.0000 -1.3731 0.0000 16.2880
#
#
#
# Elastic Compliance Matrix: (Units=1/GPa)
#
#
# Indices 1 2 3 4 5 6 
#
# 1 0.007393 0.000110 -0.003763 0.000000 -0.002241 0.000000
# 2 0.000110 0.015367 0.000628 0.000000 -0.000925 0.000000
# 3 -0.003763 0.000628 0.006627 0.000000 -0.000761 0.000000
# 4 0.000000 0.000000 0.000000 0.060113 0.000000 0.005068
# 5 -0.002241 -0.000925 -0.000761 0.000000 0.025074 0.000000
# 6 0.000000 0.000000 0.000000 0.005068 0.000000 0.061822
#
#
# Mechanical properties :
#
#
# Convention : Reuss Voigt Hill
#
# Bulk Modulus (GPa) = 42.84972 77.17965 60.01468
# Shear Modulus (GPa) = 26.28472 40.67194 33.47833
#
# Velocity S-wave (km/s) = 3.49257 4.34451 3.94163
# Velocity P-wave (km/s) = 6.01245 7.80919 6.96897
#
# Compressibility (1/GPa) = 0.02333738
#
# Stress axis : x y z
#
# Youngs Moduli (GPa) = 135.27197 65.07526 150.88846
#
# Poissons Ratio (x) = -0.00715 0.56775
# Poissons Ratio (y) = -0.01487 -0.09478
# Poissons Ratio (z) = 0.50899 -0.04088
#
# Static dielectric constant tensor:
#      x y z
#    x 1.716370 0.000000 0.014250 
#    y 0.000000 1.860180 0.000000 
#    z 0.014250 0.000000 1.756950 
# 
# From -- ./inp_files/67599.got.cif
#   From: 2010.05.17/outbox.cif.g08.bks.cpg/sg5_34_cif.got.tgz:67599.got - 2010.06.03 18:56:24.
