data_PCOD9124119
_publ_section_title
;
Structure prediction by ZEFSAII (Michael W. Deem and Ramdas Pophale) SiO2 
 PCOD9124119
Probable space group: C 2
;
_chemical_formula_sum "Si O2"
_cell_formula_units_Z 24
_cell_length_a 23.632301
_cell_length_b 6.624266
_cell_length_c 7.410030
_cell_angle_alpha 90.000000
_cell_angle_beta 68.961643
_cell_angle_gamma 90.000000
_cell_volume 1082.689089
_symmetry_space_group_name_H-M "C 2"
_symmetry_group_IT_number 5
_symmetry_cell_setting 'monoclinic'
loop_
_space_group_symop_operation_xyz
x,y,z
-x,y,-z
1/2+x,1/2+y,z
1/2-x,1/2+y,-z
loop_
_atom_site_type_symbol
_atom_site_label
_atom_site_fract_x
_atom_site_fract_y
_atom_site_fract_z
Si Si1 0.677172 0.060930 0.699304
Si Si2 0.500000 0.818306 0.500000
Si Si3 0.451712 0.106016 0.314008
Si Si4 0.450479 0.468599 0.810214
Si Si5 0.316492 0.326719 0.963848
Si Si6 0.500000 0.758062 0.000000
Si Si7 0.236535 0.181916 0.729668
O O1 0.612976 0.142823 0.701188
O O2 0.726636 0.114209 0.490114
O O3 0.682249 0.821784 0.720077
O O4 0.688336 0.145502 0.886795
O O5 0.464930 0.651866 0.659769
O O6 0.448470 0.987244 0.507157
O O7 0.496066 0.299217 0.257037
O O8 0.480893 0.916180 0.173675
O O9 0.386947 0.366697 0.845387
O O10 0.449308 0.596629 0.997999
O O11 0.281932 0.297034 0.815173
O O12 0.289175 0.507046 0.114672
#
# Coordination Sequence:
#
# PCOD9124119 Si02
#       7
#     4   2   4   4   4   2   4
#     4  12  26  47  73 105 145 190 249 304 360 438
#     4  10  26  42  64 108 140 186 242 290 378 432
#     4  11  24  43  70 102 142 187 236 302 371 430
#     4  11  24  43  70 102 142 187 236 302 371 430
#     4  12  26  47  73 105 145 190 249 304 360 438
#     4  10  20  42  64 104 132 180 234 282 374 432
#     4  12  27  46  71 107 144 195 248 298 362 424
#
# _framework density 22.167028999999999
#
# number of rings (size 3 to 8) (size 9 to 14) (size 15 to 20)
#    0.000    0.667    3.333    4.000    4.667    5.333 
#    0.000    0.000    0.000    0.000    0.000    0.000 
#    0.000    0.000    0.000    0.000    0.000    0.000 
#
# Total GULP energy -66872.448692 kJ/mol
# GULP energy per Si atom -5572.704058 kJ/mol
# Density = 2.211658 g / cm^3
# Si number density = 22.167029 Si / 1000 Ang^3
#
#
#
# Elastic Constant Matrix: (Units=GPa)
#
#
# Indices 1 2 3 4 5 6 
#
# 1 58.1513 3.2948 -12.2424 0.0000 -9.9177 0.0000
# 2 3.2948 87.6156 5.5499 0.0000 -7.6483 0.0000
# 3 -12.2424 5.5499 42.6015 0.0000 -4.9800 0.0000
# 4 0.0000 0.0000 0.0000 32.6286 0.0000 9.6570
# 5 -9.9177 -7.6483 -4.9800 0.0000 23.4826 0.0000
# 6 0.0000 0.0000 0.0000 9.6570 0.0000 36.9127
#
#
#
# Elastic Compliance Matrix: (Units=1/GPa)
#
#
# Indices 1 2 3 4 5 6 
#
# 1 0.020414 -0.000342 0.007081 0.000000 0.010012 0.000000
# 2 -0.000342 0.011805 -0.001234 0.000000 0.003439 0.000000
# 3 0.007081 -0.001234 0.026632 0.000000 0.008237 0.000000
# 4 0.000000 0.000000 0.000000 0.033220 0.000000 -0.008691
# 5 0.010012 0.003439 0.008237 0.000000 0.049680 0.000000
# 6 0.000000 0.000000 0.000000 -0.008691 0.000000 0.029365
#
#
# Mechanical properties :
#
#
# Convention : Reuss Voigt Hill
#
# Bulk Modulus (GPa) = 14.31414 20.17476 17.24445
# Shear Modulus (GPa) = 27.26385 31.38919 29.32652
#
# Velocity S-wave (km/s) = 3.51084 3.76710 3.64122
# Velocity P-wave (km/s) = 4.78603 5.29551 5.04720
#
# Compressibility (1/GPa) = 0.06986101
#
# Stress axis : x y z
#
# Youngs Moduli (GPa) = 48.98520 84.71197 37.54878
#
# Poissons Ratio (x) = 0.02899 -0.26590
# Poissons Ratio (y) = 0.01676 0.04635
# Poissons Ratio (z) = -0.34689 0.10456
#
# Static dielectric constant tensor:
#      x y z
#    x 2.655880 0.000000 1.299290 
#    y 0.000000 1.812700 0.000000 
#    z 1.299290 0.000000 3.703170 
# 
# From -- ./inp_files/10208.got.cif
#   From: 2010.05.17/outbox.cif.g08.bks.cpg/sg5_6_cif.got.tgz:10208.got - 2010.06.03 18:56:24.
