data_PCOD9124356
_publ_section_title
;
Structure prediction by ZEFSAII (Michael W. Deem and Ramdas Pophale) SiO2 
 PCOD9124356
Probable space group: C 2
;
_chemical_formula_sum "Si O2"
_cell_formula_units_Z 18
_cell_length_a 8.191836
_cell_length_b 9.967837
_cell_length_c 8.562149
_cell_angle_alpha 90.000000
_cell_angle_beta 76.906535
_cell_angle_gamma 90.000000
_cell_volume 680.964893
_symmetry_space_group_name_H-M "C 2"
_symmetry_group_IT_number 5
_symmetry_cell_setting 'monoclinic'
loop_
_space_group_symop_operation_xyz
x,y,z
-x,y,-z
1/2+x,1/2+y,z
1/2-x,1/2+y,-z
loop_
_atom_site_type_symbol
_atom_site_label
_atom_site_fract_x
_atom_site_fract_y
_atom_site_fract_z
Si Si1 0.640884 0.812190 0.605404
Si Si2 0.618594 0.945211 0.150586
Si Si3 0.500000 0.437684 0.500000
Si Si4 0.228550 0.729556 0.102925
Si Si5 0.469700 0.470122 0.182004
O O1 0.500000 0.785163 0.500000
O O2 0.553183 0.935594 0.719355
O O3 0.830661 0.850226 0.515943
O O4 0.681065 0.714428 0.746889
O O5 0.774494 0.939011 0.232731
O O6 0.655806 0.087668 0.061354
O O7 0.654000 0.816165 0.036106
O O8 0.528862 0.523500 0.336638
O O9 0.072158 0.830169 0.155143
O O10 0.500000 0.530311 0.000000
#
# Coordination Sequence:
#
# PCOD9124356 Si02
#       5
#     4   4   2   4   4
#     4  11  23  45  75 111 161 202 256 315 403 467
#     4  11  23  47  74 113 153 201 263 319 396 471
#     4  10  20  44  70 108 160 208 254 324 394 474
#     4  10  25  44  74 112 154 200 260 327 384 472
#     4   9  20  40  68  96 151 196 254 312 380 453
#
# _framework density 26.433081000000001
#
# number of rings (size 3 to 8) (size 9 to 14) (size 15 to 20)
#    0.000    1.778    2.222    0.667    0.000   10.667 
#   10.000    4.444    0.000    0.000    0.000    0.000 
#    0.000    0.000    0.000    0.000    0.000    0.000 
#
# Total GULP energy -50122.406927 kJ/mol
# GULP energy per Si atom -5569.156325 kJ/mol
# Density = 2.637292 g / cm^3
# Si number density = 26.433081 Si / 1000 Ang^3
#
#
#
# Elastic Constant Matrix: (Units=GPa)
#
#
# Indices 1 2 3 4 5 6 
#
# 1 197.3574 26.8711 40.4639 0.0000 -3.1442 0.0000
# 2 26.8711 140.8097 56.2667 0.0000 0.3532 0.0000
# 3 40.4639 56.2667 185.1293 0.0000 37.6917 0.0000
# 4 0.0000 0.0000 0.0000 29.5042 0.0000 16.4516
# 5 -3.1442 0.3532 37.6917 0.0000 73.5069 0.0000
# 6 0.0000 0.0000 0.0000 16.4516 0.0000 14.2486
#
#
#
# Elastic Compliance Matrix: (Units=1/GPa)
#
#
# Indices 1 2 3 4 5 6 
#
# 1 0.005399 -0.000561 -0.001180 0.000000 0.000839 0.000000
# 2 -0.000561 0.008266 -0.002654 0.000000 0.001297 0.000000
# 3 -0.001180 -0.002654 0.007229 0.000000 -0.003744 0.000000
# 4 0.000000 0.000000 0.000000 0.095156 0.000000 -0.109868
# 5 0.000839 0.001297 -0.003744 0.000000 0.015554 0.000000
# 6 0.000000 0.000000 0.000000 -0.109868 0.000000 0.197038
#
#
# Mechanical properties :
#
#
# Convention : Reuss Voigt Hill
#
# Bulk Modulus (GPa) = 82.62132 85.61108 84.11620
# Shear Modulus (GPa) = 14.64279 50.09825 32.37052
#
# Velocity S-wave (km/s) = 2.35618 4.35821 3.50326
# Velocity P-wave (km/s) = 6.22308 7.60155 6.94659
#
# Compressibility (1/GPa) = 0.01210341
#
# Stress axis : x y z
#
# Youngs Moduli (GPa) = 185.23103 120.97780 138.34078
#
# Poissons Ratio (x) = 0.06783 0.16329
# Poissons Ratio (y) = 0.10385 0.36713
# Poissons Ratio (z) = 0.21864 0.32105
#
# Static dielectric constant tensor:
#      x y z
#    x 2.097890 0.000000 0.047890 
#    y 0.000000 2.111420 0.000000 
#    z 0.047890 0.000000 2.190680 
# 
# From -- ./inp_files/13981.got.cif
#   From: 2010.05.17/outbox.cif.g08.bks.cpg/sg5_7_cif.got.tgz:13981.got - 2010.06.03 18:56:24.
