data_PCOD9124899
_publ_section_title
;
Structure prediction by ZEFSAII (Michael W. Deem and Ramdas Pophale) SiO2 
 PCOD9124899
Probable space group: C 2
;
_chemical_formula_sum "Si O2"
_cell_formula_units_Z 30
_cell_length_a 14.149143
_cell_length_b 16.643781
_cell_length_c 5.482290
_cell_angle_alpha 90.000000
_cell_angle_beta 91.043358
_cell_angle_gamma 90.000000
_cell_volume 1290.839131
_symmetry_space_group_name_H-M "C 2"
_symmetry_group_IT_number 5
_symmetry_cell_setting 'monoclinic'
loop_
_space_group_symop_operation_xyz
x,y,z
-x,y,-z
1/2+x,1/2+y,z
1/2-x,1/2+y,-z
loop_
_atom_site_type_symbol
_atom_site_label
_atom_site_fract_x
_atom_site_fract_y
_atom_site_fract_z
Si Si1 0.000000 0.050781 0.500000
Si Si2 0.901792 0.168781 0.144732
Si Si3 0.833232 0.495084 0.338277
Si Si4 0.123933 0.916716 0.330777
Si Si5 0.863232 0.417806 0.834922
Si Si6 0.604195 0.767370 0.477319
Si Si7 0.763575 0.668154 0.208345
Si Si8 0.846257 0.838147 0.159700
O O1 0.076258 0.100471 0.655829
O O2 0.057621 0.994087 0.322207
O O3 0.873226 0.260273 0.233444
O O4 0.807825 0.140337 0.006116
O O5 0.000000 0.174432 0.000000
O O6 0.731722 0.449477 0.338506
O O7 0.873180 0.480989 0.612257
O O8 0.816252 0.589336 0.300158
O O9 0.885631 0.454848 0.103308
O O10 0.109532 0.868000 0.582843
O O11 0.107402 0.865317 0.089415
O O12 0.911418 0.341168 0.702361
O O13 0.755781 0.383813 0.845146
O O14 0.500000 0.730756 0.500000
O O15 0.686569 0.711657 0.379439
O O16 0.831382 0.742518 0.152112
#
# Coordination Sequence:
#
# PCOD9124899 Si02
#       8
#     2   4   4   4   4   4   4   4
#     4  12  26  38  60  92 134 166 202 246 324 396
#     4  12  23  36  53  94 131 164 193 237 320 384
#     4  10  21  39  57  88 117 157 203 253 300 350
#     4  10  22  40  58  87 123 163 205 246 305 380
#     4   9  22  36  59  81 120 160 203 243 293 363
#     4  11  22  39  55  90 124 163 196 240 308 382
#     4  11  24  37  63  87 126 161 206 261 310 364
#     4   9  22  39  59  85 118 163 211 252 299 359
#
# _framework density 23.240694999999999
#
# number of rings (size 3 to 8) (size 9 to 14) (size 15 to 20)
#    0.000    1.600    2.000    1.600   18.667    0.000 
#    0.000    0.000    0.000    0.000   10.400    0.000 
#    0.000    0.000    0.000    0.000    0.000    0.000 
#
# Total GULP energy -83599.211880 kJ/mol
# GULP energy per Si atom -5573.280792 kJ/mol
# Density = 2.318780 g / cm^3
# Si number density = 23.240695 Si / 1000 Ang^3
#
#
#
# Elastic Constant Matrix: (Units=GPa)
#
#
# Indices 1 2 3 4 5 6 
#
# 1 16.4845 5.0130 11.1204 0.0000 2.6763 0.0000
# 2 5.0130 132.8871 67.4832 0.0000 2.3025 0.0000
# 3 11.1204 67.4832 130.4216 0.0000 1.2723 0.0000
# 4 0.0000 0.0000 0.0000 42.6378 0.0000 -11.0167
# 5 2.6763 2.3025 1.2723 0.0000 23.0156 0.0000
# 6 0.0000 0.0000 0.0000 -11.0167 0.0000 25.2907
#
#
#
# Elastic Compliance Matrix: (Units=1/GPa)
#
#
# Indices 1 2 3 4 5 6 
#
# 1 0.065613 0.000620 -0.005843 0.000000 -0.007369 0.000000
# 2 0.000620 0.010225 -0.005336 0.000000 -0.000800 0.000000
# 3 -0.005843 -0.005336 0.010921 0.000000 0.000610 0.000000
# 4 0.000000 0.000000 0.000000 0.026428 0.000000 0.011512
# 5 -0.007369 -0.000800 0.000610 0.000000 0.044352 0.000000
# 6 0.000000 0.000000 0.000000 0.011512 0.000000 0.044555
#
#
# Mechanical properties :
#
#
# Convention : Reuss Voigt Hill
#
# Bulk Modulus (GPa) = 15.23461 49.66960 32.45210
# Shear Modulus (GPa) = 20.40049 31.26725 25.83387
#
# Velocity S-wave (km/s) = 2.96597 3.67190 3.33765
# Velocity P-wave (km/s) = 4.27769 6.27657 5.37094
#
# Compressibility (1/GPa) = 0.06564002
#
# Stress axis : x y z
#
# Youngs Moduli (GPa) = 15.24097 97.79610 91.56967
#
# Poissons Ratio (x) = -0.06062 0.53507
# Poissons Ratio (y) = -0.00945 0.48861
# Poissons Ratio (z) = 0.08906 0.52183
#
# Static dielectric constant tensor:
#      x y z
#    x 1.926580 0.000000 0.064630 
#    y 0.000000 1.915960 0.000000 
#    z 0.064630 0.000000 2.107370 
# 
# From -- ./inp_files/8650.got.cif
#   From: 2010.05.17/outbox.cif.g08.bks.cpg/sg5_5_cif.got.tgz:8650.got - 2010.06.03 18:56:24.
