data_PCOD9124981
_publ_section_title
;
Structure prediction by ZEFSAII (Michael W. Deem and Ramdas Pophale) SiO2 
 PCOD9124981
Probable space group: C 2
;
_chemical_formula_sum "Si O2"
_cell_formula_units_Z 26
_cell_length_a 11.552317
_cell_length_b 23.370636
_cell_length_c 4.972445
_cell_angle_alpha 90.000000
_cell_angle_beta 118.085933
_cell_angle_gamma 90.000000
_cell_volume 1184.397773
_symmetry_space_group_name_H-M "C 2"
_symmetry_group_IT_number 5
_symmetry_cell_setting 'monoclinic'
loop_
_space_group_symop_operation_xyz
x,y,z
-x,y,-z
1/2+x,1/2+y,z
1/2-x,1/2+y,-z
loop_
_atom_site_type_symbol
_atom_site_label
_atom_site_fract_x
_atom_site_fract_y
_atom_site_fract_z
Si Si1 0.361039 0.736000 0.249655
Si Si2 0.791949 0.758482 0.435443
Si Si3 0.838836 0.958725 0.801460
Si Si4 0.370030 0.608249 0.502407
Si Si5 0.000000 0.665316 0.500000
Si Si6 0.733241 0.077189 0.872388
Si Si7 0.154917 0.886607 0.692209
O O1 0.500000 0.760659 0.500000
O O2 0.249368 0.765819 0.302038
O O3 0.359816 0.672177 0.373960
O O4 0.323017 0.736430 0.895632
O O5 0.816426 0.821504 0.349406
O O6 0.909076 0.711617 0.560091
O O7 0.799589 0.934255 0.470065
O O8 0.750152 0.012735 0.785989
O O9 0.809906 0.907255 0.974433
O O10 0.000000 0.971877 0.000000
O O11 0.500000 0.583871 0.500000
O O12 0.344107 0.605440 0.790573
O O13 0.258864 0.574926 0.218780
O O14 0.109862 0.619986 0.718962
O O15 0.000000 0.890888 0.500000
#
# Coordination Sequence:
#
# PCOD9124981 Si02
#       7
#     4   4   4   4   2   4   4
#     4  11  23  40  63  93 128 168 213 261 322 390
#     4  12  23  42  67  98 136 167 211 273 329 402
#     4  10  21  39  63  92 124 169 225 275 313 364
#     4  11  21  37  60  91 122 163 208 262 323 372
#     4  12  26  42  64 102 138 178 206 254 358 396
#     4  12  24  40  62  93 134 169 211 263 321 411
#     4  10  21  39  65  96 124 166 220 273 322 371
#
# _framework density 21.952085
#
# number of rings (size 3 to 8) (size 9 to 14) (size 15 to 20)
#    0.000    0.923    3.846    3.692    0.000    6.154 
#    0.000    0.000   10.154    0.000    0.000    0.000 
#    0.000    0.000    0.000    0.000    0.000    0.000 
#
# Total GULP energy -72374.806870 kJ/mol
# GULP energy per Si atom -5567.292836 kJ/mol
# Density = 2.190212 g / cm^3
# Si number density = 21.952085 Si / 1000 Ang^3
#
#
#
# Elastic Constant Matrix: (Units=GPa)
#
#
# Indices 1 2 3 4 5 6 
#
# 1 52.3468 13.7885 18.1499 0.0000 11.6788 0.0000
# 2 13.7885 128.5192 -4.4610 0.0000 7.6306 0.0000
# 3 18.1499 -4.4610 48.1204 0.0000 -7.6199 0.0000
# 4 0.0000 0.0000 0.0000 10.7335 0.0000 -16.8283
# 5 11.6788 7.6306 -7.6199 0.0000 19.8180 0.0000
# 6 0.0000 0.0000 0.0000 -16.8283 0.0000 14.7076
#
#
#
# Elastic Compliance Matrix: (Units=1/GPa)
#
#
# Indices 1 2 3 4 5 6 
#
# 1 0.030016 -0.002405 -0.015119 0.000000 -0.022575 0.000000
# 2 -0.002405 0.008159 0.001480 0.000000 -0.001155 0.000000
# 3 -0.015119 0.001480 0.029753 0.000000 0.019779 0.000000
# 4 0.000000 0.000000 0.000000 -0.117355 0.000000 -0.134276
# 5 -0.022575 -0.001155 0.019779 0.000000 0.071813 0.000000
# 6 0.000000 0.000000 0.000000 -0.134276 0.000000 -0.085645
#
#
# Mechanical properties :
#
#
# Convention : Reuss Voigt Hill
#
# Bulk Modulus (GPa) = 27.90091 31.54903 29.72497
# Shear Modulus (GPa) = -260.05973 22.48576 -118.78699
#
# Velocity S-wave (km/s) = -10.89606 3.20396 -7.36406
# Velocity P-wave (km/s) = 12.06488 5.30001 7.66392
#
# Compressibility (1/GPa) = 0.03584112
#
# Stress axis : x y z
#
# Youngs Moduli (GPa) = 33.31604 122.56550 33.61004
#
# Poissons Ratio (x) = 0.29474 0.50815
# Poissons Ratio (y) = 0.08012 -0.04976
# Poissons Ratio (z) = 0.50370 -0.18145
#
# Static dielectric constant tensor:
#      x y z
#    x 1.980910 0.000000 -0.051460 
#    y 0.000000 1.926270 0.000000 
#    z -0.051460 0.000000 1.883780 
# 
# From -- ./inp_files/5699.got.cif
#   From: 2010.05.17/outbox.cif.g08.bks.cpg/sg5_3_cif.got.tgz:5699.got - 2010.06.03 18:56:24.
