data_PCOD9124734
_publ_section_title
;
Structure prediction by ZEFSAII (Michael W. Deem and Ramdas Pophale) SiO2 
 PCOD9124734
Probable space group: C 2
;
_chemical_formula_sum "Si O2"
_cell_formula_units_Z 32
_cell_length_a 9.508854
_cell_length_b 14.253701
_cell_length_c 14.982283
_cell_angle_alpha 90.000000
_cell_angle_beta 63.137562
_cell_angle_gamma 90.000000
_cell_volume 1811.525332
_symmetry_space_group_name_H-M "C 2"
_symmetry_group_IT_number 5
_symmetry_cell_setting 'monoclinic'
loop_
_space_group_symop_operation_xyz
x,y,z
-x,y,-z
1/2+x,1/2+y,z
1/2-x,1/2+y,-z
loop_
_atom_site_type_symbol
_atom_site_label
_atom_site_fract_x
_atom_site_fract_y
_atom_site_fract_z
Si Si1 0.887151 0.871100 0.251007
Si Si2 0.827614 0.240663 0.582095
Si Si3 0.821670 0.704340 0.563706
Si Si4 0.012786 0.703953 0.102420
Si Si5 0.910372 0.086782 0.246333
Si Si6 0.693789 0.364819 0.283367
Si Si7 0.653769 0.726681 0.896477
Si Si8 0.266855 0.580982 0.738003
O O1 0.735176 0.820842 0.334642
O O2 0.947542 0.805446 0.153444
O O3 0.020335 0.866079 0.289679
O O4 0.866995 0.979760 0.237036
O O5 0.728678 0.230875 0.520903
O O6 0.817605 0.143749 0.639359
O O7 0.000000 0.261858 0.500000
O O8 0.704663 0.630018 0.644570
O O9 0.812214 0.796563 0.629686
O O10 0.000000 0.669154 0.500000
O O11 0.191018 0.699114 0.090112
O O12 0.895567 0.626555 0.179460
O O13 0.000000 0.695588 0.000000
O O14 0.886155 0.147170 0.164564
O O15 0.090384 0.090213 0.231038
O O16 0.801434 0.316741 0.176492
O O17 0.745798 0.471669 0.283751
O O18 0.500000 0.743167 0.000000
#
# Coordination Sequence:
#
# PCOD9124734 Si02
#       8
#     4   4   4   4   4   4   4   4
#     4   9  20  38  58  81 115 144 188 231 277 327
#     4  11  21  36  55  86 114 151 189 233 274 327
#     4  11  21  36  59  80 116 153 191 227 276 330
#     4  10  21  39  61  83 112 149 179 229 284 336
#     4  10  21  38  58  85 112 149 186 235 277 328
#     4   9  20  38  59  82 108 152 188 227 273 334
#     4  10  21  39  61  84 112 144 185 229 281 336
#     4  10  21  38  59  83 115 145 190 231 278 333
#
# _framework density 17.664671999999999
#
# number of rings (size 3 to 8) (size 9 to 14) (size 15 to 20)
#    0.000    2.000    2.500    0.750    1.750    3.000 
#    2.250    2.500    0.000    0.000    0.000    0.000 
#    0.000    0.000    0.000    0.000    0.000    0.000 
#
# Total GULP energy -89238.394227 kJ/mol
# GULP energy per Si atom -5577.399639 kJ/mol
# Density = 1.762447 g / cm^3
# Si number density = 17.664672 Si / 1000 Ang^3
#
#
#
# Elastic Constant Matrix: (Units=GPa)
#
#
# Indices 1 2 3 4 5 6 
#
# 1 69.2404 14.9491 29.7498 0.0000 -15.3172 0.0000
# 2 14.9491 120.5163 26.0249 0.0000 -12.0829 0.0000
# 3 29.7498 26.0249 81.1341 0.0000 -14.7684 0.0000
# 4 0.0000 0.0000 0.0000 4.0843 0.0000 3.7308
# 5 -15.3172 -12.0829 -14.7684 0.0000 37.0934 0.0000
# 6 0.0000 0.0000 0.0000 3.7308 0.0000 22.2605
#
#
#
# Elastic Compliance Matrix: (Units=1/GPa)
#
#
# Indices 1 2 3 4 5 6 
#
# 1 0.018056 -0.000537 -0.005523 0.000000 0.005082 0.000000
# 2 -0.000537 0.009058 -0.002384 0.000000 0.001779 0.000000
# 3 -0.005523 -0.002384 0.015696 0.000000 0.003192 0.000000
# 4 0.000000 0.000000 0.000000 0.289096 0.000000 -0.048452
# 5 0.005082 0.001779 0.003192 0.000000 0.030908 0.000000
# 6 0.000000 0.000000 0.000000 -0.048452 0.000000 0.053043
#
#
# Mechanical properties :
#
#
# Convention : Reuss Voigt Hill
#
# Bulk Modulus (GPa) = 38.58094 45.81537 42.19815
# Shear Modulus (GPa) = 11.32794 26.03210 18.68002
#
# Velocity S-wave (km/s) = 2.53509 3.84302 3.25542
# Velocity P-wave (km/s) = 5.51879 6.75901 6.17014
#
# Compressibility (1/GPa) = 0.02591954
#
# Stress axis : x y z
#
# Youngs Moduli (GPa) = 55.38400 110.40475 63.70918
#
# Poissons Ratio (x) = 0.05934 0.35188
# Poissons Ratio (y) = 0.02977 0.15191
# Poissons Ratio (z) = 0.30590 0.26325
#
# Static dielectric constant tensor:
#      x y z
#    x 1.585830 0.000000 -0.011670 
#    y 0.000000 1.588030 0.000000 
#    z -0.011670 0.000000 1.579710 
# 
# From -- ./inp_files/50916.got.cif
#   From: 2010.05.17/outbox.cif.g08.bks.cpg/sg5_26_cif.got.tgz:50916.got - 2010.06.03 18:56:24.
