data_PCOD9124979
_publ_section_title
;
Structure prediction by ZEFSAII (Michael W. Deem and Ramdas Pophale) SiO2 
 PCOD9124979
Probable space group: C 2
;
_chemical_formula_sum "Si O2"
_cell_formula_units_Z 24
_cell_length_a 11.132962
_cell_length_b 9.946984
_cell_length_c 22.747523
_cell_angle_alpha 90.000000
_cell_angle_beta 152.945050
_cell_angle_gamma 90.000000
_cell_volume 1145.775444
_symmetry_space_group_name_H-M "C 2"
_symmetry_group_IT_number 5
_symmetry_cell_setting 'monoclinic'
loop_
_space_group_symop_operation_xyz
x,y,z
-x,y,-z
1/2+x,1/2+y,z
1/2-x,1/2+y,-z
loop_
_atom_site_type_symbol
_atom_site_label
_atom_site_fract_x
_atom_site_fract_y
_atom_site_fract_z
Si Si1 0.504541 0.378870 0.070728
Si Si2 0.802592 0.736949 0.260094
Si Si3 0.250610 0.649665 0.976925
Si Si4 0.524347 0.446753 0.575929
Si Si5 0.848629 0.718088 0.699896
Si Si6 0.418364 0.951223 0.344422
O O1 0.418156 0.228089 0.047789
O O2 0.784115 0.407195 0.223733
O O3 0.500000 0.403450 0.000000
O O4 0.304773 0.491754 0.009615
O O5 0.832150 0.605260 0.313808
O O6 0.800772 0.863646 0.301961
O O7 0.044224 0.735868 0.319228
O O8 0.538371 0.716898 0.107291
O O9 0.097672 0.682401 0.850307
O O10 0.500000 0.384896 0.500000
O O11 0.651705 0.592912 0.621965
O O12 0.231568 0.447913 0.475294
O O13 0.705322 0.850989 0.661895
#
# Coordination Sequence:
#
# PCOD9124979 Si02
#       6
#     4   4   4   4   4   4
#     4  10  21  39  63  91 132 167 211 263 317 371
#     4  11  23  43  66  95 131 169 211 266 319 378
#     4  10  21  39  69  97 123 168 214 261 324 375
#     4  12  25  42  66  94 130 172 215 255 321 382
#     4  11  23  45  66  94 131 165 216 269 315 380
#     4  10  23  41  62  95 126 169 215 260 316 381
#
# _framework density 20.946512999999999
#
# number of rings (size 3 to 8) (size 9 to 14) (size 15 to 20)
#    0.000    1.333    1.667    4.500    2.333    0.000 
#    6.000   10.833    0.000    0.000    0.000    0.000 
#    0.000    0.000    0.000    0.000    0.000    0.000 
#
# Total GULP energy -67051.974374 kJ/mol
# GULP energy per Si atom -5587.664531 kJ/mol
# Density = 2.089884 g / cm^3
# Si number density = 20.946513 Si / 1000 Ang^3
#
#
#
# Elastic Constant Matrix: (Units=GPa)
#
#
# Indices 1 2 3 4 5 6 
#
# 1 55.5186 47.7938 22.6240 0.0011 -6.8059 0.0004
# 2 47.7938 91.4740 30.7958 0.0006 -14.8389 0.0007
# 3 22.6240 30.7958 99.2184 0.0009 7.0406 0.0016
# 4 0.0011 0.0006 0.0009 29.3260 0.0010 4.0222
# 5 -6.8059 -14.8389 7.0406 0.0010 15.0553 0.0005
# 6 0.0004 0.0007 0.0016 4.0222 0.0005 18.3418
#
#
#
# Elastic Compliance Matrix: (Units=1/GPa)
#
#
# Indices 1 2 3 4 5 6 
#
# 1 0.033260 -0.016593 -0.002420 -0.000001 -0.000188 0.000000
# 2 -0.016593 0.024406 -0.005137 0.000000 0.018957 0.000000
# 3 -0.002420 -0.005137 0.013097 0.000000 -0.012282 -0.000001
# 4 -0.000001 0.000000 0.000000 0.035157 -0.000003 -0.007710
# 5 -0.000188 0.018957 -0.012282 -0.000003 0.090764 -0.000001
# 6 0.000000 0.000000 -0.000001 -0.007710 -0.000001 0.056211
#
#
# Mechanical properties :
#
#
# Convention : Reuss Voigt Hill
#
# Bulk Modulus (GPa) = 44.52028 49.84867 47.18448
# Shear Modulus (GPa) = 16.19783 22.21114 19.20449
#
# Velocity S-wave (km/s) = 2.78384 3.25987 3.03121
# Velocity P-wave (km/s) = 5.62436 6.16594 5.90136
#
# Compressibility (1/GPa) = 0.02246167
#
# Stress axis : x y z
#
# Youngs Moduli (GPa) = 30.06623 40.97291 76.35577
#
# Poissons Ratio (x) = 0.67988 0.18481
# Poissons Ratio (y) = 0.49890 0.39223
# Poissons Ratio (z) = 0.07277 0.21047
#
# Static dielectric constant tensor:
#      x y z
#    x 1.712820 0.000000 0.010160 
#    y 0.000000 1.736040 0.000000 
#    z 0.010160 0.000000 1.782630 
# 
# From -- ./inp_files/47248.got.cif
#   From: 2010.05.17/outbox.cif.g08.bks.cpg/sg5_24_cif.got.tgz:47248.got - 2010.06.03 18:56:24.
