data_PCOD9124806
_publ_section_title
;
Structure prediction by ZEFSAII (Michael W. Deem and Ramdas Pophale) SiO2 
 PCOD9124806
Probable space group: C 2
;
_chemical_formula_sum "Si O2"
_cell_formula_units_Z 28
_cell_length_a 9.618305
_cell_length_b 33.902074
_cell_length_c 5.066497
_cell_angle_alpha 90.000000
_cell_angle_beta 59.014650
_cell_angle_gamma 90.000000
_cell_volume 1416.331455
_symmetry_space_group_name_H-M "C 2"
_symmetry_group_IT_number 5
_symmetry_cell_setting 'monoclinic'
loop_
_space_group_symop_operation_xyz
x,y,z
-x,y,-z
1/2+x,1/2+y,z
1/2-x,1/2+y,-z
loop_
_atom_site_type_symbol
_atom_site_label
_atom_site_fract_x
_atom_site_fract_y
_atom_site_fract_z
Si Si1 0.816233 0.986180 0.792124
Si Si2 0.616900 0.657447 0.133590
Si Si3 0.819962 0.811805 0.794366
Si Si4 0.614843 0.224039 0.141083
Si Si5 0.883840 0.069369 0.865436
Si Si6 0.315568 0.944019 0.579628
Si Si7 0.182430 0.352517 0.431690
O O1 0.709387 0.969490 0.658489
O O2 0.000000 0.985606 0.500000
O O3 0.775440 0.031136 0.916208
O O4 0.794875 0.959809 0.073165
O O5 0.500000 0.658384 0.500000
O O6 0.688346 0.613025 0.027818
O O7 0.500000 0.665280 0.000000
O O8 0.755787 0.689686 0.025391
O O9 0.799190 0.765619 0.877965
O O10 0.703961 0.828048 0.678443
O O11 0.000000 0.816625 0.500000
O O12 0.794279 0.835479 0.089349
O O13 0.500000 0.214204 0.500000
O O14 0.500000 0.229579 0.000000
O O15 0.000000 0.072857 0.500000
O O16 0.000000 0.060552 0.000000
O O17 0.500000 0.946664 0.500000
O O18 0.279360 0.898342 0.553759
O O19 0.000000 0.349868 0.500000
#
# Coordination Sequence:
#
# PCOD9124806 Si02
#       7
#     4   4   4   4   4   4   4
#     4  11  21  37  62  87 113 153 200 237 279 343
#     4  10  21  38  63  90 115 153 198 237 278 340
#     4  11  23  40  61  85 116 153 192 237 290 344
#     4  11  23  41  60  86 124 155 183 236 299 343
#     4   9  18  35  58  86 119 148 188 243 287 323
#     4  11  24  40  57  84 122 153 185 241 301 340
#     4  11  24  41  60  84 116 153 193 241 291 341
#
# _framework density 19.769385
#
# number of rings (size 3 to 8) (size 9 to 14) (size 15 to 20)
#    0.000    1.429    0.000    6.857    0.000    7.429 
#    0.000    2.143    0.000    0.000    0.000    0.000 
#    0.000    0.000    0.000    0.000    0.000    0.000 
#
# Total GULP energy -78242.106128 kJ/mol
# GULP energy per Si atom -5588.721866 kJ/mol
# Density = 1.972439 g / cm^3
# Si number density = 19.769385 Si / 1000 Ang^3
#
#
#
# Elastic Constant Matrix: (Units=GPa)
#
#
# Indices 1 2 3 4 5 6 
#
# 1 83.8939 84.5093 29.9092 0.0000 33.5643 0.0000
# 2 84.5093 189.0032 45.6902 0.0000 8.1937 0.0000
# 3 29.9092 45.6902 84.6220 0.0000 26.8597 0.0000
# 4 0.0000 0.0000 0.0000 27.6774 0.0000 17.5448
# 5 33.5643 8.1937 26.8597 0.0000 40.0018 0.0000
# 6 0.0000 0.0000 0.0000 17.5448 0.0000 21.6082
#
#
#
# Elastic Compliance Matrix: (Units=1/GPa)
#
#
# Indices 1 2 3 4 5 6 
#
# 1 0.045311 -0.020335 0.007257 0.000000 -0.038726 0.000000
# 2 -0.020335 0.015259 -0.006958 0.000000 0.018609 0.000000
# 3 0.007257 -0.006958 0.018414 0.000000 -0.017028 0.000000
# 4 0.000000 0.000000 0.000000 0.074450 0.000000 -0.060449
# 5 -0.038726 0.018609 -0.017028 0.000000 0.065115 0.000000
# 6 0.000000 0.000000 0.000000 -0.060449 0.000000 0.095360
#
#
# Mechanical properties :
#
#
# Convention : Reuss Voigt Hill
#
# Bulk Modulus (GPa) = 25.69991 75.30406 50.50199
# Shear Modulus (GPa) = 13.62579 31.01818 22.32198
#
# Velocity S-wave (km/s) = 2.62818 3.96536 3.36388
# Velocity P-wave (km/s) = 4.71570 7.69021 6.37876
#
# Compressibility (1/GPa) = 0.03891063
#
# Stress axis : x y z
#
# Youngs Moduli (GPa) = 22.06984 65.53606 54.30622
#
# Poissons Ratio (x) = 1.33269 -0.39409
# Poissons Ratio (y) = 0.44880 0.37787
# Poissons Ratio (z) = -0.16016 0.45600
#
# Static dielectric constant tensor:
#      x y z
#    x 1.653700 0.000000 -0.015890 
#    y 0.000000 1.714370 0.000000 
#    z -0.015890 0.000000 1.672050 
# 
# From -- ./inp_files/3869.got.cif
#   From: 2010.05.17/outbox.cif.g08.bks.cpg/sg5_2_cif.got.tgz:3869.got - 2010.06.03 18:56:24.
