data_PCOD9124881
_publ_section_title
;
Structure prediction by ZEFSAII (Michael W. Deem and Ramdas Pophale) SiO2 
 PCOD9124881
Probable space group: C 2
;
_chemical_formula_sum "Si O2"
_cell_formula_units_Z 30
_cell_length_a 15.685383
_cell_length_b 7.657024
_cell_length_c 12.010972
_cell_angle_alpha 90.000000
_cell_angle_beta 115.768926
_cell_angle_gamma 90.000000
_cell_volume 1299.102384
_symmetry_space_group_name_H-M "C 2"
_symmetry_group_IT_number 5
_symmetry_cell_setting 'monoclinic'
loop_
_space_group_symop_operation_xyz
x,y,z
-x,y,-z
1/2+x,1/2+y,z
1/2-x,1/2+y,-z
loop_
_atom_site_type_symbol
_atom_site_label
_atom_site_fract_x
_atom_site_fract_y
_atom_site_fract_z
Si Si1 0.899856 0.893390 0.989231
Si Si2 0.300202 0.481280 0.377423
Si Si3 0.229808 0.480510 0.746674
Si Si4 0.474969 0.812882 0.328340
Si Si5 0.724778 0.348243 0.870187
Si Si6 0.500000 0.488910 0.500000
Si Si7 0.821020 0.364016 0.500075
Si Si8 0.430288 0.804852 0.052353
O O1 0.816183 0.874919 0.851232
O O2 0.857736 0.835563 0.084793
O O3 0.000000 0.822482 0.000000
O O4 0.915190 0.100987 0.015505
O O5 0.286027 0.485484 0.236625
O O6 0.402000 0.389446 0.456897
O O7 0.219461 0.383766 0.399594
O O8 0.308724 0.671983 0.438796
O O9 0.229852 0.666863 0.806287
O O10 0.237750 0.485095 0.617994
O O11 0.126667 0.395636 0.705109
O O12 0.482688 0.619371 0.385815
O O13 0.567487 0.906132 0.430525
O O14 0.479872 0.812130 0.198832
O O15 0.824532 0.383454 0.988750
O O16 0.500000 0.882750 0.000000
#
# Coordination Sequence:
#
# PCOD9124881 Si02
#       8
#     4   4   4   4   4   2   4   4
#     4  10  23  41  66  98 131 171 221 275 331 390
#     4  11  23  43  64  98 132 168 223 273 323 404
#     4  11  22  42  65  93 136 174 217 276 325 399
#     4  11  19  42  66  90 126 177 219 260 326 397
#     4  11  23  40  66  99 133 172 218 280 339 381
#     4  10  22  40  70  90 120 182 218 264 330 394
#     4  11  24  41  70  97 132 176 223 271 330 396
#     4  10  21  38  68  95 123 173 221 262 320 408
#
# _framework density 23.092869
#
# number of rings (size 3 to 8) (size 9 to 14) (size 15 to 20)
#    0.000    1.333    4.000    2.400    0.000    6.400 
#    7.200    0.667    0.000    0.000    0.000    0.000 
#    0.000    0.000    0.000    0.000    0.000    0.000 
#
# Total GULP energy -83806.914860 kJ/mol
# GULP energy per Si atom -5587.127657 kJ/mol
# Density = 2.304031 g / cm^3
# Si number density = 23.092869 Si / 1000 Ang^3
#
#
#
# Elastic Constant Matrix: (Units=GPa)
#
#
# Indices 1 2 3 4 5 6 
#
# 1 141.8334 15.8187 64.9803 0.0000 -8.4740 0.0000
# 2 15.8187 42.3383 20.0526 0.0000 10.2983 0.0000
# 3 64.9803 20.0526 180.6765 0.0000 -2.3185 0.0000
# 4 0.0000 0.0000 0.0000 22.4641 0.0000 1.0501
# 5 -8.4740 10.2983 -2.3185 0.0000 42.2161 0.0000
# 6 0.0000 0.0000 0.0000 1.0501 0.0000 17.2940
#
#
#
# Elastic Compliance Matrix: (Units=1/GPa)
#
#
# Indices 1 2 3 4 5 6 
#
# 1 0.008762 -0.002460 -0.002850 0.000000 0.002202 0.000000
# 2 -0.002460 0.027377 -0.002248 0.000000 -0.007296 0.000000
# 3 -0.002850 -0.002248 0.006814 0.000000 0.000350 0.000000
# 4 0.000000 0.000000 0.000000 0.044642 0.000000 -0.002711
# 5 0.002202 -0.007296 0.000350 0.000000 0.025929 0.000000
# 6 0.000000 0.000000 0.000000 -0.002711 0.000000 0.057988
#
#
# Mechanical properties :
#
#
# Convention : Reuss Voigt Hill
#
# Bulk Modulus (GPa) = 35.92105 62.95013 49.43559
# Shear Modulus (GPa) = 25.52245 33.99464 29.75854
#
# Velocity S-wave (km/s) = 3.32808 3.84094 3.59367
# Velocity P-wave (km/s) = 5.50971 6.85486 6.21876
#
# Compressibility (1/GPa) = 0.02783883
#
# Stress axis : x y z
#
# Youngs Moduli (GPa) = 114.12707 36.52661 146.76264
#
# Poissons Ratio (x) = 0.08984 0.41828
# Poissons Ratio (y) = 0.28070 0.32985
# Poissons Ratio (z) = 0.32527 0.08209
#
# Static dielectric constant tensor:
#      x y z
#    x 1.915220 0.000000 -0.029150 
#    y 0.000000 1.908250 0.000000 
#    z -0.029150 0.000000 1.878780 
# 
# From -- ./inp_files/42056.got.cif
#   From: 2010.05.17/outbox.cif.g08.bks.cpg/sg5_22_cif.got.tgz:42056.got - 2010.06.03 18:56:24.
