data_PCOD9124795
_publ_section_title
;
Structure prediction by ZEFSAII (Michael W. Deem and Ramdas Pophale) SiO2 
 PCOD9124795
Probable space group: C 2
;
_chemical_formula_sum "Si O2"
_cell_formula_units_Z 28
_cell_length_a 7.064901
_cell_length_b 23.414138
_cell_length_c 8.354789
_cell_angle_alpha 90.000000
_cell_angle_beta 112.228696
_cell_angle_gamma 90.000000
_cell_volume 1279.325919
_symmetry_space_group_name_H-M "C 2"
_symmetry_group_IT_number 5
_symmetry_cell_setting 'monoclinic'
loop_
_space_group_symop_operation_xyz
x,y,z
-x,y,-z
1/2+x,1/2+y,z
1/2-x,1/2+y,-z
loop_
_atom_site_type_symbol
_atom_site_label
_atom_site_fract_x
_atom_site_fract_y
_atom_site_fract_z
Si Si1 0.179382 0.365260 0.152355
Si Si2 0.366049 0.833323 0.320383
Si Si3 0.957579 0.057575 0.165047
Si Si4 0.456964 0.152753 0.662707
Si Si5 0.500000 0.632276 0.500000
Si Si6 0.045610 0.761529 0.845179
Si Si7 0.937163 0.929925 0.794437
Si Si8 0.000000 0.578453 0.000000
O O1 0.277939 0.309377 0.097369
O O2 0.372651 0.405244 0.247402
O O3 0.041519 0.340312 0.246494
O O4 0.000000 0.397999 0.000000
O O5 0.500000 0.806760 0.500000
O O6 0.162526 0.796691 0.240924
O O7 0.268247 0.896453 0.314961
O O8 0.008915 0.095372 0.337164
O O9 0.074763 0.997675 0.217890
O O10 0.713841 0.045529 0.084621
O O11 0.000000 0.082728 0.000000
O O12 0.500000 0.127757 0.500000
O O13 0.574262 0.212680 0.723900
O O14 0.508746 0.114079 0.834446
O O15 0.213738 0.164746 0.586794
O O16 0.000000 0.731551 0.000000
O O17 0.000000 0.915534 0.000000
#
# Coordination Sequence:
#
# PCOD9124795 Si02
#       8
#     4   4   4   4   2   4   4   2
#     4  11  20  38  62  83 122 164 194 246 307 359
#     4  11  24  38  58  91 128 158 203 255 303 369
#     4  10  22  40  66  92 124 163 207 258 309 371
#     4  11  24  42  64  90 125 163 206 263 312 370
#     4  10  24  44  62  90 130 160 206 264 314 364
#     4  11  23  40  60  91 120 160 212 251 304 378
#     4  10  21  38  62  92 120 159 209 245 301 377
#     4  10  22  42  64  94 122 164 212 254 312 370
#
# _framework density 21.886527999999998
#
# number of rings (size 3 to 8) (size 9 to 14) (size 15 to 20)
#    0.000    1.429    3.571    1.714    4.000    2.857 
#    0.000    4.286    0.000    0.000    0.000    0.000 
#    0.000    0.000    0.000    0.000    0.000    0.000 
#
# Total GULP energy -77977.893447 kJ/mol
# GULP energy per Si atom -5569.849532 kJ/mol
# Density = 2.183671 g / cm^3
# Si number density = 21.886528 Si / 1000 Ang^3
#
#
#
# Elastic Constant Matrix: (Units=GPa)
#
#
# Indices 1 2 3 4 5 6 
#
# 1 104.5506 -0.5793 16.4252 0.0000 1.2823 0.0000
# 2 -0.5793 46.8708 9.3369 0.0000 -4.5837 0.0000
# 3 16.4252 9.3369 74.2378 0.0000 -13.2944 0.0000
# 4 0.0000 0.0000 0.0000 7.6410 0.0000 1.9577
# 5 1.2823 -4.5837 -13.2944 0.0000 34.9232 0.0000
# 6 0.0000 0.0000 0.0000 1.9577 0.0000 18.1835
#
#
#
# Elastic Compliance Matrix: (Units=1/GPa)
#
#
# Indices 1 2 3 4 5 6 
#
# 1 0.009975 0.000498 -0.002493 0.000000 -0.001250 0.000000
# 2 0.000498 0.022034 -0.002540 0.000000 0.001907 0.000000
# 3 -0.002493 -0.002540 0.015344 0.000000 0.005599 0.000000
# 4 0.000000 0.000000 0.000000 0.134584 0.000000 -0.014490
# 5 -0.001250 0.001907 0.005599 0.000000 0.031062 0.000000
# 6 0.000000 0.000000 0.000000 -0.014490 0.000000 0.056555
#
#
# Mechanical properties :
#
#
# Convention : Reuss Voigt Hill
#
# Bulk Modulus (GPa) = 26.12230 30.66942 28.39586
# Shear Modulus (GPa) = 17.15942 25.51463 21.33703
#
# Velocity S-wave (km/s) = 2.80307 3.41804 3.12572
# Velocity P-wave (km/s) = 4.73682 5.44249 5.10187
#
# Compressibility (1/GPa) = 0.03828146
#
# Stress axis : x y z
#
# Youngs Moduli (GPa) = 100.25521 45.38477 65.17194
#
# Poissons Ratio (x) = -0.02259 0.16250
# Poissons Ratio (y) = -0.04990 0.16553
# Poissons Ratio (z) = 0.24997 0.11527
#
# Static dielectric constant tensor:
#      x y z
#    x 1.782750 0.000000 -0.050530 
#    y 0.000000 1.771900 0.000000 
#    z -0.050530 0.000000 1.872910 
# 
# From -- ./inp_files/13079.got.cif
#   From: 2010.05.17/outbox.cif.g08.bks.cpg/sg5_7_cif.got.tgz:13079.got - 2010.06.03 18:56:24.
