data_PCOD9124117
_publ_section_title
;
Structure prediction by ZEFSAII (Michael W. Deem and Ramdas Pophale) SiO2 
 PCOD9124117
Probable space group: C 2
;
_chemical_formula_sum "Si O2"
_cell_formula_units_Z 30
_cell_length_a 19.350211
_cell_length_b 14.184895
_cell_length_c 5.378216
_cell_angle_alpha 90.000000
_cell_angle_beta 109.923848
_cell_angle_gamma 90.000000
_cell_volume 1387.859635
_symmetry_space_group_name_H-M "C 2"
_symmetry_group_IT_number 5
_symmetry_cell_setting 'monoclinic'
loop_
_space_group_symop_operation_xyz
x,y,z
-x,y,-z
1/2+x,1/2+y,z
1/2-x,1/2+y,-z
loop_
_atom_site_type_symbol
_atom_site_label
_atom_site_fract_x
_atom_site_fract_y
_atom_site_fract_z
Si Si1 0.073318 0.364800 0.468590
Si Si2 0.665336 0.352141 0.333366
Si Si3 0.796961 0.460687 0.636605
Si Si4 0.759289 0.669606 0.712661
Si Si5 0.395263 0.678088 0.705552
Si Si6 0.500000 0.517036 0.000000
Si Si7 0.070011 0.870322 0.714108
Si Si8 0.305823 0.791433 0.997643
O O1 0.120706 0.433280 0.350723
O O2 0.052814 0.263790 0.321007
O O3 0.000000 0.405543 0.500000
O O4 0.136584 0.332987 0.734819
O O5 0.730138 0.430461 0.367613
O O6 0.704708 0.250144 0.416335
O O7 0.621578 0.380518 0.532042
O O8 0.614678 0.339751 0.021787
O O9 0.793775 0.567950 0.718635
O O10 0.779644 0.385063 0.828845
O O11 0.672176 0.656356 0.559904
O O12 0.757546 0.725508 0.969544
O O13 0.353521 0.724615 0.883245
O O14 0.436715 0.584778 0.823735
O O15 0.469940 0.459043 0.199543
O O16 0.000000 0.815483 0.500000
#
# Coordination Sequence:
#
# PCOD9124117 Si02
#       8
#     4   4   4   4   4   2   4   4
#     4  10  21  41  65  95 144 187 232 304 371 433
#     4  12  24  49  73 103 156 188 251 312 356 460
#     4  11  24  42  69 108 138 191 254 302 380 437
#     4  11  24  42  69 106 137 195 244 309 372 435
#     4  10  22  39  63 106 143 178 238 297 384 456
#     4  12  24  42  68 116 146 198 242 300 400 470
#     4  12  27  47  71 103 147 199 240 303 381 436
#     4  10  20  42  64 100 143 182 240 306 375 436
#
# _framework density 21.616019999999999
#
# number of rings (size 3 to 8) (size 9 to 14) (size 15 to 20)
#    0.000    1.067    5.333    2.400    1.867    4.267 
#    0.000    0.667    2.933    0.000    0.000    0.000 
#    0.000    0.000    0.000    0.000    0.000    0.000 
#
# Total GULP energy -83528.435108 kJ/mol
# GULP energy per Si atom -5568.562341 kJ/mol
# Density = 2.156682 g / cm^3
# Si number density = 21.616020 Si / 1000 Ang^3
#
#
#
# Elastic Constant Matrix: (Units=GPa)
#
#
# Indices 1 2 3 4 5 6 
#
# 1 128.7445 50.8709 24.0928 0.0000 -17.7346 0.0000
# 2 50.8709 141.8596 22.7280 0.0000 -11.5719 0.0000
# 3 24.0928 22.7280 94.4256 0.0000 -4.7517 0.0000
# 4 0.0000 0.0000 0.0000 18.2359 0.0000 24.0918
# 5 -17.7346 -11.5719 -4.7517 0.0000 38.1279 0.0000
# 6 0.0000 0.0000 0.0000 24.0918 0.0000 -8.3783
#
#
#
# Elastic Compliance Matrix: (Units=1/GPa)
#
#
# Indices 1 2 3 4 5 6 
#
# 1 0.009700 -0.002944 -0.001594 0.000000 0.003420 0.000000
# 2 -0.002944 0.008383 -0.001215 0.000000 0.001023 0.000000
# 3 -0.001594 -0.001215 0.011305 0.000000 0.000299 0.000000
# 4 0.000000 0.000000 0.000000 0.011427 0.000000 0.032858
# 5 0.003420 0.001023 0.000299 0.000000 0.028166 0.000000
# 6 0.000000 0.000000 0.000000 0.032858 0.000000 -0.024872
#
#
# Mechanical properties :
#
#
# Convention : Reuss Voigt Hill
#
# Bulk Modulus (GPa) = 55.92561 62.26812 59.09687
# Shear Modulus (GPa) = 81.20020 27.41964 54.30992
#
# Velocity S-wave (km/s) = 6.13566 3.56545 5.01791
# Velocity P-wave (km/s) = 8.72489 6.76896 7.80841
#
# Compressibility (1/GPa) = 0.01788089
#
# Stress axis : x y z
#
# Youngs Moduli (GPa) = 103.09277 119.28725 88.45940
#
# Poissons Ratio (x) = 0.35119 0.14103
# Poissons Ratio (y) = 0.30351 0.10749
# Poissons Ratio (z) = 0.16436 0.14495
#
# Static dielectric constant tensor:
#      x y z
#    x 1.868310 0.000000 0.021520 
#    y 0.000000 1.766130 0.000000 
#    z 0.021520 0.000000 2.014920 
# 
# From -- ./inp_files/8677.got.cif
#   From: 2010.05.17/outbox.cif.g08.bks.cpg/sg5_5_cif.got.tgz:8677.got - 2010.06.03 18:56:24.
