data_PCOD9124212
_publ_section_title
;
Structure prediction by ZEFSAII (Michael W. Deem and Ramdas Pophale) SiO2 
 PCOD9124212
Probable space group: C 2
;
_chemical_formula_sum "Si O2"
_cell_formula_units_Z 26
_cell_length_a 14.049970
_cell_length_b 5.159607
_cell_length_c 14.762554
_cell_angle_alpha 90.000000
_cell_angle_beta 75.542660
_cell_angle_gamma 90.000000
_cell_volume 1036.283560
_symmetry_space_group_name_H-M "C 2"
_symmetry_group_IT_number 5
_symmetry_cell_setting 'monoclinic'
loop_
_space_group_symop_operation_xyz
x,y,z
-x,y,-z
1/2+x,1/2+y,z
1/2-x,1/2+y,-z
loop_
_atom_site_type_symbol
_atom_site_label
_atom_site_fract_x
_atom_site_fract_y
_atom_site_fract_z
Si Si1 0.999988 0.576550 0.197358
Si Si2 0.717329 0.906582 0.955242
Si Si3 0.886295 0.879717 0.556319
Si Si4 0.391334 0.868839 0.479832
Si Si5 0.892582 0.078030 0.285174
Si Si6 0.500000 0.018015 0.000000
Si Si7 0.806488 0.676063 0.759698
O O1 0.945957 0.301938 0.214628
O O2 0.997515 0.673988 0.094605
O O3 0.110113 0.522011 0.205833
O O4 0.948706 0.803771 0.268354
O O5 0.763034 0.872215 0.844666
O O6 0.764341 0.691252 0.009460
O O7 0.600818 0.859485 0.980300
O O8 0.847208 0.653805 0.500050
O O9 0.866639 0.798496 0.662577
O O10 0.000000 0.915085 0.500000
O O11 0.840043 0.160867 0.556335
O O12 0.500000 0.910395 0.500000
O O13 0.391906 0.723788 0.383342
O O14 0.785685 0.039295 0.266126
#
# Coordination Sequence:
#
# PCOD9124212 Si02
#       7
#     4   4   4   4   4   2   4
#     4  12  28  47  75 111 152 196 252 321 380 452
#     4  12  30  51  78 113 154 201 258 317 386 461
#     4  10  22  42  69 105 146 194 243 308 370 440
#     4  10  20  42  68  97 148 190 241 303 369 434
#     4  12  28  47  75 113 150 202 256 309 383 459
#     4  12  28  52  80 108 158 200 252 328 388 448
#     4  12  28  48  81 112 153 202 260 311 386 457
#
# _framework density 25.089658
#
# number of rings (size 3 to 8) (size 9 to 14) (size 15 to 20)
#    0.000    0.615    3.077    4.615    4.308    6.154 
#    0.000    0.000    0.000    0.000    0.000    0.000 
#    0.000    0.000    0.000    0.000    0.000    0.000 
#
# Total GULP energy -72691.023403 kJ/mol
# GULP energy per Si atom -5591.617185 kJ/mol
# Density = 2.503255 g / cm^3
# Si number density = 25.089658 Si / 1000 Ang^3
#
#
#
# Elastic Constant Matrix: (Units=GPa)
#
#
# Indices 1 2 3 4 5 6 
#
# 1 170.5422 12.2691 28.0076 0.0000 19.7588 0.0000
# 2 12.2691 104.7548 -20.5137 0.0000 -4.2467 0.0000
# 3 28.0076 -20.5137 116.5391 0.0000 -7.0639 0.0000
# 4 0.0000 0.0000 0.0000 19.8643 0.0000 0.4213
# 5 19.7588 -4.2467 -7.0639 0.0000 49.1504 0.0000
# 6 0.0000 0.0000 0.0000 0.4213 0.0000 14.3498
#
#
#
# Elastic Compliance Matrix: (Units=1/GPa)
#
#
# Indices 1 2 3 4 5 6 
#
# 1 0.006643 -0.001296 -0.002011 0.000000 -0.003072 0.000000
# 2 -0.001296 0.010201 0.002211 0.000000 0.001720 0.000000
# 3 -0.002011 0.002211 0.009598 0.000000 0.002379 0.000000
# 4 0.000000 0.000000 0.000000 0.050373 0.000000 -0.001479
# 5 -0.003072 0.001720 0.002379 0.000000 0.022071 0.000000
# 6 0.000000 0.000000 0.000000 -0.001479 0.000000 0.069731
#
#
# Mechanical properties :
#
#
# Convention : Reuss Voigt Hill
#
# Bulk Modulus (GPa) = 41.23774 47.92912 44.58343
# Shear Modulus (GPa) = 27.94998 41.47776 34.71387
#
# Velocity S-wave (km/s) = 3.34129 4.07034 3.72370
# Velocity P-wave (km/s) = 5.59977 6.42144 6.02463
#
# Compressibility (1/GPa) = 0.02424963
#
# Stress axis : x y z
#
# Youngs Moduli (GPa) = 150.53400 98.03231 104.19350
#
# Poissons Ratio (x) = 0.12708 0.20952
# Poissons Ratio (y) = 0.19514 -0.23041
# Poissons Ratio (z) = 0.30270 -0.21679
#
# Static dielectric constant tensor:
#      x y z
#    x 1.656750 0.000000 -0.028750 
#    y 0.000000 1.974290 0.000000 
#    z -0.028750 0.000000 2.019200 
# 
# From -- ./inp_files/53848.got.cif
#   From: 2010.05.17/outbox.cif.g08.bks.cpg/sg5_27_cif.got.tgz:53848.got - 2010.06.03 18:56:24.
