data_PCOD9124317
_publ_section_title
;
Structure prediction by ZEFSAII (Michael W. Deem and Ramdas Pophale) SiO2 
 PCOD9124317
Probable space group: C 2
;
_chemical_formula_sum "Si O2"
_cell_formula_units_Z 24
_cell_length_a 18.043164
_cell_length_b 6.517758
_cell_length_c 14.867661
_cell_angle_alpha 90.000000
_cell_angle_beta 32.587218
_cell_angle_gamma 90.000000
_cell_volume 941.685932
_symmetry_space_group_name_H-M "C 2"
_symmetry_group_IT_number 5
_symmetry_cell_setting 'monoclinic'
loop_
_space_group_symop_operation_xyz
x,y,z
-x,y,-z
1/2+x,1/2+y,z
1/2-x,1/2+y,-z
loop_
_atom_site_type_symbol
_atom_site_label
_atom_site_fract_x
_atom_site_fract_y
_atom_site_fract_z
Si Si1 0.436391 0.444480 0.720639
Si Si2 0.756563 0.310180 0.630409
Si Si3 0.831248 0.275941 0.059680
Si Si4 0.500000 0.769272 0.500000
Si Si5 0.207822 0.831180 0.378118
Si Si6 0.500000 0.443525 0.000000
Si Si7 0.580612 0.747792 0.706958
O O1 0.295931 0.318266 0.877946
O O2 0.437277 0.627262 0.644300
O O3 0.550662 0.290947 0.563531
O O4 0.494569 0.562554 0.748882
O O5 0.606685 0.324880 0.828020
O O6 0.825692 0.359079 0.462770
O O7 0.870270 0.382453 0.588577
O O8 0.772008 0.061483 0.607446
O O9 0.755899 0.347437 0.227368
O O10 0.963087 0.380107 0.877368
O O11 0.905493 0.075473 0.026831
O O12 0.311652 0.684316 0.325347
#
# Coordination Sequence:
#
# PCOD9124317 Si02
#       7
#     4   4   4   2   4   2   4
#     4  10  21  43  72 100 141 184 238 290 357 422
#     4  10  24  43  68 103 146 186 236 291 354 422
#     4  12  22  46  70 105 141 188 240 292 351 425
#     4   8  16  44  70  92 128 188 238 280 352 420
#     4  10  20  43  77  99 138 194 233 289 364 421
#     4  12  28  40  68 106 146 186 248 284 348 436
#     4  10  23  41  70 107 138 179 243 293 357 421
#
# _framework density 25.486207
#
# number of rings (size 3 to 8) (size 9 to 14) (size 15 to 20)
#    0.000    2.000    5.000    0.000    7.000    0.000 
#    9.000    3.333    0.000    0.000    0.000    0.000 
#    0.000    0.000    0.000    0.000    0.000    0.000 
#
# Total GULP energy -66841.537602 kJ/mol
# GULP energy per Si atom -5570.128133 kJ/mol
# Density = 2.542820 g / cm^3
# Si number density = 25.486207 Si / 1000 Ang^3
#
#
#
# Elastic Constant Matrix: (Units=GPa)
#
#
# Indices 1 2 3 4 5 6 
#
# 1 106.7204 -14.0614 25.6810 0.0000 -7.8312 -0.0002
# 2 -14.0614 21.7153 5.4004 -0.0027 -4.9722 0.0014
# 3 25.6810 5.4004 187.9854 -0.0009 -35.0484 0.0009
# 4 0.0000 -0.0027 -0.0009 33.6844 0.0006 -15.8221
# 5 -7.8312 -4.9722 -35.0484 0.0006 46.1386 0.0001
# 6 -0.0002 0.0014 0.0009 -15.8221 0.0001 33.0681
#
#
#
# Elastic Compliance Matrix: (Units=1/GPa)
#
#
# Indices 1 2 3 4 5 6 
#
# 1 0.010846 0.007741 -0.001404 0.000001 0.001608 0.000000
# 2 0.007741 0.052776 -0.001478 0.000004 0.005879 0.000000
# 3 -0.001404 -0.001478 0.006384 0.000000 0.004452 0.000000
# 4 0.000001 0.000004 0.000000 0.038294 0.000000 0.018322
# 5 0.001608 0.005879 0.004452 0.000000 0.025962 -0.000001
# 6 0.000000 0.000000 0.000000 0.018322 -0.000001 0.039007
#
#
# Mechanical properties :
#
#
# Convention : Reuss Voigt Hill
#
# Bulk Modulus (GPa) = 12.54323 38.94012 25.74167
# Shear Modulus (GPa) = 26.29832 42.53829 34.41830
#
# Velocity S-wave (km/s) = 3.21575 4.08986 3.67886
# Velocity P-wave (km/s) = 4.32670 6.13308 5.30731
#
# Compressibility (1/GPa) = 0.07972429
#
# Stress axis : x y z
#
# Youngs Moduli (GPa) = 92.19883 18.94789 156.64541
#
# Poissons Ratio (x) = -0.14667 0.21996
# Poissons Ratio (y) = -0.71369 0.23145
# Poissons Ratio (z) = 0.12947 0.02800
#
# Static dielectric constant tensor:
#      x y z
#    x 2.177000 0.000000 -0.029130 
#    y 0.000000 2.225260 0.000000 
#    z -0.029130 0.000000 2.007400 
# 
# From -- ./inp_files/55710.got.cif
#   From: 2010.05.17/outbox.cif.g08.bks.cpg/sg5_28_cif.got.tgz:55710.got - 2010.06.03 18:56:24.
