data_PCOD9124613
_publ_section_title
;
Structure prediction by ZEFSAII (Michael W. Deem and Ramdas Pophale) SiO2 
 PCOD9124613
Probable space group: C 2
;
_chemical_formula_sum "Si O2"
_cell_formula_units_Z 30
_cell_length_a 5.215951
_cell_length_b 14.978034
_cell_length_c 18.583577
_cell_angle_alpha 90.000000
_cell_angle_beta 72.965956
_cell_angle_gamma 90.000000
_cell_volume 1388.145421
_symmetry_space_group_name_H-M "C 2"
_symmetry_group_IT_number 5
_symmetry_cell_setting 'monoclinic'
loop_
_space_group_symop_operation_xyz
x,y,z
-x,y,-z
1/2+x,1/2+y,z
1/2-x,1/2+y,-z
loop_
_atom_site_type_symbol
_atom_site_label
_atom_site_fract_x
_atom_site_fract_y
_atom_site_fract_z
Si Si1 0.634178 0.442720 0.919779
Si Si2 0.140532 0.558595 0.918064
Si Si3 0.603804 0.044801 0.625747
Si Si4 0.368437 0.346432 0.230575
Si Si5 0.711872 0.683957 0.625214
Si Si6 0.180745 0.647590 0.760398
Si Si7 0.755066 0.867339 0.675995
Si Si8 0.000000 0.164078 0.500000
O O1 0.430438 0.524284 0.919802
O O2 0.618440 0.383997 0.850290
O O3 0.930520 0.478762 0.914542
O O4 0.500000 0.396608 0.000000
O O5 0.181628 0.611732 0.840987
O O6 0.000000 0.602605 0.000000
O O7 0.340070 0.084959 0.609541
O O8 0.561154 0.078082 0.712154
O O9 0.816419 0.103625 0.565387
O O10 0.716318 0.945383 0.620724
O O11 0.460904 0.243590 0.224928
O O12 0.555431 0.397008 0.273273
O O13 0.055202 0.353347 0.276420
O O14 0.468245 0.668145 0.700437
O O15 0.869482 0.770666 0.642129
O O16 0.649796 0.716999 0.549637
#
# Coordination Sequence:
#
# PCOD9124613 Si02
#       8
#     4   4   4   4   4   4   4   2
#     4  10  21  37  57  86 127 168 216 272 329 390
#     4  10  22  38  59  92 126 169 222 269 327 389
#     4  11  22  43  67  92 130 170 218 268 334 395
#     4  11  22  40  60  96 127 166 224 272 325 395
#     4  10  23  45  63  96 132 169 217 276 333 396
#     4  10  22  37  65  89 129 168 218 273 325 391
#     4  11  25  41  68  97 127 170 222 266 330 401
#     4  10  24  44  64  96 128 166 214 270 330 400
#
# _framework density 21.611568999999999
#
# number of rings (size 3 to 8) (size 9 to 14) (size 15 to 20)
#    0.000    1.600    1.333    2.800    7.467    0.533 
#    4.800    0.000    0.000    4.800    0.000    0.000 
#    0.000    0.000    0.000    0.000    0.000    0.000 
#
# Total GULP energy -83541.713293 kJ/mol
# GULP energy per Si atom -5569.447553 kJ/mol
# Density = 2.156238 g / cm^3
# Si number density = 21.611569 Si / 1000 Ang^3
#
#
#
# Elastic Constant Matrix: (Units=GPa)
#
#
# Indices 1 2 3 4 5 6 
#
# 1 77.8736 -1.2696 11.8141 0.0000 16.6701 0.0000
# 2 -1.2696 36.9593 9.7841 0.0000 1.3302 0.0000
# 3 11.8141 9.7841 118.3685 0.0000 22.2832 0.0000
# 4 0.0000 0.0000 0.0000 5.4072 0.0000 21.8773
# 5 16.6701 1.3302 22.2832 0.0000 28.3356 0.0000
# 6 0.0000 0.0000 0.0000 21.8773 0.0000 -0.9361
#
#
#
# Elastic Compliance Matrix: (Units=1/GPa)
#
#
# Indices 1 2 3 4 5 6 
#
# 1 0.014718 0.000790 0.000121 0.000000 -0.008790 0.000000
# 2 0.000790 0.027713 -0.002391 0.000000 0.000115 0.000000
# 3 0.000121 -0.002391 0.010125 0.000000 -0.007921 0.000000
# 4 0.000000 0.000000 0.000000 0.001935 0.000000 0.045231
# 5 -0.008790 0.000115 -0.007921 0.000000 0.046687 0.000000
# 6 0.000000 0.000000 0.000000 0.045231 0.000000 -0.011179
#
#
# Mechanical properties :
#
#
# Convention : Reuss Voigt Hill
#
# Bulk Modulus (GPa) = 20.16357 30.42873 25.29615
# Shear Modulus (GPa) = 45.66610 20.75286 33.20948
#
# Velocity S-wave (km/s) = 4.60177 3.10218 3.92427
# Velocity P-wave (km/s) = 6.13068 5.19054 5.68010
#
# Compressibility (1/GPa) = 0.04959439
#
# Stress axis : x y z
#
# Youngs Moduli (GPa) = 67.94565 36.08445 98.76591
#
# Poissons Ratio (x) = -0.02851 -0.01191
# Poissons Ratio (y) = -0.05368 0.23616
# Poissons Ratio (z) = -0.00819 0.08628
#
# Static dielectric constant tensor:
#      x y z
#    x 1.998610 0.000000 0.029280 
#    y 0.000000 1.808980 0.000000 
#    z 0.029280 0.000000 1.780170 
# 
# From -- ./inp_files/58759.got.cif
#   From: 2010.05.17/outbox.cif.g08.bks.cpg/sg5_30_cif.got.tgz:58759.got - 2010.06.03 18:56:24.
