data_PCOD9124056
_publ_section_title
;
Structure prediction by ZEFSAII (Michael W. Deem and Ramdas Pophale) SiO2 
 PCOD9124056
Probable space group: C 2
;
_chemical_formula_sum "Si O2"
_cell_formula_units_Z 28
_cell_length_a 15.945730
_cell_length_b 12.556250
_cell_length_c 7.873414
_cell_angle_alpha 90.000000
_cell_angle_beta 55.989028
_cell_angle_gamma 90.000000
_cell_volume 1306.729074
_symmetry_space_group_name_H-M "C 2"
_symmetry_group_IT_number 5
_symmetry_cell_setting 'monoclinic'
loop_
_space_group_symop_operation_xyz
x,y,z
-x,y,-z
1/2+x,1/2+y,z
1/2-x,1/2+y,-z
loop_
_atom_site_type_symbol
_atom_site_label
_atom_site_fract_x
_atom_site_fract_y
_atom_site_fract_z
Si Si1 0.441768 0.666250 0.298318
Si Si2 0.515751 0.883131 0.295142
Si Si3 0.771532 0.727841 0.337868
Si Si4 0.896592 0.515559 0.221029
Si Si5 0.246411 0.828564 0.278704
Si Si6 0.254368 0.400149 0.057884
Si Si7 0.643799 0.614430 0.959301
O O1 0.473661 0.789194 0.222870
O O2 0.342726 0.678779 0.525959
O O3 0.402269 0.604554 0.177466
O O4 0.553250 0.618455 0.200706
O O5 0.500000 0.837217 0.500000
O O6 0.634434 0.904307 0.148676
O O7 0.440083 0.982960 0.357190
O O8 0.848627 0.629806 0.242277
O O9 0.792268 0.783379 0.497646
O O10 0.774625 0.812447 0.181122
O O11 0.815984 0.426928 0.259277
O O12 0.000000 0.503361 0.000000
O O13 0.299835 0.727034 0.126035
O O14 0.186110 0.873933 0.184860
O O15 0.284907 0.516333 0.085427
#
# Coordination Sequence:
#
# PCOD9124056 Si02
#       7
#     4   4   4   4   4   4   4
#     4  10  20  41  68  95 135 183 234 275 341 406
#     4  12  22  40  70 104 132 182 245 290 329 417
#     4  11  27  44  71 105 142 185 234 290 352 420
#     4  12  24  47  70 102 143 185 234 290 357 416
#     4  11  24  42  73 101 141 179 242 285 340 411
#     4  12  25  43  73 105 140 184 235 290 355 413
#     4  10  22  41  69 103 137 181 225 295 347 402
#
# _framework density 21.427548999999999
#
# number of rings (size 3 to 8) (size 9 to 14) (size 15 to 20)
#    0.000    0.857    7.143    0.000   10.000    0.000 
#    2.571    0.000    0.000    3.429    0.000    0.000 
#    0.000    0.000    0.000    0.000    0.000    0.000 
#
# Total GULP energy -77983.449753 kJ/mol
# GULP energy per Si atom -5570.246411 kJ/mol
# Density = 2.137878 g / cm^3
# Si number density = 21.427549 Si / 1000 Ang^3
#
#
#
# Elastic Constant Matrix: (Units=GPa)
#
#
# Indices 1 2 3 4 5 6 
#
# 1 68.1015 47.8011 8.7889 0.0000 16.5446 0.0000
# 2 47.8011 119.4772 11.4092 0.0000 0.9786 0.0000
# 3 8.7889 11.4092 39.9488 0.0000 18.8753 0.0000
# 4 0.0000 0.0000 0.0000 22.9690 0.0000 -5.3106
# 5 16.5446 0.9786 18.8753 0.0000 34.4083 0.0000
# 6 0.0000 0.0000 0.0000 -5.3106 0.0000 47.4442
#
#
#
# Elastic Compliance Matrix: (Units=1/GPa)
#
#
# Indices 1 2 3 4 5 6 
#
# 1 0.024598 -0.010106 0.003951 0.000000 -0.013708 0.000000
# 2 -0.010106 0.012814 -0.004805 0.000000 0.007131 0.000000
# 3 0.003951 -0.004805 0.035594 0.000000 -0.021289 0.000000
# 4 0.000000 0.000000 0.000000 0.044694 0.000000 0.005003
# 5 -0.013708 0.007131 -0.021289 0.000000 0.047129 0.000000
# 6 0.000000 0.000000 0.000000 0.005003 0.000000 0.021637
#
#
# Mechanical properties :
#
#
# Convention : Reuss Voigt Hill
#
# Bulk Modulus (GPa) = 19.57534 40.39177 29.98356
# Shear Modulus (GPa) = 22.18132 31.59953 26.89042
#
# Velocity S-wave (km/s) = 3.22091 3.84437 3.54637
# Velocity P-wave (km/s) = 4.79456 6.21264 5.54908
#
# Compressibility (1/GPa) = 0.05108467
#
# Stress axis : x y z
#
# Youngs Moduli (GPa) = 40.65389 78.04168 28.09467
#
# Poissons Ratio (x) = 0.78871 -0.11101
# Poissons Ratio (y) = 0.41086 0.13501
# Poissons Ratio (z) = -0.16064 0.37503
#
# Static dielectric constant tensor:
#      x y z
#    x 1.835600 0.000000 0.063920 
#    y 0.000000 1.748420 0.000000 
#    z 0.063920 0.000000 1.913200 
# 
# From -- ./inp_files/23777.got.cif
#   From: 2010.05.17/outbox.cif.g08.bks.cpg/sg5_12_cif.got.tgz:23777.got - 2010.06.03 18:56:24.
