data_PCOD9124282
_publ_section_title
;
Structure prediction by ZEFSAII (Michael W. Deem and Ramdas Pophale) SiO2 
 PCOD9124282
Probable space group: C 2
;
_chemical_formula_sum "Si O2"
_cell_formula_units_Z 28
_cell_length_a 25.945431
_cell_length_b 5.506263
_cell_length_c 8.472285
_cell_angle_alpha 90.000000
_cell_angle_beta 117.236406
_cell_angle_gamma 90.000000
_cell_volume 1076.171747
_symmetry_space_group_name_H-M "C 2"
_symmetry_group_IT_number 5
_symmetry_cell_setting 'monoclinic'
loop_
_space_group_symop_operation_xyz
x,y,z
-x,y,-z
1/2+x,1/2+y,z
1/2-x,1/2+y,-z
loop_
_atom_site_type_symbol
_atom_site_label
_atom_site_fract_x
_atom_site_fract_y
_atom_site_fract_z
Si Si1 0.500000 0.938971 0.500000
Si Si2 0.229342 0.688789 0.047952
Si Si3 0.123029 0.285859 0.222101
Si Si4 0.397066 0.598838 0.462678
Si Si5 0.771519 0.585383 0.601282
Si Si6 0.997601 0.826401 0.721632
Si Si7 0.626761 0.501061 0.907824
Si Si8 0.000000 0.139190 0.000000
O O1 0.446622 0.795160 0.497348
O O2 0.520528 0.077329 0.686927
O O3 0.247645 0.652925 0.251915
O O4 0.243973 0.442197 0.977206
O O5 0.160283 0.745862 0.954887
O O6 0.130056 0.153706 0.404039
O O7 0.159788 0.529293 0.297938
O O8 0.055179 0.319211 0.087655
O O9 0.144940 0.143049 0.094031
O O10 0.440724 0.365239 0.530593
O O11 0.360089 0.598123 0.250600
O O12 0.744466 0.321215 0.522672
O O13 0.056703 0.987796 0.810818
O O14 0.972673 0.931786 0.846135
#
# Coordination Sequence:
#
# PCOD9124282 Si02
#       8
#     2   4   4   4   4   4   4   2
#     4  12  20  38  66 106 156 204 268 318 398 490
#     4  12  29  55  85 124 157 211 283 347 427 491
#     4  10  24  48  80 118 156 221 273 338 420 491
#     4  11  23  46  71 111 161 207 271 323 409 493
#     4  12  28  58  87 118 169 218 277 354 417 503
#     4  10  20  43  65 104 153 202 256 322 398 483
#     4  11  22  49  79 105 161 209 265 349 405 490
#     4   8  20  44  76 106 162 202 272 336 402 500
#
# _framework density 26.018152000000001
#
# number of rings (size 3 to 8) (size 9 to 14) (size 15 to 20)
#    0.000    1.143    2.857    2.571    2.000    2.286 
#   23.143    0.000    0.000    0.000    0.000    0.000 
#    0.000    0.000    0.000    0.000    0.000    0.000 
#
# Total GULP energy -77990.583344 kJ/mol
# GULP energy per Si atom -5570.755953 kJ/mol
# Density = 2.595893 g / cm^3
# Si number density = 26.018152 Si / 1000 Ang^3
#
#
#
# Elastic Constant Matrix: (Units=GPa)
#
#
# Indices 1 2 3 4 5 6 
#
# 1 16.5808 22.7598 41.4321 0.0000 8.6536 0.0000
# 2 22.7598 94.1956 47.8651 0.0000 12.1213 0.0000
# 3 41.4321 47.8651 164.9927 0.0000 -15.3061 0.0000
# 4 0.0000 0.0000 0.0000 50.2885 0.0000 19.4946
# 5 8.6536 12.1213 -15.3061 0.0000 33.1088 0.0000
# 6 0.0000 0.0000 0.0000 19.4946 0.0000 105.1760
#
#
#
# Elastic Compliance Matrix: (Units=1/GPa)
#
#
# Indices 1 2 3 4 5 6 
#
# 1 0.999170 -0.058688 -0.267590 0.000000 -0.363370 0.000000
# 2 -0.058688 0.017403 0.010992 0.000000 0.014050 0.000000
# 3 -0.267590 0.010992 0.079596 0.000000 0.102712 0.000000
# 4 0.000000 0.000000 0.000000 0.021425 0.000000 -0.003971
# 5 -0.363370 0.014050 0.102712 0.000000 0.167516 0.000000
# 6 0.000000 0.000000 0.000000 -0.003971 0.000000 0.010244
#
#
# Mechanical properties :
#
#
# Convention : Reuss Voigt Hill
#
# Bulk Modulus (GPa) = 2.14778 55.54257 28.84518
# Shear Modulus (GPa) = 2.40255 48.62879 25.51567
#
# Velocity S-wave (km/s) = 0.96199 4.32792 3.13499
# Velocity P-wave (km/s) = 1.43568 6.80944 4.92086
#
# Compressibility (1/GPa) = 0.46559704
#
# Stress axis : x y z
#
# Youngs Moduli (GPa) = 1.00083 57.46092 12.56341
#
# Poissons Ratio (x) = 3.37229 3.36184
# Poissons Ratio (y) = 0.05874 -0.13810
# Poissons Ratio (z) = 0.26781 -0.63162
#
# Static dielectric constant tensor:
#      x y z
#    x 2.279120 0.000000 -0.168690 
#    y 0.000000 2.108640 0.000000 
#    z -0.168690 0.000000 2.073120 
# 
# From -- ./inp_files/32209.got.cif
#   From: 2010.05.17/outbox.cif.g08.bks.cpg/sg5_17_cif.got.tgz:32209.got - 2010.06.03 18:56:24.
