data_PCOD9124848
_publ_section_title
;
Structure prediction by ZEFSAII (Michael W. Deem and Ramdas Pophale) SiO2 
 PCOD9124848
Probable space group: C 2
;
_chemical_formula_sum "Si O2"
_cell_formula_units_Z 20
_cell_length_a 13.193493
_cell_length_b 7.053241
_cell_length_c 12.311841
_cell_angle_alpha 90.000000
_cell_angle_beta 39.317563
_cell_angle_gamma 90.000000
_cell_volume 725.937202
_symmetry_space_group_name_H-M "C 2"
_symmetry_group_IT_number 5
_symmetry_cell_setting 'monoclinic'
loop_
_space_group_symop_operation_xyz
x,y,z
-x,y,-z
1/2+x,1/2+y,z
1/2-x,1/2+y,-z
loop_
_atom_site_type_symbol
_atom_site_label
_atom_site_fract_x
_atom_site_fract_y
_atom_site_fract_z
Si Si1 0.805673 0.763360 0.347165
Si Si2 0.966072 0.251688 0.674732
Si Si3 0.864550 0.758766 0.988118
Si Si4 0.801328 0.315549 0.336124
Si Si5 0.281930 0.383276 0.820888
O O1 0.622308 0.831368 0.483234
O O2 0.806578 0.541586 0.323547
O O3 0.823540 0.773154 0.463234
O O4 0.956279 0.839960 0.156088
O O5 0.037613 0.242430 0.738790
O O6 0.923405 0.036067 0.678024
O O7 0.792069 0.346510 0.824407
O O8 0.823960 0.770045 0.894014
O O9 0.855011 0.539376 0.034317
O O10 0.760912 0.259328 0.247972
#
# Coordination Sequence:
#
# PCOD9124848 Si02
#       5
#     4   4   4   4   4
#     4  10  21  38  65  93 135 173 228 272 335 416
#     4   8  22  36  62  98 132 162 234 272 318 426
#     4  10  21  38  65  93 135 173 228 272 335 416
#     4  10  22  44  69  96 137 183 217 289 348 390
#     4  10  22  44  69  96 137 183 217 289 348 390
#
# _framework density 27.550592000000002
#
# number of rings (size 3 to 8) (size 9 to 14) (size 15 to 20)
#    2.400    0.000    0.000    2.400    0.000    6.400 
#    0.000    2.000    8.800    0.000    0.000    0.000 
#    0.000    0.000    0.000    0.000    0.000    0.000 
#
# Total GULP energy -55756.288017 kJ/mol
# GULP energy per Si atom -5575.628802 kJ/mol
# Density = 2.748789 g / cm^3
# Si number density = 27.550592 Si / 1000 Ang^3
#
#
#
# Elastic Constant Matrix: (Units=GPa)
#
#
# Indices 1 2 3 4 5 6 
#
# 1 190.0644 27.9515 100.8381 0.0000 1.5458 0.0000
# 2 27.9515 66.5108 14.4072 0.0000 5.3224 0.0000
# 3 100.8381 14.4072 274.8541 0.0000 -40.3337 0.0000
# 4 0.0000 0.0000 0.0000 6.8435 0.0000 -15.9167
# 5 1.5458 5.3224 -40.3337 0.0000 70.1301 0.0000
# 6 0.0000 0.0000 0.0000 -15.9167 0.0000 -12.9546
#
#
#
# Elastic Compliance Matrix: (Units=1/GPa)
#
#
# Indices 1 2 3 4 5 6 
#
# 1 0.007029 -0.002250 -0.002685 0.000000 -0.001529 0.000000
# 2 -0.002250 0.016130 -0.000210 0.000000 -0.001295 0.000000
# 3 -0.002685 -0.000210 0.005074 0.000000 0.002993 0.000000
# 4 0.000000 0.000000 0.000000 0.037879 0.000000 -0.046541
# 5 -0.001529 -0.001295 0.002993 0.000000 0.016113 0.000000
# 6 0.000000 0.000000 0.000000 -0.046541 0.000000 -0.020011
#
#
# Mechanical properties :
#
#
# Convention : Reuss Voigt Hill
#
# Bulk Modulus (GPa) = 55.73496 90.86922 73.30209
# Shear Modulus (GPa) = 63.70540 38.68598 51.19569
#
# Velocity S-wave (km/s) = 4.81386 3.75130 4.31541
# Velocity P-wave (km/s) = 7.15344 7.19842 7.17597
#
# Compressibility (1/GPa) = 0.01794206
#
# Stress axis : x y z
#
# Youngs Moduli (GPa) = 142.25974 61.99652 197.09426
#
# Poissons Ratio (x) = 0.13950 0.52926
# Poissons Ratio (y) = 0.32010 0.04140
# Poissons Ratio (z) = 0.38201 0.01302
#
# Static dielectric constant tensor:
#      x y z
#    x 2.268460 0.000000 -0.014540 
#    y 0.000000 2.013310 0.000000 
#    z -0.014540 0.000000 2.229580 
# 
# From -- ./inp_files/22991.got.cif
#   From: 2010.05.17/outbox.cif.g08.bks.cpg/sg5_12_cif.got.tgz:22991.got - 2010.06.03 18:56:24.
