data_PCOD9124503
_publ_section_title
;
Structure prediction by ZEFSAII (Michael W. Deem and Ramdas Pophale) SiO2 
 PCOD9124503
Probable space group: C 2
;
_chemical_formula_sum "Si O2"
_cell_formula_units_Z 20
_cell_length_a 7.365649
_cell_length_b 21.540086
_cell_length_c 7.210231
_cell_angle_alpha 90.000000
_cell_angle_beta 52.399688
_cell_angle_gamma 90.000000
_cell_volume 906.337165
_symmetry_space_group_name_H-M "C 2"
_symmetry_group_IT_number 5
_symmetry_cell_setting 'monoclinic'
loop_
_space_group_symop_operation_xyz
x,y,z
-x,y,-z
1/2+x,1/2+y,z
1/2-x,1/2+y,-z
loop_
_atom_site_type_symbol
_atom_site_label
_atom_site_fract_x
_atom_site_fract_y
_atom_site_fract_z
Si Si1 0.271369 0.598130 0.517921
Si Si2 0.000000 0.530942 0.000000
Si Si3 0.521263 0.349922 0.264014
Si Si4 0.505628 0.483293 0.271512
Si Si5 0.000000 0.304295 0.000000
Si Si6 0.292606 0.737599 0.485829
O O1 0.500000 0.606048 0.500000
O O2 0.348397 0.543643 0.326081
O O3 0.209965 0.667605 0.497942
O O4 0.082399 0.571788 0.775088
O O5 0.775445 0.494161 0.069992
O O6 0.500000 0.354573 0.500000
O O7 0.427111 0.415848 0.249949
O O8 0.389431 0.285652 0.310659
O O9 0.788815 0.343569 0.050308
O O10 0.500000 0.480379 0.500000
O O11 0.112831 0.264521 0.766216
O O12 0.500000 0.736096 0.500000
#
# Coordination Sequence:
#
# PCOD9124503 Si02
#       6
#     4   2   4   4   2   4
#     4   8  16  28  47  77 104 132 175 218 258 311
#     4   8  13  24  46  72 103 136 170 218 267 302
#     4   9  18  32  52  80 109 139 179 220 261 316
#     4   8  14  26  46  75 105 133 175 219 256 310
#     4  10  21  36  56  78 107 144 176 216 271 312
#     4  10  21  36  55  81 110 139 177 220 262 317
#
# _framework density 22.066845000000001
#
# number of rings (size 3 to 8) (size 9 to 14) (size 15 to 20)
#    0.000    3.600    0.000    0.600    0.000    7.200 
#    0.000    0.000    0.000    6.000    0.000    0.000 
#    0.000    0.000    0.000    0.000    0.000    0.000 
#
# Total GULP energy -55672.655245 kJ/mol
# GULP energy per Si atom -5567.265525 kJ/mol
# Density = 2.201662 g / cm^3
# Si number density = 22.066845 Si / 1000 Ang^3
#
#
#
# Elastic Constant Matrix: (Units=GPa)
#
#
# Indices 1 2 3 4 5 6 
#
# 1 47.5160 29.4058 14.8993 0.0000 -7.2799 0.0000
# 2 29.4058 234.8712 49.0141 0.0000 -32.2553 0.0000
# 3 14.8993 49.0141 100.8677 0.0000 -27.9323 0.0000
# 4 0.0000 0.0000 0.0000 -17.9249 0.0000 -4.3890
# 5 -7.2799 -32.2553 -27.9323 0.0000 33.5079 0.0000
# 6 0.0000 0.0000 0.0000 -4.3890 0.0000 11.6214
#
#
#
# Elastic Compliance Matrix: (Units=1/GPa)
#
#
# Indices 1 2 3 4 5 6 
#
# 1 0.023295 -0.002345 -0.001983 0.000000 0.001151 0.000000
# 2 -0.002345 0.005299 -0.001244 0.000000 0.003554 0.000000
# 3 -0.001983 -0.001244 0.013470 0.000000 0.009600 0.000000
# 4 0.000000 0.000000 0.000000 -0.051066 0.000000 -0.019286
# 5 0.001151 0.003554 0.009600 0.000000 0.041518 0.000000
# 6 0.000000 0.000000 0.000000 -0.019286 0.000000 0.078764
#
#
# Mechanical properties :
#
#
# Convention : Reuss Voigt Hill
#
# Bulk Modulus (GPa) = 32.34153 63.32150 47.83151
# Shear Modulus (GPa) = 37.67054 24.76994 31.22024
#
# Velocity S-wave (km/s) = 4.13620 3.35400 3.76547
# Velocity P-wave (km/s) = 6.12363 6.61489 6.37399
#
# Compressibility (1/GPa) = 0.03092000
#
# Stress axis : x y z
#
# Youngs Moduli (GPa) = 42.92832 188.71557 74.23940
#
# Poissons Ratio (x) = 0.44247 0.14720
# Poissons Ratio (y) = 0.10065 0.09238
# Poissons Ratio (z) = 0.08512 0.23483
#
# Static dielectric constant tensor:
#      x y z
#    x 1.932650 0.000000 0.011170 
#    y 0.000000 1.937640 0.000000 
#    z 0.011170 0.000000 1.791140 
# 
# From -- ./inp_files/2617.got.cif
#   From: 2010.05.17/outbox.cif.g08.bks.cpg/sg5_2_cif.got.tgz:2617.got - 2010.06.03 18:56:24.
