data_PCOD9124805
_publ_section_title
;
Structure prediction by ZEFSAII (Michael W. Deem and Ramdas Pophale) SiO2 
 PCOD9124805
Probable space group: C 2
;
_chemical_formula_sum "Si O2"
_cell_formula_units_Z 22
_cell_length_a 6.413712
_cell_length_b 8.821023
_cell_length_c 15.720998
_cell_angle_alpha 90.000000
_cell_angle_beta 81.492466
_cell_angle_gamma 90.000000
_cell_volume 879.636497
_symmetry_space_group_name_H-M "C 2"
_symmetry_group_IT_number 5
_symmetry_cell_setting 'monoclinic'
loop_
_space_group_symop_operation_xyz
x,y,z
-x,y,-z
1/2+x,1/2+y,z
1/2-x,1/2+y,-z
loop_
_atom_site_type_symbol
_atom_site_label
_atom_site_fract_x
_atom_site_fract_y
_atom_site_fract_z
Si Si1 0.175855 0.549660 0.423477
Si Si2 0.475431 0.954533 0.257691
Si Si3 0.651118 0.260232 0.780344
Si Si4 0.054967 0.855700 0.374644
Si Si5 0.872282 0.930961 0.925870
Si Si6 0.500000 0.728973 0.000000
O O1 0.112562 0.510017 0.330402
O O2 0.161603 0.731298 0.428472
O O3 0.407209 0.484080 0.422705
O O4 0.000000 0.490300 0.500000
O O5 0.607186 0.808335 0.219185
O O6 0.246710 0.919004 0.308087
O O7 0.436780 0.092165 0.194047
O O8 0.601763 0.271987 0.682510
O O9 0.512580 0.385517 0.837110
O O10 0.656081 0.838788 0.939562
O O11 0.872459 0.110114 0.947367
O O12 0.000000 0.868323 0.000000
#
# Coordination Sequence:
#
# PCOD9124805 Si02
#       6
#     4   4   4   4   4   2
#     4  10  23  38  58  90 124 158 214 255 313 374
#     4  10  21  38  63  89 121 166 201 260 312 376
#     4  10  21  40  61  91 124 157 213 252 315 372
#     4  10  22  40  60  91 122 164 207 254 319 371
#     4  10  24  40  64  96 130 171 213 268 316 383
#     4  10  24  40  64  92 134 160 224 252 330 368
#
# _framework density 25.01033
#
# number of rings (size 3 to 8) (size 9 to 14) (size 15 to 20)
#    0.545    1.455    0.000    2.182    3.818    2.909 
#    0.000    0.000    0.000    0.000    0.000    0.000 
#    0.000    0.000    0.000    0.000    0.000    0.000 
#
# Total GULP energy -61438.883181 kJ/mol
# GULP energy per Si atom -5585.353016 kJ/mol
# Density = 2.495341 g / cm^3
# Si number density = 25.010330 Si / 1000 Ang^3
#
#
#
# Elastic Constant Matrix: (Units=GPa)
#
#
# Indices 1 2 3 4 5 6 
#
# 1 136.5307 74.2771 31.5876 0.0000 -22.0157 0.0000
# 2 74.2771 145.7629 29.6445 0.0000 -9.8216 0.0000
# 3 31.5876 29.6445 66.6803 0.0000 -7.7163 0.0000
# 4 0.0000 0.0000 0.0000 36.9849 0.0000 -11.0436
# 5 -22.0157 -9.8216 -7.7163 0.0000 52.6358 0.0000
# 6 0.0000 0.0000 0.0000 -11.0436 0.0000 45.3619
#
#
#
# Elastic Compliance Matrix: (Units=1/GPa)
#
#
# Indices 1 2 3 4 5 6 
#
# 1 0.011166 -0.004911 -0.002718 0.000000 0.003356 0.000000
# 2 -0.004911 0.009748 -0.002069 0.000000 -0.000539 0.000000
# 3 -0.002718 -0.002069 0.017322 0.000000 0.001016 0.000000
# 4 0.000000 0.000000 0.000000 0.029158 0.000000 0.007099
# 5 0.003356 -0.000539 0.001016 0.000000 0.020450 0.000000
# 6 0.000000 0.000000 0.000000 0.007099 0.000000 0.023773
#
#
# Mechanical properties :
#
#
# Convention : Reuss Voigt Hill
#
# Bulk Modulus (GPa) = 53.08153 68.88802 60.98478
# Shear Modulus (GPa) = 36.41835 41.22750 38.82293
#
# Velocity S-wave (km/s) = 3.82007 4.06448 3.94417
# Velocity P-wave (km/s) = 6.38178 7.04487 6.72151
#
# Compressibility (1/GPa) = 0.01883895
#
# Stress axis : x y z
#
# Youngs Moduli (GPa) = 89.55725 102.58935 57.72974
#
# Poissons Ratio (x) = 0.50383 0.15690
# Poissons Ratio (y) = 0.43982 0.11947
# Poissons Ratio (z) = 0.24341 0.21230
#
# Static dielectric constant tensor:
#      x y z
#    x 1.981860 0.000000 0.043470 
#    y 0.000000 2.022390 0.000000 
#    z 0.043470 0.000000 1.978460 
# 
# From -- ./inp_files/63853.got.cif
#   From: 2010.05.17/outbox.cif.g08.bks.cpg/sg5_32_cif.got.tgz:63853.got - 2010.06.03 18:56:24.
