data_PCOD9124395
_publ_section_title
;
Structure prediction by ZEFSAII (Michael W. Deem and Ramdas Pophale) SiO2 
 PCOD9124395
Probable space group: C 2
;
_chemical_formula_sum "Si O2"
_cell_formula_units_Z 18
_cell_length_a 14.922167
_cell_length_b 7.173506
_cell_length_c 20.697031
_cell_angle_alpha 90.000000
_cell_angle_beta 17.909011
_cell_angle_gamma 90.000000
_cell_volume 681.279610
_symmetry_space_group_name_H-M "C 2"
_symmetry_group_IT_number 5
_symmetry_cell_setting 'monoclinic'
loop_
_space_group_symop_operation_xyz
x,y,z
-x,y,-z
1/2+x,1/2+y,z
1/2-x,1/2+y,-z
loop_
_atom_site_type_symbol
_atom_site_label
_atom_site_fract_x
_atom_site_fract_y
_atom_site_fract_z
Si Si1 0.323450 0.926500 0.251674
Si Si2 0.875190 0.026150 0.939103
Si Si3 0.443989 0.049698 0.723677
Si Si4 0.172950 0.297702 0.451131
Si Si5 0.500000 0.878070 0.000000
O O1 0.453576 0.717263 0.166602
O O2 0.369694 0.994257 0.147540
O O3 0.000000 0.910846 0.500000
O O4 0.553968 0.053438 0.130410
O O5 0.776920 0.941985 0.075801
O O6 0.053288 0.915795 0.763460
O O7 0.726282 0.126006 0.570432
O O8 0.510943 0.937054 0.612820
O O9 0.268841 0.239382 0.829861
O O10 0.000000 0.268834 0.500000
#
# Coordination Sequence:
#
# PCOD9124395 Si02
#       5
#     4   4   4   4   2
#     4  11  24  42  74 100 142 196 240 314 384 444
#     4  11  23  47  69 106 148 190 258 311 377 466
#     4  11  26  45  74 107 144 201 253 310 391 462
#     4  12  26  49  74 108 151 197 253 320 384 461
#     4  10  20  46  64 100 134 190 248 296 380 450
#
# _framework density 26.420869
#
# number of rings (size 3 to 8) (size 9 to 14) (size 15 to 20)
#    0.000    0.889    4.444    4.667    6.222    0.889 
#    0.000    0.000    0.000    0.000    0.000    0.000 
#    0.000    0.000    0.000    0.000    0.000    0.000 
#
# Total GULP energy -50237.697037 kJ/mol
# GULP energy per Si atom -5581.966337 kJ/mol
# Density = 2.636073 g / cm^3
# Si number density = 26.420869 Si / 1000 Ang^3
#
#
#
# Elastic Constant Matrix: (Units=GPa)
#
#
# Indices 1 2 3 4 5 6 
#
# 1 175.8082 36.8179 91.9679 0.0169 23.9701 0.0060
# 2 36.8179 78.4196 46.3403 0.0306 17.4360 -0.0026
# 3 91.9679 46.3403 211.5335 0.0092 22.0520 0.0139
# 4 0.0169 0.0306 0.0092 15.3449 0.0121 -5.8966
# 5 23.9701 17.4360 22.0520 0.0121 76.6736 -0.0110
# 6 0.0060 -0.0026 0.0139 -5.8966 -0.0110 39.0835
#
#
#
# Elastic Compliance Matrix: (Units=1/GPa)
#
#
# Indices 1 2 3 4 5 6 
#
# 1 0.007694 -0.001656 -0.002856 -0.000003 -0.001207 -0.000001
# 2 -0.001656 0.015478 -0.002431 -0.000027 -0.002303 -0.000003
# 3 -0.002856 -0.002431 0.006547 0.000004 -0.000437 -0.000002
# 4 -0.000003 -0.000027 0.000004 0.069179 -0.000004 0.010437
# 5 -0.001207 -0.002303 -0.000437 -0.000004 0.014069 0.000004
# 6 -0.000001 -0.000003 -0.000002 0.010437 0.000004 0.027161
#
#
# Mechanical properties :
#
#
# Convention : Reuss Voigt Hill
#
# Bulk Modulus (GPa) = 63.15962 90.66818 76.91390
# Shear Modulus (GPa) = 31.38904 45.59607 38.49256
#
# Velocity S-wave (km/s) = 3.45053 4.15873 3.82108
# Velocity P-wave (km/s) = 6.31126 7.57967 6.97436
#
# Compressibility (1/GPa) = 0.01583290
#
# Stress axis : x y z
#
# Youngs Moduli (GPa) = 129.97894 64.60885 152.73458
#
# Poissons Ratio (x) = 0.10698 0.43626
# Poissons Ratio (y) = 0.21522 0.37125
# Poissons Ratio (z) = 0.37126 0.15705
#
# Static dielectric constant tensor:
#      x y z
#    x 2.339350 0.000000 -0.057780 
#    y 0.000000 2.129370 0.000030 
#    z -0.057780 0.000030 2.078540 
# 
# From -- ./inp_files/42328.got.cif
#   From: 2010.05.17/outbox.cif.g08.bks.cpg/sg5_22_cif.got.tgz:42328.got - 2010.06.03 18:56:24.
