data_PCOD9124003
_publ_section_title
;
Structure prediction by ZEFSAII (Michael W. Deem and Ramdas Pophale) SiO2 
 PCOD9124003
Probable space group: C 2
;
_chemical_formula_sum "Si O2"
_cell_formula_units_Z 20
_cell_length_a 13.256222
_cell_length_b 11.915815
_cell_length_c 5.229946
_cell_angle_alpha 90.000000
_cell_angle_beta 74.923050
_cell_angle_gamma 90.000000
_cell_volume 797.678334
_symmetry_space_group_name_H-M "C 2"
_symmetry_group_IT_number 5
_symmetry_cell_setting 'monoclinic'
loop_
_space_group_symop_operation_xyz
x,y,z
-x,y,-z
1/2+x,1/2+y,z
1/2-x,1/2+y,-z
loop_
_atom_site_type_symbol
_atom_site_label
_atom_site_fract_x
_atom_site_fract_y
_atom_site_fract_z
Si Si1 0.154463 0.850700 0.381452
Si Si2 0.395544 0.523518 0.939784
Si Si3 0.161612 0.714585 0.851739
Si Si4 0.098880 0.252889 0.260077
Si Si5 0.827254 0.463993 0.029827
O O1 0.104598 0.971377 0.346707
O O2 0.276263 0.888836 0.289504
O O3 0.224378 0.988188 0.913733
O O4 0.141859 0.773570 0.136782
O O5 0.399825 0.656644 0.956254
O O6 0.500000 0.479163 0.000000
O O7 0.386636 0.284162 0.349643
O O8 0.135048 0.583739 0.896225
O O9 0.285351 0.726756 0.707653
O O10 0.903714 0.380201 0.836754
O O11 0.000000 0.230963 0.500000
#
# Coordination Sequence:
#
# PCOD9124003 Si02
#       5
#     4   4   4   4   4
#     4   9  21  37  67  97 139 184 229 286 348 419
#     4   9  20  40  67 106 142 182 241 297 354 414
#     4  10  20  41  64 101 139 191 228 279 359 423
#     4  10  21  38  67 111 142 185 235 303 348 423
#     4   8  20  40  64 104 146 184 227 295 360 416
#
# _framework density 25.072762000000001
#
# number of rings (size 3 to 8) (size 9 to 14) (size 15 to 20)
#    1.200    1.600    0.000    0.000    0.000    9.600 
#    0.000    0.000    0.000    9.600    0.000    0.000 
#    0.000    0.000    0.000    0.000    0.000    0.000 
#
# Total GULP energy -55716.633303 kJ/mol
# GULP energy per Si atom -5571.663330 kJ/mol
# Density = 2.501569 g / cm^3
# Si number density = 25.072762 Si / 1000 Ang^3
#
#
#
# Elastic Constant Matrix: (Units=GPa)
#
#
# Indices 1 2 3 4 5 6 
#
# 1 78.3877 -0.9442 9.4728 0.0000 -8.7774 0.0000
# 2 -0.9442 200.4312 56.2923 0.0000 1.2999 0.0000
# 3 9.4728 56.2923 72.0572 0.0000 -0.6150 0.0000
# 4 0.0000 0.0000 0.0000 31.0190 0.0000 -0.7863
# 5 -8.7774 1.2999 -0.6150 0.0000 34.1036 0.0000
# 6 0.0000 0.0000 0.0000 -0.7863 0.0000 14.4740
#
#
#
# Elastic Compliance Matrix: (Units=1/GPa)
#
#
# Indices 1 2 3 4 5 6 
#
# 1 0.013418 0.000677 -0.002264 0.000000 0.003387 0.000000
# 2 0.000677 0.006430 -0.005113 0.000000 -0.000163 0.000000
# 3 -0.002264 -0.005113 0.018170 0.000000 -0.000060 0.000000
# 4 0.000000 0.000000 0.000000 0.032283 0.000000 0.001754
# 5 0.003387 -0.000163 -0.000060 0.000000 0.030199 0.000000
# 6 0.000000 0.000000 0.000000 0.001754 0.000000 0.069185
#
#
# Mechanical properties :
#
#
# Convention : Reuss Voigt Hill
#
# Bulk Modulus (GPa) = 40.62265 53.39089 47.00677
# Shear Modulus (GPa) = 26.13833 34.98967 30.56400
#
# Velocity S-wave (km/s) = 3.23228 3.73973 3.49522
# Velocity P-wave (km/s) = 5.49247 6.32361 5.92264
#
# Compressibility (1/GPa) = 0.02461681
#
# Stress axis : x y z
#
# Youngs Moduli (GPa) = 74.52619 155.53074 55.03699
#
# Poissons Ratio (x) = -0.10531 0.12461
# Poissons Ratio (y) = -0.05046 0.28142
# Poissons Ratio (z) = 0.16873 0.79528
#
# Static dielectric constant tensor:
#      x y z
#    x 2.149360 0.000000 0.036880 
#    y 0.000000 1.985040 0.000000 
#    z 0.036880 0.000000 2.053780 
# 
# From -- ./inp_files/22710.got.cif
#   From: 2010.05.17/outbox.cif.g08.bks.cpg/sg5_12_cif.got.tgz:22710.got - 2010.06.03 18:56:24.
