data_PCOD9124318
_publ_section_title
;
Structure prediction by ZEFSAII (Michael W. Deem and Ramdas Pophale) SiO2 
 PCOD9124318
Probable space group: C 2
;
_chemical_formula_sum "Si O2"
_cell_formula_units_Z 22
_cell_length_a 8.137783
_cell_length_b 10.969961
_cell_length_c 12.286760
_cell_angle_alpha 90.000000
_cell_angle_beta 122.356095
_cell_angle_gamma 90.000000
_cell_volume 926.554001
_symmetry_space_group_name_H-M "C 2"
_symmetry_group_IT_number 5
_symmetry_cell_setting 'monoclinic'
loop_
_space_group_symop_operation_xyz
x,y,z
-x,y,-z
1/2+x,1/2+y,z
1/2-x,1/2+y,-z
loop_
_atom_site_type_symbol
_atom_site_label
_atom_site_fract_x
_atom_site_fract_y
_atom_site_fract_z
Si Si1 0.665948 0.516870 0.482873
Si Si2 0.042482 0.598251 0.259530
Si Si3 0.368068 0.590675 0.765681
Si Si4 0.823590 0.826330 0.806643
Si Si5 0.000000 0.351775 0.500000
Si Si6 0.035911 0.350115 0.887047
O O1 0.500000 0.460704 0.500000
O O2 0.774390 0.613524 0.596537
O O3 0.599048 0.585851 0.351623
O O4 0.827821 0.423551 0.500737
O O5 0.048163 0.708688 0.176736
O O6 0.058774 0.466104 0.208812
O O7 0.854027 0.597277 0.270065
O O8 0.431802 0.454587 0.822368
O O9 0.457115 0.713494 0.842670
O O10 0.634558 0.816377 0.656544
O O11 0.743829 0.838251 0.900666
O O12 0.000000 0.378195 0.000000
#
# Coordination Sequence:
#
# PCOD9124318 Si02
#       6
#     4   4   4   4   2   4
#     4  11  20  38  71 100 143 185 222 280 355 411
#     4  11  23  42  68  99 137 180 229 287 347 404
#     4  10  23  43  65  99 135 179 231 286 338 414
#     4  10  23  42  65  94 136 174 224 288 337 401
#     4  10  20  44  60 100 148 170 232 284 330 424
#     4  11  25  45  66  95 138 183 234 285 338 413
#
# _framework density 23.743895999999999
#
# number of rings (size 3 to 8) (size 9 to 14) (size 15 to 20)
#    0.000    1.455    5.455    1.091    3.818    7.273 
#    0.000    0.909    0.000    0.000    0.000    0.000 
#    0.000    0.000    0.000    0.000    0.000    0.000 
#
# Total GULP energy -61319.030369 kJ/mol
# GULP energy per Si atom -5574.457306 kJ/mol
# Density = 2.368985 g / cm^3
# Si number density = 23.743896 Si / 1000 Ang^3
#
#
#
# Elastic Constant Matrix: (Units=GPa)
#
#
# Indices 1 2 3 4 5 6 
#
# 1 105.0169 44.8820 41.5895 0.0000 -46.4125 0.0000
# 2 44.8820 131.9945 22.7803 0.0000 -15.4231 0.0000
# 3 41.5895 22.7803 107.1700 0.0000 -42.1213 0.0000
# 4 0.0000 0.0000 0.0000 13.5121 0.0000 -93.2626
# 5 -46.4125 -15.4231 -42.1213 0.0000 41.3289 0.0000
# 6 0.0000 0.0000 0.0000 -93.2626 0.0000 -500.2492
#
#
#
# Elastic Compliance Matrix: (Units=1/GPa)
#
#
# Indices 1 2 3 4 5 6 
#
# 1 0.021714 -0.004879 0.002467 0.000000 0.025079 0.000000
# 2 -0.004879 0.009067 -0.001430 0.000000 -0.003553 0.000000
# 3 0.002467 -0.001430 0.015943 0.000000 0.018486 0.000000
# 4 0.000000 0.000000 0.000000 0.032363 0.000000 -0.006034
# 5 0.025079 -0.003553 0.018486 0.000000 0.069873 0.000000
# 6 0.000000 0.000000 0.000000 -0.006034 0.000000 -0.000874
#
#
# Mechanical properties :
#
#
# Convention : Reuss Voigt Hill
#
# Bulk Modulus (GPa) = 25.61513 62.52055 44.06784
# Shear Modulus (GPa) = 29.62382 -73.41967 -21.89792
#
# Velocity S-wave (km/s) = 3.53603 -5.56674 -3.04016
# Velocity P-wave (km/s) = 5.24241 3.86391 2.50530
#
# Compressibility (1/GPa) = 0.03903942
#
# Stress axis : x y z
#
# Youngs Moduli (GPa) = 46.05371 110.29379 62.72342
#
# Poissons Ratio (x) = 0.53810 -0.15475
# Poissons Ratio (y) = 0.22469 0.08972
# Poissons Ratio (z) = -0.11363 0.15777
#
# Static dielectric constant tensor:
#      x y z
#    x 2.405050 0.000000 -0.239080 
#    y 0.000000 1.960640 0.000000 
#    z -0.239080 0.000000 2.133180 
# 
# From -- ./inp_files/35489.got.cif
#   From: 2010.05.17/outbox.cif.g08.bks.cpg/sg5_18_cif.got.tgz:35489.got - 2010.06.03 18:56:24.
