data_PCOD9124171
_publ_section_title
;
Structure prediction by ZEFSAII (Michael W. Deem and Ramdas Pophale) SiO2 
 PCOD9124171
Probable space group: C 2
;
_chemical_formula_sum "Si O2"
_cell_formula_units_Z 30
_cell_length_a 11.079912
_cell_length_b 9.107543
_cell_length_c 13.032426
_cell_angle_alpha 90.000000
_cell_angle_beta 69.290203
_cell_angle_gamma 90.000000
_cell_volume 1230.134360
_symmetry_space_group_name_H-M "C 2"
_symmetry_group_IT_number 5
_symmetry_cell_setting 'monoclinic'
loop_
_space_group_symop_operation_xyz
x,y,z
-x,y,-z
1/2+x,1/2+y,z
1/2-x,1/2+y,-z
loop_
_atom_site_type_symbol
_atom_site_label
_atom_site_fract_x
_atom_site_fract_y
_atom_site_fract_z
Si Si1 0.550586 0.546170 0.260097
Si Si2 0.440907 0.833299 0.286697
Si Si3 0.468007 0.222595 0.792378
Si Si4 0.812103 0.682174 0.106281
Si Si5 0.671836 0.974761 0.092728
Si Si6 0.000000 0.433655 0.500000
Si Si7 0.674149 0.471341 0.414898
Si Si8 0.151932 0.677898 0.543951
O O1 0.436352 0.658521 0.272055
O O2 0.553350 0.396087 0.197646
O O3 0.682017 0.637623 0.205239
O O4 0.556858 0.495050 0.375020
O O5 0.304722 0.914766 0.317085
O O6 0.540446 0.897239 0.173043
O O7 0.492367 0.856876 0.389970
O O8 0.564341 0.189738 0.857882
O O9 0.338313 0.124803 0.835920
O O10 0.545417 0.181617 0.665710
O O11 0.779045 0.847012 0.073088
O O12 0.827146 0.551794 0.018537
O O13 0.881887 0.549719 0.526514
O O14 0.713303 0.626816 0.449957
O O15 0.658089 0.335499 0.494181
#
# Coordination Sequence:
#
# PCOD9124171 Si02
#       8
#     4   4   4   4   4   2   4   4
#     4  11  25  43  69 103 139 184 232 280 343 413
#     4  10  24  42  69 100 143 185 228 288 338 410
#     4  12  24  46  68 101 140 180 229 285 343 407
#     4  11  25  46  75 103 135 182 228 291 347 417
#     4  11  23  47  72 101 135 178 229 288 353 402
#     4  10  20  42  66  96 138 188 228 276 344 400
#     4  11  24  42  63 102 142 187 234 278 339 407
#     4  11  24  40  64  99 140 189 229 282 339 404
#
# _framework density 24.38758
#
# number of rings (size 3 to 8) (size 9 to 14) (size 15 to 20)
#    0.000    1.067    4.000    2.000    5.600    1.067 
#    0.000    5.333    0.000    0.000    0.000    0.000 
#    0.000    0.000    0.000    0.000    0.000    0.000 
#
# Total GULP energy -83796.018535 kJ/mol
# GULP energy per Si atom -5586.401236 kJ/mol
# Density = 2.433207 g / cm^3
# Si number density = 24.387580 Si / 1000 Ang^3
#
#
#
# Elastic Constant Matrix: (Units=GPa)
#
#
# Indices 1 2 3 4 5 6 
#
# 1 48.6895 34.4248 5.4600 0.0000 6.3441 0.0000
# 2 34.4248 187.3695 35.2204 0.0000 14.1741 0.0000
# 3 5.4600 35.2204 87.4218 0.0000 4.8665 0.0000
# 4 0.0000 0.0000 0.0000 44.8775 0.0000 -3.4318
# 5 6.3441 14.1741 4.8665 0.0000 26.4813 0.0000
# 6 0.0000 0.0000 0.0000 -3.4318 0.0000 37.2673
#
#
#
# Elastic Compliance Matrix: (Units=1/GPa)
#
#
# Indices 1 2 3 4 5 6 
#
# 1 0.023928 -0.004202 0.000396 0.000000 -0.003556 0.000000
# 2 -0.004202 0.006708 -0.002320 0.000000 -0.002158 0.000000
# 3 0.000396 -0.002320 0.012412 0.000000 -0.001134 0.000000
# 4 0.000000 0.000000 0.000000 0.022441 0.000000 0.002067
# 5 -0.003556 -0.002158 -0.001134 0.000000 0.039978 0.000000
# 6 0.000000 0.000000 0.000000 0.002067 0.000000 0.027023
#
#
# Mechanical properties :
#
#
# Convention : Reuss Voigt Hill
#
# Bulk Modulus (GPa) = 32.47048 52.63236 42.55142
# Shear Modulus (GPa) = 32.25657 38.28358 35.27008
#
# Velocity S-wave (km/s) = 3.64079 3.96637 3.80706
# Velocity P-wave (km/s) = 5.56930 6.52722 6.06719
#
# Compressibility (1/GPa) = 0.03079721
#
# Stress axis : x y z
#
# Youngs Moduli (GPa) = 41.79212 149.06783 80.56784
#
# Poissons Ratio (x) = 0.62634 -0.03193
# Poissons Ratio (y) = 0.17560 0.18693
# Poissons Ratio (z) = -0.01656 0.34586
#
# Static dielectric constant tensor:
#      x y z
#    x 1.945790 0.000000 -0.018780 
#    y 0.000000 1.983490 0.000000 
#    z -0.018780 0.000000 2.044240 
# 
# From -- ./inp_files/52430.got.cif
#   From: 2010.05.17/outbox.cif.g08.bks.cpg/sg5_27_cif.got.tgz:52430.got - 2010.06.03 18:56:24.
