data_PCOD9124139
_publ_section_title
;
Structure prediction by ZEFSAII (Michael W. Deem and Ramdas Pophale) SiO2 
 PCOD9124139
Probable space group: C 2
;
_chemical_formula_sum "Si O2"
_cell_formula_units_Z 24
_cell_length_a 23.750536
_cell_length_b 7.701180
_cell_length_c 7.429950
_cell_angle_alpha 90.000000
_cell_angle_beta 121.566493
_cell_angle_gamma 90.000000
_cell_volume 1157.905477
_symmetry_space_group_name_H-M "C 2"
_symmetry_group_IT_number 5
_symmetry_cell_setting 'monoclinic'
loop_
_space_group_symop_operation_xyz
x,y,z
-x,y,-z
1/2+x,1/2+y,z
1/2-x,1/2+y,-z
loop_
_atom_site_type_symbol
_atom_site_label
_atom_site_fract_x
_atom_site_fract_y
_atom_site_fract_z
Si Si1 0.246253 0.433130 0.736194
Si Si2 0.453796 0.370441 0.297512
Si Si3 0.388827 0.555791 0.856062
Si Si4 0.175799 0.634020 0.940142
Si Si5 0.442346 0.235773 0.756964
Si Si6 0.645441 0.929753 0.254008
O O1 0.313422 0.532682 0.795626
O O2 0.269369 0.258960 0.877414
O O3 0.208800 0.394821 0.486588
O O4 0.203329 0.542016 0.807964
O O5 0.500000 0.491745 0.500000
O O6 0.434105 0.489848 0.094935
O O7 0.386896 0.258458 0.211823
O O8 0.514698 0.241233 0.349166
O O9 0.404802 0.418080 0.725562
O O10 0.397230 0.755040 0.822094
O O11 0.158408 0.499020 0.072591
O O12 0.391877 0.083895 0.706144
O O13 0.500000 0.215843 0.000000
#
# Coordination Sequence:
#
# PCOD9124139 Si02
#       6
#     4   4   4   4   4   4
#     4  11  23  42  64 101 133 170 215 266 335 389
#     4  10  21  44  65  94 133 176 215 270 333 377
#     4  10  23  40  63  98 128 167 219 270 318 393
#     4  11  23  43  67  95 138 168 216 279 313 401
#     4  10  20  42  65  88 133 170 215 268 317 383
#     4  12  22  42  69  96 128 176 215 269 333 382
#
# _framework density 20.727079
#
# number of rings (size 3 to 8) (size 9 to 14) (size 15 to 20)
#    0.000    1.333    5.000    3.000    0.000    2.000 
#   18.000    0.833    0.000    0.000    0.000    0.000 
#    0.000    0.000    0.000    0.000    0.000    0.000 
#
# Total GULP energy -66868.885116 kJ/mol
# GULP energy per Si atom -5572.407093 kJ/mol
# Density = 2.067990 g / cm^3
# Si number density = 20.727079 Si / 1000 Ang^3
#
#
#
# Elastic Constant Matrix: (Units=GPa)
#
#
# Indices 1 2 3 4 5 6 
#
# 1 105.6971 30.3827 26.6472 0.0000 -9.6932 0.0000
# 2 30.3827 102.0550 16.5971 0.0000 1.2138 0.0000
# 3 26.6472 16.5971 118.6681 0.0000 16.8166 0.0000
# 4 0.0000 0.0000 0.0000 20.2529 0.0000 0.8913
# 5 -9.6932 1.2138 16.8166 0.0000 24.8439 0.0000
# 6 0.0000 0.0000 0.0000 0.8913 0.0000 8.1008
#
#
#
# Elastic Compliance Matrix: (Units=1/GPa)
#
#
# Indices 1 2 3 4 5 6 
#
# 1 0.011783 -0.003070 -0.003196 0.000000 0.006910 0.000000
# 2 -0.003070 0.010833 -0.000642 0.000000 -0.001292 0.000000
# 3 -0.003196 -0.000642 0.010405 0.000000 -0.008258 0.000000
# 4 0.000000 0.000000 0.000000 0.049616 0.000000 -0.005459
# 5 0.006910 -0.001292 -0.008258 0.000000 0.048601 0.000000
# 6 0.000000 0.000000 0.000000 -0.005459 0.000000 0.124046
#
#
# Mechanical properties :
#
#
# Convention : Reuss Voigt Hill
#
# Bulk Modulus (GPa) = 52.07522 52.63047 52.35284
# Shear Modulus (GPa) = 18.14877 27.49238 22.82058
#
# Velocity S-wave (km/s) = 2.96228 3.64593 3.32174
# Velocity P-wave (km/s) = 6.07280 6.57046 6.32653
#
# Compressibility (1/GPa) = 0.01920299
#
# Stress axis : x y z
#
# Youngs Moduli (GPa) = 84.86803 92.31418 96.11106
#
# Poissons Ratio (x) = 0.28344 0.30715
# Poissons Ratio (y) = 0.26058 0.06175
# Poissons Ratio (z) = 0.27122 0.05931
#
# Static dielectric constant tensor:
#      x y z
#    x 1.365190 0.000000 0.764990 
#    y 0.000000 1.748340 0.000000 
#    z 0.764990 0.000000 0.258390 
# 
# From -- ./inp_files/30484.got.cif
#   From: 2010.05.17/outbox.cif.g08.bks.cpg/sg5_16_cif.got.tgz:30484.got - 2010.06.03 18:56:24.
