data_PCOD9124231
_publ_section_title
;
Structure prediction by ZEFSAII (Michael W. Deem and Ramdas Pophale) SiO2 
 PCOD9124231
Probable space group: C 2
;
_chemical_formula_sum "Si O2"
_cell_formula_units_Z 26
_cell_length_a 9.327346
_cell_length_b 16.051866
_cell_length_c 13.142546
_cell_angle_alpha 90.000000
_cell_angle_beta 37.048375
_cell_angle_gamma 90.000000
_cell_volume 1185.529355
_symmetry_space_group_name_H-M "C 2"
_symmetry_group_IT_number 5
_symmetry_cell_setting 'monoclinic'
loop_
_space_group_symop_operation_xyz
x,y,z
-x,y,-z
1/2+x,1/2+y,z
1/2-x,1/2+y,-z
loop_
_atom_site_type_symbol
_atom_site_label
_atom_site_fract_x
_atom_site_fract_y
_atom_site_fract_z
Si Si1 0.035177 0.021090 0.769273
Si Si2 0.283995 0.867053 0.549468
Si Si3 0.332527 0.181719 0.363048
Si Si4 0.072461 0.301748 0.199460
Si Si5 0.170629 0.178233 0.807715
Si Si6 0.820819 0.135553 0.753473
Si Si7 0.000000 0.924579 0.000000
O O1 0.164961 0.108461 0.722720
O O2 0.809705 0.059042 0.837113
O O3 0.125069 0.948779 0.642980
O O4 0.046602 0.978862 0.873350
O O5 0.500000 0.891837 0.500000
O O6 0.191383 0.780278 0.649620
O O7 0.374766 0.838280 0.388319
O O8 0.562586 0.178696 0.302326
O O9 0.350975 0.133376 0.246100
O O10 0.090365 0.147597 0.552755
O O11 0.203453 0.221061 0.171955
O O12 0.935214 0.264225 0.179442
O O13 0.277611 0.370317 0.086078
O O14 0.000000 0.157031 0.000000
#
# Coordination Sequence:
#
# PCOD9124231 Si02
#       7
#     4   4   4   4   4   4   2
#     4  11  24  40  66 100 134 176 225 280 348 397
#     4  11  20  40  68  99 125 174 229 280 334 391
#     4  10  20  42  70  94 128 172 230 281 324 406
#     4  10  23  40  68  96 126 183 225 266 342 405
#     4  11  26  42  65 102 138 177 226 277 345 414
#     4   9  20  41  67  98 122 176 228 271 333 399
#     4  12  22  40  70  96 142 180 222 282 352 408
#
# _framework density 21.931131000000001
#
# number of rings (size 3 to 8) (size 9 to 14) (size 15 to 20)
#    0.000    1.538    5.385    0.000    6.462    4.923 
#    0.000    4.615    3.385    0.000    0.000    0.000 
#    0.000    0.000    0.000    0.000    0.000    0.000 
#
# Total GULP energy -72439.289491 kJ/mol
# GULP energy per Si atom -5572.253038 kJ/mol
# Density = 2.188122 g / cm^3
# Si number density = 21.931131 Si / 1000 Ang^3
#
#
#
# Elastic Constant Matrix: (Units=GPa)
#
#
# Indices 1 2 3 4 5 6 
#
# 1 136.4451 34.4232 24.6642 -0.0109 -5.8169 -0.0085
# 2 34.4232 99.7712 27.9884 -0.0062 5.1854 -0.0143
# 3 24.6642 27.9884 46.1188 -0.0052 -0.0854 -0.0122
# 4 -0.0109 -0.0062 -0.0052 -31.4777 -0.0042 -12.4112
# 5 -5.8169 5.1854 -0.0854 -0.0042 19.0534 -0.0021
# 6 -0.0085 -0.0143 -0.0122 -12.4112 -0.0021 29.2546
#
#
#
# Elastic Compliance Matrix: (Units=1/GPa)
#
#
# Indices 1 2 3 4 5 6 
#
# 1 0.008616 -0.002229 -0.003249 -0.000002 0.003222 -0.000001
# 2 -0.002229 0.012870 -0.006626 -0.000001 -0.004213 0.000002
# 3 -0.003249 -0.006626 0.027444 -0.000004 0.000934 0.000005
# 4 -0.000002 -0.000001 -0.000004 -0.027216 -0.000008 -0.011546
# 5 0.003222 -0.004213 0.000934 -0.000008 0.054619 0.000000
# 6 -0.000001 0.000002 0.000005 -0.011546 0.000000 0.029284
#
#
# Mechanical properties :
#
#
# Convention : Reuss Voigt Hill
#
# Bulk Modulus (GPa) = 40.45120 50.72075 45.58598
# Shear Modulus (GPa) = 36.21486 16.38334 26.29910
#
# Velocity S-wave (km/s) = 4.06803 2.73616 3.46666
# Velocity P-wave (km/s) = 6.36787 5.75844 6.07081
#
# Compressibility (1/GPa) = 0.02472114
#
# Stress axis : x y z
#
# Youngs Moduli (GPa) = 116.06391 77.70238 36.43796
#
# Poissons Ratio (x) = 0.17317 0.11840
# Poissons Ratio (y) = 0.25866 0.24145
# Poissons Ratio (z) = 0.37713 0.51487
#
# Static dielectric constant tensor:
#      x y z
#    x 1.843510 0.000000 -0.000880 
#    y 0.000000 1.816580 0.000000 
#    z -0.000880 0.000000 1.883430 
# 
# From -- ./inp_files/51087.got.cif
#   From: 2010.05.17/outbox.cif.g08.bks.cpg/sg5_26_cif.got.tgz:51087.got - 2010.06.03 18:56:24.
