data_PCOD9124565
_publ_section_title
;
Structure prediction by ZEFSAII (Michael W. Deem and Ramdas Pophale) SiO2 
 PCOD9124565
Probable space group: C 2
;
_chemical_formula_sum "Si O2"
_cell_formula_units_Z 18
_cell_length_a 7.749133
_cell_length_b 18.562258
_cell_length_c 5.535389
_cell_angle_alpha 90.000000
_cell_angle_beta 61.134077
_cell_angle_gamma 90.000000
_cell_volume 697.289472
_symmetry_space_group_name_H-M "C 2"
_symmetry_group_IT_number 5
_symmetry_cell_setting 'monoclinic'
loop_
_space_group_symop_operation_xyz
x,y,z
-x,y,-z
1/2+x,1/2+y,z
1/2-x,1/2+y,-z
loop_
_atom_site_type_symbol
_atom_site_label
_atom_site_fract_x
_atom_site_fract_y
_atom_site_fract_z
Si Si1 0.261901 0.676150 0.196032
Si Si2 0.223042 0.116034 0.317074
Si Si3 0.282883 0.839700 0.266906
Si Si4 0.678748 0.473741 0.060444
Si Si5 0.000000 0.424006 0.500000
O O1 0.197111 0.628691 0.469163
O O2 0.214846 0.758197 0.297359
O O3 0.500000 0.669210 0.000000
O O4 0.188452 0.653745 0.980750
O O5 0.000000 0.146040 0.500000
O O6 0.202358 0.033210 0.251461
O O7 0.155287 0.895733 0.198888
O O8 0.332850 0.873286 0.493124
O O9 0.500000 0.839382 0.000000
O O10 0.500000 0.491258 0.000000
O O11 0.882911 0.470287 0.774656
#
# Coordination Sequence:
#
# PCOD9124565 Si02
#       5
#     4   4   4   4   2
#     4   9  19  35  62  95 135 171 228 279 329 403
#     4  10  21  36  62 102 132 174 225 276 337 401
#     4   9  21  38  64  99 131 179 228 280 338 401
#     4  11  24  41  68 104 137 176 227 282 344 409
#     4  10  24  42  66  98 132 180 228 278 342 396
#
# _framework density 25.814242
#
# number of rings (size 3 to 8) (size 9 to 14) (size 15 to 20)
#    0.000    2.222    0.000    2.000   17.111    0.000 
#    0.000    0.000    0.000    6.667    0.000    0.000 
#    0.000    0.000    0.000    0.000    0.000    0.000 
#
# Total GULP energy -50394.168459 kJ/mol
# GULP energy per Si atom -5599.352051 kJ/mol
# Density = 2.575549 g / cm^3
# Si number density = 25.814242 Si / 1000 Ang^3
#
#
#
# Elastic Constant Matrix: (Units=GPa)
#
#
# Indices 1 2 3 4 5 6 
#
# 1 146.5666 53.8555 62.1976 0.0000 17.5996 0.0000
# 2 53.8555 169.3377 71.1800 0.0000 41.0061 0.0000
# 3 62.1976 71.1800 202.2775 0.0000 25.3498 0.0000
# 4 0.0000 0.0000 0.0000 24.3050 0.0000 10.2377
# 5 17.5996 41.0061 25.3498 0.0000 46.0647 0.0000
# 6 0.0000 0.0000 0.0000 10.2377 0.0000 9.4168
#
#
#
# Elastic Compliance Matrix: (Units=1/GPa)
#
#
# Indices 1 2 3 4 5 6 
#
# 1 0.008323 -0.001704 -0.001881 0.000000 -0.000628 0.000000
# 2 -0.001704 0.008663 -0.001761 0.000000 -0.006091 0.000000
# 3 -0.001881 -0.001761 0.006289 0.000000 -0.001175 0.000000
# 4 0.000000 0.000000 0.000000 0.075902 0.000000 -0.082519
# 5 -0.000628 -0.006091 -0.001175 0.000000 0.028017 0.000000
# 6 0.000000 0.000000 0.000000 -0.082519 0.000000 0.195906
#
#
# Mechanical properties :
#
#
# Convention : Reuss Voigt Hill
#
# Bulk Modulus (GPa) = 79.47773 99.18312 89.33042
# Shear Modulus (GPa) = 14.79357 38.02053 26.40705
#
# Velocity S-wave (km/s) = 2.39650 3.84194 3.20185
# Velocity P-wave (km/s) = 6.20587 7.62797 6.95337
#
# Compressibility (1/GPa) = 0.01258214
#
# Stress axis : x y z
#
# Youngs Moduli (GPa) = 120.15545 115.43895 159.01161
#
# Poissons Ratio (x) = 0.19675 0.29905
# Poissons Ratio (y) = 0.20479 0.28000
# Poissons Ratio (z) = 0.22597 0.20327
#
# Static dielectric constant tensor:
#      x y z
#    x 2.092410 0.000000 -0.016990 
#    y 0.000000 1.982350 0.000000 
#    z -0.016990 0.000000 2.034650 
# 
# From -- ./inp_files/2294.got.cif
#   From: 2010.05.17/outbox.cif.g08.bks.cpg/sg5_2_cif.got.tgz:2294.got - 2010.06.03 18:56:24.
