data_PCOD9124058
_publ_section_title
;
Structure prediction by ZEFSAII (Michael W. Deem and Ramdas Pophale) SiO2 
 PCOD9124058
Probable space group: C 2
;
_chemical_formula_sum "Si O2"
_cell_formula_units_Z 26
_cell_length_a 8.907683
_cell_length_b 19.944232
_cell_length_c 14.417618
_cell_angle_alpha 90.000000
_cell_angle_beta 26.919136
_cell_angle_gamma 90.000000
_cell_volume 1159.624248
_symmetry_space_group_name_H-M "C 2"
_symmetry_group_IT_number 5
_symmetry_cell_setting 'monoclinic'
loop_
_space_group_symop_operation_xyz
x,y,z
-x,y,-z
1/2+x,1/2+y,z
1/2-x,1/2+y,-z
loop_
_atom_site_type_symbol
_atom_site_label
_atom_site_fract_x
_atom_site_fract_y
_atom_site_fract_z
Si Si1 0.119978 0.760330 0.706012
Si Si2 0.000000 0.694617 0.500000
Si Si3 0.804448 0.299734 0.207441
Si Si4 0.362558 0.378427 0.973126
Si Si5 0.013914 0.612946 0.172128
Si Si6 0.347708 0.508860 0.862964
Si Si7 0.696567 0.587463 0.529790
O O1 0.500000 0.740873 0.500000
O O2 0.929109 0.690047 0.830372
O O3 0.055377 0.796590 0.642418
O O4 0.033085 0.813575 0.832779
O O5 0.275863 0.740514 0.297725
O O6 0.156563 0.647937 0.492034
O O7 0.000000 0.292900 0.000000
O O8 0.971840 0.361097 0.169277
O O9 0.430825 0.445224 0.878336
O O10 0.500000 0.385074 0.000000
O O11 0.932580 0.574479 0.312558
O O12 0.669313 0.608353 0.304738
O O13 0.285671 0.574505 0.961716
O O14 0.629876 0.525369 0.633423
O O15 0.000000 0.496698 0.000000
#
# Coordination Sequence:
#
# PCOD9124058 Si02
#       7
#     4   2   4   4   4   4   4
#     4  11  21  43  72  99 140 169 220 284 341 400
#     4  12  22  36  64 102 130 166 218 274 342 392
#     4  10  24  42  64  95 136 177 215 278 332 395
#     4  11  27  45  66  96 137 186 232 275 338 402
#     4  10  20  41  68  98 129 170 218 279 335 397
#     4  10  23  45  67  91 133 182 222 272 338 404
#     4  10  22  37  65  98 130 168 218 272 335 394
#
# _framework density 22.421056
#
# number of rings (size 3 to 8) (size 9 to 14) (size 15 to 20)
#    0.000    1.538    3.077    1.385    8.615    1.846 
#    4.154    3.077    0.000    0.000    0.000    0.000 
#    0.000    0.000    0.000    0.000    0.000    0.000 
#
# Total GULP energy -72556.816038 kJ/mol
# GULP energy per Si atom -5581.293541 kJ/mol
# Density = 2.237002 g / cm^3
# Si number density = 22.421056 Si / 1000 Ang^3
#
#
#
# Elastic Constant Matrix: (Units=GPa)
#
#
# Indices 1 2 3 4 5 6 
#
# 1 143.3103 56.5982 23.9606 -0.0418 27.4722 0.0082
# 2 56.5982 114.0296 20.4520 0.0161 16.2534 0.0005
# 3 23.9606 20.4520 44.3317 -0.1050 16.2360 0.0852
# 4 -0.0418 0.0161 -0.1050 30.2787 0.0701 12.1321
# 5 27.4722 16.2534 16.2360 0.0701 24.1320 -0.0276
# 6 0.0082 0.0005 0.0852 12.1321 -0.0276 35.2507
#
#
#
# Elastic Compliance Matrix: (Units=1/GPa)
#
#
# Indices 1 2 3 4 5 6 
#
# 1 0.010221 -0.003720 -0.000616 0.000043 -0.008716 -0.000023
# 2 -0.003720 0.011317 -0.002614 -0.000022 -0.001628 0.000013
# 3 -0.000616 -0.002614 0.030780 0.000215 -0.018248 -0.000162
# 4 0.000043 -0.000022 0.000215 0.038312 -0.000305 -0.013186
# 5 -0.008716 -0.001628 -0.018248 -0.000305 0.064736 0.000202
# 6 -0.000023 0.000013 -0.000162 -0.013186 0.000202 0.032907
#
#
# Mechanical properties :
#
#
# Convention : Reuss Voigt Hill
#
# Bulk Modulus (GPa) = 26.02962 55.96591 40.99777
# Shear Modulus (GPa) = 23.25815 31.30967 27.28391
#
# Velocity S-wave (km/s) = 3.22426 3.74095 3.49218
# Velocity P-wave (km/s) = 5.04934 6.60872 5.88094
#
# Compressibility (1/GPa) = 0.03841777
#
# Stress axis : x y z
#
# Youngs Moduli (GPa) = 97.83858 88.36130 32.48881
#
# Poissons Ratio (x) = 0.32874 0.02000
# Poissons Ratio (y) = 0.36400 0.08493
# Poissons Ratio (z) = 0.06024 0.23098
#
# Static dielectric constant tensor:
#      x y z
#    x 1.907420 0.000010 -0.071390 
#    y 0.000010 1.786170 0.000070 
#    z -0.071390 0.000070 1.939770 
# 
# From -- ./inp_files/51525.got.cif
#   From: 2010.05.17/outbox.cif.g08.bks.cpg/sg5_26_cif.got.tgz:51525.got - 2010.06.03 18:56:24.
