data_PCOD9124091
_publ_section_title
;
Structure prediction by ZEFSAII (Michael W. Deem and Ramdas Pophale) SiO2 
 PCOD9124091
Probable space group: C 2
;
_chemical_formula_sum "Si O2"
_cell_formula_units_Z 30
_cell_length_a 14.553638
_cell_length_b 5.064105
_cell_length_c 21.941509
_cell_angle_alpha 90.000000
_cell_angle_beta 121.781999
_cell_angle_gamma 90.000000
_cell_volume 1374.641427
_symmetry_space_group_name_H-M "C 2"
_symmetry_group_IT_number 5
_symmetry_cell_setting 'monoclinic'
loop_
_space_group_symop_operation_xyz
x,y,z
-x,y,-z
1/2+x,1/2+y,z
1/2-x,1/2+y,-z
loop_
_atom_site_type_symbol
_atom_site_label
_atom_site_fract_x
_atom_site_fract_y
_atom_site_fract_z
Si Si1 0.500000 0.601080 0.000000
Si Si2 0.824391 0.037556 0.032951
Si Si3 0.805381 0.654569 0.444287
Si Si4 0.838188 0.236575 0.168213
Si Si5 0.090154 0.312823 0.680272
Si Si6 0.610021 0.654982 0.472328
Si Si7 0.690567 0.740195 0.147326
Si Si8 0.775482 0.811074 0.299814
O O1 0.416686 0.458054 0.016704
O O2 0.578338 0.758196 0.072867
O O3 0.873007 0.163488 0.112007
O O4 0.749627 0.279377 0.982208
O O5 0.709678 0.650587 0.459946
O O6 0.861852 0.370985 0.466528
O O7 0.756335 0.740882 0.362931
O O8 0.891176 0.871032 0.496958
O O9 0.925768 0.266670 0.252703
O O10 0.759956 0.490295 0.147572
O O11 0.762400 0.992849 0.159075
O O12 0.125238 0.615728 0.683703
O O13 0.991665 0.236413 0.603118
O O14 0.187331 0.113421 0.695297
O O15 0.684295 0.733995 0.218707
#
# Coordination Sequence:
#
# PCOD9124091 Si02
#       8
#     2   4   4   4   4   4   4   4
#     4  12  24  40  70  94 120 172 210 252 320 390
#     4  12  24  41  64  93 126 162 206 263 307 372
#     4  10  21  36  55  77 120 145 192 245 290 336
#     4  10  20  42  57  84 126 157 188 262 302 355
#     4  10  21  35  60  82 114 153 194 232 303 347
#     4  10  21  36  54  83 108 158 190 236 292 357
#     4  10  22  38  61  87 119 155 205 242 314 366
#     4  10  21  37  56  85 115 151 187 255 283 346
#
# _framework density 21.823874
#
# number of rings (size 3 to 8) (size 9 to 14) (size 15 to 20)
#    0.000    1.600    2.667    1.600    0.000    6.400 
#    0.000    0.000    0.000   12.800    0.000    0.000 
#    0.000    0.000    0.000    0.000    0.000    0.000 
#
# Total GULP energy -83742.824272 kJ/mol
# GULP energy per Si atom -5582.854951 kJ/mol
# Density = 2.177420 g / cm^3
# Si number density = 21.823874 Si / 1000 Ang^3
#
#
#
# Elastic Constant Matrix: (Units=GPa)
#
#
# Indices 1 2 3 4 5 6 
#
# 1 66.6303 8.7558 24.6846 0.0000 -11.5548 0.0000
# 2 8.7558 93.1598 -1.5908 0.0001 -0.9662 0.0000
# 3 24.6846 -1.5908 137.9942 0.0000 -9.4040 0.0000
# 4 0.0000 0.0001 0.0000 27.0971 0.0000 -6.8209
# 5 -11.5548 -0.9662 -9.4040 0.0000 44.8074 0.0000
# 6 0.0000 0.0000 0.0000 -6.8209 0.0000 14.1566
#
#
#
# Elastic Compliance Matrix: (Units=1/GPa)
#
#
# Indices 1 2 3 4 5 6 
#
# 1 0.016899 -0.001597 -0.002787 0.000000 0.003739 0.000000
# 2 -0.001597 0.010890 0.000405 0.000000 -0.000092 0.000000
# 3 -0.002787 0.000405 0.007813 0.000000 0.000930 0.000000
# 4 0.000000 0.000000 0.000000 0.041998 0.000000 0.020235
# 5 0.003739 -0.000092 0.000930 0.000000 0.023475 0.000000
# 6 0.000000 0.000000 0.000000 0.020235 0.000000 0.080388
#
#
# Mechanical properties :
#
#
# Convention : Reuss Voigt Hill
#
# Bulk Modulus (GPa) = 36.17294 40.16482 38.16888
# Shear Modulus (GPa) = 25.17171 34.94119 30.05645
#
# Velocity S-wave (km/s) = 3.39986 4.00566 3.71513
# Velocity P-wave (km/s) = 5.65889 6.31172 5.99420
#
# Compressibility (1/GPa) = 0.02764497
#
# Stress axis : x y z
#
# Youngs Moduli (GPa) = 59.17610 91.82472 127.98883
#
# Poissons Ratio (x) = 0.14665 0.35664
# Poissons Ratio (y) = 0.09451 -0.05183
# Poissons Ratio (z) = 0.16489 -0.03719
#
# Static dielectric constant tensor:
#      x y z
#    x 1.786480 0.000000 -0.045860 
#    y 0.000000 1.749560 0.000000 
#    z -0.045860 0.000000 1.856480 
# 
# From -- ./inp_files/65702.got.cif
#   From: 2010.05.17/outbox.cif.g08.bks.cpg/sg5_33_cif.got.tgz:65702.got - 2010.06.03 18:56:24.
