data_PCOD9124167
_publ_section_title
;
Structure prediction by ZEFSAII (Michael W. Deem and Ramdas Pophale) SiO2 
 PCOD9124167
Probable space group: C 2
;
_chemical_formula_sum "Si O2"
_cell_formula_units_Z 20
_cell_length_a 7.928539
_cell_length_b 22.523338
_cell_length_c 8.019707
_cell_angle_alpha 90.000000
_cell_angle_beta 37.016423
_cell_angle_gamma 90.000000
_cell_volume 862.209084
_symmetry_space_group_name_H-M "C 2"
_symmetry_group_IT_number 5
_symmetry_cell_setting 'monoclinic'
loop_
_space_group_symop_operation_xyz
x,y,z
-x,y,-z
1/2+x,1/2+y,z
1/2-x,1/2+y,-z
loop_
_atom_site_type_symbol
_atom_site_label
_atom_site_fract_x
_atom_site_fract_y
_atom_site_fract_z
Si Si1 0.749224 0.810550 0.557914
Si Si2 0.746756 0.639842 0.035756
Si Si3 0.184590 0.441563 0.686561
Si Si4 0.500000 0.730690 0.500000
Si Si5 0.000000 0.225745 0.000000
Si Si6 0.681098 0.067412 0.522960
O O1 0.657566 0.878529 0.614150
O O2 0.739016 0.773811 0.393880
O O3 0.524453 0.771119 0.831043
O O4 0.000000 0.808482 0.500000
O O5 0.659858 0.686389 0.246826
O O6 0.495132 0.591068 0.242214
O O7 0.736043 0.680089 0.874400
O O8 0.036878 0.605149 0.785654
O O9 0.500000 0.444512 0.500000
O O10 0.149035 0.499172 0.601865
O O11 0.000000 0.441583 0.000000
O O12 0.500000 0.075244 0.500000
#
# Coordination Sequence:
#
# PCOD9124167 Si02
#       6
#     4   4   4   2   2   4
#     4  10  23  46  71  98 141 186 230 293 352 409
#     4  11  25  42  68 104 139 180 233 286 352 421
#     4  11  25  46  71  99 137 184 235 290 346 412
#     4  10  26  44  72 110 138 186 236 288 348 442
#     4  10  20  42  66  94 136 182 224 278 358 412
#     4  12  25  45  70 100 140 186 230 292 353 413
#
# _framework density 23.196228999999999
#
# number of rings (size 3 to 8) (size 9 to 14) (size 15 to 20)
#    0.000    1.200    3.000    1.200   11.200    0.000 
#    3.600    0.000    0.000    0.000    0.000    0.000 
#    0.000    0.000    0.000    0.000    0.000    0.000 
#
# Total GULP energy -55762.553275 kJ/mol
# GULP energy per Si atom -5576.255328 kJ/mol
# Density = 2.314343 g / cm^3
# Si number density = 23.196229 Si / 1000 Ang^3
#
#
#
# Elastic Constant Matrix: (Units=GPa)
#
#
# Indices 1 2 3 4 5 6 
#
# 1 77.4840 57.4731 17.7088 0.0000 3.9878 0.0000
# 2 57.4731 204.8952 21.6083 0.0000 10.5009 0.0000
# 3 17.7088 21.6083 76.1156 0.0000 -9.8913 0.0000
# 4 0.0000 0.0000 0.0000 35.8057 0.0000 14.3363
# 5 3.9878 10.5009 -9.8913 0.0000 33.7117 0.0000
# 6 0.0000 0.0000 0.0000 14.3363 0.0000 58.6062
#
#
#
# Elastic Compliance Matrix: (Units=1/GPa)
#
#
# Indices 1 2 3 4 5 6 
#
# 1 0.016869 -0.004352 -0.002882 0.000000 -0.001486 0.000000
# 2 -0.004352 0.006296 -0.001001 0.000000 -0.001740 0.000000
# 3 -0.002882 -0.001001 0.014740 0.000000 0.004977 0.000000
# 4 0.000000 0.000000 0.000000 0.030961 0.000000 -0.007574
# 5 -0.001486 -0.001740 0.004977 0.000000 0.031841 0.000000
# 6 0.000000 0.000000 0.000000 -0.007574 0.000000 0.018916
#
#
# Mechanical properties :
#
#
# Convention : Reuss Voigt Hill
#
# Bulk Modulus (GPa) = 46.65412 61.34169 53.99790
# Shear Modulus (GPa) = 34.90714 43.07169 38.98942
#
# Velocity S-wave (km/s) = 3.88346 4.31378 4.10427
# Velocity P-wave (km/s) = 6.34546 7.16336 6.76678
#
# Compressibility (1/GPa) = 0.02143433
#
# Stress axis : x y z
#
# Youngs Moduli (GPa) = 59.28082 158.83312 67.84489
#
# Poissons Ratio (x) = 0.69118 0.19555
# Poissons Ratio (y) = 0.25797 0.06791
# Poissons Ratio (z) = 0.17087 0.15900
#
# Static dielectric constant tensor:
#      x y z
#    x 1.859770 0.000000 -0.024470 
#    y 0.000000 1.882430 0.000000 
#    z -0.024470 0.000000 1.863670 
# 
# From -- ./inp_files/16660.got.cif
#   From: 2010.05.17/outbox.cif.g08.bks.cpg/sg5_9_cif.got.tgz:16660.got - 2010.06.03 18:56:24.
