data_PCOD9124520
_publ_section_title
;
Structure prediction by ZEFSAII (Michael W. Deem and Ramdas Pophale) SiO2 
 PCOD9124520
Probable space group: C 2
;
_chemical_formula_sum "Si O2"
_cell_formula_units_Z 32
_cell_length_a 27.632945
_cell_length_b 7.651952
_cell_length_c 8.111356
_cell_angle_alpha 90.000000
_cell_angle_beta 132.688820
_cell_angle_gamma 90.000000
_cell_volume 1260.688897
_symmetry_space_group_name_H-M "C 2"
_symmetry_group_IT_number 5
_symmetry_cell_setting 'monoclinic'
loop_
_space_group_symop_operation_xyz
x,y,z
-x,y,-z
1/2+x,1/2+y,z
1/2-x,1/2+y,-z
loop_
_atom_site_type_symbol
_atom_site_label
_atom_site_fract_x
_atom_site_fract_y
_atom_site_fract_z
Si Si1 0.158299 0.446740 0.377269
Si Si2 0.534159 0.492732 0.401434
Si Si3 0.406957 0.066900 0.102075
Si Si4 0.964639 0.611990 0.736527
Si Si5 0.779779 0.029390 0.839538
Si Si6 0.158284 0.059535 0.506161
Si Si7 0.282463 0.129555 0.975283
Si Si8 0.095179 0.963057 0.037606
O O1 0.133200 0.480101 0.137863
O O2 0.228234 0.536398 0.571259
O O3 0.163787 0.244339 0.429275
O O4 0.102842 0.520322 0.372674
O O5 0.500000 0.514467 0.500000
O O6 0.548339 0.289131 0.394011
O O7 0.604297 0.578434 0.527190
O O8 0.477139 0.545284 0.138813
O O9 0.356927 0.057037 0.138746
O O10 0.411551 0.273421 0.063570
O O11 0.482417 0.007804 0.254794
O O12 0.000000 0.642903 0.000000
O O13 0.782358 0.826398 0.904662
O O14 0.852727 0.071121 0.949473
O O15 0.748414 0.132809 0.916251
O O16 0.229639 0.020393 0.744493
O O17 0.126036 0.938598 0.290072
#
# Coordination Sequence:
#
# PCOD9124520 Si02
#       8
#     4   4   4   4   4   4   4   4
#     4  10  21  36  57  85 113 142 182 230 280 326
#     4  11  22  37  58  83 111 146 186 225 270 325
#     4   9  19  37  57  81 108 144 191 231 262 320
#     4   9  19  37  59  82 108 145 193 230 263 320
#     4  10  22  38  56  83 113 146 184 227 277 328
#     4  11  22  37  57  84 114 144 180 228 280 328
#     4  10  22  38  56  81 114 145 183 229 277 328
#     4  10  21  38  60  81 107 146 193 228 263 323
#
# _framework density 25.382943999999998
#
# number of rings (size 3 to 8) (size 9 to 14) (size 15 to 20)
#    0.000    2.000    0.000    4.125    0.000    9.000 
#    0.000    3.125    0.000    0.000    0.000    0.000 
#    0.000    0.000    0.000    0.000    0.000    0.000 
#
# Total GULP energy -89492.841981 kJ/mol
# GULP energy per Si atom -5593.302624 kJ/mol
# Density = 2.532517 g / cm^3
# Si number density = 25.382944 Si / 1000 Ang^3
#
#
#
# Elastic Constant Matrix: (Units=GPa)
#
#
# Indices 1 2 3 4 5 6 
#
# 1 164.1360 9.5092 13.3776 0.0000 15.1811 0.0000
# 2 9.5092 16.8858 14.9187 0.0000 9.0496 0.0000
# 3 13.3776 14.9187 45.4499 0.0000 3.7171 0.0000
# 4 0.0000 0.0000 0.0000 23.2551 0.0000 -2.0013
# 5 15.1811 9.0496 3.7171 0.0000 47.0494 0.0000
# 6 0.0000 0.0000 0.0000 -2.0013 0.0000 27.9184
#
#
#
# Elastic Compliance Matrix: (Units=1/GPa)
#
#
# Indices 1 2 3 4 5 6 
#
# 1 0.006442 -0.001664 -0.001214 0.000000 -0.001662 0.000000
# 2 -0.001664 0.094085 -0.029145 0.000000 -0.015257 0.000000
# 3 -0.001214 -0.029145 0.031640 0.000000 0.003498 0.000000
# 4 0.000000 0.000000 0.000000 0.043268 0.000000 0.003102
# 5 -0.001662 -0.015257 0.003498 0.000000 0.024449 0.000000
# 6 0.000000 0.000000 0.000000 0.003102 0.000000 0.036041
#
#
# Mechanical properties :
#
#
# Convention : Reuss Voigt Hill
#
# Bulk Modulus (GPa) = 14.67993 33.56474 24.12233
# Shear Modulus (GPa) = 15.49535 32.22233 23.85884
#
# Velocity S-wave (km/s) = 2.47344 3.56680 3.06920
# Velocity P-wave (km/s) = 3.73539 5.49680 4.69936
#
# Compressibility (1/GPa) = 0.06812024
#
# Stress axis : x y z
#
# Youngs Moduli (GPa) = 155.24051 10.62872 31.60543
#
# Poissons Ratio (x) = 0.01769 0.03836
# Poissons Ratio (y) = 0.25836 0.92114
# Poissons Ratio (z) = 0.18843 0.30978
#
# Static dielectric constant tensor:
#      x y z
#    x 2.037310 0.000000 -0.007620 
#    y 0.000000 2.012860 0.000000 
#    z -0.007620 0.000000 2.054740 
# 
# From -- ./inp_files/31645.got.cif
#   From: 2010.05.17/outbox.cif.g08.bks.cpg/sg5_16_cif.got.tgz:31645.got - 2010.06.03 18:56:24.
