data_PCOD9124695
_publ_section_title
;
Structure prediction by ZEFSAII (Michael W. Deem and Ramdas Pophale) SiO2 
 PCOD9124695
Probable space group: C 2
;
_chemical_formula_sum "Si O2"
_cell_formula_units_Z 28
_cell_length_a 9.062151
_cell_length_b 17.844530
_cell_length_c 14.979177
_cell_angle_alpha 90.000000
_cell_angle_beta 148.274468
_cell_angle_gamma 90.000000
_cell_volume 1273.757770
_symmetry_space_group_name_H-M "C 2"
_symmetry_group_IT_number 5
_symmetry_cell_setting 'monoclinic'
loop_
_space_group_symop_operation_xyz
x,y,z
-x,y,-z
1/2+x,1/2+y,z
1/2-x,1/2+y,-z
loop_
_atom_site_type_symbol
_atom_site_label
_atom_site_fract_x
_atom_site_fract_y
_atom_site_fract_z
Si Si1 0.434699 0.514680 0.167609
Si Si2 0.656205 0.271317 0.493182
Si Si3 0.979559 0.614473 0.143122
Si Si4 0.889203 0.613341 0.296108
Si Si5 0.969772 0.032594 0.576647
Si Si6 0.189079 0.867863 0.333587
Si Si7 0.816188 0.760253 0.831096
O O1 0.660988 0.573660 0.242397
O O2 0.440868 0.510018 0.278137
O O3 0.502656 0.428312 0.185158
O O4 0.153532 0.545626 0.978902
O O5 0.500000 0.300059 0.500000
O O6 0.501415 0.193411 0.387553
O O7 0.626503 0.332410 0.398338
O O8 0.985180 0.252773 0.683556
O O9 0.821305 0.623230 0.155749
O O10 0.307711 0.598830 0.329382
O O11 0.990611 0.687372 0.088002
O O12 0.152286 0.557145 0.427520
O O13 0.000000 0.985497 0.500000
O O14 0.500000 0.903179 0.500000
O O15 0.201464 0.797992 0.274311
O O16 0.000000 0.803179 0.000000
#
# Coordination Sequence:
#
# PCOD9124695 Si02
#       7
#     4   4   4   4   4   4   4
#     4  12  24  42  65 102 138 181 230 295 349 410
#     4  11  23  43  72 106 134 184 241 294 340 423
#     4  11  23  40  65  98 135 177 226 288 350 409
#     4  11  22  39  67 100 133 172 238 290 339 409
#     4  10  21  37  64  93 129 175 226 273 340 410
#     4  10  24  46  70  95 145 191 232 279 362 431
#     4  11  23  43  69 100 138 184 230 287 362 416
#
# _framework density 21.982202999999998
#
# number of rings (size 3 to 8) (size 9 to 14) (size 15 to 20)
#    0.000    1.143    2.857    3.857    2.000    1.714 
#    0.000    6.429    0.000    0.000    0.000    0.000 
#    0.000    0.000    0.000    0.000    0.000    0.000 
#
# Total GULP energy -78017.518941 kJ/mol
# GULP energy per Si atom -5572.679924 kJ/mol
# Density = 2.193217 g / cm^3
# Si number density = 21.982203 Si / 1000 Ang^3
#
#
#
# Elastic Constant Matrix: (Units=GPa)
#
#
# Indices 1 2 3 4 5 6 
#
# 1 145.1901 30.7841 45.2297 -0.0436 -10.8466 -0.0262
# 2 30.7841 67.6894 18.2656 -0.1135 7.0046 -0.0663
# 3 45.2297 18.2656 92.4084 -0.1281 -2.7471 -0.0758
# 4 -0.0436 -0.1135 -0.1281 75.4940 0.0501 21.6172
# 5 -10.8466 7.0046 -2.7471 0.0501 42.7572 0.0267
# 6 -0.0262 -0.0663 -0.0758 21.6172 0.0267 28.6119
#
#
#
# Elastic Compliance Matrix: (Units=1/GPa)
#
#
# Indices 1 2 3 4 5 6 
#
# 1 0.008919 -0.003344 -0.003628 -0.000006 0.002577 -0.000007
# 2 -0.003344 0.017192 -0.001874 0.000017 -0.003785 0.000023
# 3 -0.003628 -0.001874 0.012974 0.000012 0.000220 0.000017
# 4 -0.000006 0.000017 0.000012 0.016903 -0.000015 -0.012771
# 5 0.002577 -0.003785 0.000220 -0.000015 0.024676 -0.000017
# 6 -0.000007 0.000023 0.000017 -0.012771 -0.000017 0.044599
#
#
# Mechanical properties :
#
#
# Convention : Reuss Voigt Hill
#
# Bulk Modulus (GPa) = 46.74358 54.87185 50.80772
# Shear Modulus (GPa) = 33.31420 43.43985 38.37703
#
# Velocity S-wave (km/s) = 3.89718 4.45020 4.18284
# Velocity P-wave (km/s) = 6.44679 7.17090 6.81846
#
# Compressibility (1/GPa) = 0.02139331
#
# Stress axis : x y z
#
# Youngs Moduli (GPa) = 112.11650 58.16793 77.07597
#
# Poissons Ratio (x) = 0.19452 0.27963
# Poissons Ratio (y) = 0.37493 0.14443
# Poissons Ratio (z) = 0.40676 0.10900
#
# Static dielectric constant tensor:
#      x y z
#    x 1.903650 -0.000010 -0.020510 
#    y -0.000010 1.892210 -0.000010 
#    z -0.020510 -0.000010 1.866800 
# 
# From -- ./inp_files/51614.got.cif
#   From: 2010.05.17/outbox.cif.g08.bks.cpg/sg5_26_cif.got.tgz:51614.got - 2010.06.03 18:56:24.
