data_PCOD9124655
_publ_section_title
;
Structure prediction by ZEFSAII (Michael W. Deem and Ramdas Pophale) SiO2 
 PCOD9124655
Probable space group: C 2
;
_chemical_formula_sum "Si O2"
_cell_formula_units_Z 30
_cell_length_a 24.192448
_cell_length_b 6.475258
_cell_length_c 9.868942
_cell_angle_alpha 90.000000
_cell_angle_beta 59.856265
_cell_angle_gamma 90.000000
_cell_volume 1336.925722
_symmetry_space_group_name_H-M "C 2"
_symmetry_group_IT_number 5
_symmetry_cell_setting 'monoclinic'
loop_
_space_group_symop_operation_xyz
x,y,z
-x,y,-z
1/2+x,1/2+y,z
1/2-x,1/2+y,-z
loop_
_atom_site_type_symbol
_atom_site_label
_atom_site_fract_x
_atom_site_fract_y
_atom_site_fract_z
Si Si1 0.460626 0.744420 0.886031
Si Si2 0.948763 0.899667 0.282481
Si Si3 0.337414 0.719203 0.487025
Si Si4 0.824553 0.257761 0.933959
Si Si5 0.277755 0.440950 0.759622
Si Si6 0.416828 0.961732 0.216984
Si Si7 0.135114 0.558041 0.321411
Si Si8 0.000000 0.721485 0.500000
O O1 0.494479 0.523325 0.861105
O O2 0.398686 0.710342 0.871238
O O3 0.522551 0.879773 0.765596
O O4 0.433615 0.864083 0.051108
O O5 0.924015 0.704608 0.227724
O O6 0.976415 0.844137 0.396755
O O7 0.888608 0.047185 0.381809
O O8 0.278776 0.594194 0.627862
O O9 0.347752 0.875865 0.348421
O O10 0.359407 0.873586 0.578683
O O11 0.826915 0.476994 0.854388
O O12 0.797443 0.084412 0.864917
O O13 0.783283 0.306251 0.118664
O O14 0.332789 0.269460 0.669000
O O15 0.061581 0.593245 0.379862
#
# Coordination Sequence:
#
# PCOD9124655 Si02
#       8
#     4   4   4   4   4   4   4   2
#     4  10  24  39  66  94 130 172 217 260 324 393
#     4  11  22  38  60 100 129 170 209 267 337 384
#     4  10  21  37  61  84 123 169 207 260 328 369
#     4  11  23  39  63  93 131 176 214 258 326 387
#     4  11  21  40  62  87 133 168 215 268 314 391
#     4  10  21  43  62  91 134 166 214 273 317 391
#     4  11  22  36  56  94 124 166 205 260 324 383
#     4  12  20  34  64  94 138 160 210 276 330 398
#
# _framework density 22.439541999999999
#
# number of rings (size 3 to 8) (size 9 to 14) (size 15 to 20)
#    0.000    1.333    4.000    1.600    3.733    4.267 
#    0.000    0.000    5.867    0.000    0.000    0.000 
#    0.000    0.000    0.000    0.000    0.000    0.000 
#
# Total GULP energy -83560.621714 kJ/mol
# GULP energy per Si atom -5570.708114 kJ/mol
# Density = 2.238847 g / cm^3
# Si number density = 22.439542 Si / 1000 Ang^3
#
#
#
# Elastic Constant Matrix: (Units=GPa)
#
#
# Indices 1 2 3 4 5 6 
#
# 1 39.1792 17.8220 12.4341 0.0000 -6.7842 0.0000
# 2 17.8220 127.7055 39.3304 0.0000 -5.0609 0.0000
# 3 12.4341 39.3304 104.3733 0.0000 -7.6854 0.0000
# 4 0.0000 0.0000 0.0000 30.5180 0.0000 -8.6614
# 5 -6.7842 -5.0609 -7.6854 0.0000 27.4195 0.0000
# 6 0.0000 0.0000 0.0000 -8.6614 0.0000 13.1744
#
#
#
# Elastic Compliance Matrix: (Units=1/GPa)
#
#
# Indices 1 2 3 4 5 6 
#
# 1 0.028577 -0.003211 -0.001754 0.000000 0.005987 0.000000
# 2 -0.003211 0.009233 -0.003094 0.000000 0.000043 0.000000
# 3 -0.001754 -0.003094 0.011111 0.000000 0.002109 0.000000
# 4 0.000000 0.000000 0.000000 0.040284 0.000000 0.026484
# 5 0.005987 0.000043 0.002109 0.000000 0.038551 0.000000
# 6 0.000000 0.000000 0.000000 0.026484 0.000000 0.093316
#
#
# Mechanical properties :
#
#
# Convention : Reuss Voigt Hill
#
# Bulk Modulus (GPa) = 30.48292 45.60343 38.04318
# Shear Modulus (GPa) = 20.15121 27.66715 23.90918
#
# Velocity S-wave (km/s) = 2.99995 3.51517 3.26773
# Velocity P-wave (km/s) = 5.06099 6.06977 5.58819
#
# Compressibility (1/GPa) = 0.03280525
#
# Stress axis : x y z
#
# Youngs Moduli (GPa) = 34.99257 108.30666 90.00105
#
# Poissons Ratio (x) = 0.34775 0.15784
# Poissons Ratio (y) = 0.11235 0.27843
# Poissons Ratio (z) = 0.06137 0.33506
#
# Static dielectric constant tensor:
#      x y z
#    x 1.851670 0.000000 0.029370 
#    y 0.000000 1.850580 0.000000 
#    z 0.029370 0.000000 1.923680 
# 
# From -- ./inp_files/48228.got.cif
#   From: 2010.05.17/outbox.cif.g08.bks.cpg/sg5_25_cif.got.tgz:48228.got - 2010.06.03 18:56:24.
