data_PCOD9124812
_publ_section_title
;
Structure prediction by ZEFSAII (Michael W. Deem and Ramdas Pophale) SiO2 
 PCOD9124812
Probable space group: C 2
;
_chemical_formula_sum "Si O2"
_cell_formula_units_Z 28
_cell_length_a 4.962571
_cell_length_b 31.915351
_cell_length_c 9.594504
_cell_angle_alpha 90.000000
_cell_angle_beta 63.529803
_cell_angle_gamma 90.000000
_cell_volume 1360.293515
_symmetry_space_group_name_H-M "C 2"
_symmetry_group_IT_number 5
_symmetry_cell_setting 'monoclinic'
loop_
_space_group_symop_operation_xyz
x,y,z
-x,y,-z
1/2+x,1/2+y,z
1/2-x,1/2+y,-z
loop_
_atom_site_type_symbol
_atom_site_label
_atom_site_fract_x
_atom_site_fract_y
_atom_site_fract_z
Si Si1 0.882616 0.557100 0.675326
Si Si2 0.677535 0.383947 0.812115
Si Si3 0.290930 0.428656 0.682956
Si Si4 0.650639 0.800484 0.112368
Si Si5 0.853484 0.206505 0.886345
Si Si6 0.825119 0.145663 0.396602
Si Si7 0.243926 0.019898 0.174834
O O1 0.774827 0.604135 0.665415
O O2 0.587017 0.533343 0.796194
O O3 0.000000 0.539457 0.500000
O O4 0.146409 0.550404 0.725397
O O5 0.436690 0.393049 0.748124
O O6 0.838796 0.338442 0.781051
O O7 0.947677 0.416545 0.730881
O O8 0.500000 0.388944 0.000000
O O9 0.500000 0.432251 0.500000
O O10 0.282380 0.472769 0.763688
O O11 0.540909 0.754052 0.176675
O O12 0.500000 0.813331 0.000000
O O13 0.000000 0.793943 0.000000
O O14 0.960976 0.174698 0.744402
O O15 0.500000 0.204871 0.000000
O O16 0.000000 0.195581 0.000000
O O17 0.500000 0.167086 0.500000
O O18 0.000000 0.135422 0.500000
O O19 0.500000 0.022414 0.000000
#
# Coordination Sequence:
#
# PCOD9124812 Si02
#       7
#     4   4   4   4   4   4   4
#     4  11  23  42  63  86 120 161 198 243 306 368
#     4  11  21  39  64  88 117 158 206 250 295 356
#     4  12  25  41  60  88 124 158 194 245 310 367
#     4   9  18  35  60  90 121 159 204 253 305 355
#     4  10  21  38  63  92 123 162 210 255 299 357
#     4  11  23  41  62  90 126 164 203 247 309 370
#     4  12  25  42  63  90 118 152 202 253 301 357
#
# _framework density 20.583794999999999
#
# number of rings (size 3 to 8) (size 9 to 14) (size 15 to 20)
#    0.000    1.143    0.000    8.571    0.000    1.714 
#    0.000    2.143    0.000    0.000    0.000    0.000 
#    0.000    0.000    0.000    0.000    0.000    0.000 
#
# Total GULP energy -78207.296149 kJ/mol
# GULP energy per Si atom -5586.235439 kJ/mol
# Density = 2.053695 g / cm^3
# Si number density = 20.583795 Si / 1000 Ang^3
#
#
#
# Elastic Constant Matrix: (Units=GPa)
#
#
# Indices 1 2 3 4 5 6 
#
# 1 98.6643 -2.3105 5.8852 0.0000 1.6494 0.0000
# 2 -2.3105 84.8185 18.6652 0.0000 4.1957 0.0000
# 3 5.8852 18.6652 90.9983 0.0000 -11.7802 0.0000
# 4 0.0000 0.0000 0.0000 32.6027 0.0000 -4.6698
# 5 1.6494 4.1957 -11.7802 0.0000 41.9202 0.0000
# 6 0.0000 0.0000 0.0000 -4.6698 0.0000 29.4638
#
#
#
# Elastic Compliance Matrix: (Units=1/GPa)
#
#
# Indices 1 2 3 4 5 6 
#
# 1 0.010209 0.000500 -0.000852 0.000000 -0.000691 0.000000
# 2 0.000500 0.012539 -0.002874 0.000000 -0.002082 0.000000
# 3 -0.000852 -0.002874 0.012116 0.000000 0.003726 0.000000
# 4 0.000000 0.000000 0.000000 0.031385 0.000000 0.004974
# 5 -0.000691 -0.002082 0.003726 0.000000 0.025138 0.000000
# 6 0.000000 0.000000 0.000000 0.004974 0.000000 0.034728
#
#
# Mechanical properties :
#
#
# Convention : Reuss Voigt Hill
#
# Bulk Modulus (GPa) = 35.19637 35.44012 35.31824
# Shear Modulus (GPa) = 35.20175 37.61341 36.40758
#
# Velocity S-wave (km/s) = 4.13990 4.27937 4.21021
# Velocity P-wave (km/s) = 6.32360 6.45540 6.38984
#
# Compressibility (1/GPa) = 0.02841202
#
# Stress axis : x y z
#
# Youngs Moduli (GPa) = 97.94819 79.75169 82.53448
#
# Poissons Ratio (x) = -0.03987 0.07034
# Poissons Ratio (y) = -0.04896 0.23719
# Poissons Ratio (z) = 0.08348 0.22919
#
# Static dielectric constant tensor:
#      x y z
#    x 1.687750 0.000000 0.008330 
#    y 0.000000 1.780380 0.000000 
#    z 0.008330 0.000000 1.702480 
# 
# From -- ./inp_files/13280.got.cif
#   From: 2010.05.17/outbox.cif.g08.bks.cpg/sg5_7_cif.got.tgz:13280.got - 2010.06.03 18:56:24.
