data_PCOD9124026
_publ_section_title
;
Structure prediction by ZEFSAII (Michael W. Deem and Ramdas Pophale) SiO2 
 PCOD9124026
Probable space group: C 2
;
_chemical_formula_sum "Si O2"
_cell_formula_units_Z 28
_cell_length_a 21.465807
_cell_length_b 12.043165
_cell_length_c 17.584916
_cell_angle_alpha 90.000000
_cell_angle_beta 16.333417
_cell_angle_gamma 90.000000
_cell_volume 1278.451706
_symmetry_space_group_name_H-M "C 2"
_symmetry_group_IT_number 5
_symmetry_cell_setting 'monoclinic'
loop_
_space_group_symop_operation_xyz
x,y,z
-x,y,-z
1/2+x,1/2+y,z
1/2-x,1/2+y,-z
loop_
_atom_site_type_symbol
_atom_site_label
_atom_site_fract_x
_atom_site_fract_y
_atom_site_fract_z
Si Si1 0.106807 0.742140 0.073172
Si Si2 0.494864 0.569368 0.593668
Si Si3 0.952390 0.939559 0.966421
Si Si4 0.558779 0.928324 0.638970
Si Si5 0.276145 0.098977 0.866966
Si Si6 0.153610 0.180429 0.535467
Si Si7 0.157936 0.840067 0.180903
O O1 0.111705 0.811920 0.145938
O O2 0.141197 0.827928 0.963232
O O3 0.862906 0.693952 0.344331
O O4 0.281406 0.641959 0.871173
O O5 0.500000 0.594506 0.500000
O O6 0.694989 0.608437 0.412482
O O7 0.482981 0.438694 0.621046
O O8 0.188357 0.965284 0.648925
O O9 0.787537 0.037407 0.135862
O O10 0.000000 0.930246 0.000000
O O11 0.595385 0.801474 0.567533
O O12 0.405031 0.895856 0.890880
O O13 0.428791 0.015208 0.737872
O O14 0.050608 0.127385 0.178658
O O15 0.370745 0.222162 0.745510
#
# Coordination Sequence:
#
# PCOD9124026 Si02
#       7
#     4   4   4   4   4   4   4
#     4  11  23  42  71  93 131 168 223 274 320 401
#     4  12  25  43  68 100 139 171 215 281 335 386
#     4  11  25  39  64 102 130 161 217 281 330 372
#     4  10  20  41  66  92 122 167 220 269 314 388
#     4  11  21  42  65  93 126 173 222 264 320 396
#     4  10  22  39  69  98 120 170 224 269 327 387
#     4  11  22  45  65  95 127 179 223 254 328 401
#
# _framework density 21.901492000000001
#
# number of rings (size 3 to 8) (size 9 to 14) (size 15 to 20)
#    0.000    1.143    5.714    0.000    8.000    0.571 
#    5.143    0.000    0.000    0.000    0.000    0.000 
#    0.000    0.000    0.000    0.000    0.000    0.000 
#
# Total GULP energy -78076.133308 kJ/mol
# GULP energy per Si atom -5576.866665 kJ/mol
# Density = 2.185164 g / cm^3
# Si number density = 21.901492 Si / 1000 Ang^3
#
#
#
# Elastic Constant Matrix: (Units=GPa)
#
#
# Indices 1 2 3 4 5 6 
#
# 1 86.6665 23.2432 6.3203 0.0002 -7.2678 0.0001
# 2 23.2432 123.9102 16.8447 0.0001 -16.1709 0.0006
# 3 6.3203 16.8447 38.3379 -0.0172 -19.1036 0.0000
# 4 0.0002 0.0001 -0.0172 5.3521 0.0031 -11.9808
# 5 -7.2678 -16.1709 -19.1036 0.0031 25.1638 0.0003
# 6 0.0001 0.0006 0.0000 -11.9808 0.0003 32.1602
#
#
#
# Elastic Compliance Matrix: (Units=1/GPa)
#
#
# Indices 1 2 3 4 5 6 
#
# 1 0.012266 -0.002006 -0.000029 -0.000011 0.002232 -0.000004
# 2 -0.002006 0.009206 -0.001697 -0.000051 0.004048 -0.000019
# 3 -0.000029 -0.001697 0.042282 0.000707 0.031000 0.000263
# 4 -0.000011 -0.000051 0.000707 1.125002 0.000355 0.419102
# 5 0.002232 0.004048 0.031000 0.000355 0.066520 0.000131
# 6 -0.000004 -0.000019 0.000263 0.419102 0.000131 0.187224
#
#
# Mechanical properties :
#
#
# Convention : Reuss Voigt Hill
#
# Bulk Modulus (GPa) = 17.76495 37.97013 27.86754
# Shear Modulus (GPa) = 3.40431 26.03565 14.71998
#
# Velocity S-wave (km/s) = 1.24810 3.45158 2.59530
# Velocity P-wave (km/s) = 3.19467 5.76706 4.66181
#
# Compressibility (1/GPa) = 0.05629062
#
# Stress axis : x y z
#
# Youngs Moduli (GPa) = 81.52864 108.62982 23.65084
#
# Poissons Ratio (x) = 0.21787 0.00068
# Poissons Ratio (y) = 0.16352 0.04013
# Poissons Ratio (z) = 0.00234 0.18433
#
# Static dielectric constant tensor:
#      x y z
#    x 1.820050 0.000000 -0.008350 
#    y 0.000000 1.833670 0.000000 
#    z -0.008350 0.000000 1.880070 
# 
# From -- ./inp_files/62857.got.cif
#   From: 2010.05.17/outbox.cif.g08.bks.cpg/sg5_32_cif.got.tgz:62857.got - 2010.06.03 18:56:24.
