data_PCOD9124868
_publ_section_title
;
Structure prediction by ZEFSAII (Michael W. Deem and Ramdas Pophale) SiO2 
 PCOD9124868
Probable space group: C 2
;
_chemical_formula_sum "Si O2"
_cell_formula_units_Z 28
_cell_length_a 13.658694
_cell_length_b 20.754651
_cell_length_c 8.540962
_cell_angle_alpha 90.000000
_cell_angle_beta 145.839213
_cell_angle_gamma 90.000000
_cell_volume 1359.547734
_symmetry_space_group_name_H-M "C 2"
_symmetry_group_IT_number 5
_symmetry_cell_setting 'monoclinic'
loop_
_space_group_symop_operation_xyz
x,y,z
-x,y,-z
1/2+x,1/2+y,z
1/2-x,1/2+y,-z
loop_
_atom_site_type_symbol
_atom_site_label
_atom_site_fract_x
_atom_site_fract_y
_atom_site_fract_z
Si Si1 0.368325 0.969130 0.058872
Si Si2 0.253743 0.108789 0.955564
Si Si3 0.631710 0.613106 0.443500
Si Si4 0.246621 0.971064 0.558031
Si Si5 0.000000 0.686909 0.500000
Si Si6 0.199803 0.229303 0.311311
Si Si7 0.000000 0.374035 0.500000
Si Si8 0.192289 0.839207 0.309587
O O1 0.559671 0.987497 0.247557
O O2 0.405325 0.916886 0.240840
O O3 0.263011 0.949832 0.762360
O O4 0.277829 0.032245 0.008085
O O5 0.235139 0.119921 0.744700
O O6 0.070429 0.129165 0.789951
O O7 0.413426 0.143966 0.249155
O O8 0.642906 0.537911 0.411595
O O9 0.705697 0.661718 0.413602
O O10 0.184641 0.911298 0.372177
O O11 0.160638 0.726457 0.642642
O O12 0.250163 0.288689 0.485417
O O13 0.000000 0.237790 0.000000
O O14 0.157150 0.337039 0.623080
O O15 0.000000 0.821998 0.000000
#
# Coordination Sequence:
#
# PCOD9124868 Si02
#       8
#     4   4   4   4   2   4   2   4
#     4   9  18  36  64 102 131 181 217 268 337 394
#     4  10  21  38  67 105 139 175 222 274 339 399
#     4  10  22  42  69 101 139 178 219 282 335 393
#     4   9  20  41  67  96 140 175 221 276 332 395
#     4  12  25  44  68 100 131 178 232 274 332 406
#     4  12  28  48  69  98 136 180 224 282 337 399
#     4  10  23  42  70  96 139 178 220 282 330 396
#     4  11  28  47  69 101 134 181 226 276 337 402
#
# _framework density 20.595085000000001
#
# number of rings (size 3 to 8) (size 9 to 14) (size 15 to 20)
#    0.000    1.714    1.429    1.286    8.000    5.143 
#    0.000    0.000    0.000    0.000    0.000    0.000 
#    0.000    0.000    0.000    0.000    0.000    0.000 
#
# Total GULP energy -78221.215296 kJ/mol
# GULP energy per Si atom -5587.229664 kJ/mol
# Density = 2.054821 g / cm^3
# Si number density = 20.595085 Si / 1000 Ang^3
#
#
#
# Elastic Constant Matrix: (Units=GPa)
#
#
# Indices 1 2 3 4 5 6 
#
# 1 110.3249 36.8818 35.6128 0.0000 14.9419 0.0000
# 2 36.8818 58.6961 37.9675 0.0000 1.8771 0.0000
# 3 35.6128 37.9675 107.9350 0.0000 16.0896 0.0000
# 4 0.0000 0.0000 0.0000 5.4642 0.0000 -25.3673
# 5 14.9419 1.8771 16.0896 0.0000 16.3112 0.0000
# 6 0.0000 0.0000 0.0000 -25.3673 0.0000 2.3709
#
#
#
# Elastic Compliance Matrix: (Units=1/GPa)
#
#
# Indices 1 2 3 4 5 6 
#
# 1 0.013248 -0.008064 0.000160 0.000000 -0.011365 0.000000
# 2 -0.008064 0.027476 -0.008950 0.000000 0.013054 0.000000
# 3 0.000160 -0.008950 0.014337 0.000000 -0.013259 0.000000
# 4 0.000000 0.000000 0.000000 -0.003760 0.000000 -0.040231
# 5 -0.011365 0.013054 -0.013259 0.000000 0.083295 0.000000
# 6 0.000000 0.000000 0.000000 -0.040231 0.000000 -0.008666
#
#
# Mechanical properties :
#
#
# Convention : Reuss Voigt Hill
#
# Bulk Modulus (GPa) = 46.83510 55.32003 51.07756
# Shear Modulus (GPa) = 29.98397 15.92883 22.95640
#
# Velocity S-wave (km/s) = 3.81974 2.78408 3.34227
# Velocity P-wave (km/s) = 6.49955 6.10360 6.30468
#
# Compressibility (1/GPa) = 0.02135151
#
# Stress axis : x y z
#
# Youngs Moduli (GPa) = 75.48527 36.39544 69.75015
#
# Poissons Ratio (x) = 0.29350 -0.01115
# Poissons Ratio (y) = 0.60872 0.62428
# Poissons Ratio (z) = -0.01206 0.32575
#
# Static dielectric constant tensor:
#      x y z
#    x 1.753940 0.000000 -0.007910 
#    y 0.000000 1.698090 0.000000 
#    z -0.007910 0.000000 1.733510 
# 
# From -- ./inp_files/25404.got.cif
#   From: 2010.05.17/outbox.cif.g08.bks.cpg/sg5_13_cif.got.tgz:25404.got - 2010.06.03 18:56:24.
