data_PCOD9124039
_publ_section_title
;
Structure prediction by ZEFSAII (Michael W. Deem and Ramdas Pophale) SiO2 
 PCOD9124039
Probable space group: C 2
;
_chemical_formula_sum "Si O2"
_cell_formula_units_Z 26
_cell_length_a 19.451655
_cell_length_b 11.096159
_cell_length_c 13.392231
_cell_angle_alpha 90.000000
_cell_angle_beta 25.785001
_cell_angle_gamma 90.000000
_cell_volume 1257.380795
_symmetry_space_group_name_H-M "C 2"
_symmetry_group_IT_number 5
_symmetry_cell_setting 'monoclinic'
loop_
_space_group_symop_operation_xyz
x,y,z
-x,y,-z
1/2+x,1/2+y,z
1/2-x,1/2+y,-z
loop_
_atom_site_type_symbol
_atom_site_label
_atom_site_fract_x
_atom_site_fract_y
_atom_site_fract_z
Si Si1 0.550062 0.315180 0.697484
Si Si2 0.929642 0.999046 0.699860
Si Si3 0.177623 0.178495 0.470222
Si Si4 0.852684 0.190476 0.249962
Si Si5 0.500000 0.039537 0.000000
Si Si6 0.574609 0.050053 0.109684
Si Si7 0.252281 0.936485 0.611240
O O1 0.445508 0.398053 0.764193
O O2 0.695919 0.267700 0.439945
O O3 0.461757 0.194128 0.850017
O O4 0.636430 0.391769 0.672292
O O5 0.000000 0.961144 0.500000
O O6 0.041740 0.108286 0.590195
O O7 0.746819 0.034236 0.929569
O O8 0.133831 0.185543 0.646053
O O9 0.344767 0.110220 0.243206
O O10 0.211991 0.311127 0.381355
O O11 0.828232 0.055173 0.239871
O O12 0.000000 0.243567 0.000000
O O13 0.570824 0.985165 0.007149
O O14 0.424605 0.988457 0.357852
#
# Coordination Sequence:
#
# PCOD9124039 Si02
#       7
#     4   4   4   4   2   4   4
#     4  10  22  44  60  93 128 165 219 257 322 383
#     4  12  25  41  62  93 136 171 212 264 332 382
#     4  11  23  40  62  99 127 166 216 266 320 382
#     4  10  21  40  67  96 124 164 220 264 314 378
#     4  12  18  42  68  92 126 160 222 272 302 384
#     4  11  24  39  66  94 128 169 211 271 323 385
#     4  10  20  41  67  92 123 164 217 269 314 375
#
# _framework density 20.677906
#
# number of rings (size 3 to 8) (size 9 to 14) (size 15 to 20)
#    0.000    1.231    7.692    0.000    3.231    2.462 
#    2.769    0.000    0.000    0.000    0.000    0.000 
#    0.000    0.000    0.000    0.000    0.000    0.000 
#
# Total GULP energy -72468.776930 kJ/mol
# GULP energy per Si atom -5574.521302 kJ/mol
# Density = 2.063084 g / cm^3
# Si number density = 20.677906 Si / 1000 Ang^3
#
#
#
# Elastic Constant Matrix: (Units=GPa)
#
#
# Indices 1 2 3 4 5 6 
#
# 1 74.3970 15.6701 45.9615 0.0000 -36.2996 0.0000
# 2 15.6701 70.2480 7.6157 0.0000 -29.2204 0.0000
# 3 45.9615 7.6157 117.7167 0.0000 -29.0304 0.0000
# 4 0.0000 0.0000 0.0000 9.6488 0.0000 -10.9724
# 5 -36.2996 -29.2204 -29.0304 0.0000 42.6794 0.0000
# 6 0.0000 0.0000 0.0000 -10.9724 0.0000 25.6593
#
#
#
# Elastic Compliance Matrix: (Units=1/GPa)
#
#
# Indices 1 2 3 4 5 6 
#
# 1 0.026293 0.003520 -0.005268 0.000000 0.021189 0.000000
# 2 0.003520 0.021002 0.001864 0.000000 0.018640 0.000000
# 3 -0.005268 0.001864 0.011584 0.000000 0.004675 0.000000
# 4 0.000000 0.000000 0.000000 0.201741 0.000000 0.086268
# 5 0.021189 0.018640 0.004675 0.000000 0.057395 0.000000
# 6 0.000000 0.000000 0.000000 0.086268 0.000000 0.075862
#
#
# Mechanical properties :
#
#
# Convention : Reuss Voigt Hill
#
# Bulk Modulus (GPa) = 16.91745 44.53958 30.72852
# Shear Modulus (GPa) = 12.09631 28.47179 20.28405
#
# Velocity S-wave (km/s) = 2.42127 3.71471 3.13541
# Velocity P-wave (km/s) = 4.00199 6.32339 5.29156
#
# Compressibility (1/GPa) = 0.05911057
#
# Stress axis : x y z
#
# Youngs Moduli (GPa) = 38.03258 47.61518 86.32448
#
# Poissons Ratio (x) = -0.16760 0.45477
# Poissons Ratio (y) = -0.13387 -0.16090
# Poissons Ratio (z) = 0.20036 -0.08875
#
# Static dielectric constant tensor:
#      x y z
#    x 1.752900 0.000000 0.024950 
#    y 0.000000 1.807810 0.000000 
#    z 0.024950 0.000000 1.742750 
# 
# From -- ./inp_files/29551.got.cif
#   From: 2010.05.17/outbox.cif.g08.bks.cpg/sg5_15_cif.got.tgz:29551.got - 2010.06.03 18:56:24.
