data_PCOD9124107
_publ_section_title
;
Structure prediction by ZEFSAII (Michael W. Deem and Ramdas Pophale) SiO2 
 PCOD9124107
Probable space group: C 2
;
_chemical_formula_sum "Si O2"
_cell_formula_units_Z 22
_cell_length_a 11.661146
_cell_length_b 8.237133
_cell_length_c 17.597030
_cell_angle_alpha 90.000000
_cell_angle_beta 142.481143
_cell_angle_gamma 90.000000
_cell_volume 1029.413892
_symmetry_space_group_name_H-M "C 2"
_symmetry_group_IT_number 5
_symmetry_cell_setting 'monoclinic'
loop_
_space_group_symop_operation_xyz
x,y,z
-x,y,-z
1/2+x,1/2+y,z
1/2-x,1/2+y,-z
loop_
_atom_site_type_symbol
_atom_site_label
_atom_site_fract_x
_atom_site_fract_y
_atom_site_fract_z
Si Si1 0.851163 0.595900 0.274273
Si Si2 0.986236 0.277565 0.097547
Si Si3 0.708642 0.098153 0.046542
Si Si4 0.303581 0.233662 0.799988
Si Si5 0.663283 0.003960 0.318830
Si Si6 0.000000 0.781772 0.500000
O O1 0.672447 0.706076 0.156752
O O2 0.769955 0.415231 0.242280
O O3 0.925465 0.672214 0.391868
O O4 0.019823 0.583766 0.302533
O O5 0.050973 0.376644 0.206823
O O6 0.860884 0.130160 0.062030
O O7 0.865901 0.415574 0.993141
O O8 0.776713 0.147289 0.166226
O O9 0.528918 0.211780 0.930885
O O10 0.258658 0.136137 0.699804
O O11 0.833778 0.899709 0.442433
#
# Coordination Sequence:
#
# PCOD9124107 Si02
#       6
#     4   4   4   4   4   2
#     4  11  23  46  69  97 129 176 225 283 326 400
#     4  10  21  42  66  98 141 173 223 263 329 389
#     4  10  20  42  63 101 142 180 214 268 317 408
#     4  10  22  41  65  98 137 172 224 261 329 389
#     4  10  23  46  63  98 130 172 224 283 328 398
#     4  10  26  44  66  98 128 170 232 282 346 380
#
# _framework density 21.371385
#
# number of rings (size 3 to 8) (size 9 to 14) (size 15 to 20)
#    0.000    1.818    1.818    1.091    0.000    3.636 
#   45.818    0.000    0.000    0.000    0.000    0.000 
#    0.000    0.000    0.000    0.000    0.000    0.000 
#
# Total GULP energy -61466.272689 kJ/mol
# GULP energy per Si atom -5587.842972 kJ/mol
# Density = 2.132274 g / cm^3
# Si number density = 21.371385 Si / 1000 Ang^3
#
#
#
# Elastic Constant Matrix: (Units=GPa)
#
#
# Indices 1 2 3 4 5 6 
#
# 1 136.7403 79.5025 47.1131 0.0000 8.1551 0.0000
# 2 79.5025 159.2670 78.0162 0.0000 -5.9941 0.0000
# 3 47.1131 78.0162 65.4836 0.0000 -1.1213 0.0000
# 4 0.0000 0.0000 0.0000 34.2500 0.0000 5.9580
# 5 8.1551 -5.9941 -1.1213 0.0000 16.6091 0.0000
# 6 0.0000 0.0000 0.0000 5.9580 0.0000 42.4964
#
#
#
# Elastic Compliance Matrix: (Units=1/GPa)
#
#
# Indices 1 2 3 4 5 6 
#
# 1 0.011403 -0.004541 -0.002921 0.000000 -0.007435 0.000000
# 2 -0.004541 0.017190 -0.017088 0.000000 0.007280 0.000000
# 3 -0.002921 -0.017088 0.037694 0.000000 -0.002188 0.000000
# 4 0.000000 0.000000 0.000000 0.029927 0.000000 -0.004196
# 5 -0.007435 0.007280 -0.002188 0.000000 0.066338 0.000000
# 6 0.000000 0.000000 0.000000 -0.004196 0.000000 0.024120
#
#
# Mechanical properties :
#
#
# Convention : Reuss Voigt Hill
#
# Bulk Modulus (GPa) = 58.18674 85.63940 71.91307
# Shear Modulus (GPa) = 20.70365 29.12836 24.91601
#
# Velocity S-wave (km/s) = 3.11586 3.69583 3.41817
# Velocity P-wave (km/s) = 6.34274 7.64011 7.02145
#
# Compressibility (1/GPa) = 0.01718605
#
# Stress axis : x y z
#
# Youngs Moduli (GPa) = 87.69342 58.17256 26.52918
#
# Poissons Ratio (x) = 0.26417 0.07750
# Poissons Ratio (y) = 0.39822 0.45334
# Poissons Ratio (z) = 0.25619 0.99408
#
# Static dielectric constant tensor:
#      x y z
#    x 1.820280 0.000000 -0.013630 
#    y 0.000000 1.746050 0.000000 
#    z -0.013630 0.000000 1.809910 
# 
# From -- ./inp_files/52176.got.cif
#   From: 2010.05.17/outbox.cif.g08.bks.cpg/sg5_27_cif.got.tgz:52176.got - 2010.06.03 18:56:24.
