data_PCOD9124674
_publ_section_title
;
Structure prediction by ZEFSAII (Michael W. Deem and Ramdas Pophale) SiO2 
 PCOD9124674
Probable space group: C 2
;
_chemical_formula_sum "Si O2"
_cell_formula_units_Z 28
_cell_length_a 7.974455
_cell_length_b 29.691717
_cell_length_c 7.144653
_cell_angle_alpha 90.000000
_cell_angle_beta 135.973733
_cell_angle_gamma 90.000000
_cell_volume 1175.695398
_symmetry_space_group_name_H-M "C 2"
_symmetry_group_IT_number 5
_symmetry_cell_setting 'monoclinic'
loop_
_space_group_symop_operation_xyz
x,y,z
-x,y,-z
1/2+x,1/2+y,z
1/2-x,1/2+y,-z
loop_
_atom_site_type_symbol
_atom_site_label
_atom_site_fract_x
_atom_site_fract_y
_atom_site_fract_z
Si Si1 0.736296 0.266870 0.064499
Si Si2 0.416881 0.690566 0.720445
Si Si3 0.000000 0.541259 0.000000
Si Si4 0.944040 0.357778 0.177989
Si Si5 0.462199 0.501092 0.244992
Si Si6 0.940964 0.901761 0.677221
Si Si7 0.819644 0.089700 0.529583
Si Si8 0.000000 0.749891 0.500000
O O1 0.656552 0.274265 0.782137
O O2 0.500000 0.271790 0.000000
O O3 0.925592 0.306957 0.238216
O O4 0.865654 0.218396 0.202454
O O5 0.344126 0.639111 0.628932
O O6 0.175284 0.719465 0.515065
O O7 0.500000 0.692504 0.000000
O O8 0.177006 0.508891 0.023405
O O9 0.080303 0.574940 0.230661
O O10 0.171877 0.380956 0.465448
O O11 0.671075 0.378635 0.965228
O O12 0.000000 0.359210 0.000000
O O13 0.500000 0.501011 0.500000
O O14 0.559123 0.453736 0.256365
O O15 0.595655 0.546366 0.282543
O O16 0.000000 0.901276 0.500000
O O17 0.000000 0.091712 0.500000
#
# Coordination Sequence:
#
# PCOD9124674 Si02
#       8
#     4   4   2   4   4   4   4   2
#     4  11  26  44  68  96 132 181 225 289 345 412
#     4  10  23  43  62  91 130 169 227 276 335 409
#     4   8  16  28  52  88 136 166 216 274 328 398
#     4  10  21  37  62  95 132 173 225 280 336 408
#     4   8  16  29  50  87 128 167 213 268 326 391
#     4   9  19  31  59  91 132 175 219 273 337 400
#     4   9  19  33  57  88 129 167 213 276 325 401
#     4  10  24  42  68  94 132 174 226 278 342 408
#
# _framework density 23.815691000000001
#
# number of rings (size 3 to 8) (size 9 to 14) (size 15 to 20)
#    0.000    2.857    0.000    1.286   14.000    4.571 
#    1.286    0.000    0.000    0.857    0.000    0.000 
#    0.000    0.000    0.000    0.000    0.000    0.000 
#
# Total GULP energy -78042.328468 kJ/mol
# GULP energy per Si atom -5574.452033 kJ/mol
# Density = 2.376149 g / cm^3
# Si number density = 23.815691 Si / 1000 Ang^3
#
#
#
# Elastic Constant Matrix: (Units=GPa)
#
#
# Indices 1 2 3 4 5 6 
#
# 1 72.2802 38.6779 30.1891 0.0000 15.5968 0.0000
# 2 38.6779 162.0045 56.2853 0.0000 28.3000 0.0000
# 3 30.1891 56.2853 118.5885 0.0000 11.7863 0.0000
# 4 0.0000 0.0000 0.0000 77.2932 0.0000 18.2720
# 5 15.5968 28.3000 11.7863 0.0000 39.4295 0.0000
# 6 0.0000 0.0000 0.0000 18.2720 0.0000 8.0437
#
#
#
# Elastic Compliance Matrix: (Units=1/GPa)
#
#
# Indices 1 2 3 4 5 6 
#
# 1 0.017209 -0.002384 -0.002827 0.000000 -0.004251 0.000000
# 2 -0.002384 0.008539 -0.003021 0.000000 -0.004283 0.000000
# 3 -0.002827 -0.003021 0.010573 0.000000 0.000126 0.000000
# 4 0.000000 0.000000 0.000000 0.027944 0.000000 -0.063477
# 5 -0.004251 -0.004283 0.000126 0.000000 0.030080 0.000000
# 6 0.000000 0.000000 0.000000 -0.063477 0.000000 0.268516
#
#
# Mechanical properties :
#
#
# Convention : Reuss Voigt Hill
#
# Bulk Modulus (GPa) = 50.35482 67.01976 58.68729
# Shear Modulus (GPa) = 12.95529 40.13467 26.54498
#
# Velocity S-wave (km/s) = 2.33487 4.10960 3.34219
# Velocity P-wave (km/s) = 5.33463 7.12183 6.29201
#
# Compressibility (1/GPa) = 0.01985907
#
# Stress axis : x y z
#
# Youngs Moduli (GPa) = 58.11041 117.10408 94.57784
#
# Poissons Ratio (x) = 0.27914 0.26736
# Poissons Ratio (y) = 0.13852 0.28567
# Poissons Ratio (z) = 0.16427 0.35371
#
# Static dielectric constant tensor:
#      x y z
#    x 1.861860 0.000000 -0.142770 
#    y 0.000000 2.090280 0.000000 
#    z -0.142770 0.000000 1.742340 
# 
# From -- ./inp_files/17578.got.cif
#   From: 2010.05.17/outbox.cif.g08.bks.cpg/sg5_9_cif.got.tgz:17578.got - 2010.06.03 18:56:24.
