data_PCOD9124455
_publ_section_title
;
Structure prediction by ZEFSAII (Michael W. Deem and Ramdas Pophale) SiO2 
 PCOD9124455
Probable space group: C 2
;
_chemical_formula_sum "Si O2"
_cell_formula_units_Z 32
_cell_length_a 22.619019
_cell_length_b 9.813915
_cell_length_c 10.949674
_cell_angle_alpha 90.000000
_cell_angle_beta 142.518192
_cell_angle_gamma 90.000000
_cell_volume 1479.055974
_symmetry_space_group_name_H-M "C 2"
_symmetry_group_IT_number 5
_symmetry_cell_setting 'monoclinic'
loop_
_space_group_symop_operation_xyz
x,y,z
-x,y,-z
1/2+x,1/2+y,z
1/2-x,1/2+y,-z
loop_
_atom_site_type_symbol
_atom_site_label
_atom_site_fract_x
_atom_site_fract_y
_atom_site_fract_z
Si Si1 0.395617 0.427840 0.331922
Si Si2 0.809919 0.511108 0.933145
Si Si3 0.907489 0.530718 0.762367
Si Si4 0.115615 0.829866 0.196288
Si Si5 0.613104 0.907366 0.694891
Si Si6 0.367661 0.161122 0.449594
Si Si7 0.265484 0.846867 0.626485
Si Si8 0.813897 0.815680 0.945590
O O1 0.500000 0.496626 0.500000
O O2 0.304670 0.514902 0.225170
O O3 0.402941 0.298993 0.438562
O O4 0.365319 0.381728 0.146388
O O5 0.811623 0.436571 0.808271
O O6 0.850410 0.661521 0.000186
O O7 0.861238 0.423840 0.121205
O O8 0.859002 0.668959 0.741063
O O9 0.926952 0.587879 0.656732
O O10 0.844543 0.390664 0.652796
O O11 0.000000 0.506790 0.000000
O O12 0.165624 0.895229 0.397332
O O13 0.159684 0.879801 0.141378
O O14 0.000000 0.842123 0.000000
O O15 0.500000 0.871740 0.500000
O O16 0.634532 0.051828 0.662366
O O17 0.698319 0.816860 0.777187
O O18 0.268045 0.209740 0.356262
#
# Coordination Sequence:
#
# PCOD9124455 Si02
#       8
#     4   4   4   4   4   4   4   4
#     4  10  22  35  61  89 120 156 197 256 311 357
#     4  10  22  38  59  87 122 158 200 250 306 367
#     4  10  21  34  60  90 117 162 206 247 300 363
#     4  10  22  37  62  89 121 160 207 250 300 362
#     4  11  24  39  63  92 122 162 203 255 311 363
#     4  10  21  37  60  88 122 151 205 255 305 354
#     4  10  21  38  59  89 124 156 202 257 302 360
#     4  11  22  40  62  90 123 158 207 251 306 370
#
# _framework density 21.635421999999998
#
# number of rings (size 3 to 8) (size 9 to 14) (size 15 to 20)
#    0.000    1.750    2.500    1.125    8.750    0.500 
#    0.000    0.000    0.000    6.750    0.000    0.000 
#    0.000    0.000    0.000    0.000    0.000    0.000 
#
# Total GULP energy -89068.310087 kJ/mol
# GULP energy per Si atom -5566.769380 kJ/mol
# Density = 2.158618 g / cm^3
# Si number density = 21.635422 Si / 1000 Ang^3
#
#
#
# Elastic Constant Matrix: (Units=GPa)
#
#
# Indices 1 2 3 4 5 6 
#
# 1 93.7279 7.4664 43.1113 0.0000 -15.4539 0.0000
# 2 7.4664 27.2654 6.9380 0.0000 1.7099 0.0000
# 3 43.1113 6.9380 107.8495 0.0000 5.2000 0.0000
# 4 0.0000 0.0000 0.0000 10.9361 0.0000 4.8531
# 5 -15.4539 1.7099 5.2000 0.0000 42.7843 0.0000
# 6 0.0000 0.0000 0.0000 4.8531 0.0000 31.5811
#
#
#
# Elastic Compliance Matrix: (Units=1/GPa)
#
#
# Indices 1 2 3 4 5 6 
#
# 1 0.014655 -0.002879 -0.005969 0.000000 0.006134 0.000000
# 2 -0.002879 0.037914 -0.001172 0.000000 -0.002413 0.000000
# 3 -0.005969 -0.001172 0.011905 0.000000 -0.003556 0.000000
# 4 0.000000 0.000000 0.000000 0.098133 0.000000 -0.015080
# 5 0.006134 -0.002413 -0.003556 0.000000 0.026117 0.000000
# 6 0.000000 0.000000 0.000000 -0.015080 0.000000 0.033982
#
#
# Mechanical properties :
#
#
# Convention : Reuss Voigt Hill
#
# Bulk Modulus (GPa) = 22.50461 38.20823 30.35642
# Shear Modulus (GPa) = 19.41312 28.48210 23.94761
#
# Velocity S-wave (km/s) = 2.99872 3.63224 3.33058
# Velocity P-wave (km/s) = 4.73435 5.94047 5.37137
#
# Compressibility (1/GPa) = 0.04443533
#
# Stress axis : x y z
#
# Youngs Moduli (GPa) = 68.23444 26.37514 83.99849
#
# Poissons Ratio (x) = 0.07594 0.50137
# Poissons Ratio (y) = 0.19645 0.09843
# Poissons Ratio (z) = 0.40728 0.03091
#
# Static dielectric constant tensor:
#      x y z
#    x 1.857460 0.000000 0.011240 
#    y 0.000000 1.807980 0.000000 
#    z 0.011240 0.000000 1.773380 
# 
# From -- ./inp_files/47482.got.cif
#   From: 2010.05.17/outbox.cif.g08.bks.cpg/sg5_24_cif.got.tgz:47482.got - 2010.06.03 18:56:24.
