data_PCOD9124255
_publ_section_title
;
Structure prediction by ZEFSAII (Michael W. Deem and Ramdas Pophale) SiO2 
 PCOD9124255
Probable space group: C 2
;
_chemical_formula_sum "Si O2"
_cell_formula_units_Z 20
_cell_length_a 24.871098
_cell_length_b 7.440235
_cell_length_c 9.011904
_cell_angle_alpha 90.000000
_cell_angle_beta 146.533649
_cell_angle_gamma 90.000000
_cell_volume 919.606587
_symmetry_space_group_name_H-M "C 2"
_symmetry_group_IT_number 5
_symmetry_cell_setting 'monoclinic'
loop_
_space_group_symop_operation_xyz
x,y,z
-x,y,-z
1/2+x,1/2+y,z
1/2-x,1/2+y,-z
loop_
_atom_site_type_symbol
_atom_site_label
_atom_site_fract_x
_atom_site_fract_y
_atom_site_fract_z
Si Si1 0.727838 0.069940 0.560693
Si Si2 0.306192 0.950523 0.204930
Si Si3 0.402246 0.768281 0.868176
Si Si4 0.848226 0.830366 0.388492
Si Si5 0.029288 0.148829 0.403525
O O1 0.751831 0.964393 0.770677
O O2 0.817893 0.119573 0.664466
O O3 0.687806 0.257622 0.535822
O O4 0.645174 0.955188 0.290018
O O5 0.363837 0.140492 0.337912
O O6 0.381005 0.787329 0.386996
O O7 0.235841 0.925841 0.903267
O O8 0.500000 0.737538 0.000000
O O9 0.439665 0.751866 0.121868
O O10 0.936809 0.967905 0.600492
O O11 0.000000 0.095800 0.500000
#
# Coordination Sequence:
#
# PCOD9124255 Si02
#       5
#     4   4   4   4   4
#     4  10  26  46  70 112 150 200 242 318 371 437
#     4  10  20  42  73 106 148 187 244 308 373 436
#     4  12  25  49  73 106 151 200 251 303 372 450
#     4  10  21  43  73 107 146 196 240 306 382 430
#     4  12  24  45  74 112 147 193 256 309 368 455
#
# _framework density 21.748429999999999
#
# number of rings (size 3 to 8) (size 9 to 14) (size 15 to 20)
#    1.200    0.000    4.000    2.400    2.800    0.800 
#   10.800    0.000    0.000    0.000    0.000    0.000 
#    0.000    0.000    0.000    0.000    0.000    0.000 
#
# Total GULP energy -55773.758157 kJ/mol
# GULP energy per Si atom -5577.375816 kJ/mol
# Density = 2.169893 g / cm^3
# Si number density = 21.748430 Si / 1000 Ang^3
#
#
#
# Elastic Constant Matrix: (Units=GPa)
#
#
# Indices 1 2 3 4 5 6 
#
# 1 97.1207 46.2102 28.3503 0.0000 26.1449 0.0000
# 2 46.2102 125.8610 52.0149 0.0000 15.1706 0.0000
# 3 28.3503 52.0149 91.1760 0.0000 -5.8740 0.0000
# 4 0.0000 0.0000 0.0000 37.9523 0.0000 -4.6895
# 5 26.1449 15.1706 -5.8740 0.0000 23.8384 0.0000
# 6 0.0000 0.0000 0.0000 -4.6895 0.0000 35.1480
#
#
#
# Elastic Compliance Matrix: (Units=1/GPa)
#
#
# Indices 1 2 3 4 5 6 
#
# 1 0.018457 -0.001800 -0.006039 0.000000 -0.020586 0.000000
# 2 -0.001800 0.012436 -0.007029 0.000000 -0.007672 0.000000
# 3 -0.006039 -0.007029 0.017854 0.000000 0.015495 0.000000
# 4 0.000000 0.000000 0.000000 0.026791 0.000000 0.003574
# 5 -0.020586 -0.007672 0.015495 0.000000 0.073227 0.000000
# 6 0.000000 0.000000 0.000000 0.003574 0.000000 0.028928
#
#
# Mechanical properties :
#
#
# Convention : Reuss Voigt Hill
#
# Bulk Modulus (GPa) = 52.59892 63.03427 57.81660
# Shear Modulus (GPa) = 23.39024 31.89322 27.64173
#
# Velocity S-wave (km/s) = 3.28303 3.83359 3.56894
# Velocity P-wave (km/s) = 6.21359 6.97435 6.60493
#
# Compressibility (1/GPa) = 0.01901180
#
# Stress axis : x y z
#
# Youngs Moduli (GPa) = 54.17955 80.41324 56.01066
#
# Poissons Ratio (x) = 0.14473 0.33822
# Poissons Ratio (y) = 0.09751 0.39371
# Poissons Ratio (z) = 0.32717 0.56523
#
# Static dielectric constant tensor:
#      x y z
#    x 1.853950 0.000000 -0.027320 
#    y 0.000000 1.794140 0.000000 
#    z -0.027320 0.000000 1.811120 
# 
# From -- ./inp_files/31712.got.cif
#   From: 2010.05.17/outbox.cif.g08.bks.cpg/sg5_16_cif.got.tgz:31712.got - 2010.06.03 18:56:24.
