data_PCOD9124351
_publ_section_title
;
Structure prediction by ZEFSAII (Michael W. Deem and Ramdas Pophale) SiO2 
 PCOD9124351
Probable space group: C 2
;
_chemical_formula_sum "Si O2"
_cell_formula_units_Z 28
_cell_length_a 12.315957
_cell_length_b 6.734345
_cell_length_c 14.573622
_cell_angle_alpha 90.000000
_cell_angle_beta 69.456415
_cell_angle_gamma 90.000000
_cell_volume 1131.865934
_symmetry_space_group_name_H-M "C 2"
_symmetry_group_IT_number 5
_symmetry_cell_setting 'monoclinic'
loop_
_space_group_symop_operation_xyz
x,y,z
-x,y,-z
1/2+x,1/2+y,z
1/2-x,1/2+y,-z
loop_
_atom_site_type_symbol
_atom_site_label
_atom_site_fract_x
_atom_site_fract_y
_atom_site_fract_z
Si Si1 0.327784 0.214360 0.063482
Si Si2 0.175479 0.882164 0.136547
Si Si3 0.284131 0.149564 0.625803
Si Si4 0.500000 0.855938 0.000000
Si Si5 0.748823 0.096304 0.575920
Si Si6 0.500000 0.597315 0.500000
Si Si7 0.130007 0.087743 0.835243
Si Si8 0.003890 0.779340 0.661308
O O1 0.378092 0.368726 0.120842
O O2 0.213253 0.111333 0.137820
O O3 0.325907 0.336150 0.970473
O O4 0.397233 0.013216 0.020573
O O5 0.264377 0.716427 0.150237
O O6 0.058842 0.848839 0.227686
O O7 0.267159 0.386876 0.619912
O O8 0.175617 0.079694 0.718633
O O9 0.409582 0.132690 0.638458
O O10 0.273856 0.072102 0.525838
O O11 0.521919 0.716477 0.905214
O O12 0.875065 0.200639 0.551159
O O13 0.628091 0.185474 0.645244
O O14 0.519510 0.455181 0.582427
#
# Coordination Sequence:
#
# PCOD9124351 Si02
#       8
#     4   4   4   2   4   2   4   4
#     4  11  21  44  67 103 148 194 242 318 374 451
#     4  10  22  39  73 104 139 196 243 305 390 447
#     4  10  23  43  71 105 145 196 251 312 388 462
#     4  10  24  40  66 102 140 200 242 306 368 448
#     4  11  20  45  71 100 146 193 243 323 388 449
#     4  10  22  44  64 104 144 184 250 304 380 462
#     4  10  22  45  66 105 148 187 257 309 376 466
#     4  10  20  44  70 101 150 192 244 321 374 460
#
# _framework density 24.737911
#
# number of rings (size 3 to 8) (size 9 to 14) (size 15 to 20)
#    0.000    1.714    4.286    0.429    2.000    0.000 
#   18.000    1.429    0.000    0.000    0.000    0.000 
#    0.000    0.000    0.000    0.000    0.000    0.000 
#
# Total GULP energy -78258.739968 kJ/mol
# GULP energy per Si atom -5589.909998 kJ/mol
# Density = 2.468161 g / cm^3
# Si number density = 24.737911 Si / 1000 Ang^3
#
#
#
# Elastic Constant Matrix: (Units=GPa)
#
#
# Indices 1 2 3 4 5 6 
#
# 1 124.3263 45.5240 16.1948 0.0000 -33.7004 0.0000
# 2 45.5240 117.6678 34.0261 0.0000 -13.2764 0.0000
# 3 16.1948 34.0261 109.5862 0.0000 -16.3204 0.0000
# 4 0.0000 0.0000 0.0000 37.7369 0.0000 -21.7470
# 5 -33.7004 -13.2764 -16.3204 0.0000 45.3683 0.0000
# 6 0.0000 0.0000 0.0000 -21.7470 0.0000 46.3924
#
#
#
# Elastic Compliance Matrix: (Units=1/GPa)
#
#
# Indices 1 2 3 4 5 6 
#
# 1 0.011384 -0.003723 0.000603 0.000000 0.007583 0.000000
# 2 -0.003723 0.010693 -0.002870 0.000000 -0.000669 0.000000
# 3 0.000603 -0.002870 0.010427 0.000000 0.003359 0.000000
# 4 0.000000 0.000000 0.000000 0.036307 0.000000 0.017019
# 5 0.007583 -0.000669 0.003359 0.000000 0.028688 0.000000
# 6 0.000000 0.000000 0.000000 0.017019 0.000000 0.029533
#
#
# Mechanical properties :
#
#
# Convention : Reuss Voigt Hill
#
# Bulk Modulus (GPa) = 48.72029 60.34112 54.53071
# Shear Modulus (GPa) = 34.28107 42.95521 38.61814
#
# Velocity S-wave (km/s) = 3.72663 4.17155 3.95535
# Velocity P-wave (km/s) = 6.18501 6.90272 6.55370
#
# Compressibility (1/GPa) = 0.02052533
#
# Stress axis : x y z
#
# Youngs Moduli (GPa) = 87.84571 93.51730 95.90117
#
# Poissons Ratio (x) = 0.34816 -0.05783
# Poissons Ratio (y) = 0.32704 0.27520
# Poissons Ratio (z) = -0.05297 0.26836
#
# Static dielectric constant tensor:
#      x y z
#    x 2.051800 0.000000 -0.104260 
#    y 0.000000 1.986670 0.000000 
#    z -0.104260 0.000000 1.982050 
# 
# From -- ./inp_files/61183.got.cif
#   From: 2010.05.17/outbox.cif.g08.bks.cpg/sg5_31_cif.got.tgz:61183.got - 2010.06.03 18:56:24.
