data_PCOD9124548
_publ_section_title
;
Structure prediction by ZEFSAII (Michael W. Deem and Ramdas Pophale) SiO2 
 PCOD9124548
Probable space group: C 2
;
_chemical_formula_sum "Si O2"
_cell_formula_units_Z 20
_cell_length_a 27.919424
_cell_length_b 5.356642
_cell_length_c 18.267743
_cell_angle_alpha 90.000000
_cell_angle_beta 162.421415
_cell_angle_gamma 90.000000
_cell_volume 825.107384
_symmetry_space_group_name_H-M "C 2"
_symmetry_group_IT_number 5
_symmetry_cell_setting 'monoclinic'
loop_
_space_group_symop_operation_xyz
x,y,z
-x,y,-z
1/2+x,1/2+y,z
1/2-x,1/2+y,-z
loop_
_atom_site_type_symbol
_atom_site_label
_atom_site_fract_x
_atom_site_fract_y
_atom_site_fract_z
Si Si1 0.785005 0.719750 0.759486
Si Si2 0.862097 0.333147 0.750274
Si Si3 0.964355 0.476196 0.287724
Si Si4 0.001544 0.979989 0.588320
Si Si5 0.023346 0.604970 0.217732
O O1 0.833398 0.593564 0.753433
O O2 0.677895 0.505914 0.642977
O O3 0.000000 0.201213 0.000000
O O4 0.923053 0.781441 0.017435
O O5 0.656190 0.934867 0.564551
O O6 0.934455 0.381271 0.775813
O O7 0.689506 0.221204 0.485191
O O8 0.911553 0.213650 0.245697
O O9 0.924295 0.527288 0.144980
O O10 0.933129 0.714282 0.292033
O O11 0.000000 0.013210 0.500000
#
# Coordination Sequence:
#
# PCOD9124548 Si02
#       5
#     4   4   4   4   4
#     4   9  22  40  59  95 129 164 210 257 311 373
#     4  10  21  36  59  94 132 165 211 251 310 374
#     4  10  21  40  64  94 125 162 214 260 312 374
#     4  10  21  43  66  90 127 166 208 269 321 367
#     4  11  20  39  62  95 127 175 203 261 310 378
#
# _framework density 24.239267999999999
#
# number of rings (size 3 to 8) (size 9 to 14) (size 15 to 20)
#    1.200    0.800    2.000    1.800    0.000    1.600 
#    7.200    2.000    0.000    0.000    0.000    0.000 
#    0.000    0.000    0.000    0.000    0.000    0.000 
#
# Total GULP energy -55816.159720 kJ/mol
# GULP energy per Si atom -5581.615972 kJ/mol
# Density = 2.418410 g / cm^3
# Si number density = 24.239268 Si / 1000 Ang^3
#
#
#
# Elastic Constant Matrix: (Units=GPa)
#
#
# Indices 1 2 3 4 5 6 
#
# 1 128.9576 30.0648 -5.3855 0.0003 -21.0134 0.0000
# 2 30.0648 101.2313 8.2845 0.0016 -17.3704 0.0001
# 3 -5.3855 8.2845 130.4821 0.0006 -31.3637 0.0001
# 4 0.0003 0.0016 0.0006 -71.2474 0.0000 -22.7217
# 5 -21.0134 -17.3704 -31.3637 0.0000 41.2862 0.0000
# 6 0.0000 0.0001 0.0001 -22.7217 0.0000 24.4176
#
#
#
# Elastic Compliance Matrix: (Units=1/GPa)
#
#
# Indices 1 2 3 4 5 6 
#
# 1 0.009123 -0.001971 0.001735 0.000000 0.005132 0.000000
# 2 -0.001971 0.011098 0.000117 0.000000 0.003755 0.000000
# 3 0.001735 0.000117 0.009729 0.000000 0.008323 0.000000
# 4 0.000000 0.000000 0.000000 -0.010824 0.000000 -0.010072
# 5 0.005132 0.003755 0.008323 0.000000 0.034736 0.000000
# 6 0.000000 0.000000 0.000000 -0.010072 0.000000 0.031582
#
#
# Mechanical properties :
#
#
# Convention : Reuss Voigt Hill
#
# Bulk Modulus (GPa) = 33.65636 47.39983 40.52810
# Shear Modulus (GPa) = 52.30926 20.73843 36.52385
#
# Velocity S-wave (km/s) = 4.65051 2.92819 3.88597
# Velocity P-wave (km/s) = 6.53846 5.57044 6.07377
#
# Compressibility (1/GPa) = 0.02971206
#
# Stress axis : x y z
#
# Youngs Moduli (GPa) = 109.61671 90.10281 102.78942
#
# Poissons Ratio (x) = 0.17757 -0.17837
# Poissons Ratio (y) = 0.21602 -0.01198
# Poissons Ratio (z) = -0.19022 -0.01050
#
# Static dielectric constant tensor:
#      x y z
#    x 1.910330 0.000000 0.048000 
#    y 0.000000 1.960950 0.000000 
#    z 0.048000 0.000000 2.013670 
# 
# From -- ./inp_files/67646.got.cif
#   From: 2010.05.17/outbox.cif.g08.bks.cpg/sg5_34_cif.got.tgz:67646.got - 2010.06.03 18:56:24.
