data_PCOD9124033
_publ_section_title
;
Structure prediction by ZEFSAII (Michael W. Deem and Ramdas Pophale) SiO2 
 PCOD9124033
Probable space group: C 2
;
_chemical_formula_sum "Si O2"
_cell_formula_units_Z 32
_cell_length_a 13.488653
_cell_length_b 27.483533
_cell_length_c 7.661772
_cell_angle_alpha 90.000000
_cell_angle_beta 32.501697
_cell_angle_gamma 90.000000
_cell_volume 1526.184650
_symmetry_space_group_name_H-M "C 2"
_symmetry_group_IT_number 5
_symmetry_cell_setting 'monoclinic'
loop_
_space_group_symop_operation_xyz
x,y,z
-x,y,-z
1/2+x,1/2+y,z
1/2-x,1/2+y,-z
loop_
_atom_site_type_symbol
_atom_site_label
_atom_site_fract_x
_atom_site_fract_y
_atom_site_fract_z
Si Si1 0.491572 0.596050 0.801758
Si Si2 0.300869 0.442360 0.316213
Si Si3 0.467240 0.864317 0.357643
Si Si4 0.791397 0.512038 0.861688
Si Si5 0.524195 0.706391 0.175238
Si Si6 0.713937 0.294353 0.239494
Si Si7 0.213354 0.520757 0.732024
Si Si8 0.714414 0.277970 0.652295
O O1 0.455732 0.651124 0.795257
O O2 0.676333 0.571306 0.451322
O O3 0.500000 0.595762 0.000000
O O4 0.330622 0.559583 0.987315
O O5 0.133532 0.405852 0.602825
O O6 0.269965 0.470100 0.179594
O O7 0.302593 0.483321 0.462396
O O8 0.500000 0.417018 0.000000
O O9 0.500000 0.885485 0.500000
O O10 0.314148 0.821833 0.604253
O O11 0.652764 0.838887 0.013955
O O12 0.000000 0.523397 0.500000
O O13 0.774876 0.499942 0.090124
O O14 0.334537 0.730790 0.520342
O O15 0.500000 0.705078 0.000000
O O16 0.689001 0.744296 0.972726
O O17 0.500000 0.298722 0.500000
O O18 0.732950 0.290554 0.419995
O O19 0.000000 0.527250 0.000000
O O20 0.500000 0.271982 0.000000
#
# Coordination Sequence:
#
# PCOD9124033 Si02
#       8
#     4   4   4   4   4   4   4   4
#     4  11  20  41  66  97 137 178 224 276 337 398
#     4  12  25  46  68  96 128 172 225 283 335 399
#     4  11  24  42  66  96 127 170 219 274 335 397
#     4  12  23  43  65  93 130 174 225 277 333 390
#     4   8  19  36  64  98 134 176 218 268 330 398
#     4  10  21  42  68  98 138 171 217 271 334 398
#     4  12  24  41  67  93 130 179 221 284 336 386
#     4  10  20  41  66  96 135 174 211 275 333 393
#
# _framework density 20.967317000000001
#
# number of rings (size 3 to 8) (size 9 to 14) (size 15 to 20)
#    0.000    1.250    3.750    3.000    0.000    2.000 
#    0.000   10.000    2.750    0.000    0.000    0.000 
#    0.000    0.000    0.000    0.000    0.000    0.000 
#
# Total GULP energy -89427.140716 kJ/mol
# GULP energy per Si atom -5589.196295 kJ/mol
# Density = 2.091959 g / cm^3
# Si number density = 20.967317 Si / 1000 Ang^3
#
#
#
# Elastic Constant Matrix: (Units=GPa)
#
#
# Indices 1 2 3 4 5 6 
#
# 1 86.2479 26.7071 38.4617 0.0000 -0.5229 0.0000
# 2 26.7071 109.8714 40.3367 0.0000 -16.9836 0.0000
# 3 38.4617 40.3367 133.8905 0.0000 -26.6571 0.0000
# 4 0.0000 0.0000 0.0000 12.4438 0.0000 -0.5559
# 5 -0.5229 -16.9836 -26.6571 0.0000 51.4681 0.0000
# 6 0.0000 0.0000 0.0000 -0.5559 0.0000 14.4590
#
#
#
# Elastic Compliance Matrix: (Units=1/GPa)
#
#
# Indices 1 2 3 4 5 6 
#
# 1 0.014033 -0.002413 -0.003829 0.000000 -0.002637 0.000000
# 2 -0.002413 0.010833 -0.002078 0.000000 0.002474 0.000000
# 3 -0.003829 -0.002078 0.010091 0.000000 0.004502 0.000000
# 4 0.000000 0.000000 0.000000 0.080500 0.000000 0.003095
# 5 -0.002637 0.002474 0.004502 0.000000 0.022551 0.000000
# 6 0.000000 0.000000 0.000000 0.003095 0.000000 0.069280
#
#
# Mechanical properties :
#
#
# Convention : Reuss Voigt Hill
#
# Bulk Modulus (GPa) = 54.59308 60.11341 57.35325
# Shear Modulus (GPa) = 21.73583 30.64114 26.18849
#
# Velocity S-wave (km/s) = 3.22320 3.82694 3.53797
# Velocity P-wave (km/s) = 6.32027 6.94691 6.64099
#
# Compressibility (1/GPa) = 0.01831734
#
# Stress axis : x y z
#
# Youngs Moduli (GPa) = 71.25889 92.30709 99.09654
#
# Poissons Ratio (x) = 0.22273 0.37947
# Poissons Ratio (y) = 0.17194 0.20592
# Poissons Ratio (z) = 0.27287 0.19182
#
# Static dielectric constant tensor:
#      x y z
#    x 1.785260 0.000000 0.007020 
#    y 0.000000 1.735720 0.000000 
#    z 0.007020 0.000000 1.763470 
# 
# From -- ./inp_files/25703.got.cif
#   From: 2010.05.17/outbox.cif.g08.bks.cpg/sg5_13_cif.got.tgz:25703.got - 2010.06.03 18:56:24.
