data_PCOD9124132
_publ_section_title
;
Structure prediction by ZEFSAII (Michael W. Deem and Ramdas Pophale) SiO2 
 PCOD9124132
Probable space group: C 2
;
_chemical_formula_sum "Si O2"
_cell_formula_units_Z 32
_cell_length_a 23.624136
_cell_length_b 14.605610
_cell_length_c 8.560617
_cell_angle_alpha 90.000000
_cell_angle_beta 149.355976
_cell_angle_gamma 90.000000
_cell_volume 1505.558289
_symmetry_space_group_name_H-M "C 2"
_symmetry_group_IT_number 5
_symmetry_cell_setting 'monoclinic'
loop_
_space_group_symop_operation_xyz
x,y,z
-x,y,-z
1/2+x,1/2+y,z
1/2-x,1/2+y,-z
loop_
_atom_site_type_symbol
_atom_site_label
_atom_site_fract_x
_atom_site_fract_y
_atom_site_fract_z
Si Si1 0.191312 0.507490 0.323361
Si Si2 0.751397 0.961997 0.817345
Si Si3 0.908501 0.981585 0.649735
Si Si4 0.119550 0.107968 0.706230
Si Si5 0.723429 0.223976 0.344908
Si Si6 0.922619 0.329642 0.971178
Si Si7 0.137225 0.285831 0.630486
Si Si8 0.462754 0.339379 0.241714
O O1 0.199793 0.485477 0.527668
O O2 0.296724 0.469450 0.479865
O O3 0.198940 0.617036 0.318241
O O4 0.095734 0.437720 0.040203
O O5 0.678931 0.888951 0.739823
O O6 0.869751 0.914823 0.063120
O O7 0.781976 0.049781 0.986985
O O8 0.941686 0.894393 0.622516
O O9 0.897587 0.068459 0.509361
O O10 0.000000 0.997546 0.000000
O O11 0.156657 0.212579 0.809015
O O12 0.000000 0.093334 0.500000
O O13 0.807408 0.274618 0.666698
O O14 0.791650 0.245063 0.346825
O O15 0.604120 0.271558 0.031309
O O16 0.000000 0.324009 0.000000
O O17 0.005255 0.285042 0.290843
O O18 0.500000 0.300897 0.500000
#
# Coordination Sequence:
#
# PCOD9124132 Si02
#       8
#     4   4   4   4   4   4   4   4
#     4  12  22  39  71  98 127 169 226 269 335 392
#     4  11  21  43  67  94 137 173 211 276 342 388
#     4  12  21  34  64 100 127 162 220 281 322 385
#     4  12  23  41  64 103 131 176 227 268 336 401
#     4  10  22  38  66  95 124 172 219 260 333 391
#     4  10  20  42  64  91 133 168 213 277 327 385
#     4  10  23  42  67  91 131 180 217 270 335 384
#     4  11  20  41  63  93 138 174 208 268 340 391
#
# _framework density 21.254573000000001
#
# number of rings (size 3 to 8) (size 9 to 14) (size 15 to 20)
#    0.000    1.000    8.750    0.000    3.500    0.000 
#    2.250    5.625    0.000    0.000    0.000    0.000 
#    0.000    0.000    0.000    0.000    0.000    0.000 
#
# Total GULP energy -89242.923745 kJ/mol
# GULP energy per Si atom -5577.682734 kJ/mol
# Density = 2.120620 g / cm^3
# Si number density = 21.254573 Si / 1000 Ang^3
#
#
#
# Elastic Constant Matrix: (Units=GPa)
#
#
# Indices 1 2 3 4 5 6 
#
# 1 35.2609 19.9619 15.3552 0.0000 -4.0961 0.0000
# 2 19.9619 143.9557 48.7618 0.0000 11.0093 0.0000
# 3 15.3552 48.7618 43.9452 0.0000 0.2925 0.0000
# 4 0.0000 0.0000 0.0000 -630.9310 0.0000 133.1459
# 5 -4.0961 11.0093 0.2925 0.0000 14.2097 0.0000
# 6 0.0000 0.0000 0.0000 133.1459 0.0000 4.9304
#
#
#
# Elastic Compliance Matrix: (Units=1/GPa)
#
#
# Indices 1 2 3 4 5 6 
#
# 1 0.035457 -0.002635 -0.009548 0.000000 0.012459 0.000000
# 2 -0.002635 0.012419 -0.012792 0.000000 -0.010118 0.000000
# 3 -0.009548 -0.012792 0.040243 0.000000 0.006330 0.000000
# 4 0.000000 0.000000 0.000000 -0.000237 0.000000 0.006389
# 5 0.012459 -0.010118 0.006330 0.000000 0.081675 0.000000
# 6 0.000000 0.000000 0.000000 0.006389 0.000000 0.030277
#
#
# Mechanical properties :
#
#
# Convention : Reuss Voigt Hill
#
# Bulk Modulus (GPa) = 26.19914 43.47996 34.83955
# Shear Modulus (GPa) = 19.04705 -113.08598 -47.01946
#
# Velocity S-wave (km/s) = 2.99681 -7.30212 -4.70851
# Velocity P-wave (km/s) = 4.93230 7.11291 3.62394
#
# Compressibility (1/GPa) = 0.03816919
#
# Stress axis : x y z
#
# Youngs Moduli (GPa) = 28.20292 80.52367 24.84882
#
# Poissons Ratio (x) = 0.21222 0.23726
# Poissons Ratio (y) = 0.07433 0.31786
# Poissons Ratio (z) = 0.26928 1.03003
#
# Static dielectric constant tensor:
#      x y z
#    x 1.868600 0.000000 -0.334330 
#    y 0.000000 1.814880 0.000000 
#    z -0.334330 0.000000 3.586840 
# 
# From -- ./inp_files/31096.got.cif
#   From: 2010.05.17/outbox.cif.g08.bks.cpg/sg5_16_cif.got.tgz:31096.got - 2010.06.03 18:56:24.
