data_PCOD9124966
_publ_section_title
;
Structure prediction by ZEFSAII (Michael W. Deem and Ramdas Pophale) SiO2 
 PCOD9124966
Probable space group: C 2
;
_chemical_formula_sum "Si O2"
_cell_formula_units_Z 28
_cell_length_a 10.759031
_cell_length_b 9.227252
_cell_length_c 15.305394
_cell_angle_alpha 90.000000
_cell_angle_beta 58.402449
_cell_angle_gamma 90.000000
_cell_volume 1294.201369
_symmetry_space_group_name_H-M "C 2"
_symmetry_group_IT_number 5
_symmetry_cell_setting 'monoclinic'
loop_
_space_group_symop_operation_xyz
x,y,z
-x,y,-z
1/2+x,1/2+y,z
1/2-x,1/2+y,-z
loop_
_atom_site_type_symbol
_atom_site_label
_atom_site_fract_x
_atom_site_fract_y
_atom_site_fract_z
Si Si1 0.584974 0.725190 0.718068
Si Si2 0.896163 0.789383 0.104447
Si Si3 0.322373 0.796201 0.681258
Si Si4 0.849983 0.238786 0.935247
Si Si5 0.367628 0.037932 0.325922
Si Si6 0.652830 0.049360 0.460470
Si Si7 0.876381 0.578618 0.884393
O O1 0.460910 0.755341 0.689465
O O2 0.498884 0.680570 0.837807
O O3 0.706577 0.625522 0.631541
O O4 0.656218 0.882015 0.708740
O O5 0.801265 0.870194 0.211333
O O6 0.773042 0.708804 0.093259
O O7 0.003075 0.672629 0.107957
O O8 0.000000 0.876475 0.000000
O O9 0.240175 0.655320 0.675071
O O10 0.359084 0.900177 0.588509
O O11 0.860272 0.415435 0.929302
O O12 0.776200 0.164846 0.046862
O O13 0.337661 0.029111 0.439569
O O14 0.539423 0.070343 0.239974
O O15 0.500000 0.131876 0.500000
#
# Coordination Sequence:
#
# PCOD9124966 Si02
#       7
#     4   4   4   4   4   4   4
#     4  10  22  42  60  90 118 155 200 245 298 351
#     4   8  16  33  60  87 116 150 187 233 295 347
#     4  10  21  41  64  88 118 158 197 247 296 351
#     4   9  18  34  63  84 119 155 191 240 292 352
#     4  10  21  39  63  86 122 158 196 244 296 350
#     4  12  24  40  62  84 121 158 202 250 294 347
#     4   9  18  34  60  89 118 154 191 239 292 349
#
# _framework density 21.634962000000002
#
# number of rings (size 3 to 8) (size 9 to 14) (size 15 to 20)
#    0.000    2.286    1.429    0.857    0.000    3.429 
#    5.143    0.000   18.857    0.000    0.000    0.000 
#    0.000    0.000    0.000    0.000    0.000    0.000 
#
# Total GULP energy -78003.397402 kJ/mol
# GULP energy per Si atom -5571.671243 kJ/mol
# Density = 2.158572 g / cm^3
# Si number density = 21.634962 Si / 1000 Ang^3
#
#
#
# Elastic Constant Matrix: (Units=GPa)
#
#
# Indices 1 2 3 4 5 6 
#
# 1 70.3689 37.7168 32.5726 0.0000 -24.9517 0.0000
# 2 37.7168 69.0600 52.8061 0.0000 -27.0214 0.0000
# 3 32.5726 52.8061 165.1354 0.0000 -46.0555 0.0000
# 4 0.0000 0.0000 0.0000 32.0227 0.0000 -11.2580
# 5 -24.9517 -27.0214 -46.0555 0.0000 39.1661 0.0000
# 6 0.0000 0.0000 0.0000 -11.2580 0.0000 23.9358
#
#
#
# Elastic Compliance Matrix: (Units=1/GPa)
#
#
# Indices 1 2 3 4 5 6 
#
# 1 0.021806 -0.009341 0.001135 0.000000 0.008783 0.000000
# 2 -0.009341 0.025538 -0.004568 0.000000 0.006297 0.000000
# 3 0.001135 -0.004568 0.009843 0.000000 0.009147 0.000000
# 4 0.000000 0.000000 0.000000 0.037414 0.000000 0.017597
# 5 0.008783 0.006297 0.009147 0.000000 0.046228 0.000000
# 6 0.000000 0.000000 0.000000 0.017597 0.000000 0.050055
#
#
# Mechanical properties :
#
#
# Convention : Reuss Voigt Hill
#
# Bulk Modulus (GPa) = 31.60478 61.19503 46.39991
# Shear Modulus (GPa) = 22.02846 31.12283 26.57565
#
# Velocity S-wave (km/s) = 3.19437 3.79693 3.50861
# Velocity P-wave (km/s) = 5.31462 6.89702 6.15687
#
# Compressibility (1/GPa) = 0.03164078
#
# Stress axis : x y z
#
# Youngs Moduli (GPa) = 45.85863 39.15677 101.59161
#
# Poissons Ratio (x) = 0.36576 -0.11533
# Poissons Ratio (y) = 0.42836 0.46405
# Poissons Ratio (z) = -0.05206 0.17886
#
# Static dielectric constant tensor:
#      x y z
#    x 1.797850 0.000000 -0.007300 
#    y 0.000000 1.785520 0.000000 
#    z -0.007300 0.000000 1.897630 
# 
# From -- ./inp_files/52199.got.cif
#   From: 2010.05.17/outbox.cif.g08.bks.cpg/sg5_27_cif.got.tgz:52199.got - 2010.06.03 18:56:24.
