data_PCOD9124751
_publ_section_title
;
Structure prediction by ZEFSAII (Michael W. Deem and Ramdas Pophale) SiO2 
 PCOD9124751
Probable space group: C 2
;
_chemical_formula_sum "Si O2"
_cell_formula_units_Z 28
_cell_length_a 8.911113
_cell_length_b 9.050806
_cell_length_c 27.100023
_cell_angle_alpha 90.000000
_cell_angle_beta 144.405511
_cell_angle_gamma 90.000000
_cell_volume 1272.170292
_symmetry_space_group_name_H-M "C 2"
_symmetry_group_IT_number 5
_symmetry_cell_setting 'monoclinic'
loop_
_space_group_symop_operation_xyz
x,y,z
-x,y,-z
1/2+x,1/2+y,z
1/2-x,1/2+y,-z
loop_
_atom_site_type_symbol
_atom_site_label
_atom_site_fract_x
_atom_site_fract_y
_atom_site_fract_z
Si Si1 0.192136 0.215940 0.423113
Si Si2 0.965565 0.006937 0.818227
Si Si3 0.190497 0.689308 0.908725
Si Si4 0.056544 0.466400 0.786867
Si Si5 0.898333 0.721559 0.925829
Si Si6 0.738132 0.540682 0.526446
Si Si7 0.272934 0.699263 0.679127
O O1 0.500000 0.209521 0.500000
O O2 0.143054 0.376611 0.434205
O O3 0.127095 0.085059 0.443177
O O4 0.102516 0.202241 0.342641
O O5 0.076100 0.843542 0.856216
O O6 0.203807 0.107569 0.899301
O O7 0.700757 0.033891 0.777756
O O8 0.908846 0.072768 0.748696
O O9 0.076359 0.574545 0.838332
O O10 0.086906 0.652330 0.936028
O O11 0.500000 0.696915 0.000000
O O12 0.807129 0.367013 0.708219
O O13 0.244395 0.334393 0.851944
O O14 0.000000 0.809829 0.000000
O O15 0.500000 0.554473 0.500000
O O16 0.973078 0.653752 0.598061
#
# Coordination Sequence:
#
# PCOD9124751 Si02
#       7
#     4   4   4   4   4   4   4
#     4   9  20  40  63  91 123 159 204 253 307 372
#     4  10  22  40  61  90 124 164 211 258 315 372
#     4  11  23  39  63  93 125 165 217 266 311 373
#     4  10  22  40  60  89 125 165 209 259 320 370
#     4  10  21  38  60  86 119 160 207 259 315 376
#     4  10  21  41  67  94 122 162 211 255 310 380
#     4  10  21  42  64  87 132 169 202 264 317 371
#
# _framework density 22.009633000000001
#
# number of rings (size 3 to 8) (size 9 to 14) (size 15 to 20)
#    0.000    2.000    0.000    2.571    0.000    7.429 
#    0.000   34.286    0.000    0.000    0.000    0.000 
#    0.000    0.000    0.000    0.000    0.000    0.000 
#
# Total GULP energy -77971.471432 kJ/mol
# GULP energy per Si atom -5569.390817 kJ/mol
# Density = 2.195954 g / cm^3
# Si number density = 22.009633 Si / 1000 Ang^3
#
#
#
# Elastic Constant Matrix: (Units=GPa)
#
#
# Indices 1 2 3 4 5 6 
#
# 1 76.8839 54.9611 41.1281 0.0000 -28.2760 0.0000
# 2 54.9611 90.3765 44.8096 0.0000 -17.8106 0.0000
# 3 41.1281 44.8096 93.9710 0.0001 -21.9147 0.0000
# 4 0.0000 0.0000 0.0001 -120.4732 0.0000 -73.2000
# 5 -28.2760 -17.8106 -21.9147 0.0000 42.8318 0.0000
# 6 0.0000 0.0000 0.0000 -73.2000 0.0000 -4.2752
#
#
#
# Elastic Compliance Matrix: (Units=1/GPa)
#
#
# Indices 1 2 3 4 5 6 
#
# 1 0.028774 -0.013500 -0.003447 0.000000 0.011618 0.000000
# 2 -0.013500 0.021133 -0.004766 0.000000 -0.002563 0.000000
# 3 -0.003447 -0.004766 0.015250 0.000000 0.003545 0.000000
# 4 0.000000 0.000000 0.000000 0.000883 0.000000 -0.015114
# 5 0.011618 -0.002563 0.003545 0.000000 0.031765 0.000000
# 6 0.000000 0.000000 0.000000 -0.015114 0.000000 0.024875
#
#
# Mechanical properties :
#
#
# Convention : Reuss Voigt Hill
#
# Bulk Modulus (GPa) = 46.01815 60.33657 53.17736
# Shear Modulus (GPa) = 28.84381 -8.36116 10.24133
#
# Velocity S-wave (km/s) = 3.62402 -1.95118 2.15945
# Velocity P-wave (km/s) = 6.20201 4.73255 5.51643
#
# Compressibility (1/GPa) = 0.02173055
#
# Stress axis : x y z
#
# Youngs Moduli (GPa) = 34.75390 47.32033 65.57572
#
# Poissons Ratio (x) = 0.63882 0.22601
# Poissons Ratio (y) = 0.46917 0.31255
# Poissons Ratio (z) = 0.11978 0.22554
#
# Static dielectric constant tensor:
#      x y z
#    x 1.848060 0.000000 0.152900 
#    y 0.000000 1.834070 0.000000 
#    z 0.152900 0.000000 5.031170 
# 
# From -- ./inp_files/70165.got.cif
#   From: 2010.05.17/outbox.cif.g08.bks.cpg/sg5_36_cif.got.tgz:70165.got - 2010.06.03 18:56:24.
