data_PCOD9124680
_publ_section_title
;
Structure prediction by ZEFSAII (Michael W. Deem and Ramdas Pophale) SiO2 
 PCOD9124680
Probable space group: C 2
;
_chemical_formula_sum "Si O2"
_cell_formula_units_Z 24
_cell_length_a 12.636666
_cell_length_b 5.071471
_cell_length_c 16.210853
_cell_angle_alpha 90.000000
_cell_angle_beta 97.912001
_cell_angle_gamma 90.000000
_cell_volume 1029.006973
_symmetry_space_group_name_H-M "C 2"
_symmetry_group_IT_number 5
_symmetry_cell_setting 'monoclinic'
loop_
_space_group_symop_operation_xyz
x,y,z
-x,y,-z
1/2+x,1/2+y,z
1/2-x,1/2+y,-z
loop_
_atom_site_type_symbol
_atom_site_label
_atom_site_fract_x
_atom_site_fract_y
_atom_site_fract_z
Si Si1 0.484282 0.438700 0.911473
Si Si2 0.484677 0.164259 0.638911
Si Si3 0.079972 0.166469 0.262935
Si Si4 0.821243 0.678942 0.001437
Si Si5 0.720146 0.215035 0.627259
Si Si6 0.617919 0.526831 0.496061
O O1 0.460098 0.623035 0.833182
O O2 0.385729 0.245298 0.923949
O O3 0.500000 0.593552 0.000000
O O4 0.591525 0.262011 0.919569
O O5 0.443153 0.938585 0.693820
O O6 0.475874 0.433501 0.690843
O O7 0.604545 0.088983 0.627085
O O8 0.414790 0.245954 0.551372
O O9 0.208582 0.156213 0.285587
O O10 0.775098 0.388354 0.002763
O O11 0.679005 0.498758 0.589328
O O12 0.800293 0.142540 0.561077
O O13 0.500000 0.647382 0.500000
#
# Coordination Sequence:
#
# PCOD9124680 Si02
#       6
#     4   4   4   4   4   4
#     4   8  23  40  62  92 119 157 205 252 298 364
#     4  10  24  39  62  88 126 158 204 246 299 357
#     4  11  23  42  58  92 123 159 201 254 298 358
#     4   9  20  38  60  85 113 151 193 242 298 353
#     4  10  21  37  63  89 124 162 202 244 307 350
#     4   9  19  37  59  92 120 162 203 249 292 361
#
# _framework density 23.323459
#
# number of rings (size 3 to 8) (size 9 to 14) (size 15 to 20)
#    1.000    1.333    0.000    1.000    0.000   14.667 
#    0.000    4.167    0.000    0.000    0.000    0.000 
#    0.000    0.000    0.000    0.000    0.000    0.000 
#
# Total GULP energy -66856.207468 kJ/mol
# GULP energy per Si atom -5571.350622 kJ/mol
# Density = 2.327037 g / cm^3
# Si number density = 23.323459 Si / 1000 Ang^3
#
#
#
# Elastic Constant Matrix: (Units=GPa)
#
#
# Indices 1 2 3 4 5 6 
#
# 1 156.3708 18.5085 14.4882 0.0000 2.5526 0.0000
# 2 18.5085 68.9804 7.1375 0.0000 -7.5966 0.0000
# 3 14.4882 7.1375 99.0758 0.0000 19.0529 0.0000
# 4 0.0000 0.0000 0.0000 5.8073 0.0000 -2.9228
# 5 2.5526 -7.5966 19.0529 0.0000 22.4281 0.0000
# 6 0.0000 0.0000 0.0000 -2.9228 0.0000 23.2785
#
#
#
# Elastic Compliance Matrix: (Units=1/GPa)
#
#
# Indices 1 2 3 4 5 6 
#
# 1 0.006686 -0.001808 -0.000697 0.000000 -0.000781 0.000000
# 2 -0.001808 0.016070 -0.002366 0.000000 0.007659 0.000000
# 3 -0.000697 -0.002366 0.012556 0.000000 -0.011388 0.000000
# 4 0.000000 0.000000 0.000000 0.183814 0.000000 0.023079
# 5 -0.000781 0.007659 -0.011388 0.000000 0.056945 0.000000
# 6 0.000000 0.000000 0.000000 0.023079 0.000000 0.045856
#
#
# Mechanical properties :
#
#
# Convention : Reuss Voigt Hill
#
# Bulk Modulus (GPa) = 39.10912 44.96615 42.03764
# Shear Modulus (GPa) = 14.69756 29.25562 21.97659
#
# Velocity S-wave (km/s) = 2.51303 3.54551 3.07294
# Velocity P-wave (km/s) = 5.02244 6.00684 5.53656
#
# Compressibility (1/GPa) = 0.02556948
#
# Stress axis : x y z
#
# Youngs Moduli (GPa) = 149.55722 62.22674 79.64453
#
# Poissons Ratio (x) = 0.11250 0.05554
# Poissons Ratio (y) = 0.27039 0.18846
# Poissons Ratio (z) = 0.10429 0.14724
#
# Static dielectric constant tensor:
#      x y z
#    x 1.906710 0.000000 0.021680 
#    y 0.000000 1.940830 0.000000 
#    z 0.021680 0.000000 1.924960 
# 
# From -- ./inp_files/60050.got.cif
#   From: 2010.05.17/outbox.cif.g08.bks.cpg/sg5_31_cif.got.tgz:60050.got - 2010.06.03 18:56:24.
