data_PCOD9124271
_publ_section_title
;
Structure prediction by ZEFSAII (Michael W. Deem and Ramdas Pophale) SiO2 
 PCOD9124271
Probable space group: C 2
;
_chemical_formula_sum "Si O2"
_cell_formula_units_Z 22
_cell_length_a 6.740835
_cell_length_b 14.112250
_cell_length_c 9.227585
_cell_angle_alpha 90.000000
_cell_angle_beta 81.561968
_cell_angle_gamma 90.000000
_cell_volume 868.302815
_symmetry_space_group_name_H-M "C 2"
_symmetry_group_IT_number 5
_symmetry_cell_setting 'monoclinic'
loop_
_space_group_symop_operation_xyz
x,y,z
-x,y,-z
1/2+x,1/2+y,z
1/2-x,1/2+y,-z
loop_
_atom_site_type_symbol
_atom_site_label
_atom_site_fract_x
_atom_site_fract_y
_atom_site_fract_z
Si Si1 0.797648 0.804070 0.230791
Si Si2 0.123545 0.974993 0.613270
Si Si3 0.338922 0.137073 0.406812
Si Si4 0.235776 0.518752 0.837634
Si Si5 0.500000 0.640868 0.000000
Si Si6 0.741728 0.804211 0.890222
O O1 0.717905 0.720596 0.341347
O O2 0.041850 0.795140 0.206884
O O3 0.742178 0.903020 0.311016
O O4 0.762697 0.801612 0.063071
O O5 0.229964 0.060230 0.519791
O O6 0.000000 0.921157 0.500000
O O7 0.953575 0.012794 0.737870
O O8 0.500000 0.178315 0.500000
O O9 0.404813 0.076815 0.256644
O O10 0.309178 0.577748 0.969497
O O11 0.168039 0.410856 0.865171
O O12 0.600428 0.714569 0.873791
#
# Coordination Sequence:
#
# PCOD9124271 Si02
#       6
#     4   4   4   4   2   4
#     4  10  20  43  62  94 131 168 220 262 340 389
#     4   9  20  39  63  85 128 178 208 263 327 395
#     4  11  23  39  62  98 130 172 213 264 327 404
#     4  10  22  44  63  96 130 167 225 272 339 387
#     4  12  22  42  70  98 128 174 222 282 334 388
#     4  10  23  41  70  95 126 176 218 288 327 393
#
# _framework density 25.336780999999998
#
# number of rings (size 3 to 8) (size 9 to 14) (size 15 to 20)
#    0.000    1.818    1.818    2.727    2.545    1.455 
#    3.273    0.909    0.000    0.000    0.000    0.000 
#    0.000    0.000    0.000    0.000    0.000    0.000 
#
# Total GULP energy -61385.991426 kJ/mol
# GULP energy per Si atom -5580.544675 kJ/mol
# Density = 2.527911 g / cm^3
# Si number density = 25.336781 Si / 1000 Ang^3
#
#
#
# Elastic Constant Matrix: (Units=GPa)
#
#
# Indices 1 2 3 4 5 6 
#
# 1 35.6941 5.6604 21.6140 0.0000 10.2901 0.0000
# 2 5.6604 132.7437 50.7568 0.0000 5.9607 0.0000
# 3 21.6140 50.7568 110.3581 0.0000 18.3538 0.0000
# 4 0.0000 0.0000 0.0000 56.6814 0.0000 4.8413
# 5 10.2901 5.9607 18.3538 0.0000 41.8516 0.0000
# 6 0.0000 0.0000 0.0000 4.8413 0.0000 24.2625
#
#
#
# Elastic Compliance Matrix: (Units=1/GPa)
#
#
# Indices 1 2 3 4 5 6 
#
# 1 0.033146 0.001169 -0.006091 0.000000 -0.005645 0.000000
# 2 0.001169 0.009195 -0.004522 0.000000 0.000386 0.000000
# 3 -0.006091 -0.004522 0.012920 0.000000 -0.003525 0.000000
# 4 0.000000 0.000000 0.000000 0.017948 0.000000 -0.003581
# 5 -0.005645 0.000386 -0.003525 0.000000 0.026773 0.000000
# 6 0.000000 0.000000 0.000000 -0.003581 0.000000 0.041931
#
#
# Mechanical properties :
#
#
# Convention : Reuss Voigt Hill
#
# Bulk Modulus (GPa) = 27.49237 48.31760 37.90499
# Shear Modulus (GPa) = 28.91416 37.94341 33.42879
#
# Velocity S-wave (km/s) = 3.38182 3.87403 3.63626
# Velocity P-wave (km/s) = 5.11109 6.25479 5.71164
#
# Compressibility (1/GPa) = 0.03637372
#
# Stress axis : x y z
#
# Youngs Moduli (GPa) = 30.16963 108.75091 77.39703
#
# Poissons Ratio (x) = -0.12712 0.47139
# Poissons Ratio (y) = -0.03527 0.35002
# Poissons Ratio (z) = 0.18375 0.49181
#
# Static dielectric constant tensor:
#      x y z
#    x 2.146450 0.000000 0.061390 
#    y 0.000000 2.037960 0.000000 
#    z 0.061390 0.000000 2.029510 
# 
# From -- ./inp_files/14839.got.cif
#   From: 2010.05.17/outbox.cif.g08.bks.cpg/sg5_8_cif.got.tgz:14839.got - 2010.06.03 18:56:24.
