data_PCOD9124201
_publ_section_title
;
Structure prediction by ZEFSAII (Michael W. Deem and Ramdas Pophale) SiO2 
 PCOD9124201
Probable space group: C 2
;
_chemical_formula_sum "Si O2"
_cell_formula_units_Z 28
_cell_length_a 7.195339
_cell_length_b 12.268367
_cell_length_c 17.310307
_cell_angle_alpha 90.000000
_cell_angle_beta 122.466926
_cell_angle_gamma 90.000000
_cell_volume 1289.233527
_symmetry_space_group_name_H-M "C 2"
_symmetry_group_IT_number 5
_symmetry_cell_setting 'monoclinic'
loop_
_space_group_symop_operation_xyz
x,y,z
-x,y,-z
1/2+x,1/2+y,z
1/2-x,1/2+y,-z
loop_
_atom_site_type_symbol
_atom_site_label
_atom_site_fract_x
_atom_site_fract_y
_atom_site_fract_z
Si Si1 0.371093 0.951150 0.653418
Si Si2 0.903735 0.218651 0.861842
Si Si3 0.000000 0.817917 0.500000
Si Si4 0.647427 0.154528 0.658105
Si Si5 0.922985 0.989577 0.100042
Si Si6 0.500000 0.894119 0.000000
Si Si7 0.368257 0.575136 0.262514
Si Si8 0.765079 0.298228 0.186174
O O1 0.213470 0.893227 0.556609
O O2 0.544856 0.865213 0.726644
O O3 0.505782 0.049290 0.646072
O O4 0.223925 0.999090 0.690882
O O5 0.722968 0.211040 0.754644
O O6 0.868155 0.311112 0.916005
O O7 0.128789 0.256459 0.869795
O O8 0.945833 0.095911 0.899376
O O9 0.014213 0.738814 0.576662
O O10 0.878681 0.116176 0.670307
O O11 0.072518 0.882993 0.128797
O O12 0.872475 0.016638 0.179590
O O13 0.689596 0.969522 0.006822
O O14 0.222459 0.685588 0.222420
#
# Coordination Sequence:
#
# PCOD9124201 Si02
#       8
#     4   4   2   4   4   2   4   4
#     4  12  23  42  71  97 132 179 219 272 338 384
#     4  10  23  44  63  94 133 172 223 272 324 404
#     4  12  26  42  68 106 134 166 230 280 318 400
#     4  10  24  48  63  97 141 168 225 278 323 406
#     4  10  23  42  65  98 132 173 219 276 333 388
#     4  12  26  38  66 102 128 172 228 272 330 392
#     4  10  23  42  70  96 129 176 225 264 329 408
#     4  10  20  42  68  91 131 181 216 270 338 390
#
# _framework density 21.718330999999999
#
# number of rings (size 3 to 8) (size 9 to 14) (size 15 to 20)
#    0.000    1.714    5.714    0.857    4.000    4.000 
#    0.000    1.429    0.000    0.000    0.000    0.000 
#    0.000    0.000    0.000    0.000    0.000    0.000 
#
# Total GULP energy -78228.809544 kJ/mol
# GULP energy per Si atom -5587.772110 kJ/mol
# Density = 2.166890 g / cm^3
# Si number density = 21.718331 Si / 1000 Ang^3
#
#
#
# Elastic Constant Matrix: (Units=GPa)
#
#
# Indices 1 2 3 4 5 6 
#
# 1 46.5134 24.6030 7.6429 0.0000 4.3391 0.0000
# 2 24.6030 104.8174 13.6328 0.0000 -10.8474 0.0000
# 3 7.6429 13.6328 42.6381 0.0000 -5.3873 0.0000
# 4 0.0000 0.0000 0.0000 39.1420 0.0000 8.5968
# 5 4.3391 -10.8474 -5.3873 0.0000 18.1466 0.0000
# 6 0.0000 0.0000 0.0000 8.5968 0.0000 40.3362
#
#
#
# Elastic Compliance Matrix: (Units=1/GPa)
#
#
# Indices 1 2 3 4 5 6 
#
# 1 0.027000 -0.007034 -0.004091 0.000000 -0.011875 0.000000
# 2 -0.007034 0.012283 -0.001586 0.000000 0.008554 0.000000
# 3 -0.004091 -0.001586 0.025660 0.000000 0.007648 0.000000
# 4 0.000000 0.000000 0.000000 0.026803 0.000000 -0.005712
# 5 -0.011875 0.008554 0.007648 0.000000 0.065330 0.000000
# 6 0.000000 0.000000 0.000000 -0.005712 0.000000 0.026009
#
#
# Mechanical properties :
#
#
# Convention : Reuss Voigt Hill
#
# Bulk Modulus (GPa) = 25.30324 31.74736 28.52530
# Shear Modulus (GPa) = 22.55502 29.39764 25.97633
#
# Velocity S-wave (km/s) = 3.22611 3.68310 3.46216
# Velocity P-wave (km/s) = 5.05500 5.72158 5.39859
#
# Compressibility (1/GPa) = 0.03952063
#
# Stress axis : x y z
#
# Youngs Moduli (GPa) = 37.03698 81.41359 38.97137
#
# Poissons Ratio (x) = 0.57270 0.15944
# Poissons Ratio (y) = 0.26053 0.06179
# Poissons Ratio (z) = 0.15152 0.12909
#
# Static dielectric constant tensor:
#      x y z
#    x 1.825970 0.000000 -0.006930 
#    y 0.000000 1.804870 0.000000 
#    z -0.006930 0.000000 1.798380 
# 
# From -- ./inp_files/64494.got.cif
#   From: 2010.05.17/outbox.cif.g08.bks.cpg/sg5_33_cif.got.tgz:64494.got - 2010.06.03 18:56:24.
