data_PCOD9124689
_publ_section_title
;
Structure prediction by ZEFSAII (Michael W. Deem and Ramdas Pophale) SiO2 
 PCOD9124689
Probable space group: C 2
;
_chemical_formula_sum "Si O2"
_cell_formula_units_Z 28
_cell_length_a 23.266331
_cell_length_b 8.265984
_cell_length_c 14.924513
_cell_angle_alpha 90.000000
_cell_angle_beta 22.621016
_cell_angle_gamma 90.000000
_cell_volume 1104.002920
_symmetry_space_group_name_H-M "C 2"
_symmetry_group_IT_number 5
_symmetry_cell_setting 'monoclinic'
loop_
_space_group_symop_operation_xyz
x,y,z
-x,y,-z
1/2+x,1/2+y,z
1/2-x,1/2+y,-z
loop_
_atom_site_type_symbol
_atom_site_label
_atom_site_fract_x
_atom_site_fract_y
_atom_site_fract_z
Si Si1 0.000000 0.736670 0.000000
Si Si2 0.536020 0.693410 0.796478
Si Si3 0.126245 0.316215 0.134913
Si Si4 0.777742 0.809155 0.163746
Si Si5 0.814527 0.520843 0.404945
Si Si6 0.489923 0.165061 0.719544
Si Si7 0.000000 0.192271 0.500000
Si Si8 0.793207 0.672937 0.739516
O O1 0.878176 0.817256 0.108845
O O2 0.894165 0.629495 0.215897
O O3 0.503493 0.736126 0.739686
O O4 0.636882 0.537506 0.662154
O O5 0.635053 0.840225 0.687833
O O6 0.368838 0.695352 0.074687
O O7 0.113484 0.509357 0.152497
O O8 0.095414 0.258526 0.278317
O O9 0.268705 0.255632 0.871759
O O10 0.656888 0.662082 0.332361
O O11 0.689513 0.978625 0.280054
O O12 0.895581 0.790247 0.913254
O O13 0.884332 0.584541 0.397320
O O14 0.573974 0.234948 0.512654
#
# Coordination Sequence:
#
# PCOD9124689 Si02
#       8
#     2   4   4   4   4   4   2   4
#     4  10  24  42  68 106 144 182 242 290 356 418
#     4   9  22  39  61 101 139 185 237 290 354 419
#     4   9  22  44  67  99 139 178 236 299 349 414
#     4  11  25  44  78 103 141 200 230 297 365 419
#     4  10  21  37  63  95 141 189 232 291 349 425
#     4  10  22  45  67  99 139 183 241 290 354 421
#     4  12  22  46  78 102 146 190 236 292 370 424
#     4  10  23  46  68 102 143 185 242 298 354 421
#
# _framework density 25.362252000000002
#
# number of rings (size 3 to 8) (size 9 to 14) (size 15 to 20)
#    0.857    1.143    1.429    0.857    6.000    2.857 
#    2.571    0.000    0.000    0.000    0.000    0.000 
#    0.000    0.000    0.000    0.000    0.000    0.000 
#
# Total GULP energy -78083.828952 kJ/mol
# GULP energy per Si atom -5577.416354 kJ/mol
# Density = 2.530453 g / cm^3
# Si number density = 25.362252 Si / 1000 Ang^3
#
#
#
# Elastic Constant Matrix: (Units=GPa)
#
#
# Indices 1 2 3 4 5 6 
#
# 1 116.6749 16.7827 48.9680 0.0000 32.9934 0.0000
# 2 16.7827 30.2164 24.7026 0.0000 0.5592 0.0000
# 3 48.9680 24.7026 163.9107 0.0000 -4.5884 0.0000
# 4 0.0000 0.0000 0.0000 20.7124 0.0000 0.6361
# 5 32.9934 0.5592 -4.5884 0.0000 51.2105 0.0000
# 6 0.0000 0.0000 0.0000 0.6361 0.0000 20.5412
#
#
#
# Elastic Compliance Matrix: (Units=1/GPa)
#
#
# Indices 1 2 3 4 5 6 
#
# 1 0.013131 -0.004248 -0.003527 0.000000 -0.008729 0.000000
# 2 -0.004248 0.039163 -0.004580 0.000000 0.001899 0.000000
# 3 -0.003527 -0.004580 0.007930 0.000000 0.003033 0.000000
# 4 0.000000 0.000000 0.000000 0.048326 0.000000 -0.001496
# 5 -0.008729 0.001899 0.003033 0.000000 0.025402 0.000000
# 6 0.000000 0.000000 0.000000 -0.001496 0.000000 0.048729
#
#
# Mechanical properties :
#
#
# Convention : Reuss Voigt Hill
#
# Bulk Modulus (GPa) = 28.15822 54.63427 41.39624
# Shear Modulus (GPa) = 22.80728 33.18274 27.99501
#
# Velocity S-wave (km/s) = 3.00202 3.62104 3.32596
# Velocity P-wave (km/s) = 4.81068 6.25067 5.57735
#
# Compressibility (1/GPa) = 0.03551361
#
# Stress axis : x y z
#
# Youngs Moduli (GPa) = 76.15837 25.53422 126.10900
#
# Poissons Ratio (x) = 0.10847 0.44477
# Poissons Ratio (y) = 0.32353 0.57757
# Poissons Ratio (z) = 0.26860 0.11694
#
# Static dielectric constant tensor:
#      x y z
#    x 2.036620 0.000000 -0.069650 
#    y 0.000000 2.005980 0.000000 
#    z -0.069650 0.000000 2.006140 
# 
# From -- ./inp_files/67527.got.cif
#   From: 2010.05.17/outbox.cif.g08.bks.cpg/sg5_34_cif.got.tgz:67527.got - 2010.06.03 18:56:24.
