data_PCOD9124940
_publ_section_title
;
Structure prediction by ZEFSAII (Michael W. Deem and Ramdas Pophale) SiO2 
 PCOD9124940
Probable space group: C 2
;
_chemical_formula_sum "Si O2"
_cell_formula_units_Z 24
_cell_length_a 25.488176
_cell_length_b 5.211494
_cell_length_c 23.435642
_cell_angle_alpha 90.000000
_cell_angle_beta 19.349119
_cell_angle_gamma 90.000000
_cell_volume 1031.406677
_symmetry_space_group_name_H-M "C 2"
_symmetry_group_IT_number 5
_symmetry_cell_setting 'monoclinic'
loop_
_space_group_symop_operation_xyz
x,y,z
-x,y,-z
1/2+x,1/2+y,z
1/2-x,1/2+y,-z
loop_
_atom_site_type_symbol
_atom_site_label
_atom_site_fract_x
_atom_site_fract_y
_atom_site_fract_z
Si Si1 0.325075 0.491590 0.557613
Si Si2 0.316344 0.784601 0.180096
Si Si3 0.676108 0.738016 0.602686
Si Si4 0.189668 0.071303 0.030850
Si Si5 0.611369 0.867970 0.430960
Si Si6 0.638188 0.245538 0.255893
O O1 0.270806 0.420528 0.677667
O O2 0.217663 0.357086 0.621808
O O3 0.326953 0.791911 0.568699
O O4 0.509631 0.428732 0.357779
O O5 0.261551 0.489629 0.245081
O O6 0.257658 0.872437 0.178347
O O7 0.500000 0.817347 0.000000
O O8 0.778639 0.482236 0.483834
O O9 0.494676 0.651399 0.782004
O O10 0.279328 0.288262 0.976419
O O11 0.264104 0.093805 0.891427
O O12 0.500000 0.710233 0.500000
O O13 0.477622 0.074036 0.586581
#
# Coordination Sequence:
#
# PCOD9124940 Si02
#       6
#     4   4   4   4   4   4
#     4  11  22  40  69  92 134 173 233 278 358 403
#     4  10  21  39  61  96 135 172 223 283 347 412
#     4  12  28  48  73 104 142 186 237 294 351 418
#     4  12  27  49  72 105 140 188 238 292 350 417
#     4   9  20  38  63  96 128 175 221 283 347 419
#     4  10  22  40  66  95 135 174 230 283 347 410
#
# _framework density 23.269193999999999
#
# number of rings (size 3 to 8) (size 9 to 14) (size 15 to 20)
#    0.000    1.333    0.000    6.500    9.333    0.667 
#    3.000    0.000    0.000    0.000    0.000    0.000 
#    0.000    0.000    0.000    0.000    0.000    0.000 
#
# Total GULP energy -66906.651196 kJ/mol
# GULP energy per Si atom -5575.554266 kJ/mol
# Density = 2.321623 g / cm^3
# Si number density = 23.269194 Si / 1000 Ang^3
#
#
#
# Elastic Constant Matrix: (Units=GPa)
#
#
# Indices 1 2 3 4 5 6 
#
# 1 91.0133 -11.6434 9.7346 -0.0048 -4.1876 0.0046
# 2 -11.6434 23.5640 -14.4045 0.0410 -2.0703 -0.0431
# 3 9.7346 -14.4045 94.6955 0.0045 -7.9218 -0.0191
# 4 -0.0048 0.0410 0.0045 16.8912 -0.0242 0.1624
# 5 -4.1876 -2.0703 -7.9218 -0.0242 42.1428 0.0009
# 6 0.0046 -0.0431 -0.0191 0.1624 0.0009 26.7619
#
#
#
# Elastic Compliance Matrix: (Units=1/GPa)
#
#
# Indices 1 2 3 4 5 6 
#
# 1 0.011822 0.005839 -0.000208 -0.000009 0.001422 0.000007
# 2 0.005839 0.050246 0.007414 -0.000117 0.004442 0.000086
# 3 -0.000208 0.007414 0.011926 -0.000018 0.002585 0.000021
# 4 -0.000009 -0.000117 -0.000018 0.059206 0.000024 -0.000359
# 5 0.001422 0.004442 0.002585 0.000024 0.024574 0.000008
# 6 0.000007 0.000086 0.000021 -0.000359 0.000008 0.037369
#
#
# Mechanical properties :
#
#
# Convention : Reuss Voigt Hill
#
# Bulk Modulus (GPa) = 9.99146 19.62735 14.80940
# Shear Modulus (GPa) = 24.70188 32.19825 28.45006
#
# Velocity S-wave (km/s) = 3.26171 3.72389 3.50043
# Velocity P-wave (km/s) = 4.29979 5.19066 4.76609
#
# Compressibility (1/GPa) = 0.10008548
#
# Stress axis : x y z
#
# Youngs Moduli (GPa) = 84.58701 19.90206 83.85272
#
# Poissons Ratio (x) = -0.11622 0.01745
# Poissons Ratio (y) = -0.49394 -0.62172
# Poissons Ratio (z) = 0.01760 -0.14756
#
# Static dielectric constant tensor:
#      x y z
#    x 2.033060 0.000000 -0.040230 
#    y 0.000000 2.371030 0.000080 
#    z -0.040230 0.000080 1.818760 
# 
# From -- ./inp_files/30328.got.cif
#   From: 2010.05.17/outbox.cif.g08.bks.cpg/sg5_16_cif.got.tgz:30328.got - 2010.06.03 18:56:24.
