data_PCOD9124059
_publ_section_title
;
Structure prediction by ZEFSAII (Michael W. Deem and Ramdas Pophale) SiO2 
 PCOD9124059
Probable space group: C 2
;
_chemical_formula_sum "Si O2"
_cell_formula_units_Z 24
_cell_length_a 11.632627
_cell_length_b 9.514438
_cell_length_c 10.219249
_cell_angle_alpha 90.000000
_cell_angle_beta 126.949082
_cell_angle_gamma 90.000000
_cell_volume 903.897338
_symmetry_space_group_name_H-M "C 2"
_symmetry_group_IT_number 5
_symmetry_cell_setting 'monoclinic'
loop_
_space_group_symop_operation_xyz
x,y,z
-x,y,-z
1/2+x,1/2+y,z
1/2-x,1/2+y,-z
loop_
_atom_site_type_symbol
_atom_site_label
_atom_site_fract_x
_atom_site_fract_y
_atom_site_fract_z
Si Si1 0.960018 0.315810 0.825487
Si Si2 0.020710 0.632021 0.870524
Si Si3 0.821979 0.041134 0.163626
Si Si4 0.365082 0.816296 0.315512
Si Si5 0.340093 0.324049 0.396438
Si Si6 0.896928 0.916021 0.706854
O O1 0.936763 0.485801 0.811932
O O2 0.083885 0.316699 0.800710
O O3 0.809864 0.244387 0.678956
O O4 0.000000 0.275078 0.000000
O O5 0.956449 0.754654 0.741445
O O6 0.188738 0.588835 0.982874
O O7 0.000000 0.696260 0.000000
O O8 0.810812 0.893996 0.234214
O O9 0.968002 0.019205 0.180113
O O10 0.830686 0.151103 0.289951
O O11 0.500000 0.848986 0.500000
O O12 0.232194 0.907816 0.277040
O O13 0.500000 0.257140 0.500000
O O14 0.349193 0.433775 0.523698
#
# Coordination Sequence:
#
# PCOD9124059 Si02
#       6
#     4   4   4   4   4   4
#     4  11  23  44  71 104 149 197 251 311 389 455
#     4  11  22  42  71  99 145 201 248 304 391 451
#     4  11  24  44  75 103 147 201 250 313 386 457
#     4  12  24  44  73 109 151 197 252 319 385 455
#     4  10  20  41  69 100 139 191 248 303 374 449
#     4  11  24  43  72 110 143 194 262 311 377 460
#
# _framework density 26.551687000000001
#
# number of rings (size 3 to 8) (size 9 to 14) (size 15 to 20)
#    0.000    1.000    6.667    1.500    2.333    0.000 
#    0.000    8.333    0.000    0.000    0.000    0.000 
#    0.000    0.000    0.000    0.000    0.000    0.000 
#
# Total GULP energy -66941.617955 kJ/mol
# GULP energy per Si atom -5578.468163 kJ/mol
# Density = 2.649125 g / cm^3
# Si number density = 26.551687 Si / 1000 Ang^3
#
#
#
# Elastic Constant Matrix: (Units=GPa)
#
#
# Indices 1 2 3 4 5 6 
#
# 1 231.0639 24.1037 71.4485 0.0000 27.9839 0.0000
# 2 24.1037 33.3096 16.4835 0.0000 5.8209 0.0000
# 3 71.4485 16.4835 111.5887 0.0000 26.7604 0.0000
# 4 0.0000 0.0000 0.0000 29.2687 0.0000 2.5935
# 5 27.9839 5.8209 26.7604 0.0000 70.2184 0.0000
# 6 0.0000 0.0000 0.0000 2.5935 0.0000 46.7635
#
#
#
# Elastic Compliance Matrix: (Units=1/GPa)
#
#
# Indices 1 2 3 4 5 6 
#
# 1 0.005625 -0.002415 -0.003032 0.000000 -0.000886 0.000000
# 2 -0.002415 0.033483 -0.003263 0.000000 -0.000570 0.000000
# 3 -0.003032 -0.003263 0.012140 0.000000 -0.003148 0.000000
# 4 0.000000 0.000000 0.000000 0.034335 0.000000 -0.001904
# 5 -0.000886 -0.000570 -0.003148 0.000000 0.015841 0.000000
# 6 0.000000 0.000000 0.000000 -0.001904 0.000000 0.021490
#
#
# Mechanical properties :
#
#
# Convention : Reuss Voigt Hill
#
# Bulk Modulus (GPa) = 29.56215 66.67039 48.11627
# Shear Modulus (GPa) = 32.97946 46.84523 39.91234
#
# Velocity S-wave (km/s) = 3.52815 4.20492 3.88131
# Velocity P-wave (km/s) = 5.26831 6.98135 6.18443
#
# Compressibility (1/GPa) = 0.03382704
#
# Stress axis : x y z
#
# Youngs Moduli (GPa) = 177.79069 29.86579 82.37352
#
# Poissons Ratio (x) = 0.07212 0.24977
# Poissons Ratio (y) = 0.42933 0.26881
# Poissons Ratio (z) = 0.53910 0.09746
#
# Static dielectric constant tensor:
#      x y z
#    x 2.260380 0.000000 0.057480 
#    y 0.000000 2.274720 0.000000 
#    z 0.057480 0.000000 2.118670 
# 
# From -- ./inp_files/39266.got.cif
#   From: 2010.05.17/outbox.cif.g08.bks.cpg/sg5_20_cif.got.tgz:39266.got - 2010.06.03 18:56:24.
