data_PCOD9124467
_publ_section_title
;
Structure prediction by ZEFSAII (Michael W. Deem and Ramdas Pophale) SiO2 
 PCOD9124467
Probable space group: C 2
;
_chemical_formula_sum "Si O2"
_cell_formula_units_Z 32
_cell_length_a 10.527534
_cell_length_b 22.370255
_cell_length_c 9.178308
_cell_angle_alpha 90.000000
_cell_angle_beta 133.309533
_cell_angle_gamma 90.000000
_cell_volume 1572.852167
_symmetry_space_group_name_H-M "C 2"
_symmetry_group_IT_number 5
_symmetry_cell_setting 'monoclinic'
loop_
_space_group_symop_operation_xyz
x,y,z
-x,y,-z
1/2+x,1/2+y,z
1/2-x,1/2+y,-z
loop_
_atom_site_type_symbol
_atom_site_label
_atom_site_fract_x
_atom_site_fract_y
_atom_site_fract_z
Si Si1 0.640423 0.346710 0.739909
Si Si2 0.790645 0.646029 0.853716
Si Si3 0.307804 0.283392 0.916565
Si Si4 0.711901 0.444923 0.004684
Si Si5 0.189464 0.392399 0.648025
Si Si6 0.173129 0.039547 0.555313
Si Si7 0.439533 0.572844 0.115931
Si Si8 0.378879 0.916753 0.718552
O O1 0.500000 0.332767 0.500000
O O2 0.679770 0.297445 0.898900
O O3 0.809647 0.372001 0.787752
O O4 0.595264 0.403800 0.808051
O O5 0.723362 0.600928 0.676170
O O6 0.685491 0.622867 0.912690
O O7 0.755471 0.716853 0.828883
O O8 0.000000 0.640671 0.000000
O O9 0.500000 0.294335 0.000000
O O10 0.186758 0.330748 0.736257
O O11 0.685968 0.431906 0.155523
O O12 0.912805 0.425421 0.130717
O O13 0.676846 0.513576 0.956472
O O14 0.211873 0.387834 0.495536
O O15 0.000000 0.423115 0.500000
O O16 0.000000 0.016568 0.500000
O O17 0.112204 0.058597 0.347023
O O18 0.306804 0.984804 0.673963
O O19 0.500000 0.584316 0.000000
#
# Coordination Sequence:
#
# PCOD9124467 Si02
#       8
#     4   4   4   4   4   4   4   4
#     4  11  21  34  56  87 118 150 193 244 289 342
#     4  10  22  43  62  80 111 156 205 245 292 358
#     4  10  22  40  60  81 110 157 202 238 290 352
#     4  10  21  35  55  85 124 160 185 227 295 361
#     4   9  20  35  55  83 117 154 190 227 285 352
#     4  10  21  35  58  87 115 154 196 236 292 356
#     4  11  22  38  60  90 120 152 195 249 298 343
#     4  11  19  34  58  91 122 151 190 240 292 346
#
# _framework density 20.345205
#
# number of rings (size 3 to 8) (size 9 to 14) (size 15 to 20)
#    0.000    1.750    0.000    5.250    0.000    4.500 
#    0.000    9.375    0.000    0.000    0.000    0.000 
#    0.000    0.000    0.000    0.000    0.000    0.000 
#
# Total GULP energy -89107.970733 kJ/mol
# GULP energy per Si atom -5569.248171 kJ/mol
# Density = 2.029890 g / cm^3
# Si number density = 20.345205 Si / 1000 Ang^3
#
#
#
# Elastic Constant Matrix: (Units=GPa)
#
#
# Indices 1 2 3 4 5 6 
#
# 1 83.1563 18.0471 45.6313 0.0000 -6.6265 0.0000
# 2 18.0471 109.8864 38.9912 0.0000 -0.5130 0.0000
# 3 45.6313 38.9912 133.2683 0.0000 -20.6683 0.0000
# 4 0.0000 0.0000 0.0000 17.7901 0.0000 -0.3966
# 5 -6.6265 -0.5130 -20.6683 0.0000 43.1275 0.0000
# 6 0.0000 0.0000 0.0000 -0.3966 0.0000 7.1487
#
#
#
# Elastic Compliance Matrix: (Units=1/GPa)
#
#
# Indices 1 2 3 4 5 6 
#
# 1 0.014857 -0.000705 -0.004892 0.000000 -0.000070 0.000000
# 2 -0.000705 0.010268 -0.002982 0.000000 -0.001415 0.000000
# 3 -0.004892 -0.002982 0.010726 0.000000 0.004353 0.000000
# 4 0.000000 0.000000 0.000000 0.056281 0.000000 0.003122
# 5 -0.000070 -0.001415 0.004353 0.000000 0.025246 0.000000
# 6 0.000000 0.000000 0.000000 0.003122 0.000000 0.140058
#
#
# Mechanical properties :
#
#
# Convention : Reuss Voigt Hill
#
# Bulk Modulus (GPa) = 53.49398 59.07225 56.28312
# Shear Modulus (GPa) = 17.80473 28.52270 23.16371
#
# Velocity S-wave (km/s) = 2.96147 3.74831 3.37788
# Velocity P-wave (km/s) = 6.16798 6.91600 6.55267
#
# Compressibility (1/GPa) = 0.01869369
#
# Stress axis : x y z
#
# Youngs Moduli (GPa) = 67.30726 97.39334 93.22833
#
# Poissons Ratio (x) = 0.06862 0.45606
# Poissons Ratio (y) = 0.04742 0.27804
# Poissons Ratio (z) = 0.32926 0.29046
#
# Static dielectric constant tensor:
#      x y z
#    x 1.884920 0.000000 -0.141780 
#    y 0.000000 1.684830 0.000000 
#    z -0.141780 0.000000 2.038700 
# 
# From -- ./inp_files/21984.got.cif
#   From: 2010.05.17/outbox.cif.g08.bks.cpg/sg5_11_cif.got.tgz:21984.got - 2010.06.03 18:56:24.
