data_PCOD9124422
_publ_section_title
;
Structure prediction by ZEFSAII (Michael W. Deem and Ramdas Pophale) SiO2 
 PCOD9124422
Probable space group: C 2
;
_chemical_formula_sum "Si O2"
_cell_formula_units_Z 18
_cell_length_a 13.644284
_cell_length_b 4.967766
_cell_length_c 16.382862
_cell_angle_alpha 90.000000
_cell_angle_beta 33.641060
_cell_angle_gamma 90.000000
_cell_volume 615.180061
_symmetry_space_group_name_H-M "C 2"
_symmetry_group_IT_number 5
_symmetry_cell_setting 'monoclinic'
loop_
_space_group_symop_operation_xyz
x,y,z
-x,y,-z
1/2+x,1/2+y,z
1/2-x,1/2+y,-z
loop_
_atom_site_type_symbol
_atom_site_label
_atom_site_fract_x
_atom_site_fract_y
_atom_site_fract_z
Si Si1 0.264870 0.220970 0.777499
Si Si2 0.500000 0.848847 0.500000
Si Si3 0.644171 0.172645 0.676065
Si Si4 0.547756 0.660303 0.256567
Si Si5 0.579555 0.523363 0.063488
O O1 0.331682 0.514605 0.758574
O O2 0.086681 0.212370 0.848248
O O3 0.406787 0.048221 0.629188
O O4 0.212166 0.052319 0.896116
O O5 0.347147 0.672682 0.563099
O O6 0.606525 0.435460 0.647701
O O7 0.525481 0.254203 0.837980
O O8 0.937612 0.429844 0.317512
O O9 0.655924 0.630854 0.095745
#
# Coordination Sequence:
#
# PCOD9124422 Si02
#       5
#     4   2   4   4   4
#     4  10  20  47  86 123 178 221 284 357 438 501
#     4  10  22  48  90 124 176 240 274 356 438 528
#     4   9  22  47  78 115 167 207 296 335 432 493
#     4  10  22  46  76 122 163 217 277 366 409 516
#     4   8  21  45  79 122 162 221 279 358 420 509
#
# _framework density 29.259726000000001
#
# number of rings (size 3 to 8) (size 9 to 14) (size 15 to 20)
#    1.333    1.333    0.000    0.000    0.000    2.667 
#   12.000    6.667    9.778    0.000    0.000    0.000 
#    0.000    0.000    0.000    0.000    0.000    0.000 
#
# Total GULP energy -50418.986723 kJ/mol
# GULP energy per Si atom -5602.109636 kJ/mol
# Density = 2.919313 g / cm^3
# Si number density = 29.259726 Si / 1000 Ang^3
#
#
#
# Elastic Constant Matrix: (Units=GPa)
#
#
# Indices 1 2 3 4 5 6 
#
# 1 213.5412 83.9909 61.9399 -0.0031 -16.1816 0.0040
# 2 83.9909 246.7524 69.8786 -0.0155 -1.8567 0.0149
# 3 61.9399 69.8786 233.7605 -0.0028 -10.5830 0.0038
# 4 -0.0031 -0.0155 -0.0028 21.5472 0.0001 5.8634
# 5 -16.1816 -1.8567 -10.5830 0.0001 59.5713 -0.0027
# 6 0.0040 0.0149 0.0038 5.8634 -0.0027 59.2774
#
#
#
# Elastic Compliance Matrix: (Units=1/GPa)
#
#
# Indices 1 2 3 4 5 6 
#
# 1 0.005716 -0.001665 -0.000957 -0.000001 0.001331 0.000000
# 2 -0.001665 0.004913 -0.001049 0.000004 -0.000486 -0.000001
# 3 -0.000957 -0.001049 0.004871 0.000000 0.000573 0.000000
# 4 -0.000001 0.000004 0.000000 0.047694 0.000000 -0.004718
# 5 0.001331 -0.000486 0.000573 0.000000 0.017235 0.000001
# 6 0.000000 -0.000001 0.000000 -0.004718 0.000001 0.017336
#
#
# Mechanical properties :
#
#
# Convention : Reuss Voigt Hill
#
# Bulk Modulus (GPa) = 122.57716 125.07477 123.82596
# Shear Modulus (GPa) = 46.37106 59.96216 53.16661
#
# Velocity S-wave (km/s) = 3.98528 4.53184 4.26732
# Velocity P-wave (km/s) = 7.94735 8.37989 8.16649
#
# Compressibility (1/GPa) = 0.00815813
#
# Stress axis : x y z
#
# Youngs Moduli (GPa) = 174.94564 203.54796 205.29506
#
# Poissons Ratio (x) = 0.33885 0.19641
# Poissons Ratio (y) = 0.29124 0.21545
# Poissons Ratio (z) = 0.16737 0.21362
#
# Static dielectric constant tensor:
#      x y z
#    x 2.255500 0.000000 0.059260 
#    y 0.000000 2.426620 0.000010 
#    z 0.059260 0.000010 2.389340 
# 
# From -- ./inp_files/25846.got.cif
#   From: 2010.05.17/outbox.cif.g08.bks.cpg/sg5_13_cif.got.tgz:25846.got - 2010.06.03 18:56:24.
