data_PCOD9124315
_publ_section_title
;
Structure prediction by ZEFSAII (Michael W. Deem and Ramdas Pophale) SiO2 
 PCOD9124315
Probable space group: C 2
;
_chemical_formula_sum "Si O2"
_cell_formula_units_Z 18
_cell_length_a 19.018543
_cell_length_b 6.912206
_cell_length_c 12.611310
_cell_angle_alpha 90.000000
_cell_angle_beta 154.110037
_cell_angle_gamma 90.000000
_cell_volume 723.905391
_symmetry_space_group_name_H-M "C 2"
_symmetry_group_IT_number 5
_symmetry_cell_setting 'monoclinic'
loop_
_space_group_symop_operation_xyz
x,y,z
-x,y,-z
1/2+x,1/2+y,z
1/2-x,1/2+y,-z
loop_
_atom_site_type_symbol
_atom_site_label
_atom_site_fract_x
_atom_site_fract_y
_atom_site_fract_z
Si Si1 0.550650 0.480940 0.909994
Si Si2 0.590688 0.044828 0.521286
Si Si3 0.071320 0.523328 0.904359
Si Si4 0.500000 0.755800 0.000000
Si Si5 0.576043 0.470027 0.707302
O O1 0.724811 0.539003 0.193548
O O2 0.545122 0.248361 0.900889
O O3 0.427922 0.601682 0.816407
O O4 0.543930 0.550156 0.779826
O O5 0.500000 0.956258 0.500000
O O6 0.562547 0.966736 0.364745
O O7 0.506352 0.257395 0.399321
O O8 0.081058 0.402928 0.026250
O O9 0.235206 0.483800 0.061012
O O10 0.500000 0.561580 0.500000
#
# Coordination Sequence:
#
# PCOD9124315 Si02
#       5
#     4   4   4   2   4
#     4  11  25  46  74 105 149 193 240 297 370 426
#     4  10  20  43  74 107 142 184 241 302 353 425
#     4  11  25  45  72 108 145 191 249 291 366 434
#     4  12  26  48  66 102 156 196 234 306 356 436
#     4  10  22  43  77 109 139 182 247 300 350 431
#
# _framework density 24.865129
#
# number of rings (size 3 to 8) (size 9 to 14) (size 15 to 20)
#    0.000    1.333    2.222    3.333    3.111    2.667 
#   16.000    0.000    0.000    0.000    0.000    0.000 
#    0.000    0.000    0.000    0.000    0.000    0.000 
#
# Total GULP energy -50183.209727 kJ/mol
# GULP energy per Si atom -5575.912192 kJ/mol
# Density = 2.480854 g / cm^3
# Si number density = 24.865129 Si / 1000 Ang^3
#
#
#
# Elastic Constant Matrix: (Units=GPa)
#
#
# Indices 1 2 3 4 5 6 
#
# 1 210.0875 54.7839 26.0152 0.0000 -57.7894 0.0000
# 2 54.7839 195.8179 15.7207 0.0000 -20.6110 0.0000
# 3 26.0152 15.7207 101.0816 0.0000 -32.2813 0.0000
# 4 0.0000 0.0000 0.0000 -8.8195 0.0000 23.9620
# 5 -57.7894 -20.6110 -32.2813 0.0000 40.7845 0.0000
# 6 0.0000 0.0000 0.0000 23.9620 0.0000 16.3980
#
#
#
# Elastic Compliance Matrix: (Units=1/GPa)
#
#
# Indices 1 2 3 4 5 6 
#
# 1 0.008364 -0.001147 0.002175 0.000000 0.012993 0.000000
# 2 -0.001147 0.005551 -0.000256 0.000000 0.000978 0.000000
# 3 0.002175 -0.000256 0.013806 0.000000 0.013880 0.000000
# 4 0.000000 0.000000 0.000000 -0.022813 0.000000 0.033336
# 5 0.012993 0.000978 0.013880 0.000000 0.054410 0.000000
# 6 0.000000 0.000000 0.000000 0.033336 0.000000 0.012270
#
#
# Mechanical properties :
#
#
# Convention : Reuss Voigt Hill
#
# Bulk Modulus (GPa) = 34.17019 77.78074 55.97547
# Shear Modulus (GPa) = 62.65860 37.03707 49.84783
#
# Velocity S-wave (km/s) = 5.02534 3.86362 4.48228
# Velocity P-wave (km/s) = 6.88797 7.15907 7.02483
#
# Compressibility (1/GPa) = 0.02926528
#
# Stress axis : x y z
#
# Youngs Moduli (GPa) = 119.56497 180.14414 72.43354
#
# Poissons Ratio (x) = 0.20661 -0.15756
# Poissons Ratio (y) = 0.13713 0.01854
# Poissons Ratio (z) = -0.26009 0.04611
#
# Static dielectric constant tensor:
#      x y z
#    x 2.070530 0.000000 0.050690 
#    y 0.000000 2.063860 0.000000 
#    z 0.050690 0.000000 2.028730 
# 
# From -- ./inp_files/44266.got.cif
#   From: 2010.05.17/outbox.cif.g08.bks.cpg/sg5_23_cif.got.tgz:44266.got - 2010.06.03 18:56:24.
