data_PCOD9124592
_publ_section_title
;
Structure prediction by ZEFSAII (Michael W. Deem and Ramdas Pophale) SiO2 
 PCOD9124592
Probable space group: C 2
;
_chemical_formula_sum "Si O2"
_cell_formula_units_Z 30
_cell_length_a 5.016488
_cell_length_b 26.798707
_cell_length_c 12.521862
_cell_angle_alpha 90.000000
_cell_angle_beta 115.668447
_cell_angle_gamma 90.000000
_cell_volume 1517.258114
_symmetry_space_group_name_H-M "C 2"
_symmetry_group_IT_number 5
_symmetry_cell_setting 'monoclinic'
loop_
_space_group_symop_operation_xyz
x,y,z
-x,y,-z
1/2+x,1/2+y,z
1/2-x,1/2+y,-z
loop_
_atom_site_type_symbol
_atom_site_label
_atom_site_fract_x
_atom_site_fract_y
_atom_site_fract_z
Si Si1 0.301268 0.495260 0.856220
Si Si2 0.293605 0.698534 0.371097
Si Si3 0.661852 0.320947 0.837182
Si Si4 0.699246 0.263324 0.624935
Si Si5 0.500000 0.737039 0.000000
Si Si6 0.201382 0.548638 0.140379
Si Si7 0.720064 0.660986 0.871040
Si Si8 0.716402 0.882967 0.871784
O O1 0.541888 0.508069 0.809342
O O2 0.174604 0.439751 0.828476
O O3 0.043283 0.536716 0.813264
O O4 0.500000 0.497797 0.000000
O O5 0.500000 0.673804 0.500000
O O6 0.489958 0.746694 0.370259
O O7 0.233431 0.674618 0.244860
O O8 0.988236 0.713926 0.373648
O O9 0.699703 0.295565 0.729847
O O10 0.346998 0.346037 0.804429
O O11 0.923843 0.361952 0.876727
O O12 0.731802 0.276223 0.933960
O O13 0.500000 0.288463 0.500000
O O14 0.481431 0.701129 0.100566
O O15 0.353012 0.602362 0.150005
O O16 0.000000 0.541591 0.000000
O O17 0.000000 0.662415 0.000000
O O18 0.000000 0.883024 0.000000
#
# Coordination Sequence:
#
# PCOD9124592 Si02
#       8
#     4   4   4   4   2   4   4   4
#     4   9  18  34  51  72 103 138 175 232 270 324
#     4  10  21  38  56  76 109 154 195 226 262 320
#     4  12  22  34  52  80 111 149 180 216 275 336
#     4  10  21  37  54  73 105 149 193 229 261 310
#     4  12  24  32  52  78 128 144 176 216 280 330
#     4   9  19  32  51  74 104 138 180 219 277 326
#     4  11  24  34  56  84 116 154 183 228 283 340
#     4  11  21  34  52  78 109 143 182 218 279 334
#
# _framework density 19.77251
#
# number of rings (size 3 to 8) (size 9 to 14) (size 15 to 20)
#    0.000    1.600    2.667    2.400    6.533    2.133 
#    0.000    0.000    0.000    0.000    0.000    5.600 
#    0.000    0.000    0.000    0.000    0.000    0.000 
#
# Total GULP energy -83523.524003 kJ/mol
# GULP energy per Si atom -5568.234934 kJ/mol
# Density = 1.972751 g / cm^3
# Si number density = 19.772510 Si / 1000 Ang^3
#
#
#
# Elastic Constant Matrix: (Units=GPa)
#
#
# Indices 1 2 3 4 5 6 
#
# 1 87.8679 35.0074 -1.0115 0.0000 -16.6928 0.0000
# 2 35.0074 93.1743 9.5831 0.0000 -0.9885 0.0000
# 3 -1.0115 9.5831 84.2517 0.0000 -11.2509 0.0000
# 4 0.0000 0.0000 0.0000 6.1217 0.0000 -1.9578
# 5 -16.6928 -0.9885 -11.2509 0.0000 21.5588 0.0000
# 6 0.0000 0.0000 0.0000 -1.9578 0.0000 21.5496
#
#
#
# Elastic Compliance Matrix: (Units=1/GPa)
#
#
# Indices 1 2 3 4 5 6 
#
# 1 0.016624 -0.006385 0.002801 0.000000 0.014041 0.000000
# 2 -0.006385 0.013313 -0.002332 0.000000 -0.005551 0.000000
# 3 0.002801 -0.002332 0.013376 0.000000 0.009042 0.000000
# 4 0.000000 0.000000 0.000000 0.168241 0.000000 0.015284
# 5 0.014041 -0.005551 0.009042 0.000000 0.061721 0.000000
# 6 0.000000 0.000000 0.000000 0.015284 0.000000 0.047793
#
#
# Mechanical properties :
#
#
# Convention : Reuss Voigt Hill
#
# Bulk Modulus (GPa) = 31.76658 39.16132 35.46395
# Shear Modulus (GPa) = 14.56055 24.62701 19.59378
#
# Velocity S-wave (km/s) = 2.71662 3.53302 3.15137
# Velocity P-wave (km/s) = 5.09323 6.04085 5.58717
#
# Compressibility (1/GPa) = 0.03147962
#
# Stress axis : x y z
#
# Youngs Moduli (GPa) = 60.15268 75.11675 74.76330
#
# Poissons Ratio (x) = 0.47964 -0.20940
# Poissons Ratio (y) = 0.38409 0.17436
# Poissons Ratio (z) = -0.16848 0.17518
#
# Static dielectric constant tensor:
#      x y z
#    x 1.732850 0.000000 0.010860 
#    y 0.000000 1.732640 0.000000 
#    z 0.010860 0.000000 1.745090 
# 
# From -- ./inp_files/33948.got.cif
#   From: 2010.05.17/outbox.cif.g08.bks.cpg/sg5_17_cif.got.tgz:33948.got - 2010.06.03 18:56:24.
