data_PCOD9124822
_publ_section_title
;
Structure prediction by ZEFSAII (Michael W. Deem and Ramdas Pophale) SiO2 
 PCOD9124822
Probable space group: C 2
;
_chemical_formula_sum "Si O2"
_cell_formula_units_Z 30
_cell_length_a 19.546086
_cell_length_b 5.937346
_cell_length_c 24.328653
_cell_angle_alpha 90.000000
_cell_angle_beta 151.131304
_cell_angle_gamma 90.000000
_cell_volume 1363.141946
_symmetry_space_group_name_H-M "C 2"
_symmetry_group_IT_number 5
_symmetry_cell_setting 'monoclinic'
loop_
_space_group_symop_operation_xyz
x,y,z
-x,y,-z
1/2+x,1/2+y,z
1/2-x,1/2+y,-z
loop_
_atom_site_type_symbol
_atom_site_label
_atom_site_fract_x
_atom_site_fract_y
_atom_site_fract_z
Si Si1 0.000000 0.926471 0.500000
Si Si2 0.389655 0.578434 0.775468
Si Si3 0.609458 0.540391 0.024038
Si Si4 0.552506 0.976238 0.403498
Si Si5 0.209164 0.203492 0.594959
Si Si6 0.163185 0.542337 0.094024
Si Si7 0.835399 0.768863 0.294194
Si Si8 0.674158 0.798839 0.383627
O O1 0.980482 0.795824 0.430661
O O2 0.856150 0.058952 0.402612
O O3 0.527615 0.534749 0.908348
O O4 0.326921 0.355067 0.704412
O O5 0.277442 0.666862 0.742498
O O6 0.393985 0.730736 0.723358
O O7 0.500000 0.545726 0.000000
O O8 0.673255 0.797951 0.069678
O O9 0.683975 0.292128 0.082782
O O10 0.400085 0.095589 0.295475
O O11 0.694505 0.135966 0.507393
O O12 0.575041 0.829999 0.474299
O O13 0.570884 0.822246 0.362509
O O14 0.268185 0.047090 0.588905
O O15 0.270480 0.487614 0.219624
O O16 0.000000 0.548010 0.000000
#
# Coordination Sequence:
#
# PCOD9124822 Si02
#       8
#     2   4   4   4   4   4   4   4
#     4  12  22  34  60 100 138 170 206 298 344 414
#     4  11  23  38  63  98 132 173 231 294 354 413
#     4  10  21  38  63  97 135 169 221 283 361 416
#     4  11  23  41  59  92 136 186 234 273 341 441
#     4  11  22  35  61  87 134 178 217 281 343 414
#     4  10  22  39  63  96 134 176 218 283 359 424
#     4  12  22  40  62 101 139 169 233 286 359 413
#     4  11  22  39  61  90 135 186 230 270 341 433
#
# _framework density 22.007978999999999
#
# number of rings (size 3 to 8) (size 9 to 14) (size 15 to 20)
#    0.000    1.067    6.667    1.600    5.600    1.067 
#    0.000    0.000    0.000    0.000    3.467    0.000 
#    0.000    0.000    0.000    0.000    0.000    0.000 
#
# Total GULP energy -83510.913910 kJ/mol
# GULP energy per Si atom -5567.394261 kJ/mol
# Density = 2.195789 g / cm^3
# Si number density = 22.007979 Si / 1000 Ang^3
#
#
#
# Elastic Constant Matrix: (Units=GPa)
#
#
# Indices 1 2 3 4 5 6 
#
# 1 69.0075 15.1722 23.9657 -0.0042 -21.3817 -0.0064
# 2 15.1722 118.8330 47.8900 -0.0103 -13.3381 -0.0161
# 3 23.9657 47.8900 117.7242 0.0003 -34.0713 0.0005
# 4 -0.0042 -0.0103 0.0003 28.3945 -0.0003 2.8194
# 5 -21.3817 -13.3381 -34.0713 -0.0003 21.7391 -0.0014
# 6 -0.0064 -0.0161 0.0005 2.8194 -0.0014 20.3236
#
#
#
# Elastic Compliance Matrix: (Units=1/GPa)
#
#
# Indices 1 2 3 4 5 6 
#
# 1 0.021649 -0.001320 0.003767 0.000002 0.026386 0.000007
# 2 -0.001320 0.010148 -0.004453 0.000003 -0.002052 0.000007
# 3 0.003767 -0.004453 0.017973 -0.000001 0.029141 -0.000001
# 4 0.000002 0.000003 -0.000001 0.035710 0.000003 -0.004954
# 5 0.026386 -0.002052 0.029141 0.000003 0.116366 0.000014
# 6 0.000007 0.000007 -0.000001 -0.004954 0.000014 0.049891
#
#
# Mechanical properties :
#
#
# Convention : Reuss Voigt Hill
#
# Bulk Modulus (GPa) = 21.85493 53.29116 37.57305
# Shear Modulus (GPa) = 18.44990 28.66056 23.55523
#
# Velocity S-wave (km/s) = 2.89853 3.61263 3.27510
# Velocity P-wave (km/s) = 4.59935 6.45511 5.60457
#
# Compressibility (1/GPa) = 0.04575626
#
# Stress axis : x y z
#
# Youngs Moduli (GPa) = 46.19139 98.54033 55.63826
#
# Poissons Ratio (x) = 0.13011 -0.20956
# Poissons Ratio (y) = 0.06099 0.24777
# Poissons Ratio (z) = -0.17398 0.43882
#
# Static dielectric constant tensor:
#      x y z
#    x 1.868460 0.000000 -0.041650 
#    y 0.000000 1.936850 0.000000 
#    z -0.041650 0.000000 1.897850 
# 
# From -- ./inp_files/45684.got.cif
#   From: 2010.05.17/outbox.cif.g08.bks.cpg/sg5_23_cif.got.tgz:45684.got - 2010.06.03 18:56:24.
