data_PCOD9124276
_publ_section_title
;
Structure prediction by ZEFSAII (Michael W. Deem and Ramdas Pophale) SiO2 
 PCOD9124276
Probable space group: C 2
;
_chemical_formula_sum "Si O2"
_cell_formula_units_Z 20
_cell_length_a 10.809819
_cell_length_b 14.497382
_cell_length_c 7.397281
_cell_angle_alpha 90.000000
_cell_angle_beta 135.823404
_cell_angle_gamma 90.000000
_cell_volume 807.854713
_symmetry_space_group_name_H-M "C 2"
_symmetry_group_IT_number 5
_symmetry_cell_setting 'monoclinic'
loop_
_space_group_symop_operation_xyz
x,y,z
-x,y,-z
1/2+x,1/2+y,z
1/2-x,1/2+y,-z
loop_
_atom_site_type_symbol
_atom_site_label
_atom_site_fract_x
_atom_site_fract_y
_atom_site_fract_z
Si Si1 0.362010 0.813900 0.027202
Si Si2 0.352607 0.394249 0.692100
Si Si3 0.000000 0.857040 0.500000
Si Si4 0.354198 0.180012 0.696340
Si Si5 0.500000 0.687453 0.500000
Si Si6 0.009260 0.498894 0.232352
O O1 0.414641 0.748614 0.248106
O O2 0.360485 0.919943 0.098669
O O3 0.500000 0.806594 0.000000
O O4 0.162555 0.797669 0.750276
O O5 0.435565 0.423019 0.590077
O O6 0.309897 0.286145 0.606015
O O7 0.170118 0.448150 0.505179
O O8 0.500000 0.405037 0.000000
O O9 0.170025 0.139386 0.584235
O O10 0.452811 0.104912 0.674801
O O11 0.500000 0.196585 0.000000
O O12 0.000000 0.505338 0.000000
#
# Coordination Sequence:
#
# PCOD9124276 Si02
#       6
#     4   4   2   4   2   4
#     4  11  22  40  65 102 131 173 228 278 328 398
#     4  11  22  42  66  95 131 174 219 275 330 397
#     4  12  22  37  71  94 126 182 218 261 351 388
#     4  10  22  40  65  99 138 170 224 278 331 397
#     4  12  22  41  75  98 128 188 224 265 345 404
#     4  10  20  43  63  94 138 170 213 285 323 384
#
# _framework density 24.756926
#
# number of rings (size 3 to 8) (size 9 to 14) (size 15 to 20)
#    0.000    1.200    6.000    2.400    0.000    0.800 
#    0.000    5.000    0.000    4.800    0.000    0.000 
#    0.000    0.000    0.000    0.000    0.000    0.000 
#
# Total GULP energy -55668.903883 kJ/mol
# GULP energy per Si atom -5566.890388 kJ/mol
# Density = 2.470058 g / cm^3
# Si number density = 24.756926 Si / 1000 Ang^3
#
#
#
# Elastic Constant Matrix: (Units=GPa)
#
#
# Indices 1 2 3 4 5 6 
#
# 1 68.3720 -1.5217 32.0216 0.0000 -3.5669 0.0000
# 2 -1.5217 122.4770 37.0366 0.0000 -2.9065 0.0000
# 3 32.0216 37.0366 198.4069 0.0000 10.3101 0.0000
# 4 0.0000 0.0000 0.0000 -18.9931 0.0000 17.5594
# 5 -3.5669 -2.9065 10.3101 0.0000 46.1756 0.0000
# 6 0.0000 0.0000 0.0000 17.5594 0.0000 -3.0426
#
#
#
# Elastic Compliance Matrix: (Units=1/GPa)
#
#
# Indices 1 2 3 4 5 6 
#
# 1 0.016118 0.001128 -0.002914 0.000000 0.001967 0.000000
# 2 0.001128 0.008771 -0.001874 0.000000 0.001058 0.000000
# 3 -0.002914 -0.001874 0.005947 0.000000 -0.001671 0.000000
# 4 0.000000 0.000000 0.000000 0.012144 0.000000 0.070085
# 5 0.001967 0.001058 -0.001671 0.000000 0.022248 0.000000
# 6 0.000000 0.000000 0.000000 0.070085 0.000000 0.075808
#
#
# Mechanical properties :
#
#
# Convention : Reuss Voigt Hill
#
# Bulk Modulus (GPa) = 42.52474 58.25875 50.39175
# Shear Modulus (GPa) = 32.01122 26.27595 29.14359
#
# Velocity S-wave (km/s) = 3.59976 3.26138 3.43474
# Velocity P-wave (km/s) = 5.87298 6.14537 6.01072
#
# Compressibility (1/GPa) = 0.02351572
#
# Stress axis : x y z
#
# Youngs Moduli (GPa) = 62.04074 114.01615 168.14680
#
# Poissons Ratio (x) = -0.12863 0.49002
# Poissons Ratio (y) = -0.06999 0.31515
# Poissons Ratio (z) = 0.18080 0.21370
#
# Static dielectric constant tensor:
#      x y z
#    x 2.258550 0.000000 0.037620 
#    y 0.000000 2.060260 0.000000 
#    z 0.037620 0.000000 1.936170 
# 
# From -- ./inp_files/21103.got.cif
#   From: 2010.05.17/outbox.cif.g08.bks.cpg/sg5_11_cif.got.tgz:21103.got - 2010.06.03 18:56:24.
