data_PCOD9124927
_publ_section_title
;
Structure prediction by ZEFSAII (Michael W. Deem and Ramdas Pophale) SiO2 
 PCOD9124927
Probable space group: C 2
;
_chemical_formula_sum "Si O2"
_cell_formula_units_Z 32
_cell_length_a 14.451867
_cell_length_b 7.782982
_cell_length_c 25.124390
_cell_angle_alpha 90.000000
_cell_angle_beta 150.345570
_cell_angle_gamma 90.000000
_cell_volume 1398.191969
_symmetry_space_group_name_H-M "C 2"
_symmetry_group_IT_number 5
_symmetry_cell_setting 'monoclinic'
loop_
_space_group_symop_operation_xyz
x,y,z
-x,y,-z
1/2+x,1/2+y,z
1/2-x,1/2+y,-z
loop_
_atom_site_type_symbol
_atom_site_label
_atom_site_fract_x
_atom_site_fract_y
_atom_site_fract_z
Si Si1 0.518799 0.845000 0.445941
Si Si2 0.725318 0.693523 0.111594
Si Si3 0.168166 0.615029 0.952655
Si Si4 0.518205 0.868864 0.729416
Si Si5 0.213062 0.998753 0.494679
Si Si6 0.990258 0.249021 0.830609
Si Si7 0.781071 0.724023 0.775368
Si Si8 0.332528 0.354772 0.270080
O O1 0.500000 0.840521 0.500000
O O2 0.618525 0.672626 0.470645
O O3 0.311980 0.840311 0.316510
O O4 0.645167 0.999276 0.485173
O O5 0.781129 0.703776 0.078068
O O6 0.847433 0.530865 0.192108
O O7 0.788267 0.839482 0.185204
O O8 0.500000 0.673290 0.000000
O O9 0.095623 0.423312 0.903792
O O10 0.000970 0.726786 0.895001
O O11 0.351230 0.609072 0.080142
O O12 0.451100 0.780852 0.749590
O O13 0.652297 0.747896 0.762247
O O14 0.342994 0.926234 0.606581
O O15 0.048181 0.870016 0.392845
O O16 0.803247 0.215294 0.770854
O O17 0.745461 0.527365 0.741723
#
# Coordination Sequence:
#
# PCOD9124927 Si02
#       8
#     4   4   4   4   4   4   4   4
#     4  10  22  40  67  93 127 173 211 265 324 378
#     4  11  22  38  60  89 120 160 203 254 308 367
#     4  10  22  37  57  83 118 157 201 245 304 381
#     4  10  23  38  61  90 120 159 203 255 309 368
#     4  10  22  40  67  95 127 166 220 263 317 393
#     4  10  22  38  57  86 117 157 202 247 311 370
#     4   9  22  39  57  88 118 157 206 245 307 378
#     4  10  21  39  61  88 122 156 203 256 306 373
#
# _framework density 22.886699
#
# number of rings (size 3 to 8) (size 9 to 14) (size 15 to 20)
#    0.000    2.000    1.250    0.750   12.250    1.000 
#    0.000    0.625   11.000    0.000    0.000    0.000 
#    0.000    0.000    0.000    0.000    0.000    0.000 
#
# Total GULP energy -89267.015530 kJ/mol
# GULP energy per Si atom -5579.188471 kJ/mol
# Density = 2.283461 g / cm^3
# Si number density = 22.886699 Si / 1000 Ang^3
#
#
#
# Elastic Constant Matrix: (Units=GPa)
#
#
# Indices 1 2 3 4 5 6 
#
# 1 55.8554 7.4879 12.4713 0.0000 -17.9812 0.0000
# 2 7.4879 46.9433 14.3100 0.0000 -4.3799 0.0000
# 3 12.4713 14.3100 125.5376 0.0003 4.0085 0.0000
# 4 0.0000 0.0000 0.0003 27.7698 0.0000 2.4806
# 5 -17.9812 -4.3799 4.0085 0.0000 40.8237 0.0000
# 6 0.0000 0.0000 0.0000 2.4806 0.0000 17.6559
#
#
#
# Elastic Compliance Matrix: (Units=1/GPa)
#
#
# Indices 1 2 3 4 5 6 
#
# 1 0.021749 -0.001887 -0.002252 0.000000 0.009598 0.000000
# 2 -0.001887 0.022517 -0.002437 0.000000 0.001824 0.000000
# 3 -0.002252 -0.002437 0.008534 0.000000 -0.002091 0.000000
# 4 0.000000 0.000000 0.000000 0.036468 0.000000 -0.005124
# 5 0.009598 0.001824 -0.002091 0.000000 0.029124 0.000000
# 6 0.000000 0.000000 0.000000 -0.005124 0.000000 0.057358
#
#
# Mechanical properties :
#
#
# Convention : Reuss Voigt Hill
#
# Bulk Modulus (GPa) = 25.22286 32.98607 29.10447
# Shear Modulus (GPa) = 24.73792 30.18767 27.46279
#
# Velocity S-wave (km/s) = 3.29125 3.63575 3.46778
# Velocity P-wave (km/s) = 5.04854 5.66295 5.36455
#
# Compressibility (1/GPa) = 0.03964657
#
# Stress axis : x y z
#
# Youngs Moduli (GPa) = 45.97892 44.41187 117.17725
#
# Poissons Ratio (x) = 0.08381 0.26388
# Poissons Ratio (y) = 0.08677 0.28561
# Poissons Ratio (z) = 0.10354 0.10825
#
# Static dielectric constant tensor:
#      x y z
#    x 1.840150 0.000000 0.036810 
#    y 0.000000 2.040160 0.000000 
#    z 0.036810 0.000000 1.873680 
# 
# From -- ./inp_files/54199.got.cif
#   From: 2010.05.17/outbox.cif.g08.bks.cpg/sg5_28_cif.got.tgz:54199.got - 2010.06.03 18:56:24.
