data_PCOD9124928
_publ_section_title
;
Structure prediction by ZEFSAII (Michael W. Deem and Ramdas Pophale) SiO2 
 PCOD9124928
Probable space group: C 2
;
_chemical_formula_sum "Si O2"
_cell_formula_units_Z 20
_cell_length_a 8.749972
_cell_length_b 22.162239
_cell_length_c 4.969896
_cell_angle_alpha 90.000000
_cell_angle_beta 98.560128
_cell_angle_gamma 90.000000
_cell_volume 953.021058
_symmetry_space_group_name_H-M "C 2"
_symmetry_group_IT_number 5
_symmetry_cell_setting 'monoclinic'
loop_
_space_group_symop_operation_xyz
x,y,z
-x,y,-z
1/2+x,1/2+y,z
1/2-x,1/2+y,-z
loop_
_atom_site_type_symbol
_atom_site_label
_atom_site_fract_x
_atom_site_fract_y
_atom_site_fract_z
Si Si1 0.674953 0.046660 0.553426
Si Si2 0.332536 0.599276 0.095269
Si Si3 0.816068 0.808518 0.460779
Si Si4 0.185737 0.730470 0.031815
Si Si5 0.103830 0.415227 0.294592
O O1 0.500000 0.073352 0.500000
O O2 0.729756 0.056623 0.871956
O O3 0.657044 0.978711 0.436928
O O4 0.800380 0.076296 0.388324
O O5 0.270204 0.667383 0.089369
O O6 0.500000 0.597753 0.000000
O O7 0.744053 0.868973 0.317826
O O8 0.000000 0.816073 0.500000
O O9 0.226342 0.754510 0.749395
O O10 0.774087 0.783296 0.744390
O O11 0.000000 0.720994 0.000000
O O12 0.000000 0.385798 0.500000
O O13 0.000000 0.423070 0.000000
#
# Coordination Sequence:
#
# PCOD9124928 Si02
#       5
#     4   4   4   4   4
#     4  11  23  43  65  88 124 171 211 250 311 386
#     4  12  25  40  63  96 126 160 210 269 316 357
#     4  10  22  39  62  90 122 161 206 252 307 368
#     4  10  21  39  61  88 123 167 207 246 307 383
#     4  11  23  41  64  92 122 161 209 257 308 368
#
# _framework density 20.985896
#
# number of rings (size 3 to 8) (size 9 to 14) (size 15 to 20)
#    0.000    1.200    0.000    7.200    0.000    5.600 
#    0.000    2.000    0.000    0.000    0.000    0.000 
#    0.000    0.000    0.000    0.000    0.000    0.000 
#
# Total GULP energy -55804.964256 kJ/mol
# GULP energy per Si atom -5580.496426 kJ/mol
# Density = 2.093813 g / cm^3
# Si number density = 20.985896 Si / 1000 Ang^3
#
#
#
# Elastic Constant Matrix: (Units=GPa)
#
#
# Indices 1 2 3 4 5 6 
#
# 1 46.8161 25.1132 6.0587 0.0000 -3.3825 0.0000
# 2 25.1132 83.0382 1.0313 0.0000 16.3776 0.0000
# 3 6.0587 1.0313 88.6542 0.0000 4.2124 0.0000
# 4 0.0000 0.0000 0.0000 2.9294 0.0000 13.6872
# 5 -3.3825 16.3776 4.2124 0.0000 33.2882 0.0000
# 6 0.0000 0.0000 0.0000 13.6872 0.0000 14.1614
#
#
#
# Elastic Compliance Matrix: (Units=1/GPa)
#
#
# Indices 1 2 3 4 5 6 
#
# 1 0.027491 -0.009847 -0.002140 0.000000 0.007909 0.000000
# 2 -0.009847 0.016866 0.000924 0.000000 -0.009416 0.000000
# 3 -0.002140 0.000924 0.011516 0.000000 -0.002129 0.000000
# 4 0.000000 0.000000 0.000000 -0.097093 0.000000 0.093841
# 5 0.007909 -0.009416 -0.002129 0.000000 0.035746 0.000000
# 6 0.000000 0.000000 0.000000 0.093841 0.000000 -0.020085
#
#
# Mechanical properties :
#
#
# Convention : Reuss Voigt Hill
#
# Bulk Modulus (GPa) = 29.63203 31.43502 30.53352
# Shear Modulus (GPa) = 639.51218 22.49615 331.00417
#
# Velocity S-wave (km/s) = 17.47558 3.27764 12.57256
# Velocity P-wave (km/s) = 20.52669 5.41623 15.01134
#
# Compressibility (1/GPa) = 0.03374727
#
# Stress axis : x y z
#
# Youngs Moduli (GPa) = 36.37568 59.28957 86.83225
#
# Poissons Ratio (x) = 0.58385 0.18582
# Poissons Ratio (y) = 0.35821 -0.08025
# Poissons Ratio (z) = 0.07784 -0.05479
#
# Static dielectric constant tensor:
#      x y z
#    x 1.877890 0.000000 -0.043840 
#    y 0.000000 1.711800 0.000000 
#    z -0.043840 0.000000 1.768650 
# 
# From -- ./inp_files/2422.got.cif
#   From: 2010.05.17/outbox.cif.g08.bks.cpg/sg5_2_cif.got.tgz:2422.got - 2010.06.03 18:56:24.
