data_PCOD9124766
_publ_section_title
;
Structure prediction by ZEFSAII (Michael W. Deem and Ramdas Pophale) SiO2 
 PCOD9124766
Probable space group: C 2
;
_chemical_formula_sum "Si O2"
_cell_formula_units_Z 32
_cell_length_a 15.396472
_cell_length_b 21.666406
_cell_length_c 8.541940
_cell_angle_alpha 90.000000
_cell_angle_beta 31.681456
_cell_angle_gamma 90.000000
_cell_volume 1496.532769
_symmetry_space_group_name_H-M "C 2"
_symmetry_group_IT_number 5
_symmetry_cell_setting 'monoclinic'
loop_
_space_group_symop_operation_xyz
x,y,z
-x,y,-z
1/2+x,1/2+y,z
1/2-x,1/2+y,-z
loop_
_atom_site_type_symbol
_atom_site_label
_atom_site_fract_x
_atom_site_fract_y
_atom_site_fract_z
Si Si1 0.683944 0.465360 0.649717
Si Si2 0.467392 0.866771 0.233302
Si Si3 0.519187 0.434127 0.288831
Si Si4 0.136025 0.247857 0.411669
Si Si5 0.652811 0.200967 0.647113
Si Si6 0.364393 0.972063 0.840179
Si Si7 0.025466 0.793760 0.273291
Si Si8 0.054157 0.567872 0.735016
O O1 0.798553 0.406441 0.500193
O O2 0.637058 0.469481 0.539176
O O3 0.789950 0.523864 0.532728
O O4 0.500000 0.460430 0.000000
O O5 0.443039 0.808457 0.383768
O O6 0.607167 0.913876 0.085760
O O7 0.500000 0.852231 0.000000
O O8 0.500000 0.426391 0.500000
O O9 0.526151 0.364516 0.215069
O O10 0.691905 0.469273 0.013991
O O11 0.192085 0.205412 0.473266
O O12 0.000000 0.222094 0.500000
O O13 0.300979 0.265364 0.057277
O O14 0.629270 0.258126 0.567058
O O15 0.615139 0.137453 0.615085
O O16 0.500000 0.207579 0.000000
O O17 0.500000 0.961626 0.500000
O O18 0.408833 0.036649 0.856060
O O19 0.000000 0.790198 0.500000
O O20 0.000000 0.563742 0.000000
#
# Coordination Sequence:
#
# PCOD9124766 Si02
#       8
#     4   4   4   4   4   4   4   4
#     4  11  21  35  56  85 116 148 189 245 302 353
#     4  11  22  38  60  87 123 167 199 237 310 387
#     4  11  20  32  53  85 114 138 179 236 292 348
#     4  11  22  38  60  90 120 153 206 268 311 358
#     4   9  21  41  61  81 115 165 211 251 305 373
#     4  11  21  35  57  86 118 151 190 245 303 367
#     4  10  21  38  61  87 121 161 200 245 310 384
#     4  10  21  41  60  77 111 161 208 243 297 376
#
# _framework density 21.382759
#
# number of rings (size 3 to 8) (size 9 to 14) (size 15 to 20)
#    0.000    1.500    0.000    7.875    0.000    4.500 
#    0.000    6.250    0.000    0.000    0.000    0.000 
#    0.000    0.000    0.000    0.000    0.000    0.000 
#
# Total GULP energy -89305.113926 kJ/mol
# GULP energy per Si atom -5581.569620 kJ/mol
# Density = 2.133409 g / cm^3
# Si number density = 21.382759 Si / 1000 Ang^3
#
#
#
# Elastic Constant Matrix: (Units=GPa)
#
#
# Indices 1 2 3 4 5 6 
#
# 1 106.4865 43.8424 2.3095 -0.0001 -14.2277 0.0000
# 2 43.8424 85.7012 6.9227 0.0000 -7.9604 0.0000
# 3 2.3095 6.9227 69.0079 -0.0005 2.0897 0.0002
# 4 -0.0001 0.0000 -0.0005 9.2962 0.0002 7.8318
# 5 -14.2277 -7.9604 2.0897 0.0002 40.2536 0.0000
# 6 0.0000 0.0000 0.0002 7.8318 0.0000 23.4892
#
#
#
# Elastic Compliance Matrix: (Units=1/GPa)
#
#
# Indices 1 2 3 4 5 6 
#
# 1 0.012278 -0.005996 0.000095 0.000000 0.003149 0.000000
# 2 -0.005996 0.014927 -0.001324 0.000000 0.000901 0.000000
# 3 0.000095 -0.001324 0.014651 0.000001 -0.000989 -0.000001
# 4 0.000000 0.000000 0.000001 0.149590 -0.000001 -0.049876
# 5 0.003149 0.000901 -0.000989 -0.000001 0.026185 0.000000
# 6 0.000000 0.000000 -0.000001 -0.049876 0.000000 0.059203
#
#
# Mechanical properties :
#
#
# Convention : Reuss Voigt Hill
#
# Bulk Modulus (GPa) = 36.48925 40.81608 38.65266
# Shear Modulus (GPa) = 16.64342 28.48254 22.56298
#
# Velocity S-wave (km/s) = 2.79293 3.65366 3.25190
# Velocity P-wave (km/s) = 5.24428 6.07690 5.67588
#
# Compressibility (1/GPa) = 0.02740534
#
# Stress axis : x y z
#
# Youngs Moduli (GPa) = 81.44380 66.99387 68.25629
#
# Poissons Ratio (x) = 0.40173 -0.00650
# Poissons Ratio (y) = 0.48838 0.09037
# Poissons Ratio (z) = -0.00776 0.08870
#
# Static dielectric constant tensor:
#      x y z
#    x 1.943130 0.000000 0.027800 
#    y 0.000000 1.787510 0.000000 
#    z 0.027800 0.000000 1.838120 
# 
# From -- ./inp_files/25569.got.cif
#   From: 2010.05.17/outbox.cif.g08.bks.cpg/sg5_13_cif.got.tgz:25569.got - 2010.06.03 18:56:24.
