data_PCOD9124305
_publ_section_title
;
Structure prediction by ZEFSAII (Michael W. Deem and Ramdas Pophale) SiO2 
 PCOD9124305
Probable space group: C 2
;
_chemical_formula_sum "Si O2"
_cell_formula_units_Z 20
_cell_length_a 7.085434
_cell_length_b 11.718528
_cell_length_c 9.632364
_cell_angle_alpha 90.000000
_cell_angle_beta 86.131971
_cell_angle_gamma 90.000000
_cell_volume 797.961589
_symmetry_space_group_name_H-M "C 2"
_symmetry_group_IT_number 5
_symmetry_cell_setting 'monoclinic'
loop_
_space_group_symop_operation_xyz
x,y,z
-x,y,-z
1/2+x,1/2+y,z
1/2-x,1/2+y,-z
loop_
_atom_site_type_symbol
_atom_site_label
_atom_site_fract_x
_atom_site_fract_y
_atom_site_fract_z
Si Si1 0.645557 0.257110 0.739950
Si Si2 0.217185 0.599916 0.959641
Si Si3 0.274943 0.946752 0.528258
Si Si4 0.302842 0.393807 0.770476
Si Si5 0.254460 0.145352 0.735817
O O1 0.778959 0.194871 0.843888
O O2 0.732781 0.326125 0.607876
O O3 0.506435 0.351574 0.814276
O O4 0.698560 0.599797 0.891169
O O5 0.218184 0.478780 0.884969
O O6 0.984502 0.664321 0.704774
O O7 0.000000 0.632567 0.000000
O O8 0.500000 0.954049 0.500000
O O9 0.182569 0.949495 0.381402
O O10 0.205417 0.053457 0.623581
O O11 0.190078 0.277013 0.741841
#
# Coordination Sequence:
#
# PCOD9124305 Si02
#       5
#     4   4   4   4   4
#     4   9  23  44  69  93 135 178 220 274 333 390
#     4  10  20  43  70  95 134 176 218 275 336 390
#     4  12  24  41  70  97 135 176 221 279 333 395
#     4  10  24  42  69  98 131 182 219 269 341 394
#     4   9  24  41  68  95 136 170 219 274 334 390
#
# _framework density 25.063866000000001
#
# number of rings (size 3 to 8) (size 9 to 14) (size 15 to 20)
#    1.200    0.800    0.000    3.000    8.400    0.000 
#    3.600    0.000    0.000    0.000    0.000    0.000 
#    0.000    0.000    0.000    0.000    0.000    0.000 
#
# Total GULP energy -55832.213127 kJ/mol
# GULP energy per Si atom -5583.221313 kJ/mol
# Density = 2.500682 g / cm^3
# Si number density = 25.063866 Si / 1000 Ang^3
#
#
#
# Elastic Constant Matrix: (Units=GPa)
#
#
# Indices 1 2 3 4 5 6 
#
# 1 63.9120 30.6922 15.4724 0.0000 -1.4744 0.0000
# 2 30.6922 147.6592 109.7023 0.0000 11.1525 0.0000
# 3 15.4724 109.7023 175.3884 0.0000 11.4335 0.0000
# 4 0.0000 0.0000 0.0000 71.8566 0.0000 -11.0358
# 5 -1.4744 11.1525 11.4335 0.0000 24.4521 0.0000
# 6 0.0000 0.0000 0.0000 -11.0358 0.0000 32.4889
#
#
#
# Elastic Compliance Matrix: (Units=1/GPa)
#
#
# Indices 1 2 3 4 5 6 
#
# 1 0.017723 -0.004847 0.001294 0.000000 0.002674 0.000000
# 2 -0.004847 0.014086 -0.008195 0.000000 -0.002885 0.000000
# 3 0.001294 -0.008195 0.010794 0.000000 -0.001231 0.000000
# 4 0.000000 0.000000 0.000000 0.014683 0.000000 0.004987
# 5 0.002674 -0.002885 -0.001231 0.000000 0.042949 0.000000
# 6 0.000000 0.000000 0.000000 0.004987 0.000000 0.032474
#
#
# Mechanical properties :
#
#
# Convention : Reuss Voigt Hill
#
# Bulk Modulus (GPa) = 52.33915 77.63258 64.98587
# Shear Modulus (GPa) = 30.75544 41.16568 35.96056
#
# Velocity S-wave (km/s) = 3.50677 4.05709 3.79193
# Velocity P-wave (km/s) = 6.10936 7.27927 6.71982
#
# Compressibility (1/GPa) = 0.01910616
#
# Stress axis : x y z
#
# Youngs Moduli (GPa) = 56.42488 70.99164 92.64801
#
# Poissons Ratio (x) = 0.34411 -0.11989
# Poissons Ratio (y) = 0.27350 0.75925
# Poissons Ratio (z) = -0.07302 0.58177
#
# Static dielectric constant tensor:
#      x y z
#    x 2.057900 0.000000 0.020910 
#    y 0.000000 1.967180 0.000000 
#    z 0.020910 0.000000 1.967970 
# 
# From -- ./inp_files/34954.got.cif
#   From: 2010.05.17/outbox.cif.g08.bks.cpg/sg5_18_cif.got.tgz:34954.got - 2010.06.03 18:56:24.
