data_PCOD9124922
_publ_section_title
;
Structure prediction by ZEFSAII (Michael W. Deem and Ramdas Pophale) SiO2 
 PCOD9124922
Probable space group: C 2
;
_chemical_formula_sum "Si O2"
_cell_formula_units_Z 20
_cell_length_a 18.314261
_cell_length_b 9.801310
_cell_length_c 9.794245
_cell_angle_alpha 90.000000
_cell_angle_beta 148.732656
_cell_angle_gamma 90.000000
_cell_volume 912.512123
_symmetry_space_group_name_H-M "C 2"
_symmetry_group_IT_number 5
_symmetry_cell_setting 'monoclinic'
loop_
_space_group_symop_operation_xyz
x,y,z
-x,y,-z
1/2+x,1/2+y,z
1/2-x,1/2+y,-z
loop_
_atom_site_type_symbol
_atom_site_label
_atom_site_fract_x
_atom_site_fract_y
_atom_site_fract_z
Si Si1 0.952626 0.810890 0.773394
Si Si2 0.479439 0.562998 0.617357
Si Si3 0.464466 0.855981 0.284060
Si Si4 0.866825 0.349519 0.716568
Si Si5 0.834059 0.568554 0.899391
O O1 0.982361 0.940427 0.726464
O O2 0.785216 0.781203 0.510908
O O3 0.951362 0.682089 0.110986
O O4 0.000000 0.849481 0.000000
O O5 0.500000 0.505411 0.500000
O O6 0.575035 0.695820 0.793468
O O7 0.321921 0.626104 0.361343
O O8 0.500000 0.879836 0.500000
O O9 0.586893 0.880125 0.364741
O O10 0.345101 0.957204 0.037722
O O11 0.855655 0.485124 0.792841
O O12 0.000000 0.272586 0.000000
#
# Coordination Sequence:
#
# PCOD9124922 Si02
#       5
#     4   4   4   4   4
#     4  11  22  39  68  95 121 164 214 259 307 368
#     4  10  24  42  59  90 130 163 203 258 313 371
#     4  10  21  39  61  86 121 163 203 250 307 365
#     4   9  20  40  63  88 126 164 202 256 310 361
#     4  10  22  42  63  89 126 162 206 261 310 365
#
# _framework density 21.917515999999999
#
# number of rings (size 3 to 8) (size 9 to 14) (size 15 to 20)
#    0.000    2.000    0.000    3.000    0.000   11.200 
#    0.000   20.000    0.000    0.000    0.000    0.000 
#    0.000    0.000    0.000    0.000    0.000    0.000 
#
# Total GULP energy -55796.992449 kJ/mol
# GULP energy per Si atom -5579.699245 kJ/mol
# Density = 2.186763 g / cm^3
# Si number density = 21.917516 Si / 1000 Ang^3
#
#
#
# Elastic Constant Matrix: (Units=GPa)
#
#
# Indices 1 2 3 4 5 6 
#
# 1 79.8433 24.5332 42.6343 0.0000 -31.4157 0.0000
# 2 24.5332 107.6181 62.5751 0.0000 -13.3055 0.0000
# 3 42.6343 62.5751 108.7584 0.0000 -1.1870 0.0000
# 4 0.0000 0.0000 0.0000 -51.3794 0.0000 -29.0189
# 5 -31.4157 -13.3055 -1.1870 0.0000 44.1331 0.0000
# 6 0.0000 0.0000 0.0000 -29.0189 0.0000 14.7288
#
#
#
# Elastic Compliance Matrix: (Units=1/GPa)
#
#
# Indices 1 2 3 4 5 6 
#
# 1 0.024835 0.003233 -0.011395 0.000000 0.018346 0.000000
# 2 0.003233 0.015126 -0.009898 0.000000 0.006595 0.000000
# 3 -0.011395 -0.009898 0.019241 0.000000 -0.010578 0.000000
# 4 0.000000 0.000000 0.000000 -0.009212 0.000000 -0.018150
# 5 0.018346 0.006595 -0.010578 0.000000 0.037422 0.000000
# 6 0.000000 0.000000 0.000000 -0.018150 0.000000 0.032135
#
#
# Mechanical properties :
#
#
# Convention : Reuss Voigt Hill
#
# Bulk Modulus (GPa) = 43.32644 61.74501 52.53573
# Shear Modulus (GPa) = 30.60697 12.59497 21.60097
#
# Velocity S-wave (km/s) = 3.74098 2.39979 3.14276
# Velocity P-wave (km/s) = 6.20248 5.99261 6.09845
#
# Compressibility (1/GPa) = 0.02308059
#
# Stress axis : x y z
#
# Youngs Moduli (GPa) = 40.26631 66.11207 51.97207
#
# Poissons Ratio (x) = -0.21371 0.59222
# Poissons Ratio (y) = -0.13016 0.51442
# Poissons Ratio (z) = 0.45884 0.65438
#
# Static dielectric constant tensor:
#      x y z
#    x 1.995960 0.000000 0.157200 
#    y 0.000000 1.800630 0.000000 
#    z 0.157200 0.000000 1.927720 
# 
# From -- ./inp_files/23217.got.cif
#   From: 2010.05.17/outbox.cif.g08.bks.cpg/sg5_12_cif.got.tgz:23217.got - 2010.06.03 18:56:24.
