data_PCOD9124784
_publ_section_title
;
Structure prediction by ZEFSAII (Michael W. Deem and Ramdas Pophale) SiO2 
 PCOD9124784
Probable space group: C 2
;
_chemical_formula_sum "Si O2"
_cell_formula_units_Z 28
_cell_length_a 31.549734
_cell_length_b 6.504327
_cell_length_c 8.932249
_cell_angle_alpha 90.000000
_cell_angle_beta 51.087109
_cell_angle_gamma 90.000000
_cell_volume 1426.248939
_symmetry_space_group_name_H-M "C 2"
_symmetry_group_IT_number 5
_symmetry_cell_setting 'monoclinic'
loop_
_space_group_symop_operation_xyz
x,y,z
-x,y,-z
1/2+x,1/2+y,z
1/2-x,1/2+y,-z
loop_
_atom_site_type_symbol
_atom_site_label
_atom_site_fract_x
_atom_site_fract_y
_atom_site_fract_z
Si Si1 0.194868 0.840540 0.750492
Si Si2 0.122019 0.457911 0.830223
Si Si3 0.499333 0.302076 0.675418
Si Si4 0.603077 0.609106 0.101687
Si Si5 0.965001 0.443989 0.204539
Si Si6 0.306720 0.638535 0.520690
Si Si7 0.597741 0.609643 0.465650
O O1 0.157334 0.641509 0.814941
O O2 0.251773 0.756929 0.688203
O O3 0.205462 0.949425 0.565488
O O4 0.159117 0.998407 0.927189
O O5 0.080299 0.547562 0.800743
O O6 0.158952 0.299889 0.654085
O O7 0.097252 0.315408 0.016556
O O8 0.500000 0.235978 0.500000
O O9 0.448330 0.456181 0.811803
O O10 0.556169 0.420579 0.574025
O O11 0.500232 0.110314 0.783750
O O12 0.605249 0.651045 0.273472
O O13 0.934421 0.297318 0.386500
O O14 0.000000 0.325049 0.000000
O O15 0.345914 0.576804 0.570675
#
# Coordination Sequence:
#
# PCOD9124784 Si02
#       7
#     4   4   4   4   4   4   4
#     4  11  20  39  62  87 121 162 210 253 315 356
#     4  10  21  38  62  89 119 159 206 255 300 365
#     4  10  22  40  61  86 125 162 198 255 310 369
#     4  10  23  40  61  91 127 166 203 252 315 373
#     4  11  22  35  61  93 117 157 204 246 305 363
#     4  10  21  38  62  88 121 161 209 260 303 361
#     4  10  23  42  59  90 125 160 204 252 307 372
#
# _framework density 19.631916
#
# number of rings (size 3 to 8) (size 9 to 14) (size 15 to 20)
#    0.000    1.714    1.429    2.571    0.000    8.000 
#    2.571    0.000    0.000    0.000    0.000    0.000 
#    0.000    0.000    0.000    0.000    0.000    0.000 
#
# Total GULP energy -78148.813801 kJ/mol
# GULP energy per Si atom -5582.058129 kJ/mol
# Density = 1.958723 g / cm^3
# Si number density = 19.631916 Si / 1000 Ang^3
#
#
#
# Elastic Constant Matrix: (Units=GPa)
#
#
# Indices 1 2 3 4 5 6 
#
# 1 145.0382 49.5944 65.3554 0.0000 1.5327 0.0000
# 2 49.5944 68.4631 45.1613 0.0000 14.0340 0.0000
# 3 65.3554 45.1613 113.4296 0.0000 9.5867 0.0000
# 4 0.0000 0.0000 0.0000 34.2698 0.0000 -2.1578
# 5 1.5327 14.0340 9.5867 0.0000 23.5481 0.0000
# 6 0.0000 0.0000 0.0000 -2.1578 0.0000 32.7490
#
#
#
# Elastic Compliance Matrix: (Units=1/GPa)
#
#
# Indices 1 2 3 4 5 6 
#
# 1 0.010792 -0.005965 -0.004230 0.000000 0.004575 0.000000
# 2 -0.005965 0.025088 -0.005510 0.000000 -0.012320 0.000000
# 3 -0.004230 -0.005510 0.013615 0.000000 -0.001983 0.000000
# 4 0.000000 0.000000 0.000000 0.029302 0.000000 0.001931
# 5 0.004575 -0.012320 -0.001983 0.000000 0.050319 0.000000
# 6 0.000000 0.000000 0.000000 0.001931 0.000000 0.030662
#
#
# Mechanical properties :
#
#
# Convention : Reuss Voigt Hill
#
# Bulk Modulus (GPa) = 55.29760 71.90591 63.60176
# Shear Modulus (GPa) = 25.35287 29.23470 27.29379
#
# Velocity S-wave (km/s) = 3.59752 3.86313 3.73269
# Velocity P-wave (km/s) = 6.74422 7.52362 7.14456
#
# Compressibility (1/GPa) = 0.01808397
#
# Stress axis : x y z
#
# Youngs Moduli (GPa) = 92.65979 39.85970 73.45056
#
# Poissons Ratio (x) = 0.23778 0.31068
# Poissons Ratio (y) = 0.55276 0.40473
# Poissons Ratio (z) = 0.39193 0.21964
#
# Static dielectric constant tensor:
#      x y z
#    x 1.711320 0.000000 -0.028120 
#    y 0.000000 1.673010 0.000000 
#    z -0.028120 0.000000 1.691690 
# 
# From -- ./inp_files/32104.got.cif
#   From: 2010.05.17/outbox.cif.g08.bks.cpg/sg5_17_cif.got.tgz:32104.got - 2010.06.03 18:56:24.
