data_PCOD9124057
_publ_section_title
;
Structure prediction by ZEFSAII (Michael W. Deem and Ramdas Pophale) SiO2 
 PCOD9124057
Probable space group: C 2
;
_chemical_formula_sum "Si O2"
_cell_formula_units_Z 28
_cell_length_a 5.191682
_cell_length_b 18.468534
_cell_length_c 14.810128
_cell_angle_alpha 90.000000
_cell_angle_beta 62.666675
_cell_angle_gamma 90.000000
_cell_volume 1261.489327
_symmetry_space_group_name_H-M "C 2"
_symmetry_group_IT_number 5
_symmetry_cell_setting 'monoclinic'
loop_
_space_group_symop_operation_xyz
x,y,z
-x,y,-z
1/2+x,1/2+y,z
1/2-x,1/2+y,-z
loop_
_atom_site_type_symbol
_atom_site_label
_atom_site_fract_x
_atom_site_fract_y
_atom_site_fract_z
Si Si1 0.771009 0.520890 0.689152
Si Si2 0.270261 0.747870 0.690970
Si Si3 0.758413 0.770878 0.109090
Si Si4 0.723920 0.350884 0.211320
Si Si5 0.968941 0.936132 0.106119
Si Si6 0.355127 0.174770 0.615378
Si Si7 0.849898 0.943043 0.614368
O O1 0.689025 0.491343 0.801598
O O2 0.716182 0.605591 0.685934
O O3 0.581698 0.480487 0.643547
O O4 0.107947 0.500583 0.622736
O O5 0.208546 0.726522 0.804666
O O6 0.612459 0.734349 0.628173
O O7 0.108451 0.825566 0.715815
O O8 0.100909 0.704964 0.641749
O O9 0.412785 0.781245 0.149906
O O10 0.824519 0.857128 0.111773
O O11 0.000000 0.746019 0.000000
O O12 0.734227 0.408886 0.128190
O O13 0.803559 0.384765 0.295080
O O14 0.000000 0.966262 0.000000
O O15 0.500000 0.148823 0.500000
O O16 0.000000 0.912902 0.500000
#
# Coordination Sequence:
#
# PCOD9124057 Si02
#       7
#     4   4   4   4   4   4   4
#     4  11  23  43  64  94 130 168 228 269 313 398
#     4  11  24  43  64  94 130 167 227 274 314 389
#     4  10  20  41  68  98 126 170 207 267 340 400
#     4  10  21  41  64 100 137 163 219 265 337 406
#     4   9  20  37  65  99 129 167 202 267 338 396
#     4  12  25  44  66  91 127 184 231 271 320 377
#     4  11  22  39  64  95 130 170 209 272 339 387
#
# _framework density 22.195988
#
# number of rings (size 3 to 8) (size 9 to 14) (size 15 to 20)
#    0.000    1.429    2.857    2.571    0.000    5.714 
#    2.571    1.429    0.000    0.000    0.000    0.000 
#    0.000    0.000    0.000    0.000    0.000    0.000 
#
# Total GULP energy -77994.119889 kJ/mol
# GULP energy per Si atom -5571.008563 kJ/mol
# Density = 2.214547 g / cm^3
# Si number density = 22.195988 Si / 1000 Ang^3
#
#
#
# Elastic Constant Matrix: (Units=GPa)
#
#
# Indices 1 2 3 4 5 6 
#
# 1 114.6333 20.4614 37.4655 0.0000 6.9323 0.0000
# 2 20.4614 45.8592 16.7434 0.0000 9.5784 0.0000
# 3 37.4655 16.7434 142.9724 0.0000 25.7587 0.0000
# 4 0.0000 0.0000 0.0000 29.5650 0.0000 1.1088
# 5 6.9323 9.5784 25.7587 0.0000 18.7130 0.0000
# 6 0.0000 0.0000 0.0000 1.1088 0.0000 20.2785
#
#
#
# Elastic Compliance Matrix: (Units=1/GPa)
#
#
# Indices 1 2 3 4 5 6 
#
# 1 0.010147 -0.003973 -0.002504 0.000000 0.001721 0.000000
# 2 -0.003973 0.026042 0.000170 0.000000 -0.012092 0.000000
# 3 -0.002504 0.000170 0.009946 0.000000 -0.012850 0.000000
# 4 0.000000 0.000000 0.000000 0.033893 0.000000 -0.001853
# 5 0.001721 -0.012092 -0.012850 0.000000 0.076679 0.000000
# 6 0.000000 0.000000 0.000000 -0.001853 0.000000 0.049415
#
#
# Mechanical properties :
#
#
# Convention : Reuss Voigt Hill
#
# Bulk Modulus (GPa) = 29.83182 50.31171 40.07176
# Shear Modulus (GPa) = 21.74785 28.96427 25.35606
#
# Velocity S-wave (km/s) = 3.13359 3.61630 3.38357
# Velocity P-wave (km/s) = 5.15382 6.33665 5.77559
#
# Compressibility (1/GPa) = 0.03352125
#
# Stress axis : x y z
#
# Youngs Moduli (GPa) = 98.55343 38.39960 100.54643
#
# Poissons Ratio (x) = 0.15255 0.25174
# Poissons Ratio (y) = 0.39151 -0.01707
# Poissons Ratio (z) = 0.24675 -0.00652
#
# Static dielectric constant tensor:
#      x y z
#    x 2.018010 0.000000 -0.050570 
#    y 0.000000 1.832830 0.000000 
#    z -0.050570 0.000000 1.834930 
# 
# From -- ./inp_files/33982.got.cif
#   From: 2010.05.17/outbox.cif.g08.bks.cpg/sg5_17_cif.got.tgz:33982.got - 2010.06.03 18:56:24.
