data_PCOD9124783
_publ_section_title
;
Structure prediction by ZEFSAII (Michael W. Deem and Ramdas Pophale) SiO2 
 PCOD9124783
Probable space group: C 2
;
_chemical_formula_sum "Si O2"
_cell_formula_units_Z 20
_cell_length_a 9.051419
_cell_length_b 5.289355
_cell_length_c 17.637769
_cell_angle_alpha 90.000000
_cell_angle_beta 78.614335
_cell_angle_gamma 90.000000
_cell_volume 827.810943
_symmetry_space_group_name_H-M "C 2"
_symmetry_group_IT_number 5
_symmetry_cell_setting 'monoclinic'
loop_
_space_group_symop_operation_xyz
x,y,z
-x,y,-z
1/2+x,1/2+y,z
1/2-x,1/2+y,-z
loop_
_atom_site_type_symbol
_atom_site_label
_atom_site_fract_x
_atom_site_fract_y
_atom_site_fract_z
Si Si1 0.601298 0.806020 0.560325
Si Si2 0.206099 0.471053 0.267839
Si Si3 0.343055 0.356510 0.970798
Si Si4 0.823441 0.805627 0.408233
Si Si5 0.433785 0.469512 0.789200
O O1 0.500000 0.877100 0.500000
O O2 0.760436 0.762191 0.499852
O O3 0.558380 0.533091 0.597046
O O4 0.619897 0.027719 0.618384
O O5 0.207195 0.404763 0.357449
O O6 0.384716 0.471445 0.230952
O O7 0.133475 0.739067 0.253982
O O8 0.127595 0.240286 0.232120
O O9 0.378482 0.415008 0.879825
O O10 0.500000 0.337085 0.000000
O O11 0.246585 0.592973 0.012150
#
# Coordination Sequence:
#
# PCOD9124783 Si02
#       5
#     4   4   4   4   4
#     4  10  21  38  62  87 123 158 234 268 328 388
#     4  12  27  45  71  98 146 180 227 277 347 403
#     4  12  25  45  74 103 137 179 225 280 335 398
#     4  10  23  38  59  92 119 176 213 280 327 390
#     4  12  26  46  69 105 137 180 227 277 335 417
#
# _framework density 24.160107
#
# number of rings (size 3 to 8) (size 9 to 14) (size 15 to 20)
#    0.000    0.800    0.000    7.200    5.600    0.000 
#    0.000    0.000    0.000    0.000    0.000    0.000 
#    0.000    0.000    0.000    0.000    0.000    0.000 
#
# Total GULP energy -55994.463246 kJ/mol
# GULP energy per Si atom -5599.446325 kJ/mol
# Density = 2.410512 g / cm^3
# Si number density = 24.160107 Si / 1000 Ang^3
#
#
#
# Elastic Constant Matrix: (Units=GPa)
#
#
# Indices 1 2 3 4 5 6 
#
# 1 137.7006 57.9510 2.1855 0.0000 2.2667 0.0000
# 2 57.9510 156.5313 -11.5364 0.0000 6.7730 0.0000
# 3 2.1855 -11.5364 86.7797 0.0000 -2.0817 0.0000
# 4 0.0000 0.0000 0.0000 40.8959 0.0000 20.3973
# 5 2.2667 6.7730 -2.0817 0.0000 38.5902 0.0000
# 6 0.0000 0.0000 0.0000 20.3973 0.0000 27.9124
#
#
#
# Elastic Compliance Matrix: (Units=1/GPa)
#
#
# Indices 1 2 3 4 5 6 
#
# 1 0.008639 -0.003247 -0.000649 0.000000 0.000028 0.000000
# 2 -0.003247 0.007718 0.001081 0.000000 -0.001106 0.000000
# 3 -0.000649 0.001081 0.011695 0.000000 0.000479 0.000000
# 4 0.000000 0.000000 0.000000 0.038476 0.000000 -0.028117
# 5 0.000028 -0.001106 0.000479 0.000000 0.026132 0.000000
# 6 0.000000 0.000000 0.000000 -0.028117 0.000000 0.056373
#
#
# Mechanical properties :
#
#
# Convention : Reuss Voigt Hill
#
# Bulk Modulus (GPa) = 44.59724 53.13463 48.86593
# Shear Modulus (GPa) = 30.83840 43.64046 37.23943
#
# Velocity S-wave (km/s) = 3.57658 4.25467 3.93028
# Velocity P-wave (km/s) = 5.96280 6.79535 6.39264
#
# Compressibility (1/GPa) = 0.02242291
#
# Stress axis : x y z
#
# Youngs Moduli (GPa) = 115.76046 129.56409 85.50654
#
# Poissons Ratio (x) = 0.42071 0.05546
# Poissons Ratio (y) = 0.37589 -0.09246
# Poissons Ratio (z) = 0.07508 -0.14010
#
# Static dielectric constant tensor:
#      x y z
#    x 1.995730 0.000000 -0.096830 
#    y 0.000000 1.971880 0.000000 
#    z -0.096830 0.000000 1.938380 
# 
# From -- ./inp_files/59142.got.cif
#   From: 2010.05.17/outbox.cif.g08.bks.cpg/sg5_30_cif.got.tgz:59142.got - 2010.06.03 18:56:24.
