data_PCOD9124055
_publ_section_title
;
Structure prediction by ZEFSAII (Michael W. Deem and Ramdas Pophale) SiO2 
 PCOD9124055
Probable space group: C 2
;
_chemical_formula_sum "Si O2"
_cell_formula_units_Z 30
_cell_length_a 20.658232
_cell_length_b 7.420906
_cell_length_c 9.112845
_cell_angle_alpha 90.000000
_cell_angle_beta 114.607538
_cell_angle_gamma 90.000000
_cell_volume 1270.148721
_symmetry_space_group_name_H-M "C 2"
_symmetry_group_IT_number 5
_symmetry_cell_setting 'monoclinic'
loop_
_space_group_symop_operation_xyz
x,y,z
-x,y,-z
1/2+x,1/2+y,z
1/2-x,1/2+y,-z
loop_
_atom_site_type_symbol
_atom_site_label
_atom_site_fract_x
_atom_site_fract_y
_atom_site_fract_z
Si Si1 0.864607 0.357280 0.589606
Si Si2 0.500000 0.614021 0.000000
Si Si3 0.344384 0.061006 0.197473
Si Si4 0.131565 0.082629 0.648579
Si Si5 0.349426 0.525823 0.763561
Si Si6 0.291122 0.408503 0.015212
Si Si7 0.032565 0.308195 0.746226
Si Si8 0.158801 0.753160 0.492655
O O1 0.839470 0.249110 0.420727
O O2 0.836900 0.228136 0.692395
O O3 0.854296 0.567583 0.606816
O O4 0.949405 0.336795 0.649470
O O5 0.436293 0.505363 0.858753
O O6 0.539430 0.742348 0.920020
O O7 0.322545 0.146159 0.334896
O O8 0.423498 0.983916 0.261368
O O9 0.292803 0.903848 0.090665
O O10 0.330335 0.220414 0.070646
O O11 0.064701 0.149829 0.677826
O O12 0.112289 0.913390 0.525672
O O13 0.320689 0.502468 0.898510
O O14 0.313499 0.386218 0.613253
O O15 0.310183 0.512634 0.182028
#
# Coordination Sequence:
#
# PCOD9124055 Si02
#       8
#     4   2   4   4   4   4   4   4
#     4  10  22  42  68  97 136 180 220 288 344 413
#     4  10  22  40  72  98 140 186 218 294 354 404
#     4  11  25  43  70 100 135 184 241 284 346 418
#     4  10  20  41  68  95 131 173 232 275 340 407
#     4  10  23  44  65 100 138 176 230 278 359 404
#     4  11  24  45  69  99 136 186 234 292 337 416
#     4  11  21  41  66 101 137 183 228 284 355 408
#     4  10  23  43  64 101 133 177 230 280 347 415
#
# _framework density 23.619282999999999
#
# number of rings (size 3 to 8) (size 9 to 14) (size 15 to 20)
#    0.000    1.600    2.667    1.200    0.000    3.200 
#   19.200    0.667    0.000    0.000    0.000    0.000 
#    0.000    0.000    0.000    0.000    0.000    0.000 
#
# Total GULP energy -83559.071378 kJ/mol
# GULP energy per Si atom -5570.604759 kJ/mol
# Density = 2.356552 g / cm^3
# Si number density = 23.619283 Si / 1000 Ang^3
#
#
#
# Elastic Constant Matrix: (Units=GPa)
#
#
# Indices 1 2 3 4 5 6 
#
# 1 41.5934 15.6489 16.5107 0.0000 -14.7382 0.0000
# 2 15.6489 158.6848 22.9873 0.0000 1.7365 0.0000
# 3 16.5107 22.9873 89.5493 0.0000 -16.5625 0.0000
# 4 0.0000 0.0000 0.0000 35.6582 0.0000 -0.8915
# 5 -14.7382 1.7365 -16.5625 0.0000 23.4071 0.0000
# 6 0.0000 0.0000 0.0000 -0.8915 0.0000 16.1743
#
#
#
# Elastic Compliance Matrix: (Units=1/GPa)
#
#
# Indices 1 2 3 4 5 6 
#
# 1 0.032919 -0.003237 -0.001565 0.000000 0.019860 0.000000
# 2 -0.003237 0.006940 -0.001906 0.000000 -0.003902 0.000000
# 3 -0.001565 -0.001906 0.013564 0.000000 0.008753 0.000000
# 4 0.000000 0.000000 0.000000 0.028083 0.000000 0.001548
# 5 0.019860 -0.003902 0.008753 0.000000 0.061710 0.000000
# 6 0.000000 0.000000 0.000000 0.001548 0.000000 0.061912
#
#
# Mechanical properties :
#
#
# Convention : Reuss Voigt Hill
#
# Bulk Modulus (GPa) = 24.99667 44.45790 34.72729
# Shear Modulus (GPa) = 21.56298 30.69331 26.12815
#
# Velocity S-wave (km/s) = 3.02477 3.60877 3.32960
# Velocity P-wave (km/s) = 4.77547 6.01896 5.43291
#
# Compressibility (1/GPa) = 0.04000533
#
# Stress axis : x y z
#
# Youngs Moduli (GPa) = 30.37802 144.09515 73.72468
#
# Poissons Ratio (x) = 0.46642 0.11540
# Poissons Ratio (y) = 0.09833 0.14054
# Poissons Ratio (z) = 0.04755 0.27469
#
# Static dielectric constant tensor:
#      x y z
#    x 1.876990 0.000000 0.025860 
#    y 0.000000 1.943490 0.000000 
#    z 0.025860 0.000000 1.993340 
# 
# From -- ./inp_files/47775.got.cif
#   From: 2010.05.17/outbox.cif.g08.bks.cpg/sg5_24_cif.got.tgz:47775.got - 2010.06.03 18:56:24.
