data_PCOD9124675
_publ_section_title
;
Structure prediction by ZEFSAII (Michael W. Deem and Ramdas Pophale) SiO2 
 PCOD9124675
Probable space group: C 2
;
_chemical_formula_sum "Si O2"
_cell_formula_units_Z 28
_cell_length_a 22.326927
_cell_length_b 5.069037
_cell_length_c 11.611034
_cell_angle_alpha 90.000000
_cell_angle_beta 64.562197
_cell_angle_gamma 90.000000
_cell_volume 1186.692268
_symmetry_space_group_name_H-M "C 2"
_symmetry_group_IT_number 5
_symmetry_cell_setting 'monoclinic'
loop_
_space_group_symop_operation_xyz
x,y,z
-x,y,-z
1/2+x,1/2+y,z
1/2-x,1/2+y,-z
loop_
_atom_site_type_symbol
_atom_site_label
_atom_site_fract_x
_atom_site_fract_y
_atom_site_fract_z
Si Si1 0.525642 0.479310 0.365647
Si Si2 0.892886 0.353247 0.857774
Si Si3 0.914586 0.960159 0.279447
Si Si4 0.288957 0.197889 0.488562
Si Si5 0.476446 0.983988 0.140826
Si Si6 0.262847 0.918351 0.060874
Si Si7 0.344131 0.183696 0.691517
O O1 0.500000 0.641339 0.500000
O O2 0.569173 0.607679 0.227817
O O3 0.460171 0.390591 0.352825
O O4 0.580453 0.288530 0.375270
O O5 0.852237 0.462141 0.782232
O O6 0.954876 0.526664 0.846604
O O7 0.839585 0.324608 0.004003
O O8 0.841770 0.864196 0.370514
O O9 0.940392 0.762781 0.159650
O O10 0.929883 0.264575 0.239234
O O11 0.234183 0.427751 0.552148
O O12 0.319810 0.111441 0.585337
O O13 0.500000 0.873695 0.000000
O O14 0.212604 0.876305 0.207803
O O15 0.235504 0.718779 0.984320
#
# Coordination Sequence:
#
# PCOD9124675 Si02
#       7
#     4   4   4   4   4   4   4
#     4  11  21  39  70 104 132 176 225 298 341 407
#     4  10  23  39  66 101 137 178 234 280 347 405
#     4  11  24  45  69 101 139 178 235 286 351 414
#     4  12  29  47  69  99 143 188 235 282 352 426
#     4  11  24  43  69 102 139 181 228 288 350 418
#     4  10  21  37  62  95 134 171 222 279 329 402
#     4  11  23  43  68  99 135 179 233 283 346 400
#
# _framework density 23.594999000000001
#
# number of rings (size 3 to 8) (size 9 to 14) (size 15 to 20)
#    0.000    1.143    4.286    1.286    2.000    5.143 
#    0.000    2.857    0.000    0.000    0.000    0.000 
#    0.000    0.000    0.000    0.000    0.000    0.000 
#
# Total GULP energy -78039.517508 kJ/mol
# GULP energy per Si atom -5574.251251 kJ/mol
# Density = 2.354130 g / cm^3
# Si number density = 23.594999 Si / 1000 Ang^3
#
#
#
# Elastic Constant Matrix: (Units=GPa)
#
#
# Indices 1 2 3 4 5 6 
#
# 1 51.7513 20.8614 -8.4474 0.0000 -1.5462 0.0000
# 2 20.8614 69.4423 1.9042 0.0000 -4.2388 0.0000
# 3 -8.4474 1.9042 42.8756 0.0000 -3.5061 0.0000
# 4 0.0000 0.0000 0.0000 25.3717 0.0000 -7.6120
# 5 -1.5462 -4.2388 -3.5061 0.0000 33.7054 0.0000
# 6 0.0000 0.0000 0.0000 -7.6120 0.0000 28.5048
#
#
#
# Elastic Compliance Matrix: (Units=1/GPa)
#
#
# Indices 1 2 3 4 5 6 
#
# 1 0.022959 -0.006990 0.004890 0.000000 0.000683 0.000000
# 2 -0.006990 0.016650 -0.001989 0.000000 0.001566 0.000000
# 3 0.004890 -0.001989 0.024582 0.000000 0.002531 0.000000
# 4 0.000000 0.000000 0.000000 0.042847 0.000000 0.011442
# 5 0.000683 0.001566 0.002531 0.000000 0.030160 0.000000
# 6 0.000000 0.000000 0.000000 0.011442 0.000000 0.038137
#
#
# Mechanical properties :
#
#
# Convention : Reuss Voigt Hill
#
# Bulk Modulus (GPa) = 17.85241 21.41172 19.63207
# Shear Modulus (GPa) = 24.72985 27.49979 26.11482
#
# Velocity S-wave (km/s) = 3.24095 3.41763 3.33046
# Velocity P-wave (km/s) = 4.64624 4.96669 4.80914
#
# Compressibility (1/GPa) = 0.05601485
#
# Stress axis : x y z
#
# Youngs Moduli (GPa) = 43.55519 60.05859 40.68016
#
# Poissons Ratio (x) = 0.41979 -0.19892
# Poissons Ratio (y) = 0.30444 0.08089
# Poissons Ratio (z) = -0.21297 0.11943
#
# Static dielectric constant tensor:
#      x y z
#    x 1.958490 0.000000 -0.061290 
#    y 0.000000 1.920410 0.000000 
#    z -0.061290 0.000000 1.974970 
# 
# From -- ./inp_files/45644.got.cif
#   From: 2010.05.17/outbox.cif.g08.bks.cpg/sg5_23_cif.got.tgz:45644.got - 2010.06.03 18:56:24.
