data_PCOD9124931
_publ_section_title
;
Structure prediction by ZEFSAII (Michael W. Deem and Ramdas Pophale) SiO2 
 PCOD9124931
Probable space group: C 2
;
_chemical_formula_sum "Si O2"
_cell_formula_units_Z 22
_cell_length_a 11.090074
_cell_length_b 9.360001
_cell_length_c 11.487765
_cell_angle_alpha 90.000000
_cell_angle_beta 42.429176
_cell_angle_gamma 90.000000
_cell_volume 804.530747
_symmetry_space_group_name_H-M "C 2"
_symmetry_group_IT_number 5
_symmetry_cell_setting 'monoclinic'
loop_
_space_group_symop_operation_xyz
x,y,z
-x,y,-z
1/2+x,1/2+y,z
1/2-x,1/2+y,-z
loop_
_atom_site_type_symbol
_atom_site_label
_atom_site_fract_x
_atom_site_fract_y
_atom_site_fract_z
Si Si1 0.000000 0.280591 0.500000
Si Si2 0.054704 0.560759 0.706902
Si Si3 0.329732 0.786430 0.838452
Si Si4 0.000000 0.496800 0.000000
Si Si5 0.828214 0.791906 0.819285
Si Si6 0.000000 0.986980 0.000000
Si Si7 0.833275 0.982403 0.344435
O O1 0.907777 0.200853 0.674266
O O2 0.832933 0.381606 0.578486
O O3 0.249652 0.568156 0.511858
O O4 0.983811 0.399667 0.757782
O O5 0.933956 0.651976 0.702079
O O6 0.032829 0.592654 0.860564
O O7 0.159355 0.883407 0.927822
O O8 0.272697 0.717616 0.998885
O O9 0.824147 0.394983 0.121414
O O10 0.999107 0.888708 0.732237
O O11 0.090310 0.063307 0.824213
#
# Coordination Sequence:
#
# PCOD9124931 Si02
#       7
#     2   4   4   2   4   2   4
#     4   8  14  30  54  82 120 150 196 280 328 372
#     4  10  21  39  61  89 133 182 223 275 342 400
#     4   8  16  31  54  85 118 158 219 268 316 410
#     4  10  24  44  66 100 140 174 228 288 332 410
#     4  10  21  40  64  91 134 182 222 278 345 401
#     4   8  14  30  56  80 114 150 198 280 322 358
#     4   9  18  35  59  93 128 168 227 274 326 421
#
# _framework density 27.345136
#
# number of rings (size 3 to 8) (size 9 to 14) (size 15 to 20)
#    0.000    2.909    0.000    0.000    0.000    5.818 
#    0.000   30.909    0.000    0.000    0.000    0.000 
#    0.000    0.000    0.000    0.000    0.000    0.000 
#
# Total GULP energy -61330.644294 kJ/mol
# GULP energy per Si atom -5575.513118 kJ/mol
# Density = 2.728290 g / cm^3
# Si number density = 27.345136 Si / 1000 Ang^3
#
#
#
# Elastic Constant Matrix: (Units=GPa)
#
#
# Indices 1 2 3 4 5 6 
#
# 1 122.3196 36.9712 46.9665 0.0000 -54.1480 0.0000
# 2 36.9712 62.8478 32.1122 0.0000 -18.3653 0.0000
# 3 46.9665 32.1122 193.9731 0.0000 -4.5184 0.0000
# 4 0.0000 0.0000 0.0000 13.6094 0.0000 -49.1895
# 5 -54.1480 -18.3653 -4.5184 0.0000 59.4595 0.0000
# 6 0.0000 0.0000 0.0000 -49.1895 0.0000 37.3309
#
#
#
# Elastic Compliance Matrix: (Units=1/GPa)
#
#
# Indices 1 2 3 4 5 6 
#
# 1 0.016648 -0.004281 -0.003005 0.000000 0.013610 0.000000
# 2 -0.004281 0.020220 -0.002260 0.000000 0.002175 0.000000
# 3 -0.003005 -0.002260 0.006188 0.000000 -0.002965 0.000000
# 4 0.000000 0.000000 0.000000 -0.019529 0.000000 -0.025733
# 5 0.013610 0.002175 -0.002965 0.000000 0.029659 0.000000
# 6 0.000000 0.000000 0.000000 -0.025733 0.000000 -0.007120
#
#
# Mechanical properties :
#
#
# Convention : Reuss Voigt Hill
#
# Bulk Modulus (GPa) = 41.72957 67.91560 54.82258
# Shear Modulus (GPa) = 68.35500 39.61934 53.98717
#
# Velocity S-wave (km/s) = 5.00514 3.81052 4.44812
# Velocity P-wave (km/s) = 6.97820 6.65210 6.81710
#
# Compressibility (1/GPa) = 0.02396382
#
# Stress axis : x y z
#
# Youngs Moduli (GPa) = 60.06723 49.45534 161.59934
#
# Poissons Ratio (x) = 0.21171 0.48565
# Poissons Ratio (y) = 0.25713 0.36526
# Poissons Ratio (z) = 0.18052 0.11178
#
# Static dielectric constant tensor:
#      x y z
#    x 2.369840 0.000000 0.165630 
#    y 0.000000 2.084210 0.000000 
#    z 0.165630 0.000000 2.214500 
# 
# From -- ./inp_files/39071.got.cif
#   From: 2010.05.17/outbox.cif.g08.bks.cpg/sg5_20_cif.got.tgz:39071.got - 2010.06.03 18:56:24.
