data_PCOD9124120
_publ_section_title
;
Structure prediction by ZEFSAII (Michael W. Deem and Ramdas Pophale) SiO2 
 PCOD9124120
Probable space group: C 2
;
_chemical_formula_sum "Si O2"
_cell_formula_units_Z 22
_cell_length_a 22.441157
_cell_length_b 5.603767
_cell_length_c 18.527006
_cell_angle_alpha 90.000000
_cell_angle_beta 20.529650
_cell_angle_gamma 90.000000
_cell_volume 817.064761
_symmetry_space_group_name_H-M "C 2"
_symmetry_group_IT_number 5
_symmetry_cell_setting 'monoclinic'
loop_
_space_group_symop_operation_xyz
x,y,z
-x,y,-z
1/2+x,1/2+y,z
1/2-x,1/2+y,-z
loop_
_atom_site_type_symbol
_atom_site_label
_atom_site_fract_x
_atom_site_fract_y
_atom_site_fract_z
Si Si1 0.421896 0.097510 0.490767
Si Si2 0.000000 0.984627 0.500000
Si Si3 0.112922 0.067947 0.943840
Si Si4 0.612647 0.077028 0.945876
Si Si5 0.316006 0.107192 0.456059
Si Si6 0.660055 0.912118 0.113151
O O1 0.304110 0.062551 0.694015
O O2 0.296211 0.129331 0.565549
O O3 0.518701 0.337139 0.403360
O O4 0.313013 0.590541 0.700410
O O5 0.937970 0.412164 0.697315
O O6 0.289557 0.640786 0.964693
O O7 0.085557 0.320262 0.011425
O O8 0.000000 0.065700 0.000000
O O9 0.073947 0.824656 0.028677
O O10 0.500000 0.074719 0.000000
O O11 0.277768 0.370032 0.467931
O O12 0.511948 0.025130 0.231764
#
# Coordination Sequence:
#
# PCOD9124120 Si02
#       6
#     4   2   4   4   4   4
#     4   9  23  39  72  92 143 172 229 283 354 415
#     4  10  20  42  64 104 132 184 212 290 360 420
#     4   9  18  37  58  91 128 171 212 267 327 413
#     4   9  19  34  57  85 135 169 217 256 326 425
#     4  10  22  42  68  96 132 180 233 287 337 396
#     4  10  22  42  67  99 135 180 237 283 341 411
#
# _framework density 26.925650000000001
#
# number of rings (size 3 to 8) (size 9 to 14) (size 15 to 20)
#    1.091    1.455    0.000    1.091    0.000    8.727 
#    0.000   18.182    0.000    0.000    0.000    0.000 
#    0.000    0.000    0.000    0.000    0.000    0.000 
#
# Total GULP energy -61277.737506 kJ/mol
# GULP energy per Si atom -5570.703410 kJ/mol
# Density = 2.686437 g / cm^3
# Si number density = 26.925650 Si / 1000 Ang^3
#
#
#
# Elastic Constant Matrix: (Units=GPa)
#
#
# Indices 1 2 3 4 5 6 
#
# 1 121.4164 36.0332 31.2450 -0.0020 -9.3371 -0.0023
# 2 36.0332 236.3575 0.9627 -0.0101 15.5106 -0.0058
# 3 31.2450 0.9627 87.9377 -0.0039 2.3388 0.0032
# 4 -0.0020 -0.0101 -0.0039 44.3513 0.0018 -71.5135
# 5 -9.3371 15.5106 2.3388 0.0018 50.6635 0.0012
# 6 -0.0023 -0.0058 0.0032 -71.5135 0.0012 171.5986
#
#
#
# Elastic Compliance Matrix: (Units=1/GPa)
#
#
# Indices 1 2 3 4 5 6 
#
# 1 0.009826 -0.001646 -0.003539 0.000000 0.002478 0.000000
# 2 -0.001646 0.004593 0.000581 0.000004 -0.001736 0.000002
# 3 -0.003539 0.000581 0.012660 0.000002 -0.001415 0.000001
# 4 0.000000 0.000004 0.000002 0.068738 -0.000004 0.028646
# 5 0.002478 -0.001736 -0.001415 -0.000004 0.020792 -0.000002
# 6 0.000000 0.000002 0.000001 0.028646 -0.000002 0.017766
#
#
# Mechanical properties :
#
#
# Convention : Reuss Voigt Hill
#
# Bulk Modulus (GPa) = 55.95730 64.68817 60.32274
# Shear Modulus (GPa) = 33.43560 78.48737 55.96148
#
# Velocity S-wave (km/s) = 3.52771 5.40490 4.56386
# Velocity P-wave (km/s) = 6.11721 7.93899 7.08688
#
# Compressibility (1/GPa) = 0.01787077
#
# Stress axis : x y z
#
# Youngs Moduli (GPa) = 101.77064 217.70188 78.98617
#
# Poissons Ratio (x) = 0.35838 0.27954
# Poissons Ratio (y) = 0.16754 -0.04588
# Poissons Ratio (z) = 0.36018 -0.12644
#
# Static dielectric constant tensor:
#      x y z
#    x 2.001270 -0.000010 0.051650 
#    y -0.000010 2.220290 0.000010 
#    z 0.051650 0.000010 1.961680 
# 
# From -- ./inp_files/56475.got.cif
#   From: 2010.05.17/outbox.cif.g08.bks.cpg/sg5_29_cif.got.tgz:56475.got - 2010.06.03 18:56:24.
