data_PCOD9124456
_publ_section_title
;
Structure prediction by ZEFSAII (Michael W. Deem and Ramdas Pophale) SiO2 
 PCOD9124456
Probable space group: C 2
;
_chemical_formula_sum "Si O2"
_cell_formula_units_Z 28
_cell_length_a 16.980863
_cell_length_b 12.431944
_cell_length_c 19.938424
_cell_angle_alpha 90.000000
_cell_angle_beta 20.119007
_cell_angle_gamma 90.000000
_cell_volume 1447.810492
_symmetry_space_group_name_H-M "C 2"
_symmetry_group_IT_number 5
_symmetry_cell_setting 'monoclinic'
loop_
_space_group_symop_operation_xyz
x,y,z
-x,y,-z
1/2+x,1/2+y,z
1/2-x,1/2+y,-z
loop_
_atom_site_type_symbol
_atom_site_label
_atom_site_fract_x
_atom_site_fract_y
_atom_site_fract_z
Si Si1 0.037898 0.552600 0.269724
Si Si2 0.696587 0.890481 0.928933
Si Si3 0.773599 0.809940 0.724992
Si Si4 0.782680 0.569164 0.722535
Si Si5 0.208665 0.728621 0.027543
Si Si6 0.456521 0.418108 0.908110
Si Si7 0.022069 0.057194 0.723065
O O1 0.765648 0.548027 0.492913
O O2 0.129374 0.578753 0.271621
O O3 0.099569 0.635880 0.161307
O O4 0.188896 0.447483 0.132605
O O5 0.809866 0.830373 0.774791
O O6 0.728550 0.820323 0.969614
O O7 0.822724 0.002282 0.838993
O O8 0.425561 0.892945 0.134371
O O9 0.680203 0.687889 0.788847
O O10 0.000000 0.821066 0.500000
O O11 0.609013 0.472476 0.844557
O O12 0.000000 0.555600 0.500000
O O13 0.041648 0.791320 0.109365
O O14 0.430596 0.674827 0.815941
O O15 0.539532 0.486671 0.777123
#
# Coordination Sequence:
#
# PCOD9124456 Si02
#       7
#     4   4   4   4   4   4   4
#     4  11  21  37  64  87 122 160 192 253 299 358
#     4  10  21  36  57  88 120 149 196 251 296 355
#     4  10  21  34  61  89 113 151 194 254 303 350
#     4  11  20  36  61  91 123 148 200 250 305 354
#     4  10  22  38  58  87 125 156 196 243 301 360
#     4  10  22  37  58  90 124 156 196 249 301 359
#     4  10  22  38  57  88 121 159 200 240 299 365
#
# _framework density 19.339547
#
# number of rings (size 3 to 8) (size 9 to 14) (size 15 to 20)
#    0.000    1.714    2.857    2.143    4.000    5.714 
#    0.000    0.000    6.286    0.857    0.000    0.000 
#    0.000    0.000    0.000    0.000    0.000    0.000 
#
# Total GULP energy -78035.850152 kJ/mol
# GULP energy per Si atom -5573.989297 kJ/mol
# Density = 1.929553 g / cm^3
# Si number density = 19.339547 Si / 1000 Ang^3
#
#
#
# Elastic Constant Matrix: (Units=GPa)
#
#
# Indices 1 2 3 4 5 6 
#
# 1 69.3508 32.6631 29.7479 -0.0056 -3.0636 0.0059
# 2 32.6631 60.4717 28.1040 -0.0368 -6.4615 -0.0005
# 3 29.7479 28.1040 129.6669 -0.0074 7.9767 0.0020
# 4 -0.0056 -0.0368 -0.0074 12.6201 0.0050 -3.2666
# 5 -3.0636 -6.4615 7.9767 0.0050 28.8379 -0.0093
# 6 0.0059 -0.0005 0.0020 -3.2666 -0.0093 31.1475
#
#
#
# Elastic Compliance Matrix: (Units=1/GPa)
#
#
# Indices 1 2 3 4 5 6 
#
# 1 0.020058 -0.009564 -0.002572 -0.000022 0.000699 -0.000006
# 2 -0.009564 0.023786 -0.003282 0.000064 0.005221 0.000011
# 3 -0.002572 -0.003282 0.009233 -0.000004 -0.003562 -0.000002
# 4 -0.000022 0.000064 -0.000004 0.081450 0.000002 0.008542
# 5 0.000699 0.005221 -0.003562 0.000002 0.036906 0.000011
# 6 -0.000006 0.000011 -0.000002 0.008542 0.000011 0.033001
#
#
# Mechanical properties :
#
#
# Convention : Reuss Voigt Hill
#
# Bulk Modulus (GPa) = 44.96384 48.94659 46.95522
# Shear Modulus (GPa) = 20.60289 25.78605 23.19447
#
# Velocity S-wave (km/s) = 3.26747 3.65544 3.46689
# Velocity P-wave (km/s) = 6.12661 6.57118 6.35278
#
# Compressibility (1/GPa) = 0.02224009
#
# Stress axis : x y z
#
# Youngs Moduli (GPa) = 49.85521 42.04129 108.31120
#
# Poissons Ratio (x) = 0.40209 0.27855
# Poissons Ratio (y) = 0.47683 0.35552
# Poissons Ratio (z) = 0.12821 0.13800
#
# Static dielectric constant tensor:
#      x y z
#    x 1.765970 -0.000010 -0.003960 
#    y -0.000010 1.697490 0.000010 
#    z -0.003960 0.000010 1.678980 
# 
# From -- ./inp_files/62872.got.cif
#   From: 2010.05.17/outbox.cif.g08.bks.cpg/sg5_32_cif.got.tgz:62872.got - 2010.06.03 18:56:24.
