data_PCOD9124833
_publ_section_title
;
Structure prediction by ZEFSAII (Michael W. Deem and Ramdas Pophale) SiO2 
 PCOD9124833
Probable space group: C 2
;
_chemical_formula_sum "Si O2"
_cell_formula_units_Z 30
_cell_length_a 20.694781
_cell_length_b 9.242015
_cell_length_c 17.171282
_cell_angle_alpha 90.000000
_cell_angle_beta 28.498719
_cell_angle_gamma 90.000000
_cell_volume 1567.022536
_symmetry_space_group_name_H-M "C 2"
_symmetry_group_IT_number 5
_symmetry_cell_setting 'monoclinic'
loop_
_space_group_symop_operation_xyz
x,y,z
-x,y,-z
1/2+x,1/2+y,z
1/2-x,1/2+y,-z
loop_
_atom_site_type_symbol
_atom_site_label
_atom_site_fract_x
_atom_site_fract_y
_atom_site_fract_z
Si Si1 0.408658 0.794510 0.298031
Si Si2 0.743186 0.466644 0.917684
Si Si3 0.670843 0.070225 0.540903
Si Si4 0.000000 0.128333 0.500000
Si Si5 0.030748 0.349290 0.594804
Si Si6 0.886619 0.722521 0.842465
Si Si7 0.400111 0.697129 0.035556
Si Si8 0.872357 0.846413 0.683535
O O1 0.303908 0.664920 0.396504
O O2 0.479601 0.780154 0.307563
O O3 0.328921 0.946067 0.392846
O O4 0.518780 0.791493 0.114198
O O5 0.884361 0.414991 0.730009
O O6 0.792688 0.580519 0.931573
O O7 0.652260 0.554762 0.953560
O O8 0.667158 0.332757 0.036706
O O9 0.539139 0.168802 0.695266
O O10 0.636946 0.978655 0.498286
O O11 0.066458 0.230178 0.494256
O O12 0.892540 0.018448 0.652620
O O13 0.881311 0.798520 0.763439
O O14 0.267498 0.785918 0.201481
O O15 0.500000 0.664899 0.000000
O O16 0.000000 0.784214 0.500000
#
# Coordination Sequence:
#
# PCOD9124833 Si02
#       8
#     4   4   4   2   4   4   4   4
#     4  10  23  42  63  93 131 173 218 265 331 386
#     4  10  22  39  66  93 128 166 217 281 317 394
#     4   9  23  38  63  96 126 175 211 276 317 398
#     4  10  22  38  70  92 132 166 220 278 320 394
#     4   9  21  40  59 101 122 168 219 269 322 383
#     4  10  21  38  64  95 124 166 222 269 324 385
#     4  11  25  41  63  96 132 176 215 271 333 392
#     4   9  23  38  63  95 126 175 213 270 323 386
#
# _framework density 19.144587000000001
#
# number of rings (size 3 to 8) (size 9 to 14) (size 15 to 20)
#    1.200    1.067    0.000    1.600    7.467    2.133 
#    8.400    0.000    0.000    1.600    0.000    0.000 
#    0.000    0.000    0.000    0.000    0.000    0.000 
#
# Total GULP energy -83623.769572 kJ/mol
# GULP energy per Si atom -5574.917971 kJ/mol
# Density = 1.910101 g / cm^3
# Si number density = 19.144587 Si / 1000 Ang^3
#
#
#
# Elastic Constant Matrix: (Units=GPa)
#
#
# Indices 1 2 3 4 5 6 
#
# 1 55.5409 16.3950 18.0233 0.0000 -12.2947 0.0000
# 2 16.3950 100.4272 34.9917 0.0000 -8.6639 0.0000
# 3 18.0233 34.9917 67.4180 0.0000 -20.9983 0.0000
# 4 0.0000 0.0000 0.0000 24.9309 0.0000 0.6246
# 5 -12.2947 -8.6639 -20.9983 0.0000 19.8672 0.0000
# 6 0.0000 0.0000 0.0000 0.6246 0.0000 25.4941
#
#
#
# Elastic Compliance Matrix: (Units=1/GPa)
#
#
# Indices 1 2 3 4 5 6 
#
# 1 0.021478 -0.002140 -0.001165 0.000000 0.011126 0.000000
# 2 -0.002140 0.012425 -0.006860 0.000000 -0.003157 0.000000
# 3 -0.001165 -0.006860 0.026160 0.000000 0.023937 0.000000
# 4 0.000000 0.000000 0.000000 0.040136 0.000000 -0.000983
# 5 0.011126 -0.003157 0.023937 0.000000 0.081143 0.000000
# 6 0.000000 0.000000 0.000000 -0.000983 0.000000 0.039249
#
#
# Mechanical properties :
#
#
# Convention : Reuss Voigt Hill
#
# Bulk Modulus (GPa) = 25.16887 40.24513 32.70700
# Shear Modulus (GPa) = 19.67227 24.32349 21.99788
#
# Velocity S-wave (km/s) = 3.20904 3.56830 3.39343
# Velocity P-wave (km/s) = 5.18709 6.16801 5.69869
#
# Compressibility (1/GPa) = 0.03973162
#
# Stress axis : x y z
#
# Youngs Moduli (GPa) = 46.55994 80.48496 38.22593
#
# Poissons Ratio (x) = 0.17227 0.04455
# Poissons Ratio (y) = 0.09966 0.26222
# Poissons Ratio (z) = 0.05426 0.55210
#
# Static dielectric constant tensor:
#      x y z
#    x 1.661950 0.000000 0.001560 
#    y 0.000000 1.686200 0.000000 
#    z 0.001560 0.000000 1.658400 
# 
# From -- ./inp_files/62762.got.cif
#   From: 2010.05.17/outbox.cif.g08.bks.cpg/sg5_32_cif.got.tgz:62762.got - 2010.06.03 18:56:24.
