data_PCOD9124187
_publ_section_title
;
Structure prediction by ZEFSAII (Michael W. Deem and Ramdas Pophale) SiO2 
 PCOD9124187
Probable space group: C 2
;
_chemical_formula_sum "Si O2"
_cell_formula_units_Z 24
_cell_length_a 23.400692
_cell_length_b 6.986663
_cell_length_c 11.492238
_cell_angle_alpha 90.000000
_cell_angle_beta 31.256991
_cell_angle_gamma 90.000000
_cell_volume 974.917807
_symmetry_space_group_name_H-M "C 2"
_symmetry_group_IT_number 5
_symmetry_cell_setting 'monoclinic'
loop_
_space_group_symop_operation_xyz
x,y,z
-x,y,-z
1/2+x,1/2+y,z
1/2-x,1/2+y,-z
loop_
_atom_site_type_symbol
_atom_site_label
_atom_site_fract_x
_atom_site_fract_y
_atom_site_fract_z
Si Si1 0.698445 0.584960 0.439384
Si Si2 0.823271 0.509174 0.014772
Si Si3 0.997776 0.060385 0.368601
Si Si4 0.884975 0.758636 0.265752
Si Si5 0.268368 0.450073 0.073853
Si Si6 0.432277 0.115980 0.432246
O O1 0.599107 0.662675 0.533222
O O2 0.785310 0.716098 0.352889
O O3 0.634999 0.467606 0.648319
O O4 0.772378 0.446545 0.226598
O O5 0.756584 0.434592 0.020195
O O6 0.952956 0.499502 0.766480
O O7 0.797291 0.738063 0.066256
O O8 0.000000 0.114831 0.500000
O O9 0.965378 0.833410 0.414247
O O10 0.120685 0.074467 0.104167
O O11 0.890918 0.627240 0.370901
O O12 0.000000 0.740382 0.000000
O O13 0.162623 0.539469 0.318948
#
# Coordination Sequence:
#
# PCOD9124187 Si02
#       6
#     4   4   4   4   4   4
#     4  11  25  45  72 101 135 185 236 282 344 412
#     4  11  23  44  68 103 143 178 234 286 349 418
#     4  10  20  42  67  97 140 177 222 286 349 406
#     4  11  25  47  70  96 142 188 236 286 337 409
#     4  11  23  41  72 102 143 182 227 288 357 412
#     4  10  22  41  71  97 135 186 229 278 347 406
#
# _framework density 24.617457999999999
#
# number of rings (size 3 to 8) (size 9 to 14) (size 15 to 20)
#    0.000    1.333    3.333    2.500    4.667    0.000 
#    6.000    5.833    0.000    0.000    0.000    0.000 
#    0.000    0.000    0.000    0.000    0.000    0.000 
#
# Total GULP energy -67241.574335 kJ/mol
# GULP energy per Si atom -5603.464528 kJ/mol
# Density = 2.456143 g / cm^3
# Si number density = 24.617458 Si / 1000 Ang^3
#
#
#
# Elastic Constant Matrix: (Units=GPa)
#
#
# Indices 1 2 3 4 5 6 
#
# 1 184.1293 12.8572 40.5384 0.0000 -15.8703 0.0000
# 2 12.8572 32.8828 5.2503 0.0000 -7.6926 0.0000
# 3 40.5384 5.2503 135.9754 0.0000 -18.5517 0.0000
# 4 0.0000 0.0000 0.0000 36.8453 0.0000 1.4826
# 5 -15.8703 -7.6926 -18.5517 0.0000 57.4051 0.0000
# 6 0.0000 0.0000 0.0000 1.4826 0.0000 6.2067
#
#
#
# Elastic Compliance Matrix: (Units=1/GPa)
#
#
# Indices 1 2 3 4 5 6 
#
# 1 0.005989 -0.001880 -0.001592 0.000000 0.000890 0.000000
# 2 -0.001880 0.032043 -0.000169 0.000000 0.003720 0.000000
# 3 -0.001592 -0.000169 0.008131 0.000000 0.002165 0.000000
# 4 0.000000 0.000000 0.000000 0.027404 0.000000 -0.006546
# 5 0.000890 0.003720 0.002165 0.000000 0.018864 0.000000
# 6 0.000000 0.000000 0.000000 -0.006546 0.000000 0.162681
#
#
# Mechanical properties :
#
#
# Convention : Reuss Voigt Hill
#
# Bulk Modulus (GPa) = 25.71891 52.25323 38.98607
# Shear Modulus (GPa) = 18.15842 39.71418 28.93630
#
# Velocity S-wave (km/s) = 2.71887 4.02089 3.43219
# Velocity P-wave (km/s) = 4.50849 6.54438 5.61940
#
# Compressibility (1/GPa) = 0.03888189
#
# Stress axis : x y z
#
# Youngs Moduli (GPa) = 166.96421 31.20787 122.99065
#
# Poissons Ratio (x) = 0.05866 0.19576
# Poissons Ratio (y) = 0.31382 0.02084
# Poissons Ratio (z) = 0.26575 0.00529
#
# Static dielectric constant tensor:
#      x y z
#    x 1.911480 0.000000 0.005810 
#    y 0.000000 2.050690 0.000000 
#    z 0.005810 0.000000 1.945630 
# 
# From -- ./inp_files/47234.got.cif
#   From: 2010.05.17/outbox.cif.g08.bks.cpg/sg5_24_cif.got.tgz:47234.got - 2010.06.03 18:56:24.
