data_PCOD9124462
_publ_section_title
;
Structure prediction by ZEFSAII (Michael W. Deem and Ramdas Pophale) SiO2 
 PCOD9124462
Probable space group: C 2
;
_chemical_formula_sum "Si O2"
_cell_formula_units_Z 20
_cell_length_a 19.780385
_cell_length_b 4.843688
_cell_length_c 15.976062
_cell_angle_alpha 90.000000
_cell_angle_beta 138.771337
_cell_angle_gamma 90.000000
_cell_volume 1008.810058
_symmetry_space_group_name_H-M "C 2"
_symmetry_group_IT_number 5
_symmetry_cell_setting 'monoclinic'
loop_
_space_group_symop_operation_xyz
x,y,z
-x,y,-z
1/2+x,1/2+y,z
1/2-x,1/2+y,-z
loop_
_atom_site_type_symbol
_atom_site_label
_atom_site_fract_x
_atom_site_fract_y
_atom_site_fract_z
Si Si1 0.654460 0.500000 0.707250
Si Si2 0.175316 0.497967 0.613934
Si Si3 0.710162 0.791491 0.917827
Si Si4 0.992940 0.297846 0.659942
Si Si5 0.696249 0.686055 0.412024
O O1 0.661217 0.189537 0.681915
O O2 0.728110 0.616107 0.849306
O O3 0.543441 0.579585 0.642153
O O4 0.677661 0.686825 0.648484
O O5 0.077970 0.503000 0.460239
O O6 0.273856 0.586734 0.652279
O O7 0.594925 0.911421 0.799619
O O8 0.719152 0.551884 0.995964
O O9 0.918647 0.169534 0.660634
O O10 0.763977 0.495601 0.536996
#
# Coordination Sequence:
#
# PCOD9124462 Si02
#       5
#     4   4   4   4   4
#     4  10  23  35  60  86 116 147 189 244 288 326
#     4  11  20  37  56  90 122 138 185 241 300 345
#     4  10  22  40  59  82 113 155 204 235 272 336
#     4   9  23  36  60  87 115 157 186 233 289 348
#     4  10  21  35  53  82 122 154 177 222 295 363
#
# _framework density 19.825337999999999
#
# number of rings (size 3 to 8) (size 9 to 14) (size 15 to 20)
#    1.200    0.800    0.000    4.200    0.000   12.800 
#    0.000    0.000    0.000    7.200    0.000    0.000 
#    0.000    0.000    0.000    0.000    0.000    0.000 
#
# Total GULP energy -55705.225344 kJ/mol
# GULP energy per Si atom -5570.522534 kJ/mol
# Density = 1.978021 g / cm^3
# Si number density = 19.825338 Si / 1000 Ang^3
#
#
#
# Elastic Constant Matrix: (Units=GPa)
#
#
# Indices 1 2 3 4 5 6 
#
# 1 118.0334 -0.6401 11.2459 0.0000 2.6767 0.0000
# 2 -0.6401 59.3081 8.5669 0.0000 -7.5311 0.0000
# 3 11.2459 8.5669 69.3929 0.0000 -13.3412 0.0000
# 4 0.0000 0.0000 0.0000 28.7711 0.0000 -4.6258
# 5 2.6767 -7.5311 -13.3412 0.0000 10.8683 0.0000
# 6 0.0000 0.0000 0.0000 -4.6258 0.0000 21.4267
#
#
#
# Elastic Compliance Matrix: (Units=1/GPa)
#
#
# Indices 1 2 3 4 5 6 
#
# 1 0.008822 -0.000228 -0.002421 0.000000 -0.005303 0.000000
# 2 -0.000228 0.018497 0.000299 0.000000 0.013241 0.000000
# 3 -0.002421 0.000299 0.019530 0.000000 0.024777 0.000000
# 4 0.000000 0.000000 0.000000 0.036007 0.000000 0.007773
# 5 -0.005303 0.013241 0.024777 0.000000 0.132906 0.000000
# 6 0.000000 0.000000 0.000000 0.007773 0.000000 0.048349
#
#
# Mechanical properties :
#
#
# Convention : Reuss Voigt Hill
#
# Bulk Modulus (GPa) = 23.72620 31.67556 27.70088
# Shear Modulus (GPa) = 17.67659 27.38399 22.53029
#
# Velocity S-wave (km/s) = 2.98923 3.72057 3.37477
# Velocity P-wave (km/s) = 4.88954 5.87101 5.40261
#
# Compressibility (1/GPa) = 0.04214749
#
# Stress axis : x y z
#
# Youngs Moduli (GPa) = 113.35475 54.06350 51.20439
#
# Poissons Ratio (x) = 0.01235 0.12397
# Poissons Ratio (y) = 0.02590 -0.01531
# Poissons Ratio (z) = 0.27443 -0.01617
#
# Static dielectric constant tensor:
#      x y z
#    x 1.716660 0.000000 -0.031220 
#    y 0.000000 1.699480 0.000000 
#    z -0.031220 0.000000 1.736960 
# 
# From -- ./inp_files/62575.got.cif
#   From: 2010.05.17/outbox.cif.g08.bks.cpg/sg5_32_cif.got.tgz:62575.got - 2010.06.03 18:56:24.
