data_PCOD9124266
_publ_section_title
;
Structure prediction by ZEFSAII (Michael W. Deem and Ramdas Pophale) SiO2 
 PCOD9124266
Probable space group: C 2
;
_chemical_formula_sum "Si O2"
_cell_formula_units_Z 22
_cell_length_a 9.429270
_cell_length_b 13.857053
_cell_length_c 17.975459
_cell_angle_alpha 90.000000
_cell_angle_beta 156.455611
_cell_angle_gamma 90.000000
_cell_volume 938.213361
_symmetry_space_group_name_H-M "C 2"
_symmetry_group_IT_number 5
_symmetry_cell_setting 'monoclinic'
loop_
_space_group_symop_operation_xyz
x,y,z
-x,y,-z
1/2+x,1/2+y,z
1/2-x,1/2+y,-z
loop_
_atom_site_type_symbol
_atom_site_label
_atom_site_fract_x
_atom_site_fract_y
_atom_site_fract_z
Si Si1 0.012367 0.156280 0.616169
Si Si2 0.518975 0.428839 0.807159
Si Si3 0.890307 0.145975 0.169529
Si Si4 0.317680 0.732274 0.990127
Si Si5 0.737571 0.366515 0.471028
Si Si6 0.000000 0.974485 0.500000
O O1 0.923549 0.143464 0.661126
O O2 0.434435 0.179499 0.810064
O O3 0.941637 0.060619 0.535594
O O4 0.816205 0.253228 0.495840
O O5 0.654037 0.536545 0.880145
O O6 0.739210 0.346042 0.953478
O O7 0.504518 0.402461 0.713067
O O8 0.118665 0.418808 0.643895
O O9 0.500000 0.188613 0.000000
O O10 0.033582 0.203098 0.167557
O O11 0.500000 0.706376 0.000000
O O12 0.599690 0.392490 0.485389
#
# Coordination Sequence:
#
# PCOD9124266 Si02
#       6
#     4   4   4   4   4   2
#     4  10  22  43  61  94 134 157 224 268 314 396
#     4  10  20  43  60  89 130 159 215 265 321 381
#     4  10  21  40  61  87 128 169 202 266 324 378
#     4  10  22  38  64  91 121 174 208 262 325 376
#     4  10  23  40  66  93 124 172 210 275 322 380
#     4  12  22  42  70  96 128 178 212 268 334 374
#
# _framework density 23.448823000000001
#
# number of rings (size 3 to 8) (size 9 to 14) (size 15 to 20)
#    0.000    1.818    1.818    2.727    2.545    1.455 
#    9.818    0.909    0.000    0.000    0.000    0.000 
#    0.000    0.000    0.000    0.000    0.000    0.000 
#
# Total GULP energy -61302.584380 kJ/mol
# GULP energy per Si atom -5572.962216 kJ/mol
# Density = 2.339545 g / cm^3
# Si number density = 23.448823 Si / 1000 Ang^3
#
#
#
# Elastic Constant Matrix: (Units=GPa)
#
#
# Indices 1 2 3 4 5 6 
#
# 1 183.3666 40.9303 40.4318 0.0181 -27.4652 0.0029
# 2 40.9303 125.3144 2.0366 0.0299 -32.1662 0.0144
# 3 40.4318 2.0366 50.1598 0.0636 14.4570 0.0271
# 4 0.0181 0.0299 0.0636 25.8911 0.0115 -11.3769
# 5 -27.4652 -32.1662 14.4570 0.0115 55.0877 0.0005
# 6 0.0029 0.0144 0.0271 -11.3769 0.0005 32.3570
#
#
#
# Elastic Compliance Matrix: (Units=1/GPa)
#
#
# Indices 1 2 3 4 5 6 
#
# 1 0.008417 -0.001142 -0.008390 0.000019 0.005732 0.000014
# 2 -0.001142 0.009755 -0.001032 -0.000014 0.005398 -0.000008
# 3 -0.008390 -0.001032 0.030422 -0.000086 -0.012769 -0.000054
# 4 0.000019 -0.000014 -0.000086 0.045681 0.000014 0.016062
# 5 0.005732 0.005398 -0.012769 0.000014 0.027513 0.000012
# 6 0.000014 -0.000008 -0.000054 0.016062 0.000012 0.036553
#
#
# Mechanical properties :
#
#
# Convention : Reuss Voigt Hill
#
# Bulk Modulus (GPa) = 36.40748 58.40425 47.40586
# Shear Modulus (GPa) = 26.50781 41.02995 33.76888
#
# Velocity S-wave (km/s) = 3.36587 4.18756 3.79899
# Velocity P-wave (km/s) = 5.53764 6.95284 6.28520
#
# Compressibility (1/GPa) = 0.02746689
#
# Stress axis : x y z
#
# Youngs Moduli (GPa) = 118.80841 102.51111 32.87126
#
# Poissons Ratio (x) = 0.11702 0.27580
# Poissons Ratio (y) = 0.13562 0.03391
# Poissons Ratio (z) = 0.99683 0.10575
#
# Static dielectric constant tensor:
#      x y z
#    x 1.901090 0.000000 0.026900 
#    y 0.000000 1.840390 -0.000010 
#    z 0.026900 -0.000010 1.966980 
# 
# From -- ./inp_files/15069.got.cif
#   From: 2010.05.17/outbox.cif.g08.bks.cpg/sg5_8_cif.got.tgz:15069.got - 2010.06.03 18:56:24.
