data_PCOD9124487
_publ_section_title
;
Structure prediction by ZEFSAII (Michael W. Deem and Ramdas Pophale) SiO2 
 PCOD9124487
Probable space group: C 2
;
_chemical_formula_sum "Si O2"
_cell_formula_units_Z 30
_cell_length_a 22.312626
_cell_length_b 9.715095
_cell_length_c 8.344319
_cell_angle_alpha 90.000000
_cell_angle_beta 138.168793
_cell_angle_gamma 90.000000
_cell_volume 1206.352875
_symmetry_space_group_name_H-M "C 2"
_symmetry_group_IT_number 5
_symmetry_cell_setting 'monoclinic'
loop_
_space_group_symop_operation_xyz
x,y,z
-x,y,-z
1/2+x,1/2+y,z
1/2-x,1/2+y,-z
loop_
_atom_site_type_symbol
_atom_site_label
_atom_site_fract_x
_atom_site_fract_y
_atom_site_fract_z
Si Si1 0.763239 0.214740 0.058293
Si Si2 0.933149 0.143269 0.617596
Si Si3 0.438996 0.956023 0.726288
Si Si4 0.098895 0.884329 0.204995
Si Si5 0.500000 0.981269 0.500000
Si Si6 0.371623 0.603224 0.984812
Si Si7 0.292390 0.844225 0.635066
Si Si8 0.182242 0.465037 0.976469
O O1 0.841712 0.173399 0.338764
O O2 0.750449 0.374903 0.997407
O O3 0.796378 0.148648 0.958312
O O4 0.677565 0.126427 0.936443
O O5 0.958124 0.293996 0.735792
O O6 0.914207 0.012011 0.695636
O O7 0.030502 0.108982 0.737503
O O8 0.462441 0.032373 0.603609
O O9 0.335379 0.936729 0.578675
O O10 0.500000 0.999968 0.000000
O O11 0.126755 0.955788 0.094233
O O12 0.188453 0.798791 0.418963
O O13 0.000000 0.818368 0.000000
O O14 0.587381 0.902116 0.735434
O O15 0.353194 0.713005 0.803253
O O16 0.298362 0.940502 0.802111
#
# Coordination Sequence:
#
# PCOD9124487 Si02
#       8
#     4   4   4   4   2   4   4   4
#     4  11  23  38  63  97 130 171 222 280 328 407
#     4  11  18  36  61  90 123 162 219 279 322 393
#     4  12  20  36  63  97 130 165 226 284 332 383
#     4  10  21  37  58  90 125 168 215 271 332 400
#     4  12  24  38  66 100 132 180 222 284 334 414
#     4  10  21  35  60  94 124 164 223 277 330 382
#     4  11  21  37  62  93 131 171 219 282 333 395
#     4  11  24  41  65  94 137 173 228 275 345 396
#
# _framework density 24.868348000000001
#
# number of rings (size 3 to 8) (size 9 to 14) (size 15 to 20)
#    0.000    1.067    6.667    1.600    1.867    0.000 
#    0.000    0.000    2.933    7.200    0.000    0.000 
#    0.000    0.000    0.000    0.000    0.000    0.000 
#
# Total GULP energy -83511.169597 kJ/mol
# GULP energy per Si atom -5567.411306 kJ/mol
# Density = 2.481175 g / cm^3
# Si number density = 24.868348 Si / 1000 Ang^3
#
#
#
# Elastic Constant Matrix: (Units=GPa)
#
#
# Indices 1 2 3 4 5 6 
#
# 1 79.6679 6.9645 41.8663 0.0000 1.2731 0.0000
# 2 6.9645 60.2683 -2.3568 0.0000 -2.7766 0.0000
# 3 41.8663 -2.3568 110.7615 0.0000 4.2531 0.0000
# 4 0.0000 0.0000 0.0000 11.3680 0.0000 4.5482
# 5 1.2731 -2.7766 4.2531 0.0000 40.5090 0.0000
# 6 0.0000 0.0000 0.0000 4.5482 0.0000 14.1111
#
#
#
# Elastic Compliance Matrix: (Units=1/GPa)
#
#
# Indices 1 2 3 4 5 6 
#
# 1 0.015919 -0.002077 -0.006061 0.000000 -0.000006 0.000000
# 2 -0.002077 0.016927 0.001103 0.000000 0.001110 0.000000
# 3 -0.006061 0.001103 0.011379 0.000000 -0.000929 0.000000
# 4 0.000000 0.000000 0.000000 0.100989 0.000000 -0.032550
# 5 -0.000006 0.001110 -0.000929 0.000000 0.024860 0.000000
# 6 0.000000 0.000000 0.000000 -0.032550 0.000000 0.081357
#
#
# Mechanical properties :
#
#
# Convention : Reuss Voigt Hill
#
# Bulk Modulus (GPa) = 33.16372 38.18286 35.67329
# Shear Modulus (GPa) = 18.14541 26.81253 22.47897
#
# Velocity S-wave (km/s) = 2.70415 3.28713 3.00979
# Velocity P-wave (km/s) = 4.80776 5.45841 5.14339
#
# Compressibility (1/GPa) = 0.03015343
#
# Stress axis : x y z
#
# Youngs Moduli (GPa) = 62.81833 59.07822 87.88479
#
# Poissons Ratio (x) = 0.12270 0.53268
# Poissons Ratio (y) = 0.13046 -0.09690
# Poissons Ratio (z) = 0.38075 -0.06514
#
# Static dielectric constant tensor:
#      x y z
#    x 2.065720 0.000000 -0.005450 
#    y 0.000000 1.936400 0.000000 
#    z -0.005450 0.000000 2.009690 
# 
# From -- ./inp_files/30950.got.cif
#   From: 2010.05.17/outbox.cif.g08.bks.cpg/sg5_16_cif.got.tgz:30950.got - 2010.06.03 18:56:24.
