data_PCOD9124426
_publ_section_title
;
Structure prediction by ZEFSAII (Michael W. Deem and Ramdas Pophale) SiO2 
 PCOD9124426
Probable space group: C 2
;
_chemical_formula_sum "Si O2"
_cell_formula_units_Z 20
_cell_length_a 8.939824
_cell_length_b 19.007782
_cell_length_c 5.399619
_cell_angle_alpha 90.000000
_cell_angle_beta 58.020641
_cell_angle_gamma 90.000000
_cell_volume 778.290514
_symmetry_space_group_name_H-M "C 2"
_symmetry_group_IT_number 5
_symmetry_cell_setting 'monoclinic'
loop_
_space_group_symop_operation_xyz
x,y,z
-x,y,-z
1/2+x,1/2+y,z
1/2-x,1/2+y,-z
loop_
_atom_site_type_symbol
_atom_site_label
_atom_site_fract_x
_atom_site_fract_y
_atom_site_fract_z
Si Si1 0.000000 0.766450 0.000000
Si Si2 0.271197 0.342211 0.546493
Si Si3 0.000000 0.426690 0.500000
Si Si4 0.000000 0.959472 0.500000
Si Si5 0.633623 0.588878 0.191129
Si Si6 0.500000 0.020229 0.000000
Si Si7 0.301546 0.202645 0.784677
O O1 0.160632 0.721150 0.959521
O O2 0.951087 0.815406 0.267316
O O3 0.155965 0.372344 0.425946
O O4 0.328098 0.410885 0.645752
O O5 0.213192 0.271479 0.738672
O O6 0.986052 0.474453 0.758544
O O7 0.030603 0.014600 0.251350
O O8 0.500000 0.627508 0.500000
O O9 0.686986 0.632972 0.903605
O O10 0.820731 0.566617 0.154753
O O11 0.500000 0.189331 0.500000
#
# Coordination Sequence:
#
# PCOD9124426 Si02
#       7
#     2   4   2   2   4   2   4
#     4  10  21  40  80  98 157 210 266 336 411 502
#     4  11  23  45  78 116 157 212 273 351 411 504
#     4  12  28  46  80 126 168 210 282 354 422 500
#     4  10  20  48  76 122 150 214 282 336 420 498
#     4  10  24  47  83 115 163 215 279 343 420 505
#     4  12  27  50  82 124 169 220 276 354 429 502
#     4  10  22  45  80 113 158 215 276 336 429 498
#
# _framework density 25.697346
#
# number of rings (size 3 to 8) (size 9 to 14) (size 15 to 20)
#    0.600    0.800    5.000    0.600    7.000    0.000 
#    1.800    0.000    8.800    0.000    0.000    0.000 
#    0.000    0.000    0.000    0.000    0.000    0.000 
#
# Total GULP energy -55770.195406 kJ/mol
# GULP energy per Si atom -5577.019541 kJ/mol
# Density = 2.563886 g / cm^3
# Si number density = 25.697346 Si / 1000 Ang^3
#
#
#
# Elastic Constant Matrix: (Units=GPa)
#
#
# Indices 1 2 3 4 5 6 
#
# 1 106.9731 44.1898 42.3881 0.0000 -1.8487 0.0000
# 2 44.1898 178.5715 76.2714 0.0000 3.9060 0.0000
# 3 42.3881 76.2714 122.4769 0.0000 -2.0246 0.0000
# 4 0.0000 0.0000 0.0000 50.6460 0.0000 11.7804
# 5 -1.8487 3.9060 -2.0246 0.0000 48.2002 0.0000
# 6 0.0000 0.0000 0.0000 11.7804 0.0000 21.2662
#
#
#
# Elastic Compliance Matrix: (Units=1/GPa)
#
#
# Indices 1 2 3 4 5 6 
#
# 1 0.011134 -0.001528 -0.002894 0.000000 0.000429 0.000000
# 2 -0.001528 0.007871 -0.004387 0.000000 -0.000881 0.000000
# 3 -0.002894 -0.004387 0.011911 0.000000 0.000745 0.000000
# 4 0.000000 0.000000 0.000000 0.022665 0.000000 -0.012555
# 5 0.000429 -0.000881 0.000745 0.000000 0.020866 0.000000
# 6 0.000000 0.000000 0.000000 -0.012555 0.000000 0.053978
#
#
# Mechanical properties :
#
#
# Convention : Reuss Voigt Hill
#
# Bulk Modulus (GPa) = 75.21142 81.52445 78.36794
# Shear Modulus (GPa) = 33.22740 40.36731 36.79735
#
# Velocity S-wave (km/s) = 3.59977 3.96773 3.78822
# Velocity P-wave (km/s) = 6.82712 7.26527 7.04960
#
# Compressibility (1/GPa) = 0.01329585
#
# Stress axis : x y z
#
# Youngs Moduli (GPa) = 89.81632 127.04143 83.95502
#
# Poissons Ratio (x) = 0.19416 0.24301
# Poissons Ratio (y) = 0.13727 0.36835
# Poissons Ratio (z) = 0.25997 0.55739
#
# Static dielectric constant tensor:
#      x y z
#    x 2.137780 0.000000 -0.012530 
#    y 0.000000 2.130810 0.000000 
#    z -0.012530 0.000000 2.071140 
# 
# From -- ./inp_files/2853.got.cif
#   From: 2010.05.17/outbox.cif.g08.bks.cpg/sg5_2_cif.got.tgz:2853.got - 2010.06.03 18:56:24.
