data_PCOD9124133
_publ_section_title
;
Structure prediction by ZEFSAII (Michael W. Deem and Ramdas Pophale) SiO2 
 PCOD9124133
Probable space group: C 2
;
_chemical_formula_sum "Si O2"
_cell_formula_units_Z 28
_cell_length_a 13.464687
_cell_length_b 10.635005
_cell_length_c 10.840753
_cell_angle_alpha 90.000000
_cell_angle_beta 117.929443
_cell_angle_gamma 90.000000
_cell_volume 1371.552006
_symmetry_space_group_name_H-M "C 2"
_symmetry_group_IT_number 5
_symmetry_cell_setting 'monoclinic'
loop_
_space_group_symop_operation_xyz
x,y,z
-x,y,-z
1/2+x,1/2+y,z
1/2-x,1/2+y,-z
loop_
_atom_site_type_symbol
_atom_site_label
_atom_site_fract_x
_atom_site_fract_y
_atom_site_fract_z
Si Si1 0.000000 0.319480 0.000000
Si Si2 0.377590 0.575361 0.973850
Si Si3 0.679831 0.627086 0.779469
Si Si4 0.500000 0.495529 0.500000
Si Si5 0.402152 0.098776 0.514661
Si Si6 0.218247 0.402204 0.720191
Si Si7 0.194503 0.840985 0.488996
Si Si8 0.621465 0.995447 0.250395
O O1 0.104975 0.224078 0.045204
O O2 0.031634 0.409298 0.130418
O O3 0.284302 0.500793 0.843476
O O4 0.500000 0.523417 0.000000
O O5 0.349712 0.573520 0.102646
O O6 0.583048 0.579532 0.630749
O O7 0.680905 0.778995 0.773391
O O8 0.799302 0.572802 0.798132
O O9 0.580972 0.411373 0.462118
O O10 0.500000 0.168030 0.500000
O O11 0.299989 0.195721 0.467105
O O12 0.374329 0.980524 0.411442
O O13 0.436693 0.074759 0.675419
O O14 0.293225 0.350738 0.650335
O O15 0.292917 0.912342 0.618112
#
# Coordination Sequence:
#
# PCOD9124133 Si02
#       8
#     2   4   4   2   4   4   4   4
#     4  10  24  44  62  86 128 164 220 250 308 372
#     4  10  25  42  62  89 121 170 207 253 311 361
#     4  11  24  41  65  92 125 165 206 256 313 371
#     4  10  22  40  68  90 126 162 202 258 316 368
#     4  11  23  38  64  98 123 161 202 258 314 362
#     4  11  24  42  63  92 131 158 212 256 308 373
#     4  10  20  42  64  92 127 157 207 254 309 375
#     4  10  23  41  62  91 122 168 203 254 309 370
#
# _framework density 20.414826999999999
#
# number of rings (size 3 to 8) (size 9 to 14) (size 15 to 20)
#    0.429    1.143    2.143    1.714    5.000    1.143 
#    1.286    0.000    0.000    0.000    0.000    0.000 
#    0.000    0.000    0.000    0.000    0.000    0.000 
#
# Total GULP energy -78035.856051 kJ/mol
# GULP energy per Si atom -5573.989718 kJ/mol
# Density = 2.036836 g / cm^3
# Si number density = 20.414827 Si / 1000 Ang^3
#
#
#
# Elastic Constant Matrix: (Units=GPa)
#
#
# Indices 1 2 3 4 5 6 
#
# 1 69.9169 20.1792 48.3330 0.0000 -21.4971 0.0000
# 2 20.1792 89.4498 46.1146 0.0000 -1.7702 0.0000
# 3 48.3330 46.1146 110.4138 0.0000 -19.4250 0.0000
# 4 0.0000 0.0000 0.0000 15.6656 0.0000 -6.1790
# 5 -21.4971 -1.7702 -19.4250 0.0000 33.6246 0.0000
# 6 0.0000 0.0000 0.0000 -6.1790 0.0000 19.5984
#
#
#
# Elastic Compliance Matrix: (Units=1/GPa)
#
#
# Indices 1 2 3 4 5 6 
#
# 1 0.023222 -0.000918 -0.007991 0.000000 0.010182 0.000000
# 2 -0.000918 0.014559 -0.006286 0.000000 -0.003452 0.000000
# 3 -0.007991 -0.006286 0.015832 0.000000 0.003707 0.000000
# 4 0.000000 0.000000 0.000000 0.072900 0.000000 0.022984
# 5 0.010182 -0.003452 0.003707 0.000000 0.038209 0.000000
# 6 0.000000 0.000000 0.000000 0.022984 0.000000 0.058271
#
#
# Mechanical properties :
#
#
# Convention : Reuss Voigt Hill
#
# Bulk Modulus (GPa) = 43.05869 55.44823 49.25346
# Shear Modulus (GPa) = 19.14801 24.12130 21.63466
#
# Velocity S-wave (km/s) = 3.06591 3.44111 3.25892
# Velocity P-wave (km/s) = 5.80265 6.55805 6.19188
#
# Compressibility (1/GPa) = 0.02322412
#
# Stress axis : x y z
#
# Youngs Moduli (GPa) = 43.06247 68.68655 63.16213
#
# Poissons Ratio (x) = 0.06303 0.50471
# Poissons Ratio (y) = 0.03952 0.39704
# Poissons Ratio (z) = 0.34410 0.43177
#
# Static dielectric constant tensor:
#      x y z
#    x 1.787700 0.000000 -0.017030 
#    y 0.000000 1.744950 0.000000 
#    z -0.017030 0.000000 1.689120 
# 
# From -- ./inp_files/23736.got.cif
#   From: 2010.05.17/outbox.cif.g08.bks.cpg/sg5_12_cif.got.tgz:23736.got - 2010.06.03 18:56:24.
