data_PCOD9124072
_publ_section_title
;
Structure prediction by ZEFSAII (Michael W. Deem and Ramdas Pophale) SiO2 
 PCOD9124072
Probable space group: C 2
;
_chemical_formula_sum "Si O2"
_cell_formula_units_Z 24
_cell_length_a 15.475275
_cell_length_b 15.706192
_cell_length_c 7.758147
_cell_angle_alpha 90.000000
_cell_angle_beta 146.796186
_cell_angle_gamma 90.000000
_cell_volume 1032.632355
_symmetry_space_group_name_H-M "C 2"
_symmetry_group_IT_number 5
_symmetry_cell_setting 'monoclinic'
loop_
_space_group_symop_operation_xyz
x,y,z
-x,y,-z
1/2+x,1/2+y,z
1/2-x,1/2+y,-z
loop_
_atom_site_type_symbol
_atom_site_label
_atom_site_fract_x
_atom_site_fract_y
_atom_site_fract_z
Si Si1 0.493077 0.728890 0.286383
Si Si2 0.107593 0.044076 0.878436
Si Si3 0.249396 0.744651 0.560414
Si Si4 0.657541 0.413746 0.540665
Si Si5 0.817956 0.552177 0.563888
Si Si6 0.608980 0.982123 0.843340
O O1 0.500000 0.757449 0.500000
O O2 0.504057 0.625779 0.318150
O O3 0.633620 0.766140 0.403258
O O4 0.345922 0.735152 0.903851
O O5 0.188488 0.043250 0.197768
O O6 0.255747 0.047431 0.995360
O O7 0.006269 0.958723 0.689709
O O8 0.138852 0.825242 0.411477
O O9 0.176570 0.653101 0.392304
O O10 0.750788 0.485635 0.588134
O O11 0.784219 0.405336 0.907691
O O12 0.986031 0.521894 0.772041
O O13 0.500000 0.958318 0.500000
#
# Coordination Sequence:
#
# PCOD9124072 Si02
#       6
#     4   4   4   4   4   4
#     4  10  20  41  70  97 135 180 228 280 346 408
#     4  10  21  43  71  99 127 183 229 279 339 414
#     4  10  24  40  67 102 137 178 234 281 340 411
#     4  12  22  41  70  97 135 182 223 282 345 399
#     4  10  22  44  67  95 138 177 223 284 341 405
#     4  10  23  40  66 101 133 177 230 278 342 408
#
# _framework density 23.241572000000001
#
# number of rings (size 3 to 8) (size 9 to 14) (size 15 to 20)
#    0.000    1.667    1.667    2.500    4.667    0.667 
#    3.000   11.667    0.000    0.000    0.000    0.000 
#    0.000    0.000    0.000    0.000    0.000    0.000 
#
# Total GULP energy -66931.692985 kJ/mol
# GULP energy per Si atom -5577.641082 kJ/mol
# Density = 2.318867 g / cm^3
# Si number density = 23.241572 Si / 1000 Ang^3
#
#
#
# Elastic Constant Matrix: (Units=GPa)
#
#
# Indices 1 2 3 4 5 6 
#
# 1 114.5572 31.5291 32.1307 0.0000 0.7273 0.0000
# 2 31.5291 99.5369 4.8552 0.0000 13.7187 0.0000
# 3 32.1307 4.8552 89.5208 0.0000 -5.3261 0.0000
# 4 0.0000 0.0000 0.0000 12.8525 0.0000 -4.6163
# 5 0.7273 13.7187 -5.3261 0.0000 41.1234 0.0000
# 6 0.0000 0.0000 0.0000 -4.6163 0.0000 20.8826
#
#
#
# Elastic Compliance Matrix: (Units=1/GPa)
#
#
# Indices 1 2 3 4 5 6 
#
# 1 0.010636 -0.003252 -0.003615 0.000000 0.000428 0.000000
# 2 -0.003252 0.011580 0.000315 0.000000 -0.003765 0.000000
# 3 -0.003615 0.000315 0.012545 0.000000 0.001584 0.000000
# 4 0.000000 0.000000 0.000000 0.084516 0.000000 0.018683
# 5 0.000428 -0.003765 0.001584 0.000000 0.025771 0.000000
# 6 0.000000 0.000000 0.000000 0.018683 0.000000 0.052017
#
#
# Mechanical properties :
#
#
# Convention : Reuss Voigt Hill
#
# Bulk Modulus (GPa) = 46.17468 48.96055 47.56761
# Shear Modulus (GPa) = 23.00042 30.64504 26.82273
#
# Velocity S-wave (km/s) = 3.14924 3.63512 3.40087
# Velocity P-wave (km/s) = 5.75622 6.22338 5.99435
#
# Compressibility (1/GPa) = 0.02165689
#
# Stress axis : x y z
#
# Youngs Moduli (GPa) = 94.02464 86.35583 79.71061
#
# Poissons Ratio (x) = 0.28079 0.28819
# Poissons Ratio (y) = 0.30573 -0.02511
# Poissons Ratio (z) = 0.33994 -0.02720
#
# Static dielectric constant tensor:
#      x y z
#    x 1.927850 0.000000 -0.081010 
#    y 0.000000 1.894810 0.000000 
#    z -0.081010 0.000000 1.933030 
# 
# From -- ./inp_files/27758.got.cif
#   From: 2010.05.17/outbox.cif.g08.bks.cpg/sg5_14_cif.got.tgz:27758.got - 2010.06.03 18:56:24.
