data_PCOD9124779
_publ_section_title
;
Structure prediction by ZEFSAII (Michael W. Deem and Ramdas Pophale) SiO2 
 PCOD9124779
Probable space group: C 2
;
_chemical_formula_sum "Si O2"
_cell_formula_units_Z 28
_cell_length_a 13.173658
_cell_length_b 19.335132
_cell_length_c 5.044953
_cell_angle_alpha 90.000000
_cell_angle_beta 80.400265
_cell_angle_gamma 90.000000
_cell_volume 1267.027846
_symmetry_space_group_name_H-M "C 2"
_symmetry_group_IT_number 5
_symmetry_cell_setting 'monoclinic'
loop_
_space_group_symop_operation_xyz
x,y,z
-x,y,-z
1/2+x,1/2+y,z
1/2-x,1/2+y,-z
loop_
_atom_site_type_symbol
_atom_site_label
_atom_site_fract_x
_atom_site_fract_y
_atom_site_fract_z
Si Si1 0.615678 0.590750 0.847378
Si Si2 0.380556 0.857545 0.034757
Si Si3 0.234465 0.391871 0.400443
Si Si4 0.392973 0.285129 0.456089
Si Si5 0.392273 0.139877 0.184165
Si Si6 0.721215 0.532928 0.318010
Si Si7 0.727409 0.725147 0.921519
O O1 0.633603 0.564310 0.544722
O O2 0.655905 0.669538 0.810696
O O3 0.500000 0.587875 0.000000
O O4 0.684719 0.546705 0.031286
O O5 0.321806 0.907651 0.852819
O O6 0.500000 0.871627 0.000000
O O7 0.343886 0.857482 0.355365
O O8 0.348945 0.782514 0.928597
O O9 0.330094 0.339656 0.305386
O O10 0.268810 0.456762 0.563668
O O11 0.500000 0.317557 0.500000
O O12 0.420906 0.208850 0.335937
O O13 0.311911 0.267573 0.720007
O O14 0.330069 0.073949 0.325394
O O15 0.500000 0.118559 0.000000
O O16 0.299882 0.175597 0.060957
#
# Coordination Sequence:
#
# PCOD9124779 Si02
#       7
#     4   4   4   4   4   4   4
#     4  11  23  41  67  95 133 177 226 276 340 411
#     4  11  23  42  67  95 129 176 223 274 340 408
#     4  11  25  44  65  96 139 177 225 286 335 408
#     4  11  21  38  65  97 132 178 226 283 340 404
#     4  11  21  39  67  99 135 178 229 283 344 406
#     4  11  25  44  65  97 139 182 225 284 342 407
#     4  10  21  38  61  97 134 166 218 286 335 396
#
# _framework density 22.098962
#
# number of rings (size 3 to 8) (size 9 to 14) (size 15 to 20)
#    0.000    1.143    4.286    2.143    0.000    1.714 
#    0.000    7.857    0.000    0.000    0.000    0.000 
#    0.000    0.000    0.000    0.000    0.000    0.000 
#
# Total GULP energy -77964.425815 kJ/mol
# GULP energy per Si atom -5568.887558 kJ/mol
# Density = 2.204866 g / cm^3
# Si number density = 22.098962 Si / 1000 Ang^3
#
#
#
# Elastic Constant Matrix: (Units=GPa)
#
#
# Indices 1 2 3 4 5 6 
#
# 1 118.9307 14.1653 15.7974 0.0000 -6.9574 0.0000
# 2 14.1653 51.1530 -9.1335 0.0000 1.8660 0.0000
# 3 15.7974 -9.1335 67.0551 0.0000 -2.8815 0.0000
# 4 0.0000 0.0000 0.0000 13.8249 0.0000 0.9804
# 5 -6.9574 1.8660 -2.8815 0.0000 31.1383 0.0000
# 6 0.0000 0.0000 0.0000 0.9804 0.0000 3.1975
#
#
#
# Elastic Compliance Matrix: (Units=1/GPa)
#
#
# Indices 1 2 3 4 5 6 
#
# 1 0.009225 -0.003076 -0.002506 0.000000 0.002014 0.000000
# 2 -0.003076 0.021090 0.003527 0.000000 -0.001625 0.000000
# 3 -0.002506 0.003527 0.016014 0.000000 0.000711 0.000000
# 4 0.000000 0.000000 0.000000 0.073941 0.000000 -0.022670
# 5 0.002014 -0.001625 0.000711 0.000000 0.032728 0.000000
# 6 0.000000 0.000000 0.000000 -0.022670 0.000000 0.319697
#
#
# Mechanical properties :
#
#
# Convention : Reuss Voigt Hill
#
# Bulk Modulus (GPa) = 23.68442 30.97749 27.33095
# Shear Modulus (GPa) = 10.18585 24.05279 17.11932
#
# Velocity S-wave (km/s) = 2.14923 3.30269 2.78630
# Velocity P-wave (km/s) = 4.11092 5.34712 4.76924
#
# Compressibility (1/GPa) = 0.04222185
#
# Stress axis : x y z
#
# Youngs Moduli (GPa) = 108.39871 47.41590 62.44370
#
# Poissons Ratio (x) = 0.14583 0.15647
# Poissons Ratio (y) = 0.33338 -0.22026
# Poissons Ratio (z) = 0.27162 -0.16725
#
# Static dielectric constant tensor:
#      x y z
#    x 1.953920 0.000000 0.040770 
#    y 0.000000 1.917330 0.000000 
#    z 0.040770 0.000000 1.892820 
# 
# From -- ./inp_files/5606.got.cif
#   From: 2010.05.17/outbox.cif.g08.bks.cpg/sg5_3_cif.got.tgz:5606.got - 2010.06.03 18:56:24.
