data_PCOD9124830
_publ_section_title
;
Structure prediction by ZEFSAII (Michael W. Deem and Ramdas Pophale) SiO2 
 PCOD9124830
Probable space group: C 2
;
_chemical_formula_sum "Si O2"
_cell_formula_units_Z 28
_cell_length_a 9.932366
_cell_length_b 14.387523
_cell_length_c 14.319165
_cell_angle_alpha 90.000000
_cell_angle_beta 148.881836
_cell_angle_gamma 90.000000
_cell_volume 1057.506249
_symmetry_space_group_name_H-M "C 2"
_symmetry_group_IT_number 5
_symmetry_cell_setting 'monoclinic'
loop_
_space_group_symop_operation_xyz
x,y,z
-x,y,-z
1/2+x,1/2+y,z
1/2-x,1/2+y,-z
loop_
_atom_site_type_symbol
_atom_site_label
_atom_site_fract_x
_atom_site_fract_y
_atom_site_fract_z
Si Si1 0.236748 0.168610 0.076062
Si Si2 0.424558 0.524648 0.764370
Si Si3 0.500000 0.319725 0.500000
Si Si4 0.500000 0.635544 0.500000
Si Si5 0.212117 0.192341 0.444376
Si Si6 0.942620 0.967230 0.338661
Si Si7 0.935109 0.482442 0.279383
Si Si8 0.267698 0.303338 0.932287
O O1 0.331009 0.254834 0.068971
O O2 0.102004 0.095299 0.925786
O O3 0.411277 0.091457 0.235654
O O4 0.000000 0.201944 0.000000
O O5 0.283037 0.593653 0.605470
O O6 0.599358 0.464783 0.796276
O O7 0.225841 0.475674 0.718032
O O8 0.458763 0.249232 0.560269
O O9 0.321673 0.391403 0.334813
O O10 0.659631 0.696572 0.522966
O O11 0.371510 0.564709 0.347809
O O12 0.985905 0.251333 0.258874
O O13 0.260906 0.952760 0.535215
O O14 0.790583 0.412810 0.120878
O O15 0.500000 0.279221 0.000000
#
# Coordination Sequence:
#
# PCOD9124830 Si02
#       8
#     4   4   2   2   4   4   4   4
#     4   9  21  43  66  90 127 173 215 262 325 384
#     4   9  20  39  64  92 125 170 212 262 319 393
#     4  11  22  40  58  95 134 168 202 275 314 387
#     4   9  22  38  62  93 128 166 210 263 322 385
#     4  10  22  40  61  94 127 167 212 260 325 379
#     4  10  21  38  64  93 132 162 216 262 327 376
#     4  11  21  40  66  94 128 174 214 265 324 381
#     4  11  23  41  64  92 129 166 218 267 313 387
#
# _framework density 26.477385000000002
#
# number of rings (size 3 to 8) (size 9 to 14) (size 15 to 20)
#    0.000    2.000    1.429    1.714    6.000    1.143 
#    0.000    9.286    0.000    0.000    0.000    0.000 
#    0.000    0.000    0.000    0.000    0.000    0.000 
#
# Total GULP energy -78095.111835 kJ/mol
# GULP energy per Si atom -5578.222274 kJ/mol
# Density = 2.641712 g / cm^3
# Si number density = 26.477385 Si / 1000 Ang^3
#
#
#
# Elastic Constant Matrix: (Units=GPa)
#
#
# Indices 1 2 3 4 5 6 
#
# 1 186.8744 64.6926 -3.0222 0.0005 -55.8019 -0.0010
# 2 64.6926 115.2301 -2.3372 0.0216 -18.5978 0.0074
# 3 -3.0222 -2.3372 53.9383 -0.0019 -21.0746 0.0035
# 4 0.0005 0.0216 -0.0019 233.4949 -0.0182 50.1793
# 5 -55.8019 -18.5978 -21.0746 -0.0182 36.3036 -0.0054
# 6 -0.0010 0.0074 0.0035 50.1793 -0.0054 51.4676
#
#
#
# Elastic Compliance Matrix: (Units=1/GPa)
#
#
# Indices 1 2 3 4 5 6 
#
# 1 0.015409 -0.003786 0.011894 0.000003 0.028650 0.000001
# 2 -0.003786 0.010776 0.000179 -0.000001 -0.000195 -0.000001
# 3 0.011894 0.000179 0.034135 0.000004 0.038189 -0.000002
# 4 0.000003 -0.000001 0.000004 0.005418 0.000007 -0.005282
# 5 0.028650 -0.000195 0.038189 0.000007 0.093653 0.000001
# 6 0.000001 -0.000001 -0.000002 -0.005282 0.000001 0.024580
#
#
# Mechanical properties :
#
#
# Convention : Reuss Voigt Hill
#
# Bulk Modulus (GPa) = 13.00512 52.74545 32.87528
# Shear Modulus (GPa) = 25.90288 84.03386 54.96837
#
# Velocity S-wave (km/s) = 3.13118 5.63976 4.56131
# Velocity P-wave (km/s) = 4.24203 7.89768 6.33909
#
# Compressibility (1/GPa) = 0.07689282
#
# Stress axis : x y z
#
# Youngs Moduli (GPa) = 64.89579 92.80017 29.29558
#
# Poissons Ratio (x) = 0.35132 -0.34843
# Poissons Ratio (y) = 0.24568 -0.00523
# Poissons Ratio (z) = -0.77184 -0.01657
#
# Static dielectric constant tensor:
#      x y z
#    x 1.386020 0.000000 -1.473440 
#    y 0.000000 2.127370 0.000000 
#    z -1.473440 0.000000 -0.373260 
# 
# From -- ./inp_files/50994.got.cif
#   From: 2010.05.17/outbox.cif.g08.bks.cpg/sg5_26_cif.got.tgz:50994.got - 2010.06.03 18:56:24.
