data_PCOD9124524
_publ_section_title
;
Structure prediction by ZEFSAII (Michael W. Deem and Ramdas Pophale) SiO2 
 PCOD9124524
Probable space group: C 2
;
_chemical_formula_sum "Si O2"
_cell_formula_units_Z 30
_cell_length_a 11.618979
_cell_length_b 7.463214
_cell_length_c 19.229825
_cell_angle_alpha 90.000000
_cell_angle_beta 58.136046
_cell_angle_gamma 90.000000
_cell_volume 1416.225300
_symmetry_space_group_name_H-M "C 2"
_symmetry_group_IT_number 5
_symmetry_cell_setting 'monoclinic'
loop_
_space_group_symop_operation_xyz
x,y,z
-x,y,-z
1/2+x,1/2+y,z
1/2-x,1/2+y,-z
loop_
_atom_site_type_symbol
_atom_site_label
_atom_site_fract_x
_atom_site_fract_y
_atom_site_fract_z
Si Si1 0.028513 0.533320 0.414220
Si Si2 0.390214 0.239351 0.980473
Si Si3 0.818890 0.475880 0.878568
Si Si4 0.095421 0.978782 0.844058
Si Si5 0.477942 0.726806 0.261579
Si Si6 0.792443 0.228609 0.709749
Si Si7 0.000000 0.871847 0.500000
Si Si8 0.720702 0.976674 0.604363
O O1 0.058441 0.739890 0.422099
O O2 0.892955 0.541680 0.412475
O O3 0.000000 0.452570 0.500000
O O4 0.138903 0.410774 0.342209
O O5 0.358544 0.108726 0.927288
O O6 0.462088 0.418932 0.927735
O O7 0.500000 0.161760 0.000000
O O8 0.257037 0.303961 0.063548
O O9 0.707974 0.558257 0.860709
O O10 0.946598 0.401856 0.794746
O O11 0.061736 0.100151 0.789122
O O12 0.165541 0.795142 0.794918
O O13 0.590696 0.646399 0.278136
O O14 0.347848 0.792833 0.345947
O O15 0.746429 0.102857 0.662300
O O16 0.866018 0.972188 0.519686
#
# Coordination Sequence:
#
# PCOD9124524 Si02
#       8
#     4   4   4   4   4   4   2   4
#     4   9  23  39  57  81 114 146 184 234 289 334
#     4  10  21  36  57  87 115 149 185 229 277 328
#     4  10  21  37  58  85 116 147 190 227 277 331
#     4  10  21  38  58  80 117 151 184 231 280 326
#     4  10  22  39  57  84 113 149 191 231 277 337
#     4  10  22  38  58  82 112 150 187 233 283 334
#     4  10  24  36  56  86 108 142 190 232 280 346
#     4  11  23  38  60  85 111 147 194 232 284 340
#
# _framework density 21.183070000000001
#
# number of rings (size 3 to 8) (size 9 to 14) (size 15 to 20)
#    0.400    1.600    0.000    2.400    2.800    4.267 
#    0.000    0.000    0.000    0.000    0.000    0.000 
#    0.000    0.000    0.000    0.000    0.000    0.000 
#
# Total GULP energy -83696.763738 kJ/mol
# GULP energy per Si atom -5579.784249 kJ/mol
# Density = 2.113486 g / cm^3
# Si number density = 21.183070 Si / 1000 Ang^3
#
#
#
# Elastic Constant Matrix: (Units=GPa)
#
#
# Indices 1 2 3 4 5 6 
#
# 1 141.6229 32.6155 30.2771 0.0000 29.1688 0.0000
# 2 32.6155 18.2834 -6.0147 0.0000 15.2523 0.0000
# 3 30.2771 -6.0147 56.9562 0.0000 4.8380 0.0000
# 4 0.0000 0.0000 0.0000 13.8670 0.0000 1.8677
# 5 29.1688 15.2523 4.8380 0.0000 54.7032 0.0000
# 6 0.0000 0.0000 0.0000 1.8677 0.0000 12.4012
#
#
#
# Elastic Compliance Matrix: (Units=1/GPa)
#
#
# Indices 1 2 3 4 5 6 
#
# 1 0.019182 -0.041222 -0.014769 0.000000 0.002571 0.000000
# 2 -0.041222 0.165089 0.041703 0.000000 -0.027738 0.000000
# 3 -0.014769 0.041703 0.030359 0.000000 -0.006438 0.000000
# 4 0.000000 0.000000 0.000000 0.073607 0.000000 -0.011086
# 5 0.002571 -0.027738 -0.006438 0.000000 0.025212 0.000000
# 6 0.000000 0.000000 0.000000 -0.011086 0.000000 0.082307
#
#
# Mechanical properties :
#
#
# Convention : Reuss Voigt Hill
#
# Bulk Modulus (GPa) = 5.37479 36.73540 21.05509
# Shear Modulus (GPa) = 10.28068 26.85991 18.57030
#
# Velocity S-wave (km/s) = 2.20540 3.56475 2.96405
# Velocity P-wave (km/s) = 3.00464 5.85856 4.65567
#
# Compressibility (1/GPa) = 0.18605383
#
# Stress axis : x y z
#
# Youngs Moduli (GPa) = 52.13181 6.05735 32.93934
#
# Poissons Ratio (x) = 0.24970 0.48647
# Poissons Ratio (y) = 2.14899 -1.37367
# Poissons Ratio (z) = 0.76991 -0.25261
#
# Static dielectric constant tensor:
#      x y z
#    x 1.762770 0.000000 0.016200 
#    y 0.000000 1.758570 0.000000 
#    z 0.016200 0.000000 1.769590 
# 
# From -- ./inp_files/60300.got.cif
#   From: 2010.05.17/outbox.cif.g08.bks.cpg/sg5_31_cif.got.tgz:60300.got - 2010.06.03 18:56:24.
