data_PCOD9124021
_publ_section_title
;
Structure prediction by ZEFSAII (Michael W. Deem and Ramdas Pophale) SiO2 
 PCOD9124021
Probable space group: C 2
;
_chemical_formula_sum "Si O2"
_cell_formula_units_Z 24
_cell_length_a 9.017057
_cell_length_b 8.613012
_cell_length_c 14.122053
_cell_angle_alpha 90.000000
_cell_angle_beta 85.613220
_cell_angle_gamma 90.000000
_cell_volume 1093.562325
_symmetry_space_group_name_H-M "C 2"
_symmetry_group_IT_number 5
_symmetry_cell_setting 'monoclinic'
loop_
_space_group_symop_operation_xyz
x,y,z
-x,y,-z
1/2+x,1/2+y,z
1/2-x,1/2+y,-z
loop_
_atom_site_type_symbol
_atom_site_label
_atom_site_fract_x
_atom_site_fract_y
_atom_site_fract_z
Si Si1 0.280820 0.738900 0.857861
Si Si2 0.141350 0.598480 0.692088
Si Si3 0.824819 0.954087 0.524783
Si Si4 0.874734 0.267999 0.199130
Si Si5 0.812732 0.631428 0.630560
Si Si6 0.677160 0.942513 0.978196
O O1 0.182306 0.725667 0.768661
O O2 0.453115 0.725292 0.820227
O O3 0.244857 0.593104 0.926846
O O4 0.259235 0.889989 0.924015
O O5 0.267596 0.573785 0.607398
O O6 0.129794 0.435719 0.748930
O O7 0.985271 0.626361 0.649036
O O8 0.739564 0.989545 0.431593
O O9 0.000000 0.968957 0.500000
O O10 0.789001 0.785077 0.568189
O O11 0.782651 0.151990 0.269422
O O12 0.807269 0.302632 0.098990
O O13 0.500000 0.965781 0.000000
#
# Coordination Sequence:
#
# PCOD9124021 Si02
#       6
#     4   4   4   4   4   4
#     4  10  20  41  66  89 123 164 202 250 305 358
#     4  10  22  40  62  91 126 161 202 253 303 357
#     4  11  23  40  63  91 123 160 206 251 301 363
#     4   9  21  40  62  89 125 163 203 249 301 360
#     4  11  24  42  64  92 123 159 204 254 305 361
#     4   9  20  39  61  92 127 159 203 253 299 355
#
# _framework density 21.946622000000001
#
# number of rings (size 3 to 8) (size 9 to 14) (size 15 to 20)
#    0.000    2.000    0.000    2.500    0.000    9.333 
#    0.000   19.167    0.000    0.000    0.000    0.000 
#    0.000    0.000    0.000    0.000    0.000    0.000 
#
# Total GULP energy -67125.763360 kJ/mol
# GULP energy per Si atom -5593.813613 kJ/mol
# Density = 2.189667 g / cm^3
# Si number density = 21.946622 Si / 1000 Ang^3
#
#
#
# Elastic Constant Matrix: (Units=GPa)
#
#
# Indices 1 2 3 4 5 6 
#
# 1 59.6372 9.6657 41.9249 0.0000 -8.0949 0.0000
# 2 9.6657 32.9104 28.0229 0.0000 -1.5704 0.0000
# 3 41.9249 28.0229 115.2482 0.0000 -18.0788 0.0000
# 4 0.0000 0.0000 0.0000 51.5930 0.0000 -0.1038
# 5 -8.0949 -1.5704 -18.0788 0.0000 46.1843 0.0000
# 6 0.0000 0.0000 0.0000 -0.1038 0.0000 22.7931
#
#
#
# Elastic Compliance Matrix: (Units=1/GPa)
#
#
# Indices 1 2 3 4 5 6 
#
# 1 0.022560 0.000374 -0.008178 0.000000 0.000766 0.000000
# 2 0.000374 0.038598 -0.009914 0.000000 -0.002503 0.000000
# 3 -0.008178 -0.009914 0.014687 0.000000 0.003979 0.000000
# 4 0.000000 0.000000 0.000000 0.019383 0.000000 0.000088
# 5 0.000766 -0.002503 0.003979 0.000000 0.023259 0.000000
# 6 0.000000 0.000000 0.000000 0.000088 0.000000 0.043873
#
#
# Mechanical properties :
#
#
# Convention : Reuss Voigt Hill
#
# Bulk Modulus (GPa) = 24.74674 40.78032 32.76353
# Shear Modulus (GPa) = 23.66700 32.65956 28.16328
#
# Velocity S-wave (km/s) = 3.28745 3.86182 3.58615
# Velocity P-wave (km/s) = 5.07051 6.20539 5.66643
#
# Compressibility (1/GPa) = 0.04040936
#
# Stress axis : x y z
#
# Youngs Moduli (GPa) = 44.32546 25.90825 68.08968
#
# Poissons Ratio (x) = -0.00969 0.55682
# Poissons Ratio (y) = -0.01657 0.67502
# Poissons Ratio (z) = 0.36249 0.25685
#
# Static dielectric constant tensor:
#      x y z
#    x 1.736340 0.000000 0.011180 
#    y 0.000000 1.811040 0.000000 
#    z 0.011180 0.000000 1.821340 
# 
# From -- ./inp_files/49886.got.cif
#   From: 2010.05.17/outbox.cif.g08.bks.cpg/sg5_25_cif.got.tgz:49886.got - 2010.06.03 18:56:24.
