data_PCOD9124260
_publ_section_title
;
Structure prediction by ZEFSAII (Michael W. Deem and Ramdas Pophale) SiO2 
 PCOD9124260
Probable space group: C 2
;
_chemical_formula_sum "Si O2"
_cell_formula_units_Z 22
_cell_length_a 11.419194
_cell_length_b 11.226856
_cell_length_c 11.815092
_cell_angle_alpha 90.000000
_cell_angle_beta 145.244942
_cell_angle_gamma 90.000000
_cell_volume 863.492084
_symmetry_space_group_name_H-M "C 2"
_symmetry_group_IT_number 5
_symmetry_cell_setting 'monoclinic'
loop_
_space_group_symop_operation_xyz
x,y,z
-x,y,-z
1/2+x,1/2+y,z
1/2-x,1/2+y,-z
loop_
_atom_site_type_symbol
_atom_site_label
_atom_site_fract_x
_atom_site_fract_y
_atom_site_fract_z
Si Si1 0.124494 0.086210 0.757039
Si Si2 0.500000 0.257681 0.000000
Si Si3 0.826160 0.978153 0.788862
Si Si4 0.824310 0.387095 0.770580
Si Si5 0.887756 0.533215 0.169166
Si Si6 0.784161 0.670992 0.477357
O O1 0.306650 0.176368 0.870956
O O2 0.905380 0.152229 0.585722
O O3 0.162929 0.969315 0.711287
O O4 0.185615 0.049456 0.933244
O O5 0.428492 0.350740 0.845933
O O6 0.660006 0.958522 0.756452
O O7 0.739845 0.053228 0.619515
O O8 0.000000 0.048195 0.000000
O O9 0.739199 0.280776 0.626088
O O10 0.946413 0.471047 0.779449
O O11 0.000000 0.347248 0.000000
O O12 0.992338 0.657122 0.290068
#
# Coordination Sequence:
#
# PCOD9124260 Si02
#       6
#     4   2   4   4   4   4
#     4  11  22  47  72 101 140 190 241 293 377 438
#     4  10  20  42  74  90 134 190 234 296 358 438
#     4  10  22  42  68 100 134 190 236 291 372 431
#     4  10  24  47  73 105 146 194 243 308 370 448
#     4  11  23  46  66 102 140 183 241 294 364 438
#     4  12  25  43  72 106 146 187 238 309 365 446
#
# _framework density 25.47794
#
# number of rings (size 3 to 8) (size 9 to 14) (size 15 to 20)
#    0.545    0.727    4.545    2.182    0.000    2.182 
#    6.545    1.818    0.000    0.000    0.000    0.000 
#    0.000    0.000    0.000    0.000    0.000    0.000 
#
# Total GULP energy -61509.420168 kJ/mol
# GULP energy per Si atom -5591.765470 kJ/mol
# Density = 2.541995 g / cm^3
# Si number density = 25.477940 Si / 1000 Ang^3
#
#
#
# Elastic Constant Matrix: (Units=GPa)
#
#
# Indices 1 2 3 4 5 6 
#
# 1 104.2599 19.1912 13.4897 0.0002 4.8266 0.0001
# 2 19.1912 114.8238 26.3524 0.0001 -1.4978 0.0001
# 3 13.4897 26.3524 92.2756 0.0004 10.9238 0.0003
# 4 0.0002 0.0001 0.0004 28.2266 0.0003 -10.5150
# 5 4.8266 -1.4978 10.9238 0.0003 22.9953 0.0002
# 6 0.0001 0.0001 0.0003 -10.5150 0.0002 26.1995
#
#
#
# Elastic Compliance Matrix: (Units=1/GPa)
#
#
# Indices 1 2 3 4 5 6 
#
# 1 0.010061 -0.001517 -0.000822 0.000000 -0.001820 0.000000
# 2 -0.001517 0.009635 -0.002799 0.000000 0.002276 0.000000
# 3 -0.000822 -0.002799 0.012458 0.000000 -0.005928 0.000000
# 4 0.000000 0.000000 0.000000 0.041655 -0.000001 0.016718
# 5 -0.001820 0.002276 -0.005928 -0.000001 0.046834 0.000000
# 6 0.000000 0.000000 0.000000 0.016718 0.000000 0.044879
#
#
# Mechanical properties :
#
#
# Convention : Reuss Voigt Hill
#
# Bulk Modulus (GPa) = 45.70759 47.71397 46.71078
# Shear Modulus (GPa) = 27.30888 32.30601 29.80744
#
# Velocity S-wave (km/s) = 3.27748 3.56476 3.42414
# Velocity P-wave (km/s) = 5.68345 5.97592 5.83151
#
# Compressibility (1/GPa) = 0.02187820
#
# Stress axis : x y z
#
# Youngs Moduli (GPa) = 99.39143 103.79281 80.26663
#
# Poissons Ratio (x) = 0.15741 0.06600
# Poissons Ratio (y) = 0.15074 0.22468
# Poissons Ratio (z) = 0.08173 0.29053
#
# Static dielectric constant tensor:
#      x y z
#    x 2.096540 0.000000 0.015940 
#    y 0.000000 1.981250 0.000000 
#    z 0.015940 0.000000 2.083360 
# 
# From -- ./inp_files/39342.got.cif
#   From: 2010.05.17/outbox.cif.g08.bks.cpg/sg5_20_cif.got.tgz:39342.got - 2010.06.03 18:56:24.
