data_PCOD9124330
_publ_section_title
;
Structure prediction by ZEFSAII (Michael W. Deem and Ramdas Pophale) SiO2 
 PCOD9124330
Probable space group: C 2
;
_chemical_formula_sum "Si O2"
_cell_formula_units_Z 30
_cell_length_a 26.303353
_cell_length_b 5.161535
_cell_length_c 9.635060
_cell_angle_alpha 90.000000
_cell_angle_beta 92.384895
_cell_angle_gamma 90.000000
_cell_volume 1306.977406
_symmetry_space_group_name_H-M "C 2"
_symmetry_group_IT_number 5
_symmetry_cell_setting 'monoclinic'
loop_
_space_group_symop_operation_xyz
x,y,z
-x,y,-z
1/2+x,1/2+y,z
1/2-x,1/2+y,-z
loop_
_atom_site_type_symbol
_atom_site_label
_atom_site_fract_x
_atom_site_fract_y
_atom_site_fract_z
Si Si1 0.750245 0.168580 0.405320
Si Si2 0.863644 0.887955 0.095209
Si Si3 0.842862 0.488915 0.312840
Si Si4 0.500000 0.914477 0.500000
Si Si5 0.433190 0.635991 0.298644
Si Si6 0.401582 0.266631 0.539688
Si Si7 0.782755 0.206323 0.967351
Si Si8 0.662738 0.351546 0.211749
O O1 0.740968 0.394685 0.519638
O O2 0.799967 0.277414 0.332291
O O3 0.704876 0.172811 0.288605
O O4 0.832555 0.718688 0.203475
O O5 0.918846 0.953005 0.167154
O O6 0.832922 0.156015 0.066051
O O7 0.859634 0.766747 0.940765
O O8 0.856263 0.600062 0.466540
O O9 0.897714 0.382814 0.271460
O O10 0.486285 0.738022 0.364109
O O11 0.452564 0.093948 0.539026
O O12 0.410402 0.494463 0.431160
O O13 0.382959 0.372094 0.684542
O O14 0.805214 0.112911 0.821419
O O15 0.744196 0.976540 0.010180
#
# Coordination Sequence:
#
# PCOD9124330 Si02
#       8
#     4   4   4   2   4   4   4   4
#     4  12  25  40  61  97 141 189 239 279 326 400
#     4   9  23  37  63  92 135 177 224 278 334 413
#     4  10  21  39  60  91 129 182 224 278 332 402
#     4  10  22  40  76  96 120 172 226 302 356 426
#     4  10  21  40  70  94 124 171 227 286 353 424
#     4  10  20  44  64  99 129 167 230 291 350 406
#     4  10  23  41  61  95 143 195 232 265 324 410
#     4  10  23  40  63  99 138 188 220 291 330 410
#
# _framework density 22.953727000000001
#
# number of rings (size 3 to 8) (size 9 to 14) (size 15 to 20)
#    0.800    1.067    1.333    2.000    5.600    1.067 
#    7.200    0.000    0.000   19.200    0.000    0.000 
#    0.000    0.000    0.000    0.000    0.000    0.000 
#
# Total GULP energy -83694.965575 kJ/mol
# GULP energy per Si atom -5579.664372 kJ/mol
# Density = 2.290148 g / cm^3
# Si number density = 22.953727 Si / 1000 Ang^3
#
#
#
# Elastic Constant Matrix: (Units=GPa)
#
#
# Indices 1 2 3 4 5 6 
#
# 1 86.9766 29.1986 53.7920 0.0000 17.7671 0.0000
# 2 29.1986 85.8527 32.5773 0.0000 10.0319 0.0000
# 3 53.7920 32.5773 159.4009 0.0000 12.2336 0.0000
# 4 0.0000 0.0000 0.0000 31.1963 0.0000 6.8669
# 5 17.7671 10.0319 12.2336 0.0000 36.8322 0.0000
# 6 0.0000 0.0000 0.0000 6.8669 0.0000 26.9207
#
#
#
# Elastic Compliance Matrix: (Units=1/GPa)
#
#
# Indices 1 2 3 4 5 6 
#
# 1 0.016499 -0.003262 -0.004473 0.000000 -0.005585 0.000000
# 2 -0.003262 0.013529 -0.001542 0.000000 -0.001600 0.000000
# 3 -0.004473 -0.001542 0.008107 0.000000 -0.000115 0.000000
# 4 0.000000 0.000000 0.000000 0.033962 0.000000 -0.008663
# 5 -0.005585 -0.001600 -0.000115 0.000000 0.030318 0.000000
# 6 0.000000 0.000000 0.000000 -0.008663 0.000000 0.039356
#
#
# Mechanical properties :
#
#
# Convention : Reuss Voigt Hill
#
# Bulk Modulus (GPa) = 51.06376 62.59624 56.83000
# Shear Modulus (GPa) = 29.96690 33.43399 31.70044
#
# Velocity S-wave (km/s) = 3.61714 3.82066 3.72029
# Velocity P-wave (km/s) = 6.30394 6.84055 6.57772
#
# Compressibility (1/GPa) = 0.01958336
#
# Stress axis : x y z
#
# Youngs Moduli (GPa) = 60.60829 73.91534 123.35392
#
# Poissons Ratio (x) = 0.24109 0.55173
# Poissons Ratio (y) = 0.19768 0.19015
# Poissons Ratio (z) = 0.27108 0.11394
#
# Static dielectric constant tensor:
#      x y z
#    x 1.880760 0.000000 0.034160 
#    y 0.000000 1.947010 0.000000 
#    z 0.034160 0.000000 1.942560 
# 
# From -- ./inp_files/32167.got.cif
#   From: 2010.05.17/outbox.cif.g08.bks.cpg/sg5_17_cif.got.tgz:32167.got - 2010.06.03 18:56:24.
