data_PCOD9124909
_publ_section_title
;
Structure prediction by ZEFSAII (Michael W. Deem and Ramdas Pophale) SiO2 
 PCOD9124909
Probable space group: C 2
;
_chemical_formula_sum "Si O2"
_cell_formula_units_Z 28
_cell_length_a 9.462310
_cell_length_b 9.995818
_cell_length_c 20.001254
_cell_angle_alpha 90.000000
_cell_angle_beta 45.905176
_cell_angle_gamma 90.000000
_cell_volume 1358.662487
_symmetry_space_group_name_H-M "C 2"
_symmetry_group_IT_number 5
_symmetry_cell_setting 'monoclinic'
loop_
_space_group_symop_operation_xyz
x,y,z
-x,y,-z
1/2+x,1/2+y,z
1/2-x,1/2+y,-z
loop_
_atom_site_type_symbol
_atom_site_label
_atom_site_fract_x
_atom_site_fract_y
_atom_site_fract_z
Si Si1 0.105815 0.715590 0.265530
Si Si2 0.000000 0.655663 0.000000
Si Si3 0.156828 0.209396 0.679403
Si Si4 0.000000 0.884207 0.500000
Si Si5 0.674253 0.415229 0.989128
Si Si6 0.495050 0.471606 0.642848
Si Si7 0.525018 0.966892 0.777850
Si Si8 0.703489 0.907340 0.906886
O O1 0.248229 0.672912 0.279746
O O2 0.954025 0.821958 0.347966
O O3 0.022525 0.587867 0.255694
O O4 0.207637 0.809426 0.176062
O O5 0.856647 0.755304 0.008322
O O6 0.870237 0.556348 0.088074
O O7 0.078857 0.084893 0.663207
O O8 0.323774 0.288491 0.582427
O O9 0.998654 0.324403 0.748938
O O10 0.057997 0.974242 0.544674
O O11 0.876309 0.461423 0.888960
O O12 0.500000 0.472994 0.000000
O O13 0.665281 0.437638 0.070899
O O14 0.255633 0.476831 0.720526
O O15 0.500000 0.842403 0.000000
#
# Coordination Sequence:
#
# PCOD9124909 Si02
#       8
#     4   2   4   2   4   4   4   4
#     4  10  23  39  60  92 127 162 209 253 310 370
#     4   8  24  40  56  82 118 160 218 266 310 354
#     4  10  23  42  68  93 127 164 198 254 309 377
#     4   8  20  42  64 100 124 154 202 252 306 376
#     4  10  23  39  59  85 120 168 215 263 306 357
#     4  10  23  43  68  91 128 164 199 252 313 374
#     4  10  23  41  59  92 129 164 211 259 310 365
#     4  10  21  39  60  80 119 165 207 264 311 359
#
# _framework density 20.608504
#
# number of rings (size 3 to 8) (size 9 to 14) (size 15 to 20)
#    0.857    1.714    0.000    1.714    4.000    8.571 
#    2.571    0.000    0.000    0.000    0.000    0.000 
#    0.000    0.000    0.000    0.000    0.000    0.000 
#
# Total GULP energy -77994.594878 kJ/mol
# GULP energy per Si atom -5571.042491 kJ/mol
# Density = 2.056160 g / cm^3
# Si number density = 20.608504 Si / 1000 Ang^3
#
#
#
# Elastic Constant Matrix: (Units=GPa)
#
#
# Indices 1 2 3 4 5 6 
#
# 1 126.7608 72.1325 39.0405 0.0000 29.1691 0.0000
# 2 72.1325 123.8093 5.3413 0.0000 20.9967 0.0000
# 3 39.0405 5.3413 65.2072 0.0000 22.1955 0.0000
# 4 0.0000 0.0000 0.0000 16.6677 0.0000 -0.3693
# 5 29.1691 20.9967 22.1955 0.0000 31.6360 0.0000
# 6 0.0000 0.0000 0.0000 -0.3693 0.0000 33.1745
#
#
#
# Elastic Compliance Matrix: (Units=1/GPa)
#
#
# Indices 1 2 3 4 5 6 
#
# 1 0.015722 -0.008187 -0.007433 0.000000 -0.003848 0.000000
# 2 -0.008187 0.013514 0.005620 0.000000 -0.005364 0.000000
# 3 -0.007433 0.005620 0.023992 0.000000 -0.013710 0.000000
# 4 0.000000 0.000000 0.000000 0.060011 0.000000 0.000668
# 5 -0.003848 -0.005364 -0.013710 0.000000 0.048336 0.000000
# 6 0.000000 0.000000 0.000000 0.000668 0.000000 0.030151
#
#
# Mechanical properties :
#
#
# Convention : Reuss Voigt Hill
#
# Bulk Modulus (GPa) = 30.09345 60.97844 45.53595
# Shear Modulus (GPa) = 22.44161 29.57983 26.01072
#
# Velocity S-wave (km/s) = 3.30350 3.79267 3.55651
# Velocity P-wave (km/s) = 5.40231 6.98802 6.24569
#
# Compressibility (1/GPa) = 0.03322982
#
# Stress axis : x y z
#
# Youngs Moduli (GPa) = 63.60508 73.99890 41.68071
#
# Poissons Ratio (x) = 0.60580 0.30980
# Poissons Ratio (y) = 0.52071 -0.23426
# Poissons Ratio (z) = 0.47275 -0.41589
#
# Static dielectric constant tensor:
#      x y z
#    x 1.792130 0.000000 0.019760 
#    y 0.000000 1.744290 0.000000 
#    z 0.019760 0.000000 1.789370 
# 
# From -- ./inp_files/64481.got.cif
#   From: 2010.05.17/outbox.cif.g08.bks.cpg/sg5_33_cif.got.tgz:64481.got - 2010.06.03 18:56:24.
