data_PCOD9124669
_publ_section_title
;
Structure prediction by ZEFSAII (Michael W. Deem and Ramdas Pophale) SiO2 
 PCOD9124669
Probable space group: C 2
;
_chemical_formula_sum "Si O2"
_cell_formula_units_Z 24
_cell_length_a 15.809668
_cell_length_b 13.313966
_cell_length_c 10.279578
_cell_angle_alpha 90.000000
_cell_angle_beta 37.555994
_cell_angle_gamma 90.000000
_cell_volume 1318.879666
_symmetry_space_group_name_H-M "C 2"
_symmetry_group_IT_number 5
_symmetry_cell_setting 'monoclinic'
loop_
_space_group_symop_operation_xyz
x,y,z
-x,y,-z
1/2+x,1/2+y,z
1/2-x,1/2+y,-z
loop_
_atom_site_type_symbol
_atom_site_label
_atom_site_fract_x
_atom_site_fract_y
_atom_site_fract_z
Si Si1 0.000000 0.714870 0.000000
Si Si2 0.318273 0.052074 0.362909
Si Si3 0.000000 0.391958 0.000000
Si Si4 0.595052 0.936847 0.497037
Si Si5 0.900450 0.279674 0.870039
Si Si6 0.837847 0.865085 0.021168
Si Si7 0.500159 0.566419 0.161092
O O1 0.882450 0.647205 0.211479
O O2 0.935738 0.782343 0.965220
O O3 0.157035 0.064431 0.592795
O O4 0.373954 0.960042 0.207230
O O5 0.387935 0.020471 0.414375
O O6 0.070559 0.326294 0.024629
O O7 0.500000 0.980358 0.500000
O O8 0.519227 0.835924 0.640345
O O9 0.737928 0.903079 0.259293
O O10 0.758464 0.316788 0.974182
O O11 0.922488 0.161517 0.866849
O O12 0.925967 0.964121 0.881917
O O13 0.500000 0.571501 0.000000
#
# Coordination Sequence:
#
# PCOD9124669 Si02
#       7
#     2   4   2   4   4   4   4
#     4  11  22  39  60  88 126 163 204 253 302 362
#     4  10  21  37  62  89 119 162 201 249 306 357
#     4   9  20  41  60  88 126 159 198 255 300 358
#     4   9  18  36  60  89 122 162 201 250 298 363
#     4  10  22  38  63  90 123 161 205 248 305 364
#     4  11  22  40  61  90 125 162 205 252 304 362
#     4  12  22  39  64  89 120 162 205 252 299 364
#
# _framework density 18.197264000000001
#
# number of rings (size 3 to 8) (size 9 to 14) (size 15 to 20)
#    0.000    1.667    3.333    1.000    0.000    6.667 
#    0.000    2.500    0.000    0.000    0.000    0.000 
#    0.000    0.000    0.000    0.000    0.000    0.000 
#
# Total GULP energy -66862.632307 kJ/mol
# GULP energy per Si atom -5571.886026 kJ/mol
# Density = 1.815585 g / cm^3
# Si number density = 18.197264 Si / 1000 Ang^3
#
#
#
# Elastic Constant Matrix: (Units=GPa)
#
#
# Indices 1 2 3 4 5 6 
#
# 1 111.5947 82.6376 45.8349 0.0000 -2.1797 0.0000
# 2 82.6376 154.7516 56.7600 0.0000 -14.3742 0.0000
# 3 45.8349 56.7600 115.5369 0.0000 -10.6375 0.0000
# 4 0.0000 0.0000 0.0000 -10.6718 0.0000 10.9776
# 5 -2.1797 -14.3742 -10.6375 0.0000 23.6737 0.0000
# 6 0.0000 0.0000 0.0000 10.9776 0.0000 15.7466
#
#
#
# Elastic Compliance Matrix: (Units=1/GPa)
#
#
# Indices 1 2 3 4 5 6 
#
# 1 0.015854 -0.007844 -0.002858 0.000000 -0.004587 0.000000
# 2 -0.007844 0.011999 -0.002273 0.000000 0.005542 0.000000
# 3 -0.002858 -0.002273 0.011219 0.000000 0.003398 0.000000
# 4 0.000000 0.000000 0.000000 -0.054571 0.000000 0.038044
# 5 -0.004587 0.005542 0.003398 0.000000 0.046710 0.000000
# 6 0.000000 0.000000 0.000000 0.038044 0.000000 0.036984
#
#
# Mechanical properties :
#
#
# Convention : Reuss Voigt Hill
#
# Bulk Modulus (GPa) = 76.20995 83.59425 79.90210
# Shear Modulus (GPa) = 50.75240 18.85976 34.80608
#
# Velocity S-wave (km/s) = 5.28684 3.22282 4.37820
# Velocity P-wave (km/s) = 8.90159 7.73862 8.34040
#
# Compressibility (1/GPa) = 0.01312165
#
# Stress axis : x y z
#
# Youngs Moduli (GPa) = 63.07675 83.34130 89.13781
#
# Poissons Ratio (x) = 0.65370 0.25479
# Poissons Ratio (y) = 0.49475 0.20259
# Poissons Ratio (z) = 0.18030 0.18942
#
# Static dielectric constant tensor:
#      x y z
#    x 1.640310 0.000000 -0.007760 
#    y 0.000000 1.626120 0.000000 
#    z -0.007760 0.000000 1.628370 
# 
# From -- ./inp_files/38960.got.cif
#   From: 2010.05.17/outbox.cif.g08.bks.cpg/sg5_20_cif.got.tgz:38960.got - 2010.06.03 18:56:24.
