data_PCOD9124109
_publ_section_title
;
Structure prediction by ZEFSAII (Michael W. Deem and Ramdas Pophale) SiO2 
 PCOD9124109
Probable space group: C 2
;
_chemical_formula_sum "Si O2"
_cell_formula_units_Z 30
_cell_length_a 11.833943
_cell_length_b 8.818770
_cell_length_c 14.077468
_cell_angle_alpha 90.000000
_cell_angle_beta 108.236778
_cell_angle_gamma 90.000000
_cell_volume 1395.343429
_symmetry_space_group_name_H-M "C 2"
_symmetry_group_IT_number 5
_symmetry_cell_setting 'monoclinic'
loop_
_space_group_symop_operation_xyz
x,y,z
-x,y,-z
1/2+x,1/2+y,z
1/2-x,1/2+y,-z
loop_
_atom_site_type_symbol
_atom_site_label
_atom_site_fract_x
_atom_site_fract_y
_atom_site_fract_z
Si Si1 0.867469 0.020640 0.132640
Si Si2 0.490091 0.792992 0.885182
Si Si3 0.000000 0.857420 0.000000
Si Si4 0.383595 0.192284 0.494590
Si Si5 0.003140 0.972840 0.642877
Si Si6 0.757084 0.553305 0.630641
Si Si7 0.673297 0.720772 0.318834
Si Si8 0.123914 0.599162 0.148083
O O1 0.906127 0.198416 0.139414
O O2 0.727131 0.016560 0.113571
O O3 0.934360 0.938066 0.238380
O O4 0.915910 0.952424 0.047825
O O5 0.372686 0.724298 0.801717
O O6 0.479563 0.973529 0.866846
O O7 0.500000 0.768322 0.000000
O O8 0.921704 0.747275 0.914488
O O9 0.500000 0.096577 0.500000
O O10 0.438462 0.337256 0.568142
O O11 0.286712 0.133188 0.541665
O O12 0.311923 0.195354 0.376558
O O13 0.117301 0.029966 0.612496
O O14 0.910004 0.104172 0.646568
O O15 0.829843 0.394797 0.646974
O O16 0.813291 0.636818 0.735923
#
# Coordination Sequence:
#
# PCOD9124109 Si02
#       8
#     4   4   2   4   4   4   4   4
#     4  10  23  39  64  90 125 165 208 253 315 367
#     4  10  20  42  63  86 125 165 202 257 306 366
#     4  12  22  34  60 100 120 160 218 258 300 374
#     4  12  23  40  65  95 128 162 205 264 318 369
#     4  10  22  45  65  88 128 171 203 259 316 374
#     4  10  22  45  62  90 130 165 208 259 313 379
#     4  10  22  39  67  92 118 168 214 247 315 374
#     4  10  23  39  62  90 125 166 207 254 313 366
#
# _framework density 21.500081999999999
#
# number of rings (size 3 to 8) (size 9 to 14) (size 15 to 20)
#    0.000    1.600    2.667    1.600    1.867    0.000 
#    4.800    0.000    5.867    0.000    0.000    0.000 
#    0.000    0.000    0.000    0.000    0.000    0.000 
#
# Total GULP energy -83582.439992 kJ/mol
# GULP energy per Si atom -5572.162666 kJ/mol
# Density = 2.145115 g / cm^3
# Si number density = 21.500082 Si / 1000 Ang^3
#
#
#
# Elastic Constant Matrix: (Units=GPa)
#
#
# Indices 1 2 3 4 5 6 
#
# 1 72.8234 20.6978 24.1889 0.0000 3.5642 0.0000
# 2 20.6978 33.1942 4.9475 0.0000 8.3513 0.0000
# 3 24.1889 4.9475 82.8527 0.0000 8.6546 0.0000
# 4 0.0000 0.0000 0.0000 15.6994 0.0000 -6.3586
# 5 3.5642 8.3513 8.6546 0.0000 32.5165 0.0000
# 6 0.0000 0.0000 0.0000 -6.3586 0.0000 21.1319
#
#
#
# Elastic Compliance Matrix: (Units=1/GPa)
#
#
# Indices 1 2 3 4 5 6 
#
# 1 0.018494 -0.011349 -0.004952 0.000000 0.002206 0.000000
# 2 -0.011349 0.039267 0.001946 0.000000 -0.009359 0.000000
# 3 -0.004952 0.001946 0.013778 0.000000 -0.003624 0.000000
# 4 0.000000 0.000000 0.000000 0.072537 0.000000 0.021827
# 5 0.002206 -0.009359 -0.003624 0.000000 0.033880 0.000000
# 6 0.000000 0.000000 0.000000 0.021827 0.000000 0.053890
#
#
# Mechanical properties :
#
#
# Convention : Reuss Voigt Hill
#
# Bulk Modulus (GPa) = 23.34854 32.05987 27.70421
# Shear Modulus (GPa) = 18.19297 23.13862 20.66580
#
# Velocity S-wave (km/s) = 2.91208 3.28412 3.10368
# Velocity P-wave (km/s) = 4.71065 5.41521 5.07517
#
# Compressibility (1/GPa) = 0.04282923
#
# Stress axis : x y z
#
# Youngs Moduli (GPa) = 54.07072 25.46693 72.58074
#
# Poissons Ratio (x) = 0.28902 0.35943
# Poissons Ratio (y) = 0.61363 -0.14125
# Poissons Ratio (z) = 0.26777 -0.04956
#
# Static dielectric constant tensor:
#      x y z
#    x 1.763100 0.000000 0.019740 
#    y 0.000000 1.845720 0.000000 
#    z 0.019740 0.000000 1.839540 
# 
# From -- ./inp_files/52474.got.cif
#   From: 2010.05.17/outbox.cif.g08.bks.cpg/sg5_27_cif.got.tgz:52474.got - 2010.06.03 18:56:24.
