data_PCOD9124046
_publ_section_title
;
Structure prediction by ZEFSAII (Michael W. Deem and Ramdas Pophale) SiO2 
 PCOD9124046
Probable space group: C 2
;
_chemical_formula_sum "Si O2"
_cell_formula_units_Z 26
_cell_length_a 16.665206
_cell_length_b 17.419768
_cell_length_c 7.577545
_cell_angle_alpha 90.000000
_cell_angle_beta 33.563277
_cell_angle_gamma 90.000000
_cell_volume 1216.171578
_symmetry_space_group_name_H-M "C 2"
_symmetry_group_IT_number 5
_symmetry_cell_setting 'monoclinic'
loop_
_space_group_symop_operation_xyz
x,y,z
-x,y,-z
1/2+x,1/2+y,z
1/2-x,1/2+y,-z
loop_
_atom_site_type_symbol
_atom_site_label
_atom_site_fract_x
_atom_site_fract_y
_atom_site_fract_z
Si Si1 0.392243 0.267720 0.506915
Si Si2 0.165618 0.624740 0.185858
Si Si3 0.063042 0.051325 0.185129
Si Si4 0.250179 0.549513 0.658533
Si Si5 0.396828 0.384693 0.015512
Si Si6 0.172411 0.372426 0.703964
Si Si7 0.000000 0.654598 0.000000
O O1 0.349589 0.216020 0.752942
O O2 0.249898 0.310499 0.689603
O O3 0.465098 0.208952 0.230508
O O4 0.515289 0.333070 0.281771
O O5 0.000000 0.595344 0.500000
O O6 0.294599 0.603386 0.084562
O O7 0.215864 0.585220 0.913556
O O8 0.000000 0.053840 0.500000
O O9 0.921664 0.064172 0.322462
O O10 0.120216 0.967100 0.037508
O O11 0.216325 0.458974 0.690465
O O12 0.138747 0.599112 0.750010
O O13 0.246174 0.358356 0.376826
O O14 0.500000 0.388871 0.000000
O O15 0.000000 0.366899 0.000000
#
# Coordination Sequence:
#
# PCOD9124046 Si02
#       7
#     4   4   4   4   4   4   2
#     4  11  23  44  65  98 138 180 226 281 358 413
#     4  11  25  42  64  97 142 185 230 278 348 414
#     4  10  23  42  66  98 136 180 233 279 337 422
#     4  11  23  43  66 103 140 183 230 283 351 415
#     4  10  20  41  67  97 133 176 224 274 356 408
#     4  11  23  41  72 106 138 175 239 294 345 414
#     4  12  22  40  70 100 136 176 228 288 348 414
#
# _framework density 21.378561000000001
#
# number of rings (size 3 to 8) (size 9 to 14) (size 15 to 20)
#    0.000    1.231    7.692    0.000    4.308    1.846 
#    0.000    0.000    0.000    2.769    0.000    0.000 
#    0.000    0.000    0.000    0.000    0.000    0.000 
#
# Total GULP energy -72447.383184 kJ/mol
# GULP energy per Si atom -5572.875630 kJ/mol
# Density = 2.132990 g / cm^3
# Si number density = 21.378561 Si / 1000 Ang^3
#
#
#
# Elastic Constant Matrix: (Units=GPa)
#
#
# Indices 1 2 3 4 5 6 
#
# 1 64.4534 35.6645 57.1665 -0.0001 -14.2542 0.0001
# 2 35.6645 96.3865 25.4632 0.0000 -7.2089 0.0000
# 3 57.1665 25.4632 151.1740 -0.0002 -28.2701 0.0001
# 4 -0.0001 0.0000 -0.0002 33.2836 0.0001 1.8566
# 5 -14.2542 -7.2089 -28.2701 0.0001 41.6377 -0.0001
# 6 0.0001 0.0000 0.0001 1.8566 -0.0001 44.8857
#
#
#
# Elastic Compliance Matrix: (Units=1/GPa)
#
#
# Indices 1 2 3 4 5 6 
#
# 1 0.028370 -0.007960 -0.008967 0.000000 0.002246 0.000000
# 2 -0.007960 0.013111 0.000821 0.000000 0.000102 0.000000
# 3 -0.008967 0.000821 0.010676 0.000000 0.004320 0.000000
# 4 0.000000 0.000000 0.000000 0.030114 0.000000 -0.001246
# 5 0.002246 0.000102 0.004320 0.000000 0.027737 0.000000
# 6 0.000000 0.000000 0.000000 -0.001246 0.000000 0.022330
#
#
# Mechanical properties :
#
#
# Convention : Reuss Voigt Hill
#
# Bulk Modulus (GPa) = 50.14277 60.95581 55.54929
# Shear Modulus (GPa) = 29.20569 36.87602 33.04086
#
# Velocity S-wave (km/s) = 3.70012 4.15771 3.93557
# Velocity P-wave (km/s) = 6.46221 7.18493 6.83313
#
# Compressibility (1/GPa) = 0.01994306
#
# Stress axis : x y z
#
# Youngs Moduli (GPa) = 35.24839 76.27101 93.67160
#
# Poissons Ratio (x) = 0.60715 0.83999
# Poissons Ratio (y) = 0.28059 -0.07690
# Poissons Ratio (z) = 0.31609 -0.06261
#
# Static dielectric constant tensor:
#      x y z
#    x 1.922730 0.000000 -0.002380 
#    y 0.000000 1.754390 0.000000 
#    z -0.002380 0.000000 1.796670 
# 
# From -- ./inp_files/16067.got.cif
#   From: 2010.05.17/outbox.cif.g08.bks.cpg/sg5_9_cif.got.tgz:16067.got - 2010.06.03 18:56:24.
