data_PCOD9124756
_publ_section_title
;
Structure prediction by ZEFSAII (Michael W. Deem and Ramdas Pophale) SiO2 
 PCOD9124756
Probable space group: C 2
;
_chemical_formula_sum "Si O2"
_cell_formula_units_Z 24
_cell_length_a 8.348606
_cell_length_b 14.446055
_cell_length_c 8.129309
_cell_angle_alpha 90.000000
_cell_angle_beta 86.916493
_cell_angle_gamma 90.000000
_cell_volume 979.011137
_symmetry_space_group_name_H-M "C 2"
_symmetry_group_IT_number 5
_symmetry_cell_setting 'monoclinic'
loop_
_space_group_symop_operation_xyz
x,y,z
-x,y,-z
1/2+x,1/2+y,z
1/2-x,1/2+y,-z
loop_
_atom_site_type_symbol
_atom_site_label
_atom_site_fract_x
_atom_site_fract_y
_atom_site_fract_z
Si Si1 0.683730 0.287270 0.935934
Si Si2 0.672070 0.963179 0.919593
Si Si3 0.169470 0.348583 0.575761
Si Si4 0.805039 0.177731 0.234352
Si Si5 0.813302 0.529228 0.562330
Si Si6 0.322730 0.635451 0.736583
O O1 0.743930 0.391533 0.959540
O O2 0.781510 0.225534 0.061779
O O3 0.500000 0.283027 0.000000
O O4 0.721951 0.230065 0.769347
O O5 0.770411 0.054103 0.865486
O O6 0.646704 0.905944 0.748799
O O7 0.500000 0.987960 0.000000
O O8 0.253046 0.255633 0.631547
O O9 0.247587 0.424061 0.450300
O O10 0.000000 0.324457 0.500000
O O11 0.709893 0.083002 0.267247
O O12 0.991628 0.158423 0.252363
O O13 0.715231 0.589577 0.436347
O O14 0.000000 0.528690 0.500000
#
# Coordination Sequence:
#
# PCOD9124756 Si02
#       6
#     4   4   4   4   4   4
#     4  11  23  40  61  89 124 164 207 254 302 360
#     4  10  22  40  62  91 125 159 202 251 305 367
#     4   9  19  37  60  86 116 155 195 240 301 360
#     4  11  22  40  62  88 120 159 207 256 306 365
#     4  10  21  38  60  89 120 156 202 253 307 364
#     4  11  22  39  63  89 120 163 205 252 307 362
#
# _framework density 24.514533
#
# number of rings (size 3 to 8) (size 9 to 14) (size 15 to 20)
#    0.000    1.667    0.000    5.500    0.000    4.000 
#    0.000   10.000    0.000    0.000    0.000    0.000 
#    0.000    0.000    0.000    0.000    0.000    0.000 
#
# Total GULP energy -67168.583454 kJ/mol
# GULP energy per Si atom -5597.381954 kJ/mol
# Density = 2.445874 g / cm^3
# Si number density = 24.514533 Si / 1000 Ang^3
#
#
#
# Elastic Constant Matrix: (Units=GPa)
#
#
# Indices 1 2 3 4 5 6 
#
# 1 102.2448 20.8866 -4.2145 0.0000 -3.0652 0.0000
# 2 20.8866 154.8906 37.3633 0.0000 -11.4301 0.0000
# 3 -4.2145 37.3633 56.2173 0.0000 2.3501 0.0000
# 4 0.0000 0.0000 0.0000 51.7100 0.0000 2.1732
# 5 -3.0652 -11.4301 2.3501 0.0000 37.2043 0.0000
# 6 0.0000 0.0000 0.0000 2.1732 0.0000 37.1238
#
#
#
# Elastic Compliance Matrix: (Units=1/GPa)
#
#
# Indices 1 2 3 4 5 6 
#
# 1 0.010245 -0.001851 0.001992 0.000000 0.000150 0.000000
# 2 -0.001851 0.008302 -0.005772 0.000000 0.002763 0.000000
# 3 0.001992 -0.005772 0.021899 0.000000 -0.002992 0.000000
# 4 0.000000 0.000000 0.000000 0.019386 0.000000 -0.001135
# 5 0.000150 0.002763 -0.002992 0.000000 0.027929 0.000000
# 6 0.000000 0.000000 0.000000 -0.001135 0.000000 0.027003
#
#
# Mechanical properties :
#
#
# Convention : Reuss Voigt Hill
#
# Bulk Modulus (GPa) = 34.26531 46.82483 40.54507
# Shear Modulus (GPa) = 36.83129 42.49543 39.66336
#
# Velocity S-wave (km/s) = 3.88032 4.16802 4.02674
# Velocity P-wave (km/s) = 5.83813 6.50427 6.18018
#
# Compressibility (1/GPa) = 0.02918403
#
# Stress axis : x y z
#
# Youngs Moduli (GPa) = 97.60695 120.45323 45.66472
#
# Poissons Ratio (x) = 0.22296 -0.09097
# Poissons Ratio (y) = 0.18067 0.26357
# Poissons Ratio (z) = -0.19444 0.69525
#
# Static dielectric constant tensor:
#      x y z
#    x 1.856550 0.000000 -0.002570 
#    y 0.000000 1.953250 0.000000 
#    z -0.002570 0.000000 2.054380 
# 
# From -- ./inp_files/15004.got.cif
#   From: 2010.05.17/outbox.cif.g08.bks.cpg/sg5_8_cif.got.tgz:15004.got - 2010.06.03 18:56:24.
