data_PCOD9124790
_publ_section_title
;
Structure prediction by ZEFSAII (Michael W. Deem and Ramdas Pophale) SiO2 
 PCOD9124790
Probable space group: C 2
;
_chemical_formula_sum "Si O2"
_cell_formula_units_Z 26
_cell_length_a 14.577604
_cell_length_b 14.922655
_cell_length_c 12.067038
_cell_angle_alpha 90.000000
_cell_angle_beta 155.330454
_cell_angle_gamma 90.000000
_cell_volume 1095.642452
_symmetry_space_group_name_H-M "C 2"
_symmetry_group_IT_number 5
_symmetry_cell_setting 'monoclinic'
loop_
_space_group_symop_operation_xyz
x,y,z
-x,y,-z
1/2+x,1/2+y,z
1/2-x,1/2+y,-z
loop_
_atom_site_type_symbol
_atom_site_label
_atom_site_fract_x
_atom_site_fract_y
_atom_site_fract_z
Si Si1 0.500000 0.477540 0.500000
Si Si2 0.000000 0.264253 0.500000
Si Si3 0.999043 0.731790 0.707797
Si Si4 0.651049 0.115085 0.064140
Si Si5 0.219306 0.917238 0.521055
Si Si6 0.500000 0.125447 0.500000
Si Si7 0.391478 0.856085 0.171176
Si Si8 0.101890 0.994233 0.991721
O O1 0.335583 0.540551 0.249746
O O2 0.640595 0.427016 0.561360
O O3 0.211099 0.202831 0.750185
O O4 0.956141 0.318704 0.563335
O O5 0.912840 0.689404 0.500944
O O6 0.857849 0.815856 0.593611
O O7 0.016048 0.650138 0.812169
O O8 0.242304 0.776190 0.958353
O O9 0.500000 0.086531 0.000000
O O10 0.475993 0.911846 0.774153
O O11 0.108116 0.995168 0.323124
O O12 0.291545 0.068733 0.223509
O O13 0.235012 0.918044 0.073218
O O14 0.000000 0.972160 0.000000
#
# Coordination Sequence:
#
# PCOD9124790 Si02
#       8
#     2   2   4   4   4   2   4   4
#     4  11  25  40  61  93 126 164 212 261 315 382
#     4   9  17  34  61  95 120 154 210 267 323 378
#     4  10  24  41  63  94 126 168 216 262 321 389
#     4  10  21  38  62  90 123 161 206 263 322 376
#     4  11  23  43  66  93 127 169 219 268 322 384
#     4  12  24  42  62  96 140 174 212 264 326 392
#     4  10  21  41  67  94 127 168 216 272 327 383
#     4  11  24  40  66  98 129 168 217 268 326 389
#
# _framework density 23.730371000000002
#
# number of rings (size 3 to 8) (size 9 to 14) (size 15 to 20)
#    0.000    1.538    0.000    4.615    0.000   10.462 
#    0.000    3.077    0.000    0.000    0.000    0.000 
#    0.000    0.000    0.000    0.000    0.000    0.000 
#
# Total GULP energy -72587.523897 kJ/mol
# GULP energy per Si atom -5583.655684 kJ/mol
# Density = 2.367636 g / cm^3
# Si number density = 23.730371 Si / 1000 Ang^3
#
#
#
# Elastic Constant Matrix: (Units=GPa)
#
#
# Indices 1 2 3 4 5 6 
#
# 1 147.2765 33.6158 6.0370 0.0000 11.5401 0.0000
# 2 33.6158 74.8846 38.8981 0.0000 3.1642 0.0000
# 3 6.0370 38.8981 47.6420 -0.0001 -9.3317 0.0000
# 4 0.0000 0.0000 -0.0001 26.8893 0.0000 -10.4969
# 5 11.5401 3.1642 -9.3317 0.0000 32.6324 0.0000
# 6 0.0000 0.0000 0.0000 -10.4969 0.0000 16.7940
#
#
#
# Elastic Compliance Matrix: (Units=1/GPa)
#
#
# Indices 1 2 3 4 5 6 
#
# 1 0.007916 -0.004875 0.002671 0.000000 -0.001563 0.000000
# 2 -0.004875 0.028414 -0.024136 0.000000 -0.007933 0.000000
# 3 0.002671 -0.024136 0.043042 0.000000 0.013704 0.000000
# 4 0.000000 0.000000 0.000000 0.049193 0.000000 0.030747
# 5 -0.001563 -0.007933 0.013704 0.000000 0.035885 0.000000
# 6 0.000000 0.000000 0.000000 0.030747 0.000000 0.078763
#
#
# Mechanical properties :
#
#
# Convention : Reuss Voigt Hill
#
# Bulk Modulus (GPa) = 37.46332 47.43390 42.44861
# Shear Modulus (GPa) = 16.40479 28.01329 22.20904
#
# Velocity S-wave (km/s) = 2.63211 3.43954 3.06255
# Velocity P-wave (km/s) = 5.00587 5.98381 5.51655
#
# Compressibility (1/GPa) = 0.02669277
#
# Stress axis : x y z
#
# Youngs Moduli (GPa) = 126.33364 35.19353 23.23330
#
# Poissons Ratio (x) = 0.17155 -0.06205
# Poissons Ratio (y) = 0.61582 0.56075
# Poissons Ratio (z) = -0.33741 0.84942
#
# Static dielectric constant tensor:
#      x y z
#    x 1.911730 0.000000 0.024970 
#    y 0.000000 1.900100 0.000000 
#    z 0.024970 0.000000 2.106460 
# 
# From -- ./inp_files/43152.got.cif
#   From: 2010.05.17/outbox.cif.g08.bks.cpg/sg5_22_cif.got.tgz:43152.got - 2010.06.03 18:56:24.
