data_PCOD9124876
_publ_section_title
;
Structure prediction by ZEFSAII (Michael W. Deem and Ramdas Pophale) SiO2 
 PCOD9124876
Probable space group: C 2
;
_chemical_formula_sum "Si O2"
_cell_formula_units_Z 32
_cell_length_a 14.657261
_cell_length_b 22.952450
_cell_length_c 8.857039
_cell_angle_alpha 90.000000
_cell_angle_beta 28.912078
_cell_angle_gamma 90.000000
_cell_volume 1440.579377
_symmetry_space_group_name_H-M "C 2"
_symmetry_group_IT_number 5
_symmetry_cell_setting 'monoclinic'
loop_
_space_group_symop_operation_xyz
x,y,z
-x,y,-z
1/2+x,1/2+y,z
1/2-x,1/2+y,-z
loop_
_atom_site_type_symbol
_atom_site_label
_atom_site_fract_x
_atom_site_fract_y
_atom_site_fract_z
Si Si1 0.702643 0.048150 0.171735
Si Si2 0.307040 0.428445 0.186727
Si Si3 0.543924 0.881272 0.104001
Si Si4 0.707972 0.719156 0.124734
Si Si5 0.850725 0.834964 0.854249
Si Si6 0.791736 0.625768 0.234332
Si Si7 0.946627 0.158485 0.906591
Si Si8 0.672934 0.003282 0.870709
O O1 0.500000 0.074834 0.500000
O O2 0.741555 0.990343 0.214487
O O3 0.853432 0.096632 0.998571
O O4 0.674358 0.025049 0.041794
O O5 0.140355 0.406061 0.541048
O O6 0.500000 0.435055 0.000000
O O7 0.348867 0.385245 0.984821
O O8 0.500000 0.858502 0.000000
O O9 0.646930 0.838491 0.068023
O O10 0.695855 0.934279 0.855688
O O11 0.500000 0.730133 0.500000
O O12 0.783186 0.658298 0.086711
O O13 0.682939 0.706605 0.983566
O O14 0.849081 0.772741 0.940724
O O15 0.000000 0.839093 0.500000
O O16 0.649193 0.663434 0.535291
O O17 0.714059 0.559101 0.355125
O O18 0.000000 0.625871 0.000000
O O19 0.000000 0.163356 0.000000
O O20 0.500000 0.002864 0.000000
#
# Coordination Sequence:
#
# PCOD9124876 Si02
#       8
#     4   4   4   4   4   4   4   4
#     4  12  23  41  65  99 137 174 213 264 330 385
#     4  12  25  44  66  99 136 175 219 271 329 394
#     4  11  23  44  68  96 132 175 216 269 330 389
#     4  10  23  46  66  90 128 173 219 272 327 389
#     4  12  26  44  68  99 126 171 224 274 332 393
#     4  10  23  43  66  94 130 173 215 266 326 384
#     4  11  26  40  65 101 132 171 218 265 328 391
#     4  10  21  38  67  96 130 169 215 254 323 388
#
# _framework density 22.213284999999999
#
# number of rings (size 3 to 8) (size 9 to 14) (size 15 to 20)
#    0.000    1.000    3.750    2.250    3.500    6.500 
#    0.000    2.500    0.000    0.000    0.000    0.000 
#    0.000    0.000    0.000    0.000    0.000    0.000 
#
# Total GULP energy -89124.340837 kJ/mol
# GULP energy per Si atom -5570.271302 kJ/mol
# Density = 2.216273 g / cm^3
# Si number density = 22.213285 Si / 1000 Ang^3
#
#
#
# Elastic Constant Matrix: (Units=GPa)
#
#
# Indices 1 2 3 4 5 6 
#
# 1 122.2847 10.0240 30.8362 -0.0030 23.9239 0.0014
# 2 10.0240 82.9580 12.4562 -0.0005 -2.5887 0.0002
# 3 30.8362 12.4562 83.1807 -0.0036 -5.9430 0.0018
# 4 -0.0030 -0.0005 -0.0036 16.9139 0.0030 -0.8546
# 5 23.9239 -2.5887 -5.9430 0.0030 25.9447 -0.0015
# 6 0.0014 0.0002 0.0018 -0.8546 -0.0015 16.6191
#
#
#
# Elastic Compliance Matrix: (Units=1/GPa)
#
#
# Indices 1 2 3 4 5 6 
#
# 1 0.011980 -0.001057 -0.005164 0.000003 -0.012335 -0.000001
# 2 -0.001057 0.012442 -0.001335 0.000000 0.001910 0.000000
# 3 -0.005164 -0.001335 0.014708 0.000001 0.007998 0.000000
# 4 0.000003 0.000000 0.000001 0.059277 -0.000009 0.003048
# 5 -0.012335 0.001910 0.007998 -0.000009 0.051940 0.000004
# 6 -0.000001 0.000000 0.000000 0.003048 0.000004 0.060328
#
#
# Mechanical properties :
#
#
# Convention : Reuss Voigt Hill
#
# Bulk Modulus (GPa) = 41.63609 43.89512 42.76561
# Shear Modulus (GPa) = 21.38644 27.56935 24.47789
#
# Velocity S-wave (km/s) = 3.10623 3.52678 3.32316
# Velocity P-wave (km/s) = 5.62578 6.03223 5.83255
#
# Compressibility (1/GPa) = 0.02401762
#
# Stress axis : x y z
#
# Youngs Moduli (GPa) = 83.47435 80.37259 67.99161
#
# Poissons Ratio (x) = 0.08496 0.35111
# Poissons Ratio (y) = 0.08824 0.09076
# Poissons Ratio (z) = 0.43107 0.10728
#
# Static dielectric constant tensor:
#      x y z
#    x 1.892320 0.000000 0.081690 
#    y 0.000000 1.842290 0.000000 
#    z 0.081690 0.000000 1.860420 
# 
# From -- ./inp_files/25619.got.cif
#   From: 2010.05.17/outbox.cif.g08.bks.cpg/sg5_13_cif.got.tgz:25619.got - 2010.06.03 18:56:24.
