data_PCOD9124027
_publ_section_title
;
Structure prediction by ZEFSAII (Michael W. Deem and Ramdas Pophale) SiO2 
 PCOD9124027
Probable space group: C 2
;
_chemical_formula_sum "Si O2"
_cell_formula_units_Z 18
_cell_length_a 6.698746
_cell_length_b 12.937722
_cell_length_c 8.814318
_cell_angle_alpha 90.000000
_cell_angle_beta 86.328483
_cell_angle_gamma 90.000000
_cell_volume 762.338350
_symmetry_space_group_name_H-M "C 2"
_symmetry_group_IT_number 5
_symmetry_cell_setting 'monoclinic'
loop_
_space_group_symop_operation_xyz
x,y,z
-x,y,-z
1/2+x,1/2+y,z
1/2-x,1/2+y,-z
loop_
_atom_site_type_symbol
_atom_site_label
_atom_site_fract_x
_atom_site_fract_y
_atom_site_fract_z
Si Si1 0.710784 0.936530 0.117514
Si Si2 0.160226 0.872824 0.190546
Si Si3 0.854896 0.150663 0.153279
Si Si4 0.000000 0.818123 0.500000
Si Si5 0.375350 0.760066 0.650826
O O1 0.603802 0.848088 0.221072
O O2 0.939386 0.902651 0.146164
O O3 0.707695 0.053838 0.172456
O O4 0.698076 0.934935 0.934418
O O5 0.222686 0.754303 0.154828
O O6 0.135639 0.882434 0.373857
O O7 0.011831 0.161751 0.284222
O O8 0.000000 0.141903 0.000000
O O9 0.150093 0.752466 0.599075
O O10 0.500000 0.792991 0.500000
#
# Coordination Sequence:
#
# PCOD9124027 Si02
#       5
#     4   4   4   2   4
#     4  10  23  43  67  97 136 185 226 282 336 404
#     4  10  20  41  66  92 139 174 219 282 335 394
#     4  12  22  42  71  99 132 186 236 272 346 411
#     4  10  22  42  70  98 140 180 214 286 356 386
#     4  11  23  45  70  99 144 183 222 291 340 405
#
# _framework density 23.611564000000001
#
# number of rings (size 3 to 8) (size 9 to 14) (size 15 to 20)
#    0.000    1.333    6.667    0.000    0.000    0.000 
#   10.000    8.889    0.000    0.000    0.000    0.000 
#    0.000    0.000    0.000    0.000    0.000    0.000 
#
# Total GULP energy -50162.544939 kJ/mol
# GULP energy per Si atom -5573.616104 kJ/mol
# Density = 2.355782 g / cm^3
# Si number density = 23.611564 Si / 1000 Ang^3
#
#
#
# Elastic Constant Matrix: (Units=GPa)
#
#
# Indices 1 2 3 4 5 6 
#
# 1 34.4122 8.7824 -0.3601 0.0000 14.0603 0.0000
# 2 8.7824 103.4705 12.3183 0.0000 3.9793 0.0000
# 3 -0.3601 12.3183 140.2132 0.0000 -13.4230 0.0000
# 4 0.0000 0.0000 0.0000 -9.0481 0.0000 -1.9749
# 5 14.0603 3.9793 -13.4230 0.0000 62.6969 0.0000
# 6 0.0000 0.0000 0.0000 -1.9749 0.0000 35.2222
#
#
#
# Elastic Compliance Matrix: (Units=1/GPa)
#
#
# Indices 1 2 3 4 5 6 
#
# 1 0.032641 -0.002445 -0.000395 0.000000 -0.007250 0.000000
# 2 -0.002445 0.009991 -0.000911 0.000000 -0.000281 0.000000
# 3 -0.000395 -0.000911 0.007376 0.000000 0.001726 0.000000
# 4 0.000000 0.000000 0.000000 -0.109185 0.000000 -0.006122
# 5 -0.007250 -0.000281 0.001726 0.000000 0.017963 0.000000
# 6 0.000000 0.000000 0.000000 -0.006122 0.000000 0.028048
#
#
# Mechanical properties :
#
#
# Convention : Reuss Voigt Hill
#
# Bulk Modulus (GPa) = 23.52563 35.50856 29.51710
# Shear Modulus (GPa) = 587.83204 34.93124 311.38164
#
# Velocity S-wave (km/s) = 15.79556 3.85049 11.49622
# Velocity P-wave (km/s) = 18.51085 5.90251 13.73847
#
# Compressibility (1/GPa) = 0.04250683
#
# Stress axis : x y z
#
# Youngs Moduli (GPa) = 30.63603 100.08665 135.57089
#
# Poissons Ratio (x) = 0.24468 0.05361
# Poissons Ratio (y) = 0.07489 0.12350
# Poissons Ratio (z) = 0.01211 0.09117
#
# Static dielectric constant tensor:
#      x y z
#    x 2.147770 0.000000 0.037320 
#    y 0.000000 1.886350 0.000000 
#    z 0.037320 0.000000 1.967050 
# 
# From -- ./inp_files/13944.got.cif
#   From: 2010.05.17/outbox.cif.g08.bks.cpg/sg5_7_cif.got.tgz:13944.got - 2010.06.03 18:56:24.
