data_PCOD9124442
_publ_section_title
;
Structure prediction by ZEFSAII (Michael W. Deem and Ramdas Pophale) SiO2 
 PCOD9124442
Probable space group: C 2
;
_chemical_formula_sum "Si O2"
_cell_formula_units_Z 20
_cell_length_a 16.686525
_cell_length_b 9.365958
_cell_length_c 7.709288
_cell_angle_alpha 90.000000
_cell_angle_beta 116.916755
_cell_angle_gamma 90.000000
_cell_volume 1074.321309
_symmetry_space_group_name_H-M "C 2"
_symmetry_group_IT_number 5
_symmetry_cell_setting 'monoclinic'
loop_
_space_group_symop_operation_xyz
x,y,z
-x,y,-z
1/2+x,1/2+y,z
1/2-x,1/2+y,-z
loop_
_atom_site_type_symbol
_atom_site_label
_atom_site_fract_x
_atom_site_fract_y
_atom_site_fract_z
Si Si1 0.217681 0.468950 0.567300
Si Si2 0.907382 0.737451 0.502292
Si Si3 0.752011 0.253761 0.117093
Si Si4 0.256222 0.427264 0.214379
Si Si5 0.596570 0.395350 0.144800
O O1 0.157411 0.600967 0.561755
O O2 0.200668 0.331195 0.672190
O O3 0.208390 0.435939 0.354768
O O4 0.323710 0.499850 0.711202
O O5 0.854287 0.865125 0.355684
O O6 0.919705 0.787070 0.712238
O O7 0.000000 0.706797 0.500000
O O8 0.759481 0.085117 0.137367
O O9 0.784231 0.321238 0.968855
O O10 0.648386 0.306199 0.045613
O O11 0.500000 0.456325 0.000000
#
# Coordination Sequence:
#
# PCOD9124442 Si02
#       5
#     4   4   4   4   4
#     4   9  20  39  59  92 124 160 202 261 307 365
#     4  11  21  37  65  93 123 165 210 251 311 368
#     4  10  21  33  63  88 124 156 209 246 310 363
#     4  11  19  37  58  91 119 166 201 252 307 361
#     4   9  19  36  60  93 121 154 206 257 295 370
#
# _framework density 18.616403999999999
#
# number of rings (size 3 to 8) (size 9 to 14) (size 15 to 20)
#    1.200    0.800    2.000    2.400    0.000    0.000 
#    0.000    1.000    0.000    3.600    0.000    0.000 
#    0.000    0.000    0.000    0.000    0.000    0.000 
#
# Total GULP energy -55679.950813 kJ/mol
# GULP energy per Si atom -5567.995081 kJ/mol
# Density = 1.857403 g / cm^3
# Si number density = 18.616404 Si / 1000 Ang^3
#
#
#
# Elastic Constant Matrix: (Units=GPa)
#
#
# Indices 1 2 3 4 5 6 
#
# 1 103.4882 34.4803 24.5701 0.0000 8.3212 0.0000
# 2 34.4803 69.4919 31.9000 0.0000 -10.4145 0.0000
# 3 24.5701 31.9000 49.3920 0.0000 -20.5537 0.0000
# 4 0.0000 0.0000 0.0000 22.6371 0.0000 -2.3852
# 5 8.3212 -10.4145 -20.5537 0.0000 23.0589 0.0000
# 6 0.0000 0.0000 0.0000 -2.3852 0.0000 21.4253
#
#
#
# Elastic Compliance Matrix: (Units=1/GPa)
#
#
# Indices 1 2 3 4 5 6 
#
# 1 0.015891 -0.004918 -0.012780 0.000000 -0.019347 0.000000
# 2 -0.004918 0.022215 -0.011108 0.000000 0.001907 0.000000
# 3 -0.012780 -0.011108 0.053426 0.000000 0.047217 0.000000
# 4 0.000000 0.000000 0.000000 0.044700 0.000000 0.004976
# 5 -0.019347 0.001907 0.047217 0.000000 0.093298 0.000000
# 6 0.000000 0.000000 0.000000 0.004976 0.000000 0.047228
#
#
# Mechanical properties :
#
#
# Convention : Reuss Voigt Hill
#
# Bulk Modulus (GPa) = 29.47989 44.91921 37.19955
# Shear Modulus (GPa) = 14.46442 22.18572 18.32507
#
# Velocity S-wave (km/s) = 2.79045 3.45589 3.14084
# Velocity P-wave (km/s) = 5.12366 6.33289 5.76009
#
# Compressibility (1/GPa) = 0.03392142
#
# Stress axis : x y z
#
# Youngs Moduli (GPa) = 62.92720 45.01454 18.71739
#
# Poissons Ratio (x) = 0.22137 0.23921
# Poissons Ratio (y) = 0.30946 0.20791
# Poissons Ratio (z) = 0.80422 0.50001
#
# Static dielectric constant tensor:
#      x y z
#    x 1.652010 0.000000 -0.024580 
#    y 0.000000 1.619930 0.000000 
#    z -0.024580 0.000000 1.695530 
# 
# From -- ./inp_files/26644.got.cif
#   From: 2010.05.17/outbox.cif.g08.bks.cpg/sg5_14_cif.got.tgz:26644.got - 2010.06.03 18:56:24.
