data_PCOD9124904
_publ_section_title
;
Structure prediction by ZEFSAII (Michael W. Deem and Ramdas Pophale) SiO2 
 PCOD9124904
Probable space group: C 2
;
_chemical_formula_sum "Si O2"
_cell_formula_units_Z 32
_cell_length_a 12.836574
_cell_length_b 12.175457
_cell_length_c 7.926718
_cell_angle_alpha 90.000000
_cell_angle_beta 98.829835
_cell_angle_gamma 90.000000
_cell_volume 1224.193477
_symmetry_space_group_name_H-M "C 2"
_symmetry_group_IT_number 5
_symmetry_cell_setting 'monoclinic'
loop_
_space_group_symop_operation_xyz
x,y,z
-x,y,-z
1/2+x,1/2+y,z
1/2-x,1/2+y,-z
loop_
_atom_site_type_symbol
_atom_site_label
_atom_site_fract_x
_atom_site_fract_y
_atom_site_fract_z
Si Si1 0.894319 0.138570 0.869527
Si Si2 0.912268 0.681732 0.620170
Si Si3 0.668154 0.066626 0.888353
Si Si4 0.109731 0.030520 0.497015
Si Si5 0.566682 0.303668 0.885304
Si Si6 0.341822 0.970196 0.491953
Si Si7 0.298076 0.847577 0.962190
Si Si8 0.818372 0.246939 0.346361
O O1 0.899895 0.085857 0.688329
O O2 0.793406 0.084131 0.933965
O O3 0.859915 0.266468 0.855447
O O4 0.000000 0.131320 0.000000
O O5 0.902608 0.549171 0.636912
O O6 0.790615 0.718076 0.582430
O O7 0.000000 0.694189 0.500000
O O8 0.963101 0.765989 0.760770
O O9 0.651980 0.037218 0.685865
O O10 0.644185 0.962017 0.995046
O O11 0.611500 0.178391 0.927943
O O12 0.120207 0.132247 0.630121
O O13 0.000000 0.967814 0.500000
O O14 0.219501 0.966470 0.518051
O O15 0.500000 0.376526 0.000000
O O16 0.676919 0.359982 0.868844
O O17 0.374202 0.847134 0.457067
O O18 0.295712 0.792121 0.151349
#
# Coordination Sequence:
#
# PCOD9124904 Si02
#       8
#     4   4   4   4   4   4   4   4
#     4  10  21  39  59  84 118 156 194 242 299 348
#     4  11  21  38  62  86 120 158 194 245 298 354
#     4   9  20  39  60  84 115 154 197 241 289 347
#     4  10  21  39  60  84 118 157 194 242 293 357
#     4  11  21  38  59  90 119 153 197 242 299 354
#     4   9  20  39  60  83 115 154 198 240 287 348
#     4  10  21  39  60  85 119 154 196 249 291 351
#     4  10  21  39  60  86 116 155 200 243 294 348
#
# _framework density 26.139658000000001
#
# number of rings (size 3 to 8) (size 9 to 14) (size 15 to 20)
#    0.000    2.000    2.500    0.750    1.750    2.000 
#    6.750    0.000    0.000    0.000    0.000    0.000 
#    0.000    0.000    0.000    0.000    0.000    0.000 
#
# Total GULP energy -89334.524939 kJ/mol
# GULP energy per Si atom -5583.407809 kJ/mol
# Density = 2.608016 g / cm^3
# Si number density = 26.139658 Si / 1000 Ang^3
#
#
#
# Elastic Constant Matrix: (Units=GPa)
#
#
# Indices 1 2 3 4 5 6 
#
# 1 122.8807 -3.7263 11.7517 0.0000 -4.5804 0.0000
# 2 -3.7263 84.5560 0.1892 0.0000 -6.3810 0.0000
# 3 11.7517 0.1892 50.9403 0.0000 -11.1858 0.0000
# 4 0.0000 0.0000 0.0000 30.5330 0.0000 -3.5152
# 5 -4.5804 -6.3810 -11.1858 0.0000 33.7667 0.0000
# 6 0.0000 0.0000 0.0000 -3.5152 0.0000 -2.6787
#
#
#
# Elastic Compliance Matrix: (Units=1/GPa)
#
#
# Indices 1 2 3 4 5 6 
#
# 1 0.008345 0.000418 -0.001791 0.000000 0.000618 0.000000
# 2 0.000418 0.012030 0.000400 0.000000 0.002462 0.000000
# 3 -0.001791 0.000400 0.021575 0.000000 0.006980 0.000000
# 4 0.000000 0.000000 0.000000 0.028453 0.000000 -0.037338
# 5 0.000618 0.002462 0.006980 0.000000 0.032476 0.000000
# 6 0.000000 0.000000 0.000000 -0.037338 0.000000 -0.324319
#
#
# Mechanical properties :
#
#
# Convention : Reuss Voigt Hill
#
# Bulk Modulus (GPa) = 24.99769 30.53402 27.76585
# Shear Modulus (GPa) = -24.25309 29.00170 2.37430
#
# Velocity S-wave (km/s) = -3.04933 3.33451 0.95409
# Velocity P-wave (km/s) = 1.67750 5.15090 3.44367
#
# Compressibility (1/GPa) = 0.04000370
#
# Stress axis : x y z
#
# Youngs Moduli (GPa) = 119.83255 83.12655 46.34953
#
# Poissons Ratio (x) = -0.03478 0.08301
# Poissons Ratio (y) = -0.05014 -0.01852
# Poissons Ratio (z) = 0.21463 -0.03321
#
# Static dielectric constant tensor:
#      x y z
#    x 1.957060 0.000000 0.119170 
#    y 0.000000 2.082000 0.000000 
#    z 0.119170 0.000000 2.089570 
# 
# From -- ./inp_files/20674.got.cif
#   From: 2010.05.17/outbox.cif.g08.bks.cpg/sg5_11_cif.got.tgz:20674.got - 2010.06.03 18:56:24.
