data_PCOD9124824
_publ_section_title
;
Structure prediction by ZEFSAII (Michael W. Deem and Ramdas Pophale) SiO2 
 PCOD9124824
Probable space group: C 2
;
_chemical_formula_sum "Si O2"
_cell_formula_units_Z 20
_cell_length_a 12.577867
_cell_length_b 5.230339
_cell_length_c 13.855011
_cell_angle_alpha 90.000000
_cell_angle_beta 71.299989
_cell_angle_gamma 90.000000
_cell_volume 863.356344
_symmetry_space_group_name_H-M "C 2"
_symmetry_group_IT_number 5
_symmetry_cell_setting 'monoclinic'
loop_
_space_group_symop_operation_xyz
x,y,z
-x,y,-z
1/2+x,1/2+y,z
1/2-x,1/2+y,-z
loop_
_atom_site_type_symbol
_atom_site_label
_atom_site_fract_x
_atom_site_fract_y
_atom_site_fract_z
Si Si1 0.885480 0.020260 0.076323
Si Si2 0.160551 0.003864 0.269689
Si Si3 0.963263 0.492720 0.620011
Si Si4 0.589101 0.881083 0.765137
Si Si5 0.140405 0.317483 0.096786
O O1 0.898227 0.107245 0.183182
O O2 0.764684 0.903838 0.087973
O O3 0.874470 0.272286 0.011499
O O4 0.000000 0.898425 0.000000
O O5 0.103238 0.743641 0.323236
O O6 0.294161 0.005168 0.241288
O O7 0.114724 0.244684 0.343217
O O8 0.130583 0.064328 0.167026
O O9 0.000000 0.531529 0.500000
O O10 0.069042 0.416154 0.657370
O O11 0.468613 0.978190 0.839916
#
# Coordination Sequence:
#
# PCOD9124824 Si02
#       5
#     4   4   4   4   4
#     4  10  21  38  63  99 138 183 225 269 328 394
#     4  11  24  43  69  98 132 175 221 276 337 397
#     4  11  26  46  69 100 134 171 224 283 336 397
#     4  10  22  40  65  94 131 175 221 270 329 391
#     4  10  22  39  63  99 139 178 224 274 325 395
#
# _framework density 23.165403999999999
#
# number of rings (size 3 to 8) (size 9 to 14) (size 15 to 20)
#    0.000    1.600    0.000    4.200    0.000   11.200 
#    0.000    0.000    0.000    0.000    0.000    0.000 
#    0.000    0.000    0.000    0.000    0.000    0.000 
#
# Total GULP energy -55772.494099 kJ/mol
# GULP energy per Si atom -5577.249410 kJ/mol
# Density = 2.311268 g / cm^3
# Si number density = 23.165404 Si / 1000 Ang^3
#
#
#
# Elastic Constant Matrix: (Units=GPa)
#
#
# Indices 1 2 3 4 5 6 
#
# 1 214.0409 49.2499 33.6127 0.0000 8.1290 0.0000
# 2 49.2499 115.2050 36.2841 0.0003 -9.9883 0.0002
# 3 33.6127 36.2841 92.2317 0.0000 27.9423 0.0000
# 4 0.0000 0.0003 0.0000 30.1592 0.0001 -7.3266
# 5 8.1290 -9.9883 27.9423 0.0001 32.2750 0.0001
# 6 0.0000 0.0002 0.0000 -7.3266 0.0001 44.6562
#
#
#
# Elastic Compliance Matrix: (Units=1/GPa)
#
#
# Indices 1 2 3 4 5 6 
#
# 1 0.005336 -0.002215 -0.000622 0.000000 -0.001491 0.000000
# 2 -0.002215 0.013049 -0.007752 0.000000 0.011307 0.000000
# 3 -0.000622 -0.007752 0.020059 0.000000 -0.019609 0.000000
# 4 0.000000 0.000000 0.000000 0.034534 0.000000 0.005666
# 5 -0.001491 0.011307 -0.019609 0.000000 0.051835 0.000000
# 6 0.000000 0.000000 0.000000 0.005666 0.000000 0.023323
#
#
# Mechanical properties :
#
#
# Convention : Reuss Voigt Hill
#
# Bulk Modulus (GPa) = 57.91288 73.30789 65.61039
# Shear Modulus (GPa) = 28.56039 41.57346 35.06692
#
# Velocity S-wave (km/s) = 3.51506 4.24091 3.89493
# Velocity P-wave (km/s) = 6.44424 7.46288 6.97219
#
# Compressibility (1/GPa) = 0.01726732
#
# Stress axis : x y z
#
# Youngs Moduli (GPa) = 187.41293 76.63571 49.85267
#
# Poissons Ratio (x) = 0.16971 0.03099
# Poissons Ratio (y) = 0.41503 0.38646
# Poissons Ratio (z) = 0.11650 0.59408
#
# Static dielectric constant tensor:
#      x y z
#    x 1.862170 0.000000 -0.009460 
#    y 0.000000 1.964170 0.000000 
#    z -0.009460 0.000000 1.905260 
# 
# From -- ./inp_files/51871.got.cif
#   From: 2010.05.17/outbox.cif.g08.bks.cpg/sg5_26_cif.got.tgz:51871.got - 2010.06.03 18:56:24.
