data_PCOD9124924
_publ_section_title
;
Structure prediction by ZEFSAII (Michael W. Deem and Ramdas Pophale) SiO2 
 PCOD9124924
Probable space group: C 2
;
_chemical_formula_sum "Si O2"
_cell_formula_units_Z 24
_cell_length_a 8.022483
_cell_length_b 11.774481
_cell_length_c 17.033978
_cell_angle_alpha 90.000000
_cell_angle_beta 54.350092
_cell_angle_gamma 90.000000
_cell_volume 1307.494725
_symmetry_space_group_name_H-M "C 2"
_symmetry_group_IT_number 5
_symmetry_cell_setting 'monoclinic'
loop_
_space_group_symop_operation_xyz
x,y,z
-x,y,-z
1/2+x,1/2+y,z
1/2-x,1/2+y,-z
loop_
_atom_site_type_symbol
_atom_site_label
_atom_site_fract_x
_atom_site_fract_y
_atom_site_fract_z
Si Si1 0.830440 0.771220 0.269031
Si Si2 0.033990 0.611794 0.339755
Si Si3 0.585063 0.872321 0.566096
Si Si4 0.543318 0.509112 0.823639
Si Si5 0.500000 0.252195 0.500000
Si Si6 0.500000 0.391344 0.000000
Si Si7 0.822628 0.676291 0.101609
O O1 0.587678 0.797480 0.341737
O O2 0.882325 0.706147 0.174143
O O3 0.905322 0.695797 0.320437
O O4 0.936425 0.895562 0.235152
O O5 0.237362 0.570284 0.239686
O O6 0.915476 0.497954 0.397192
O O7 0.088164 0.675483 0.405549
O O8 0.500000 0.877497 0.500000
O O9 0.810982 0.821896 0.514998
O O10 0.374628 0.598679 0.843637
O O11 0.489993 0.465601 0.925256
O O12 0.311785 0.301461 0.063379
O O13 0.000000 0.619054 0.000000
#
# Coordination Sequence:
#
# PCOD9124924 Si02
#       7
#     4   4   4   4   2   2   4
#     4  10  22  42  60  90 125 161 198 265 311 357
#     4  11  24  40  64  91 125 165 209 255 312 372
#     4  11  23  42  64  91 131 160 207 265 304 368
#     4  10  21  39  61  86 126 160 205 255 308 375
#     4  12  24  40  66  98 118 174 214 244 320 366
#     4   8  20  36  60  86 122 156 198 254 308 350
#     4   9  20  40  59  88 122 157 203 253 306 365
#
# _framework density 18.355715
#
# number of rings (size 3 to 8) (size 9 to 14) (size 15 to 20)
#    0.500    1.333    2.500    1.000    2.333    2.667 
#    3.000    0.000    0.000    0.000    0.000    0.000 
#    0.000    0.000    0.000    0.000    0.000    0.000 
#
# Total GULP energy -66871.982730 kJ/mol
# GULP energy per Si atom -5572.665227 kJ/mol
# Density = 1.831394 g / cm^3
# Si number density = 18.355715 Si / 1000 Ang^3
#
#
#
# Elastic Constant Matrix: (Units=GPa)
#
#
# Indices 1 2 3 4 5 6 
#
# 1 71.0455 58.4878 31.9043 0.0000 5.0402 0.0000
# 2 58.4878 97.8000 28.1793 0.0000 2.3485 0.0000
# 3 31.9043 28.1793 76.7833 0.0000 13.0285 0.0000
# 4 0.0000 0.0000 0.0000 30.0112 0.0000 -1.6680
# 5 5.0402 2.3485 13.0285 0.0000 23.4075 0.0000
# 6 0.0000 0.0000 0.0000 -1.6680 0.0000 26.1725
#
#
#
# Elastic Compliance Matrix: (Units=1/GPa)
#
#
# Indices 1 2 3 4 5 6 
#
# 1 0.030556 -0.016381 -0.006457 0.000000 -0.001342 0.000000
# 2 -0.016381 0.020252 -0.000972 0.000000 0.002036 0.000000
# 3 -0.006457 -0.000972 0.017460 0.000000 -0.008230 0.000000
# 4 0.000000 0.000000 0.000000 0.033439 0.000000 0.002131
# 5 -0.001342 0.002036 -0.008230 0.000000 0.047387 0.000000
# 6 0.000000 0.000000 0.000000 0.002131 0.000000 0.038344
#
#
# Mechanical properties :
#
#
# Convention : Reuss Voigt Hill
#
# Bulk Modulus (GPa) = 48.42803 53.64128 51.03465
# Shear Modulus (GPa) = 20.66640 24.38875 22.52758
#
# Velocity S-wave (km/s) = 3.35906 3.64905 3.50705
# Velocity P-wave (km/s) = 6.44086 6.85863 6.65302
#
# Compressibility (1/GPa) = 0.02064920
#
# Stress axis : x y z
#
# Youngs Moduli (GPa) = 32.72731 49.37728 57.27503
#
# Poissons Ratio (x) = 0.80883 0.36981
# Poissons Ratio (y) = 0.53609 0.05565
# Poissons Ratio (z) = 0.21131 0.04798
#
# Static dielectric constant tensor:
#      x y z
#    x 1.604820 0.000000 -0.001160 
#    y 0.000000 1.625290 0.000000 
#    z -0.001160 0.000000 1.654830 
# 
# From -- ./inp_files/50079.got.cif
#   From: 2010.05.17/outbox.cif.g08.bks.cpg/sg5_26_cif.got.tgz:50079.got - 2010.06.03 18:56:24.
