data_PCOD9124274
_publ_section_title
;
Structure prediction by ZEFSAII (Michael W. Deem and Ramdas Pophale) SiO2 
 PCOD9124274
Probable space group: C 2
;
_chemical_formula_sum "Si O2"
_cell_formula_units_Z 22
_cell_length_a 11.316153
_cell_length_b 8.031695
_cell_length_c 11.550711
_cell_angle_alpha 90.000000
_cell_angle_beta 108.288061
_cell_angle_gamma 90.000000
_cell_volume 996.794279
_symmetry_space_group_name_H-M "C 2"
_symmetry_group_IT_number 5
_symmetry_cell_setting 'monoclinic'
loop_
_space_group_symop_operation_xyz
x,y,z
-x,y,-z
1/2+x,1/2+y,z
1/2-x,1/2+y,-z
loop_
_atom_site_type_symbol
_atom_site_label
_atom_site_fract_x
_atom_site_fract_y
_atom_site_fract_z
Si Si1 0.500000 0.986570 0.500000
Si Si2 0.509297 0.723346 0.298487
Si Si3 0.728771 0.623601 0.655718
Si Si4 0.240093 0.010431 0.403033
Si Si5 0.381898 0.671720 0.026193
Si Si6 0.357854 0.017424 0.922350
O O1 0.531036 0.869491 0.398533
O O2 0.377918 0.084485 0.426281
O O3 0.407470 0.608419 0.330715
O O4 0.632824 0.619086 0.314021
O O5 0.439462 0.763254 0.157890
O O6 0.723404 0.524841 0.535282
O O7 0.827348 0.569039 0.781906
O O8 0.753433 0.819586 0.636328
O O9 0.255620 0.583838 0.030707
O O10 0.500000 0.578463 0.000000
O O11 0.347431 0.819342 0.929851
O O12 0.500000 0.066712 0.000000
#
# Coordination Sequence:
#
# PCOD9124274 Si02
#       6
#     2   4   4   4   4   4
#     4  10  22  36  62  96 134 168 198 272 320 378
#     4  10  20  43  63  91 136 167 207 266 327 373
#     4  10  23  40  67  94 132 171 212 269 322 385
#     4  11  20  41  64  94 129 170 207 265 324 382
#     4  10  24  41  67  94 128 179 220 266 322 387
#     4  10  24  44  64  97 132 172 222 276 318 382
#
# _framework density 22.070751999999999
#
# number of rings (size 3 to 8) (size 9 to 14) (size 15 to 20)
#    0.000    1.818    3.636    0.000    5.091    8.000 
#    3.273    0.000    0.000    0.000    0.000    0.000 
#    0.000    0.000    0.000    0.000    0.000    0.000 
#
# Total GULP energy -61358.229188 kJ/mol
# GULP energy per Si atom -5578.020835 kJ/mol
# Density = 2.202052 g / cm^3
# Si number density = 22.070752 Si / 1000 Ang^3
#
#
#
# Elastic Constant Matrix: (Units=GPa)
#
#
# Indices 1 2 3 4 5 6 
#
# 1 139.2879 39.3957 27.9622 0.0000 18.9224 0.0000
# 2 39.3957 35.6717 14.4383 0.0000 2.8716 0.0000
# 3 27.9622 14.4383 81.3337 0.0000 8.6373 0.0000
# 4 0.0000 0.0000 0.0000 31.2456 0.0000 2.8658
# 5 18.9224 2.8716 8.6373 0.0000 39.0807 0.0000
# 6 0.0000 0.0000 0.0000 2.8658 0.0000 32.3276
#
#
#
# Elastic Compliance Matrix: (Units=1/GPa)
#
#
# Indices 1 2 3 4 5 6 
#
# 1 0.011325 -0.011602 -0.001374 0.000000 -0.004327 0.000000
# 2 -0.011602 0.042133 -0.003849 0.000000 0.003372 0.000000
# 3 -0.001374 -0.003849 0.013671 0.000000 -0.002073 0.000000
# 4 0.000000 0.000000 0.000000 0.032267 0.000000 -0.002860
# 5 -0.004327 0.003372 -0.002073 0.000000 0.027894 0.000000
# 6 0.000000 0.000000 0.000000 -0.002860 0.000000 0.031187
#
#
# Mechanical properties :
#
#
# Convention : Reuss Voigt Hill
#
# Bulk Modulus (GPa) = 29.87018 46.65397 38.26208
# Shear Modulus (GPa) = 24.59586 32.16392 28.37989
#
# Velocity S-wave (km/s) = 3.34190 3.82161 3.58978
# Velocity P-wave (km/s) = 5.33425 6.37630 5.87841
#
# Compressibility (1/GPa) = 0.03347820
#
# Stress axis : x y z
#
# Youngs Moduli (GPa) = 88.30303 23.73418 73.14823
#
# Poissons Ratio (x) = 0.27537 0.10052
# Poissons Ratio (y) = 1.02452 0.28153
# Poissons Ratio (z) = 0.12135 0.09135
#
# Static dielectric constant tensor:
#      x y z
#    x 1.919660 0.000000 -0.029370 
#    y 0.000000 1.799080 0.000000 
#    z -0.029370 0.000000 1.824360 
# 
# From -- ./inp_files/38137.got.cif
#   From: 2010.05.17/outbox.cif.g08.bks.cpg/sg5_20_cif.got.tgz:38137.got - 2010.06.03 18:56:24.
