data_PCOD9124782
_publ_section_title
;
Structure prediction by ZEFSAII (Michael W. Deem and Ramdas Pophale) SiO2 
 PCOD9124782
Probable space group: C 2
;
_chemical_formula_sum "Si O2"
_cell_formula_units_Z 22
_cell_length_a 24.427528
_cell_length_b 7.108852
_cell_length_c 5.370817
_cell_angle_alpha 90.000000
_cell_angle_beta 81.098653
_cell_angle_gamma 90.000000
_cell_volume 921.418761
_symmetry_space_group_name_H-M "C 2"
_symmetry_group_IT_number 5
_symmetry_cell_setting 'monoclinic'
loop_
_space_group_symop_operation_xyz
x,y,z
-x,y,-z
1/2+x,1/2+y,z
1/2-x,1/2+y,-z
loop_
_atom_site_type_symbol
_atom_site_label
_atom_site_fract_x
_atom_site_fract_y
_atom_site_fract_z
Si Si1 0.500000 0.630800 0.000000
Si Si2 0.701911 0.098408 0.564252
Si Si3 0.981498 0.486369 0.766934
Si Si4 0.643978 0.044070 0.106397
Si Si5 0.613811 0.489200 0.111564
Si Si6 0.170741 0.034998 0.572511
O O1 0.486041 0.787278 0.223988
O O2 0.550758 0.515320 0.071094
O O3 0.680613 0.005457 0.324066
O O4 0.678647 0.309339 0.574911
O O5 0.767967 0.110468 0.522216
O O6 0.677065 0.004841 0.829554
O O7 0.916286 0.450788 0.828730
O O8 0.000000 0.579863 0.500000
O O9 0.000000 0.596547 0.000000
O O10 0.629248 0.267950 0.112081
O O11 0.630074 0.571530 0.369324
O O12 0.648534 0.582630 0.861925
#
# Coordination Sequence:
#
# PCOD9124782 Si02
#       6
#     2   4   4   4   4   4
#     4  10  26  38  62  86 126 154 200 244 302 338
#     4  10  21  38  62  87 118 152 195 242 297 346
#     4  10  23  39  58  88 123 149 203 240 292 351
#     4  10  21  40  61  88 116 157 199 240 289 358
#     4  10  23  39  60  86 120 156 200 240 292 349
#     4  10  22  39  59  89 117 153 198 241 292 353
#
# _framework density 23.876221999999999
#
# number of rings (size 3 to 8) (size 9 to 14) (size 15 to 20)
#    0.545    1.455    0.000    2.182    3.818    2.909 
#    0.000    0.000    0.000    0.000    0.000    0.000 
#    0.000    0.000    0.000    0.000    0.000    0.000 
#
# Total GULP energy -61479.160739 kJ/mol
# GULP energy per Si atom -5589.014613 kJ/mol
# Density = 2.382188 g / cm^3
# Si number density = 23.876222 Si / 1000 Ang^3
#
#
#
# Elastic Constant Matrix: (Units=GPa)
#
#
# Indices 1 2 3 4 5 6 
#
# 1 136.2189 5.0689 47.3240 0.0000 23.2413 0.0000
# 2 5.0689 65.2886 6.8995 0.0000 10.1639 0.0000
# 3 47.3240 6.8995 168.7511 0.0000 22.7964 0.0000
# 4 0.0000 0.0000 0.0000 -10.4828 0.0000 -10.3896
# 5 23.2413 10.1639 22.7964 0.0000 40.0375 0.0000
# 6 0.0000 0.0000 0.0000 -10.3896 0.0000 20.1010
#
#
#
# Elastic Compliance Matrix: (Units=1/GPa)
#
#
# Indices 1 2 3 4 5 6 
#
# 1 0.008677 0.000149 -0.001900 0.000000 -0.003993 0.000000
# 2 0.000149 0.015951 -0.000146 0.000000 -0.004052 0.000000
# 3 -0.001900 -0.000146 0.006837 0.000000 -0.002752 0.000000
# 4 0.000000 0.000000 0.000000 -0.063080 0.000000 -0.032604
# 5 -0.003993 -0.004052 -0.002752 0.000000 0.029890 0.000000
# 6 0.000000 0.000000 0.000000 -0.032604 0.000000 0.032897
#
#
# Mechanical properties :
#
#
# Convention : Reuss Voigt Hill
#
# Bulk Modulus (GPa) = 36.14116 54.31594 45.22855
# Shear Modulus (GPa) = 113.14651 30.66221 71.90436
#
# Velocity S-wave (km/s) = 6.89142 3.58748 5.49371
# Velocity P-wave (km/s) = 8.85957 6.32127 7.69579
#
# Compressibility (1/GPa) = 0.02766929
#
# Stress axis : x y z
#
# Youngs Moduli (GPa) = 115.24823 62.69044 146.27293
#
# Poissons Ratio (x) = -0.00932 0.27792
# Poissons Ratio (y) = -0.01714 0.02142
# Poissons Ratio (z) = 0.21898 0.00918
#
# Static dielectric constant tensor:
#      x y z
#    x 1.860850 0.000000 0.006110 
#    y 0.000000 1.966520 0.000000 
#    z 0.006110 0.000000 1.932250 
# 
# From -- ./inp_files/9233.got.cif
#   From: 2010.05.17/outbox.cif.g08.bks.cpg/sg5_5_cif.got.tgz:9233.got - 2010.06.03 18:56:24.
