data_PCOD9124825
_publ_section_title
;
Structure prediction by ZEFSAII (Michael W. Deem and Ramdas Pophale) SiO2 
 PCOD9124825
Probable space group: C 2
;
_chemical_formula_sum "Si O2"
_cell_formula_units_Z 26
_cell_length_a 7.327802
_cell_length_b 22.742563
_cell_length_c 9.326295
_cell_angle_alpha 90.000000
_cell_angle_beta 128.445636
_cell_angle_gamma 90.000000
_cell_volume 1217.290153
_symmetry_space_group_name_H-M "C 2"
_symmetry_group_IT_number 5
_symmetry_cell_setting 'monoclinic'
loop_
_space_group_symop_operation_xyz
x,y,z
-x,y,-z
1/2+x,1/2+y,z
1/2-x,1/2+y,-z
loop_
_atom_site_type_symbol
_atom_site_label
_atom_site_fract_x
_atom_site_fract_y
_atom_site_fract_z
Si Si1 0.500000 0.405620 0.500000
Si Si2 0.372406 0.730044 0.289820
Si Si3 0.000000 0.663272 0.500000
Si Si4 0.226702 0.988255 0.859491
Si Si5 0.006311 0.107252 0.334146
Si Si6 0.303102 0.753079 0.802728
Si Si7 0.570964 0.331519 0.271616
Si Si8 0.000000 0.921309 0.000000
O O1 0.646360 0.446836 0.683938
O O2 0.638241 0.361762 0.457107
O O3 0.500000 0.716998 0.500000
O O4 0.341854 0.663821 0.216164
O O5 0.555979 0.761890 0.275327
O O6 0.825809 0.773891 0.756297
O O7 0.771711 0.626083 0.427112
O O8 0.906183 0.708112 0.332539
O O9 0.500000 0.000133 0.000000
O O10 0.168753 0.958010 0.982377
O O11 0.081214 0.048365 0.781883
O O12 0.000000 0.094706 0.500000
O O13 0.193828 0.810688 0.822405
O O14 0.500000 0.726529 0.000000
O O15 0.618951 0.379959 0.175634
#
# Coordination Sequence:
#
# PCOD9124825 Si02
#       8
#     2   4   2   4   4   4   4   2
#     4  10  23  44  70  96 132 189 230 276 352 390
#     4  10  21  38  64 101 135 174 216 273 350 404
#     4  10  23  44  64 102 144 171 222 288 336 426
#     4  11  25  49  68  97 135 180 240 289 336 402
#     4  10  21  44  71  96 136 181 225 282 346 406
#     4  11  22  39  65 101 141 181 217 270 350 408
#     4  11  21  40  66  98 141 173 227 281 331 420
#     4  10  26  42  62  98 134 180 232 280 336 396
#
# _framework density 21.358917999999999
#
# number of rings (size 3 to 8) (size 9 to 14) (size 15 to 20)
#    0.000    1.538    0.769    5.077    0.000    7.385 
#   18.000    1.538    0.000    0.000    0.000    0.000 
#    0.000    0.000    0.000    0.000    0.000    0.000 
#
# Total GULP energy -72398.969230 kJ/mol
# GULP energy per Si atom -5569.151479 kJ/mol
# Density = 2.131030 g / cm^3
# Si number density = 21.358918 Si / 1000 Ang^3
#
#
#
# Elastic Constant Matrix: (Units=GPa)
#
#
# Indices 1 2 3 4 5 6 
#
# 1 133.1142 64.3070 47.0385 0.0000 -18.4329 0.0000
# 2 64.3070 114.9225 48.6230 0.0000 -9.3526 0.0000
# 3 47.0385 48.6230 95.8664 0.0000 -7.4281 0.0000
# 4 0.0000 0.0000 0.0000 -59.0505 0.0000 -24.3244
# 5 -18.4329 -9.3526 -7.4281 0.0000 37.1950 0.0000
# 6 0.0000 0.0000 0.0000 -24.3244 0.0000 13.8456
#
#
#
# Elastic Compliance Matrix: (Units=1/GPa)
#
#
# Indices 1 2 3 4 5 6 
#
# 1 0.011396 -0.004868 -0.002824 0.000000 0.003860 0.000000
# 2 -0.004868 0.013264 -0.004334 0.000000 0.000057 0.000000
# 3 -0.002824 -0.004334 0.014039 0.000000 0.000315 0.000000
# 4 0.000000 0.000000 0.000000 -0.009825 0.000000 -0.017260
# 5 0.003860 0.000057 0.000315 0.000000 0.028875 0.000000
# 6 0.000000 0.000000 0.000000 -0.017260 0.000000 0.041902
#
#
# Mechanical properties :
#
#
# Convention : Reuss Voigt Hill
#
# Bulk Modulus (GPa) = 68.27156 73.76000 71.01578
# Shear Modulus (GPa) = 38.88408 10.66033 24.77220
#
# Velocity S-wave (km/s) = 4.27137 2.23649 3.40929
# Velocity P-wave (km/s) = 7.50730 6.42477 6.98703
#
# Compressibility (1/GPa) = 0.01464739
#
# Stress axis : x y z
#
# Youngs Moduli (GPa) = 87.74633 75.39106 71.22829
#
# Poissons Ratio (x) = 0.36703 0.20112
# Poissons Ratio (y) = 0.42718 0.30873
# Poissons Ratio (z) = 0.24776 0.32677
#
# Static dielectric constant tensor:
#      x y z
#    x 1.713290 0.000000 0.026440 
#    y 0.000000 1.879230 0.000000 
#    z 0.026440 0.000000 1.827080 
# 
# From -- ./inp_files/17109.got.cif
#   From: 2010.05.17/outbox.cif.g08.bks.cpg/sg5_9_cif.got.tgz:17109.got - 2010.06.03 18:56:24.
