data_PCOD9124579
_publ_section_title
;
Structure prediction by ZEFSAII (Michael W. Deem and Ramdas Pophale) SiO2 
 PCOD9124579
Probable space group: C 2
;
_chemical_formula_sum "Si O2"
_cell_formula_units_Z 28
_cell_length_a 10.638599
_cell_length_b 14.184181
_cell_length_c 8.903641
_cell_angle_alpha 90.000000
_cell_angle_beta 114.072344
_cell_angle_gamma 90.000000
_cell_volume 1226.710118
_symmetry_space_group_name_H-M "C 2"
_symmetry_group_IT_number 5
_symmetry_cell_setting 'monoclinic'
loop_
_space_group_symop_operation_xyz
x,y,z
-x,y,-z
1/2+x,1/2+y,z
1/2-x,1/2+y,-z
loop_
_atom_site_type_symbol
_atom_site_label
_atom_site_fract_x
_atom_site_fract_y
_atom_site_fract_z
Si Si1 0.276181 0.246850 0.514188
Si Si2 0.521176 0.322521 0.834013
Si Si3 0.071155 0.291102 0.172920
Si Si4 0.621717 0.678913 0.730331
Si Si5 0.235252 0.657786 0.906322
Si Si6 0.345710 0.047646 0.399579
Si Si7 0.047111 0.991064 0.358448
O O1 0.392184 0.300045 0.663981
O O2 0.196487 0.309707 0.350640
O O3 0.175976 0.208223 0.595713
O O4 0.339616 0.153073 0.469011
O O5 0.634728 0.247180 0.845317
O O6 0.540154 0.431712 0.805038
O O7 0.500000 0.311302 0.000000
O O8 0.131109 0.197426 0.117019
O O9 0.946236 0.268415 0.222990
O O10 0.000000 0.348026 0.000000
O O11 0.509333 0.597170 0.674397
O O12 0.737047 0.643880 0.904263
O O13 0.180055 0.568138 0.789281
O O14 0.500000 0.008313 0.500000
O O15 0.210783 0.995451 0.401074
O O16 0.000000 0.955496 0.500000
#
# Coordination Sequence:
#
# PCOD9124579 Si02
#       7
#     4   4   4   4   4   4   4
#     4  11  20  38  64  93 132 179 226 277 325 407
#     4  12  27  42  62 101 142 178 218 287 349 402
#     4   9  19  32  60  95 120 157 223 276 321 381
#     4  11  19  39  65  99 128 173 233 276 321 402
#     4  10  21  36  64  95 127 174 224 275 326 403
#     4  11  22  40  69  96 129 177 236 276 333 406
#     4  12  26  42  69 100 136 177 228 284 346 402
#
# _framework density 22.825278000000001
#
# number of rings (size 3 to 8) (size 9 to 14) (size 15 to 20)
#    0.000    1.143    7.143    0.429    6.000    0.000 
#    0.000    1.429    0.000    0.000   11.143    0.000 
#    0.000    0.000    0.000    0.000    0.000    0.000 
#
# Total GULP energy -78072.436582 kJ/mol
# GULP energy per Si atom -5576.602613 kJ/mol
# Density = 2.277333 g / cm^3
# Si number density = 22.825278 Si / 1000 Ang^3
#
#
#
# Elastic Constant Matrix: (Units=GPa)
#
#
# Indices 1 2 3 4 5 6 
#
# 1 123.1544 22.8667 50.7598 0.0000 1.2924 0.0000
# 2 22.8667 30.8968 14.2408 0.0000 1.4119 0.0000
# 3 50.7598 14.2408 180.8235 0.0000 8.5885 0.0000
# 4 0.0000 0.0000 0.0000 16.5354 0.0000 -5.5502
# 5 1.2924 1.4119 8.5885 0.0000 44.0139 0.0000
# 6 0.0000 0.0000 0.0000 -5.5502 0.0000 5.9316
#
#
#
# Elastic Compliance Matrix: (Units=1/GPa)
#
#
# Indices 1 2 3 4 5 6 
#
# 1 0.010321 -0.006550 -0.002399 0.000000 0.000375 0.000000
# 2 -0.006550 0.037756 -0.001097 0.000000 -0.000805 0.000000
# 3 -0.002399 -0.001097 0.006344 0.000000 -0.001132 0.000000
# 4 0.000000 0.000000 0.000000 0.088167 0.000000 0.082497
# 5 0.000375 -0.000805 -0.001132 0.000000 0.022956 0.000000
# 6 0.000000 0.000000 0.000000 0.082497 0.000000 0.245780
#
#
# Mechanical properties :
#
#
# Convention : Reuss Voigt Hill
#
# Bulk Modulus (GPa) = 29.12982 56.73438 42.93210
# Shear Modulus (GPa) = 11.29031 29.76334 20.52682
#
# Velocity S-wave (km/s) = 2.22646 3.61496 3.00209
# Velocity P-wave (km/s) = 4.40447 6.50645 5.55577
#
# Compressibility (1/GPa) = 0.03432908
#
# Stress axis : x y z
#
# Youngs Moduli (GPa) = 96.89014 26.48618 157.63188
#
# Poissons Ratio (x) = 0.17348 0.37820
# Poissons Ratio (y) = 0.63461 0.17286
# Poissons Ratio (z) = 0.23246 0.02904
#
# Static dielectric constant tensor:
#      x y z
#    x 1.868350 0.000000 0.038450 
#    y 0.000000 1.834100 0.000000 
#    z 0.038450 0.000000 1.962510 
# 
# From -- ./inp_files/20733.got.cif
#   From: 2010.05.17/outbox.cif.g08.bks.cpg/sg5_11_cif.got.tgz:20733.got - 2010.06.03 18:56:24.
