data_PCOD9124141
_publ_section_title
;
Structure prediction by ZEFSAII (Michael W. Deem and Ramdas Pophale) SiO2 
 PCOD9124141
Probable space group: C 2
;
_chemical_formula_sum "Si O2"
_cell_formula_units_Z 22
_cell_length_a 9.370989
_cell_length_b 11.029823
_cell_length_c 11.971733
_cell_angle_alpha 90.000000
_cell_angle_beta 71.797456
_cell_angle_gamma 90.000000
_cell_volume 1175.480642
_symmetry_space_group_name_H-M "C 2"
_symmetry_group_IT_number 5
_symmetry_cell_setting 'monoclinic'
loop_
_space_group_symop_operation_xyz
x,y,z
-x,y,-z
1/2+x,1/2+y,z
1/2-x,1/2+y,-z
loop_
_atom_site_type_symbol
_atom_site_label
_atom_site_fract_x
_atom_site_fract_y
_atom_site_fract_z
Si Si1 0.178940 0.171050 0.966053
Si Si2 0.500697 0.456448 0.670963
Si Si3 0.000000 0.526938 0.500000
Si Si4 0.760596 0.152046 0.307193
Si Si5 0.768183 0.898361 0.559378
Si Si6 0.366546 0.408851 0.942019
O O1 0.234951 0.149134 0.826586
O O2 0.257624 0.294323 0.988944
O O3 0.000000 0.190612 0.000000
O O4 0.203079 0.044836 0.027609
O O5 0.602878 0.570250 0.680063
O O6 0.363775 0.484361 0.619803
O O7 0.615137 0.372554 0.570971
O O8 0.435715 0.401026 0.800558
O O9 0.896303 0.602585 0.608515
O O10 0.881072 0.451569 0.457011
O O11 0.773474 0.284405 0.355706
O O12 0.500000 0.404314 0.000000
#
# Coordination Sequence:
#
# PCOD9124141 Si02
#       6
#     4   4   2   4   4   4
#     4  11  24  43  68  95 136 175 222 273 326 394
#     4  10  20  42  65  90 134 171 213 266 332 387
#     4  10  24  38  62 100 122 166 216 268 320 394
#     4  11  21  42  65  91 135 168 213 271 327 389
#     4  10  22  39  66  94 124 169 212 272 328 381
#     4  11  23  45  65  99 130 182 218 272 330 390
#
# _framework density 18.715747
#
# number of rings (size 3 to 8) (size 9 to 14) (size 15 to 20)
#    0.000    1.455    5.455    1.091    0.000    5.091 
#    3.273    1.818    0.000    0.000    0.000    0.000 
#    0.000    0.000    0.000    0.000    0.000    0.000 
#
# Total GULP energy -61341.002899 kJ/mol
# GULP energy per Si atom -5576.454809 kJ/mol
# Density = 1.867315 g / cm^3
# Si number density = 18.715747 Si / 1000 Ang^3
#
#
#
# Elastic Constant Matrix: (Units=GPa)
#
#
# Indices 1 2 3 4 5 6 
#
# 1 115.8839 37.3138 19.0441 0.0000 -2.4003 0.0000
# 2 37.3138 76.5804 -0.0584 0.0000 -12.2854 0.0000
# 3 19.0441 -0.0584 95.5402 0.0000 -5.8484 0.0000
# 4 0.0000 0.0000 0.0000 33.8692 0.0000 7.0863
# 5 -2.4003 -12.2854 -5.8484 0.0000 24.2623 0.0000
# 6 0.0000 0.0000 0.0000 7.0863 0.0000 35.0345
#
#
#
# Elastic Compliance Matrix: (Units=1/GPa)
#
#
# Indices 1 2 3 4 5 6 
#
# 1 0.010768 -0.005623 -0.002293 0.000000 -0.002335 0.000000
# 2 -0.005623 0.017169 0.001654 0.000000 0.008536 0.000000
# 3 -0.002293 0.001654 0.011126 0.000000 0.003293 0.000000
# 4 0.000000 0.000000 0.000000 0.030830 0.000000 -0.006236
# 5 -0.002335 0.008536 0.003293 0.000000 0.046101 0.000000
# 6 0.000000 0.000000 0.000000 -0.006236 0.000000 0.029805
#
#
# Mechanical properties :
#
#
# Convention : Reuss Voigt Hill
#
# Bulk Modulus (GPa) = 37.68011 44.51150 41.09581
# Shear Modulus (GPa) = 29.90972 34.08022 31.99497
#
# Velocity S-wave (km/s) = 4.00197 4.27187 4.13912
# Velocity P-wave (km/s) = 6.44444 6.94020 6.69691
#
# Compressibility (1/GPa) = 0.02653920
#
# Stress axis : x y z
#
# Youngs Moduli (GPa) = 92.86433 58.24563 89.87633
#
# Poissons Ratio (x) = 0.32753 0.20607
# Poissons Ratio (y) = 0.52219 -0.14864
# Poissons Ratio (z) = 0.21292 -0.09633
#
# Static dielectric constant tensor:
#      x y z
#    x 1.638160 0.000000 -0.008680 
#    y 0.000000 1.683130 0.000000 
#    z -0.008680 0.000000 1.636590 
# 
# From -- ./inp_files/35165.got.cif
#   From: 2010.05.17/outbox.cif.g08.bks.cpg/sg5_18_cif.got.tgz:35165.got - 2010.06.03 18:56:24.
