data_PCOD9124762
_publ_section_title
;
Structure prediction by ZEFSAII (Michael W. Deem and Ramdas Pophale) SiO2 
 PCOD9124762
Probable space group: C 2
;
_chemical_formula_sum "Si O2"
_cell_formula_units_Z 28
_cell_length_a 16.491624
_cell_length_b 16.416044
_cell_length_c 5.163802
_cell_angle_alpha 90.000000
_cell_angle_beta 64.756061
_cell_angle_gamma 90.000000
_cell_volume 1264.474896
_symmetry_space_group_name_H-M "C 2"
_symmetry_group_IT_number 5
_symmetry_cell_setting 'monoclinic'
loop_
_space_group_symop_operation_xyz
x,y,z
-x,y,-z
1/2+x,1/2+y,z
1/2-x,1/2+y,-z
loop_
_atom_site_type_symbol
_atom_site_label
_atom_site_fract_x
_atom_site_fract_y
_atom_site_fract_z
Si Si1 0.090499 0.839150 0.458760
Si Si2 0.249766 0.512824 0.235192
Si Si3 0.397887 0.757844 0.062250
Si Si4 0.232550 0.152464 0.451024
Si Si5 0.402600 0.585988 0.750391
Si Si6 0.409201 0.231070 0.035547
Si Si7 0.783160 0.416676 0.195956
O O1 0.092827 0.804645 0.747707
O O2 0.000000 0.886475 0.500000
O O3 0.182396 0.884930 0.285524
O O4 0.086500 0.765654 0.257960
O O5 0.228771 0.604166 0.356038
O O6 0.221037 0.452924 0.507731
O O7 0.356873 0.524495 0.019760
O O8 0.200268 0.484205 0.044900
O O9 0.332860 0.725219 0.378202
O O10 0.349958 0.841570 0.050202
O O11 0.500000 0.774036 0.000000
O O12 0.402712 0.678089 0.869529
O O13 0.169362 0.090598 0.382447
O O14 0.317063 0.184024 0.183703
O O15 0.500000 0.569912 0.500000
O O16 0.500000 0.185410 0.000000
#
# Coordination Sequence:
#
# PCOD9124762 Si02
#       7
#     4   4   4   4   4   4   4
#     4  10  21  38  60  96 124 160 208 265 328 387
#     4  11  27  43  64  94 139 187 221 267 353 416
#     4  11  24  40  75 108 134 182 237 298 350 406
#     4  11  22  45  69  97 136 177 227 289 343 411
#     4  11  23  44  72 105 141 178 240 288 353 420
#     4  10  21  38  67  96 122 160 220 274 325 385
#     4  12  24  45  65  97 142 178 220 282 346 416
#
# _framework density 22.143577000000001
#
# number of rings (size 3 to 8) (size 9 to 14) (size 15 to 20)
#    0.000    1.143    4.286    1.714    4.000    0.571 
#    2.571    0.714    3.143    0.000    0.000    0.000 
#    0.000    0.000    0.000    0.000    0.000    0.000 
#
# Total GULP energy -78132.585127 kJ/mol
# GULP energy per Si atom -5580.898938 kJ/mol
# Density = 2.209318 g / cm^3
# Si number density = 22.143577 Si / 1000 Ang^3
#
#
#
# Elastic Constant Matrix: (Units=GPa)
#
#
# Indices 1 2 3 4 5 6 
#
# 1 68.4443 37.1966 31.7193 0.0000 -6.7033 0.0000
# 2 37.1966 80.2298 39.3921 0.0000 -7.1584 0.0000
# 3 31.7193 39.3921 121.8616 0.0000 -2.5632 0.0000
# 4 0.0000 0.0000 0.0000 23.5955 0.0000 13.6531
# 5 -6.7033 -7.1584 -2.5632 0.0000 37.4501 0.0000
# 6 0.0000 0.0000 0.0000 13.6531 0.0000 8.0155
#
#
#
# Elastic Compliance Matrix: (Units=1/GPa)
#
#
# Indices 1 2 3 4 5 6 
#
# 1 0.020367 -0.007948 -0.002691 0.000000 0.001942 0.000000
# 2 -0.007948 0.018156 -0.003763 0.000000 0.001790 0.000000
# 3 -0.002691 -0.003763 0.010112 0.000000 -0.000509 0.000000
# 4 0.000000 0.000000 0.000000 2.945124 0.000000 -5.016548
# 5 0.001942 0.001790 -0.000509 0.000000 0.027357 0.000000
# 6 0.000000 0.000000 0.000000 -5.016548 0.000000 8.669647
#
#
# Mechanical properties :
#
#
# Convention : Reuss Voigt Hill
#
# Bulk Modulus (GPa) = 50.42432 54.12794 52.27613
# Shear Modulus (GPa) = 0.42640 24.62740 12.52690
#
# Velocity S-wave (km/s) = 0.43929 3.33854 2.38105
# Velocity P-wave (km/s) = 4.80398 6.27362 5.58733
#
# Compressibility (1/GPa) = 0.01983170
#
# Stress axis : x y z
#
# Youngs Moduli (GPa) = 49.09820 55.07731 98.89135
#
# Poissons Ratio (x) = 0.43776 0.26615
# Poissons Ratio (y) = 0.39024 0.37209
# Poissons Ratio (z) = 0.13214 0.20723
#
# Static dielectric constant tensor:
#      x y z
#    x 1.826790 0.000000 0.020550 
#    y 0.000000 1.834090 0.000000 
#    z 0.020550 0.000000 1.871550 
# 
# From -- ./inp_files/8623.got.cif
#   From: 2010.05.17/outbox.cif.g08.bks.cpg/sg5_5_cif.got.tgz:8623.got - 2010.06.03 18:56:24.
