data_PCOD9124373
_publ_section_title
;
Structure prediction by ZEFSAII (Michael W. Deem and Ramdas Pophale) SiO2 
 PCOD9124373
Probable space group: C 2
;
_chemical_formula_sum "Si O2"
_cell_formula_units_Z 22
_cell_length_a 19.543223
_cell_length_b 10.438864
_cell_length_c 8.826171
_cell_angle_alpha 90.000000
_cell_angle_beta 33.807918
_cell_angle_gamma 90.000000
_cell_volume 1001.883077
_symmetry_space_group_name_H-M "C 2"
_symmetry_group_IT_number 5
_symmetry_cell_setting 'monoclinic'
loop_
_space_group_symop_operation_xyz
x,y,z
-x,y,-z
1/2+x,1/2+y,z
1/2-x,1/2+y,-z
loop_
_atom_site_type_symbol
_atom_site_label
_atom_site_fract_x
_atom_site_fract_y
_atom_site_fract_z
Si Si1 0.500000 0.119630 0.500000
Si Si2 0.588804 0.477157 0.546180
Si Si3 0.450377 0.021986 0.264338
Si Si4 0.863103 0.768387 0.316042
Si Si5 0.342000 0.761538 0.550992
Si Si6 0.659998 0.353161 0.125280
O O1 0.510660 0.045949 0.319995
O O2 0.613261 0.219589 0.281795
O O3 0.657091 0.399079 0.553569
O O4 0.584577 0.629254 0.573467
O O5 0.666512 0.451519 0.251078
O O6 0.454017 0.410878 0.766632
O O7 0.356710 0.143057 0.433922
O O8 0.412389 0.875908 0.342380
O O9 0.500000 0.034776 0.000000
O O10 0.776544 0.738965 0.335320
O O11 0.000000 0.786462 0.000000
O O12 0.284283 0.822828 0.809126
#
# Coordination Sequence:
#
# PCOD9124373 Si02
#       6
#     2   4   4   4   4   4
#     4  10  20  44  74  88 134 186 224 290 342 412
#     4  10  22  41  68  94 133 179 226 281 345 416
#     4  11  24  44  67 102 138 180 236 288 348 418
#     4  11  20  43  67  89 134 183 226 278 347 416
#     4  12  25  39  68 104 134 179 232 289 352 413
#     4  10  21  44  67  93 135 179 228 286 345 417
#
# _framework density 21.958648
#
# number of rings (size 3 to 8) (size 9 to 14) (size 15 to 20)
#    0.000    1.455    5.455    2.182    2.545    2.182 
#    3.273    0.000    0.000    0.000    0.000    0.000 
#    0.000    0.000    0.000    0.000    0.000    0.000 
#
# Total GULP energy -61248.014257 kJ/mol
# GULP energy per Si atom -5568.001296 kJ/mol
# Density = 2.190867 g / cm^3
# Si number density = 21.958648 Si / 1000 Ang^3
#
#
#
# Elastic Constant Matrix: (Units=GPa)
#
#
# Indices 1 2 3 4 5 6 
#
# 1 53.2129 11.5889 18.8138 0.0000 18.7338 0.0000
# 2 11.5889 132.7604 37.6764 0.0000 7.5120 0.0000
# 3 18.8138 37.6764 59.1722 0.0000 25.8858 0.0000
# 4 0.0000 0.0000 0.0000 32.6780 0.0000 32.9398
# 5 18.7338 7.5120 25.8858 0.0000 23.2688 0.0000
# 6 0.0000 0.0000 0.0000 32.9398 0.0000 96.7096
#
#
#
# Elastic Compliance Matrix: (Units=1/GPa)
#
#
# Indices 1 2 3 4 5 6 
#
# 1 0.026707 -0.001962 0.003676 0.000000 -0.024958 0.000000
# 2 -0.001962 0.009945 -0.009730 0.000000 0.009194 0.000000
# 3 0.003676 -0.009730 0.042559 0.000000 -0.047164 0.000000
# 4 0.000000 0.000000 0.000000 0.046601 0.000000 -0.015873
# 5 -0.024958 0.009194 -0.047164 0.000000 0.112571 0.000000
# 6 0.000000 0.000000 0.000000 -0.015873 0.000000 0.015747
#
#
# Mechanical properties :
#
#
# Convention : Reuss Voigt Hill
#
# Bulk Modulus (GPa) = 15.82826 42.36708 29.09767
# Shear Modulus (GPa) = 17.16910 42.33572 29.75241
#
# Velocity S-wave (km/s) = 2.79925 4.39563 3.68493
# Velocity P-wave (km/s) = 4.20376 6.71551 5.60222
#
# Compressibility (1/GPa) = 0.06317812
#
# Stress axis : x y z
#
# Youngs Moduli (GPa) = 37.44402 100.55517 23.49671
#
# Poissons Ratio (x) = 0.19733 -0.08638
# Poissons Ratio (y) = 0.07348 0.22863
# Poissons Ratio (z) = -0.13766 0.97842
#
# Static dielectric constant tensor:
#      x y z
#    x 1.849960 0.000000 0.038670 
#    y 0.000000 1.794100 0.000000 
#    z 0.038670 0.000000 1.858170 
# 
# From -- ./inp_files/22733.got.cif
#   From: 2010.05.17/outbox.cif.g08.bks.cpg/sg5_12_cif.got.tgz:22733.got - 2010.06.03 18:56:24.
