data_PCOD9124557
_publ_section_title
;
Structure prediction by ZEFSAII (Michael W. Deem and Ramdas Pophale) SiO2 
 PCOD9124557
Probable space group: C 2
;
_chemical_formula_sum "Si O2"
_cell_formula_units_Z 28
_cell_length_a 8.354370
_cell_length_b 10.137218
_cell_length_c 16.095179
_cell_angle_alpha 90.000000
_cell_angle_beta 60.674629
_cell_angle_gamma 90.000000
_cell_volume 1188.423722
_symmetry_space_group_name_H-M "C 2"
_symmetry_group_IT_number 5
_symmetry_cell_setting 'monoclinic'
loop_
_space_group_symop_operation_xyz
x,y,z
-x,y,-z
1/2+x,1/2+y,z
1/2-x,1/2+y,-z
loop_
_atom_site_type_symbol
_atom_site_label
_atom_site_fract_x
_atom_site_fract_y
_atom_site_fract_z
Si Si1 0.189570 0.044850 0.502682
Si Si2 0.804175 0.483687 0.161954
Si Si3 0.703759 0.793511 0.611811
Si Si4 0.114936 0.334486 0.182682
Si Si5 0.017389 0.839468 0.659318
Si Si6 0.910366 0.747457 0.195363
Si Si7 0.694168 0.781914 0.976431
O O1 0.226378 0.189190 0.530851
O O2 0.000000 0.056523 0.500000
O O3 0.313987 0.945898 0.415504
O O4 0.152739 0.948969 0.590375
O O5 0.626972 0.413909 0.244733
O O6 0.792183 0.636891 0.179247
O O7 0.816616 0.425922 0.066205
O O8 0.976959 0.441746 0.175222
O O9 0.531974 0.767138 0.716137
O O10 0.890135 0.784625 0.618464
O O11 0.294382 0.373927 0.191750
O O12 0.194693 0.281197 0.074606
O O13 0.105096 0.737401 0.701504
O O14 0.116036 0.729998 0.109618
O O15 0.500000 0.715625 0.000000
#
# Coordination Sequence:
#
# PCOD9124557 Si02
#       7
#     4   4   4   4   4   4   4
#     4  10  22  42  65  93 127 169 215 272 334 389
#     4   9  20  39  60  87 127 166 204 258 319 375
#     4  10  22  42  67  94 130 171 216 273 332 388
#     4  10  21  36  60  92 120 159 215 260 309 377
#     4   9  21  40  62  91 128 163 208 264 321 387
#     4  11  21  38  65  92 124 169 209 255 318 381
#     4   9  20  39  58  87 128 163 205 256 308 373
#
# _framework density 23.56062
#
# number of rings (size 3 to 8) (size 9 to 14) (size 15 to 20)
#    0.000    2.286    0.000    2.143    0.000    9.143 
#    0.000   16.429    0.000    0.000    0.000    0.000 
#    0.000    0.000    0.000    0.000    0.000    0.000 
#
# Total GULP energy -77963.308860 kJ/mol
# GULP energy per Si atom -5568.807776 kJ/mol
# Density = 2.350700 g / cm^3
# Si number density = 23.560620 Si / 1000 Ang^3
#
#
#
# Elastic Constant Matrix: (Units=GPa)
#
#
# Indices 1 2 3 4 5 6 
#
# 1 70.5563 6.1252 25.2341 0.0000 12.1298 0.0000
# 2 6.1252 67.7905 27.0802 0.0000 15.1548 0.0000
# 3 25.2341 27.0802 115.0635 0.0000 23.4052 0.0000
# 4 0.0000 0.0000 0.0000 24.1436 0.0000 8.6080
# 5 12.1298 15.1548 23.4052 0.0000 42.5064 0.0000
# 6 0.0000 0.0000 0.0000 8.6080 0.0000 20.7042
#
#
#
# Elastic Compliance Matrix: (Units=1/GPa)
#
#
# Indices 1 2 3 4 5 6 
#
# 1 0.015703 0.000427 -0.002930 0.000000 -0.003020 0.000000
# 2 0.000427 0.016975 -0.003190 0.000000 -0.004417 0.000000
# 3 -0.002930 -0.003190 0.010904 0.000000 -0.004031 0.000000
# 4 0.000000 0.000000 0.000000 0.048627 0.000000 -0.020217
# 5 -0.003020 -0.004417 -0.004031 0.000000 0.028182 0.000000
# 6 0.000000 0.000000 0.000000 -0.020217 0.000000 0.056705
#
#
# Mechanical properties :
#
#
# Convention : Reuss Voigt Hill
#
# Bulk Modulus (GPa) = 31.06055 41.14322 36.10189
# Shear Modulus (GPa) = 25.09870 30.46890 27.78380
#
# Velocity S-wave (km/s) = 3.26741 3.60003 3.43774
# Velocity P-wave (km/s) = 5.23894 5.89753 5.57796
#
# Compressibility (1/GPa) = 0.03219518
#
# Stress axis : x y z
#
# Youngs Moduli (GPa) = 63.68179 58.91166 91.70900
#
# Poissons Ratio (x) = -0.02514 0.26870
# Poissons Ratio (y) = -0.02717 0.29255
# Poissons Ratio (z) = 0.18658 0.18793
#
# Static dielectric constant tensor:
#      x y z
#    x 1.962280 0.000000 0.007140 
#    y 0.000000 2.029680 0.000000 
#    z 0.007140 0.000000 1.902620 
# 
# From -- ./inp_files/50250.got.cif
#   From: 2010.05.17/outbox.cif.g08.bks.cpg/sg5_26_cif.got.tgz:50250.got - 2010.06.03 18:56:24.
