data_PCOD9124718
_publ_section_title
;
Structure prediction by ZEFSAII (Michael W. Deem and Ramdas Pophale) SiO2 
 PCOD9124718
Probable space group: C 2
;
_chemical_formula_sum "Si O2"
_cell_formula_units_Z 26
_cell_length_a 12.674048
_cell_length_b 8.326634
_cell_length_c 14.625878
_cell_angle_alpha 90.000000
_cell_angle_beta 128.710145
_cell_angle_gamma 90.000000
_cell_volume 1204.423814
_symmetry_space_group_name_H-M "C 2"
_symmetry_group_IT_number 5
_symmetry_cell_setting 'monoclinic'
loop_
_space_group_symop_operation_xyz
x,y,z
-x,y,-z
1/2+x,1/2+y,z
1/2-x,1/2+y,-z
loop_
_atom_site_type_symbol
_atom_site_label
_atom_site_fract_x
_atom_site_fract_y
_atom_site_fract_z
Si Si1 0.000000 0.858760 0.500000
Si Si2 0.208464 0.943288 0.763323
Si Si3 0.594986 0.758962 0.466080
Si Si4 0.129675 0.615862 0.809244
Si Si5 0.505129 0.943705 0.894261
Si Si6 0.643791 0.110760 0.458081
Si Si7 0.128130 0.264822 0.809038
O O1 0.077974 0.942338 0.626174
O O2 0.115776 0.745730 0.518641
O O3 0.202864 0.778488 0.819452
O O4 0.347214 0.945948 0.781943
O O5 0.203969 0.102476 0.823936
O O6 0.500000 0.729002 0.500000
O O7 0.720905 0.642572 0.524239
O O8 0.506427 0.758063 0.326329
O O9 0.652025 0.938208 0.508828
O O10 0.195240 0.439963 0.822501
O O11 0.083235 0.593066 0.889331
O O12 0.989300 0.616783 0.676693
O O13 0.578464 0.791722 0.886071
O O14 0.500000 0.942553 0.000000
#
# Coordination Sequence:
#
# PCOD9124718 Si02
#       7
#     2   4   4   4   4   4   4
#     4  10  22  38  64  96 128 172 202 260 316 380
#     4  11  22  42  66  89 133 166 202 261 320 370
#     4  11  23  35  58  89 126 172 205 251 315 382
#     4   8  22  43  55  93 125 152 215 262 300 376
#     4  10  23  45  66  91 126 163 216 271 307 368
#     4  10  21  38  55  87 132 159 213 256 304 381
#     4   9  23  41  58  96 121 160 218 250 312 381
#
# _framework density 21.587087
#
# number of rings (size 3 to 8) (size 9 to 14) (size 15 to 20)
#    0.923    1.231    0.769    0.923    7.538    1.231 
#    2.769    0.769    0.000    0.000    0.000    0.000 
#    0.000    0.000    0.000    0.000    0.000    0.000 
#
# Total GULP energy -72490.139398 kJ/mol
# GULP energy per Si atom -5576.164569 kJ/mol
# Density = 2.153795 g / cm^3
# Si number density = 21.587087 Si / 1000 Ang^3
#
#
#
# Elastic Constant Matrix: (Units=GPa)
#
#
# Indices 1 2 3 4 5 6 
#
# 1 110.6933 54.9379 3.5132 0.0000 -11.7036 0.0000
# 2 54.9379 153.9386 19.4852 0.0000 -12.6596 0.0000
# 3 3.5132 19.4852 61.9067 0.0000 -20.4156 0.0000
# 4 0.0000 0.0000 0.0000 -838.0840 0.0000-1625.9829
# 5 -11.7036 -12.6596 -20.4156 0.0000 36.8257 0.0000
# 6 0.0000 0.0000 0.0000-1625.9829 0.0000-3040.1836
#
#
#
# Elastic Compliance Matrix: (Units=1/GPa)
#
#
# Indices 1 2 3 4 5 6 
#
# 1 0.011288 -0.003979 0.001644 0.000000 0.003131 0.000000
# 2 -0.003979 0.008228 -0.002262 0.000000 0.000310 0.000000
# 3 0.001644 -0.002262 0.020421 0.000000 0.011066 0.000000
# 4 0.000000 0.000000 0.000000 0.031705 0.000000 -0.016957
# 5 0.003131 0.000310 0.011066 0.000000 0.034392 0.000000
# 6 0.000000 0.000000 0.000000 -0.016957 0.000000 0.008740
#
#
# Mechanical properties :
#
#
# Convention : Reuss Voigt Hill
#
# Bulk Modulus (GPa) = 32.52626 53.60123 43.06375
# Shear Modulus (GPa) = 37.25402 -751.71488 -357.23043
#
# Velocity S-wave (km/s) = 4.15873 -18.68101 -12.87799
# Velocity P-wave (km/s) = 6.17739 20.98626 14.18208
#
# Compressibility (1/GPa) = 0.03074439
#
# Stress axis : x y z
#
# Youngs Moduli (GPa) = 88.59250 121.53761 48.96831
#
# Poissons Ratio (x) = 0.48360 -0.08052
# Poissons Ratio (y) = 0.35251 0.11075
# Poissons Ratio (z) = -0.14568 0.27488
#
# Static dielectric constant tensor:
#      x y z
#    x 1.817950 0.000000 -0.052320 
#    y 0.000000 1.849400 0.000000 
#    z -0.052320 0.000000 1.855740 
# 
# From -- ./inp_files/52346.got.cif
#   From: 2010.05.17/outbox.cif.g08.bks.cpg/sg5_27_cif.got.tgz:52346.got - 2010.06.03 18:56:24.
