data_PCOD9124293
_publ_section_title
;
Structure prediction by ZEFSAII (Michael W. Deem and Ramdas Pophale) SiO2 
 PCOD9124293
Probable space group: C 2
;
_chemical_formula_sum "Si O2"
_cell_formula_units_Z 30
_cell_length_a 13.461831
_cell_length_b 20.589753
_cell_length_c 8.619479
_cell_angle_alpha 90.000000
_cell_angle_beta 31.644645
_cell_angle_gamma 90.000000
_cell_volume 1253.445568
_symmetry_space_group_name_H-M "C 2"
_symmetry_group_IT_number 5
_symmetry_cell_setting 'monoclinic'
loop_
_space_group_symop_operation_xyz
x,y,z
-x,y,-z
1/2+x,1/2+y,z
1/2-x,1/2+y,-z
loop_
_atom_site_type_symbol
_atom_site_label
_atom_site_fract_x
_atom_site_fract_y
_atom_site_fract_z
Si Si1 0.860093 0.963390 0.485608
Si Si2 0.259385 0.992764 0.017698
Si Si3 0.500000 0.090687 0.500000
Si Si4 0.693611 0.658956 0.327850
Si Si5 0.973023 0.811307 0.358791
Si Si6 0.114204 0.668385 0.618705
Si Si7 0.053534 0.402807 0.748088
Si Si8 0.720944 0.304088 0.763760
O O1 0.691341 0.965397 0.588758
O O2 0.886115 0.884430 0.473431
O O3 0.798750 0.000980 0.723531
O O4 0.069393 0.985979 0.170891
O O5 0.385718 0.045790 0.769602
O O6 0.377567 0.927212 0.883014
O O7 0.635258 0.135212 0.424954
O O8 0.500000 0.635782 0.500000
O O9 0.750784 0.638349 0.427491
O O10 0.674032 0.736118 0.379215
O O11 0.894050 0.656505 0.966613
O O12 0.000000 0.794090 0.500000
O O13 0.867403 0.746938 0.429226
O O14 0.174281 0.817451 0.004827
O O15 0.165747 0.352744 0.493881
O O16 0.000000 0.384973 0.000000
O O17 0.500000 0.304900 0.000000
#
# Coordination Sequence:
#
# PCOD9124293 Si02
#       8
#     4   4   2   4   4   4   4   4
#     4  10  20  43  66  96 137 179 230 294 359 422
#     4  10  24  40  62  97 134 182 234 285 355 408
#     4  12  26  46  70 104 136 192 244 302 352 426
#     4  10  21  45  70 104 134 182 236 290 370 427
#     4  11  19  36  73  99 138 193 220 284 374 418
#     4  10  22  45  70  98 146 180 235 299 357 420
#     4  10  22  40  62  99 144 189 241 283 351 432
#     4  11  20  37  67 104 148 185 222 291 364 429
#
# _framework density 23.934027
#
# number of rings (size 3 to 8) (size 9 to 14) (size 15 to 20)
#    0.000    1.600    6.000    0.000    1.867    2.133 
#    9.600    2.000    0.000    0.000    0.000    0.000 
#    0.000    0.000    0.000    0.000    0.000    0.000 
#
# Total GULP energy -83620.622261 kJ/mol
# GULP energy per Si atom -5574.708151 kJ/mol
# Density = 2.387955 g / cm^3
# Si number density = 23.934027 Si / 1000 Ang^3
#
#
#
# Elastic Constant Matrix: (Units=GPa)
#
#
# Indices 1 2 3 4 5 6 
#
# 1 114.1396 25.5790 38.0383 -0.0001 1.9908 0.0001
# 2 25.5790 77.6370 44.8864 0.0001 17.5164 0.0000
# 3 38.0383 44.8864 78.0720 -0.0007 5.9174 0.0009
# 4 -0.0001 0.0001 -0.0007 -5.2684 0.0000 29.3179
# 5 1.9908 17.5164 5.9174 0.0000 43.3262 -0.0001
# 6 0.0001 0.0000 0.0009 29.3179 -0.0001 23.4311
#
#
#
# Elastic Compliance Matrix: (Units=1/GPa)
#
#
# Indices 1 2 3 4 5 6 
#
# 1 0.010499 -0.000891 -0.004642 0.000000 0.000512 0.000000
# 2 -0.000891 0.021269 -0.011262 0.000001 -0.007020 0.000000
# 3 -0.004642 -0.011262 0.021406 -0.000001 0.001843 0.000000
# 4 0.000000 0.000001 -0.000001 -0.023837 0.000000 0.029825
# 5 0.000512 -0.007020 0.001843 0.000000 0.025644 0.000000
# 6 0.000000 0.000000 0.000000 0.029825 0.000000 0.005360
#
#
# Mechanical properties :
#
#
# Convention : Reuss Voigt Hill
#
# Bulk Modulus (GPa) = 51.06276 54.09513 52.57895
# Shear Modulus (GPa) = 49.77197 23.05411 36.41304
#
# Velocity S-wave (km/s) = 4.56515 3.10697 3.90473
# Velocity P-wave (km/s) = 7.01203 5.96002 6.50732
#
# Compressibility (1/GPa) = 0.01958374
#
# Stress axis : x y z
#
# Youngs Moduli (GPa) = 95.24832 47.01646 46.71634
#
# Poissons Ratio (x) = 0.04188 0.21685
# Poissons Ratio (y) = 0.08484 0.52614
# Poissons Ratio (z) = 0.44214 0.52952
#
# Static dielectric constant tensor:
#      x y z
#    x 2.055960 0.000000 -0.016410 
#    y 0.000000 1.928530 0.000000 
#    z -0.016410 0.000000 1.967050 
# 
# From -- ./inp_files/25553.got.cif
#   From: 2010.05.17/outbox.cif.g08.bks.cpg/sg5_13_cif.got.tgz:25553.got - 2010.06.03 18:56:24.
