data_PCOD9124029
_publ_section_title
;
Structure prediction by ZEFSAII (Michael W. Deem and Ramdas Pophale) SiO2 
 PCOD9124029
Probable space group: C 2
;
_chemical_formula_sum "Si O2"
_cell_formula_units_Z 28
_cell_length_a 11.615033
_cell_length_b 15.959201
_cell_length_c 8.587817
_cell_angle_alpha 90.000000
_cell_angle_beta 120.061278
_cell_angle_gamma 90.000000
_cell_volume 1377.769312
_symmetry_space_group_name_H-M "C 2"
_symmetry_group_IT_number 5
_symmetry_cell_setting 'monoclinic'
loop_
_space_group_symop_operation_xyz
x,y,z
-x,y,-z
1/2+x,1/2+y,z
1/2-x,1/2+y,-z
loop_
_atom_site_type_symbol
_atom_site_label
_atom_site_fract_x
_atom_site_fract_y
_atom_site_fract_z
Si Si1 0.500000 0.175280 0.500000
Si Si2 0.500000 0.534887 0.000000
Si Si3 0.888837 0.751547 0.736310
Si Si4 0.782275 0.556652 0.196679
Si Si5 0.791094 0.938884 0.388927
Si Si6 0.852745 0.577027 0.886052
Si Si7 0.951936 0.900200 0.221592
Si Si8 0.847628 0.381670 0.415882
O O1 0.417799 0.226697 0.574738
O O2 0.393525 0.116185 0.344486
O O3 0.632009 0.581139 0.146806
O O4 0.439691 0.473602 0.089687
O O5 0.877711 0.668361 0.829956
O O6 0.757983 0.807195 0.678372
O O7 0.012722 0.814757 0.841194
O O8 0.811537 0.462480 0.282889
O O9 0.796381 0.571865 0.021660
O O10 0.830133 0.890826 0.257268
O O11 0.673534 0.908105 0.418696
O O12 0.920304 0.928938 0.587414
O O13 0.747305 0.029435 0.297767
O O14 0.000000 0.536242 0.000000
O O15 0.000000 0.357389 0.500000
#
# Coordination Sequence:
#
# PCOD9124029 Si02
#       8
#     2   2   4   4   4   4   4   4
#     4  12  24  46  70  94 136 184 224 278 336 414
#     4  12  22  40  68  98 132 170 226 282 322 390
#     4  11  24  41  66 100 133 174 223 279 340 398
#     4  12  24  43  70  96 133 180 229 271 334 407
#     4  10  20  41  66  94 125 169 230 265 321 403
#     4  12  24  40  63 100 131 169 221 280 329 398
#     4  10  22  40  70  96 125 173 225 271 330 401
#     4  11  22  44  68  95 133 182 228 274 334 405
#
# _framework density 20.322704000000002
#
# number of rings (size 3 to 8) (size 9 to 14) (size 15 to 20)
#    0.000    0.857    6.429    3.429    1.000    0.000 
#    5.143    0.000    0.000    0.000    0.000    0.000 
#    0.000    0.000    0.000    0.000    0.000    0.000 
#
# Total GULP energy -78086.167742 kJ/mol
# GULP energy per Si atom -5577.583410 kJ/mol
# Density = 2.027645 g / cm^3
# Si number density = 20.322704 Si / 1000 Ang^3
#
#
#
# Elastic Constant Matrix: (Units=GPa)
#
#
# Indices 1 2 3 4 5 6 
#
# 1 138.4741 40.2040 27.6889 0.0000 -22.3300 0.0000
# 2 40.2040 84.4137 30.9503 0.0000 -7.4009 0.0000
# 3 27.6889 30.9503 58.9188 0.0000 -17.3227 0.0000
# 4 0.0000 0.0000 0.0000 7.9345 0.0000 -3.7111
# 5 -22.3300 -7.4009 -17.3227 0.0000 39.5746 0.0000
# 6 0.0000 0.0000 0.0000 -3.7111 0.0000 35.6687
#
#
#
# Elastic Compliance Matrix: (Units=1/GPa)
#
#
# Indices 1 2 3 4 5 6 
#
# 1 0.009139 -0.003539 -0.001279 0.000000 0.003935 0.000000
# 2 -0.003539 0.016061 -0.007434 0.000000 -0.002247 0.000000
# 3 -0.001279 -0.007434 0.023939 0.000000 0.008366 0.000000
# 4 0.000000 0.000000 0.000000 0.132479 0.000000 0.013783
# 5 0.003935 -0.002247 0.008366 0.000000 0.030731 0.000000
# 6 0.000000 0.000000 0.000000 0.013783 0.000000 0.029470
#
#
# Mechanical properties :
#
#
# Convention : Reuss Voigt Hill
#
# Bulk Modulus (GPa) = 40.59414 53.27697 46.93555
# Shear Modulus (GPa) = 18.21264 28.83313 23.52288
#
# Velocity S-wave (km/s) = 2.99686 3.77073 3.40585
# Velocity P-wave (km/s) = 5.65624 6.72535 6.21383
#
# Compressibility (1/GPa) = 0.02463410
#
# Stress axis : x y z
#
# Youngs Moduli (GPa) = 109.41683 62.26394 41.77324
#
# Poissons Ratio (x) = 0.22034 0.05343
# Poissons Ratio (y) = 0.38721 0.31056
# Poissons Ratio (z) = 0.13995 0.46290
#
# Static dielectric constant tensor:
#      x y z
#    x 1.761880 0.000000 -0.007590 
#    y 0.000000 1.732580 0.000000 
#    z -0.007590 0.000000 1.780880 
# 
# From -- ./inp_files/20736.got.cif
#   From: 2010.05.17/outbox.cif.g08.bks.cpg/sg5_11_cif.got.tgz:20736.got - 2010.06.03 18:56:24.
