data_PCOD9124537
_publ_section_title
;
Structure prediction by ZEFSAII (Michael W. Deem and Ramdas Pophale) SiO2 
 PCOD9124537
Probable space group: C 2
;
_chemical_formula_sum "Si O2"
_cell_formula_units_Z 20
_cell_length_a 9.433106
_cell_length_b 10.903665
_cell_length_c 8.433746
_cell_angle_alpha 90.000000
_cell_angle_beta 87.797411
_cell_angle_gamma 90.000000
_cell_volume 866.815659
_symmetry_space_group_name_H-M "C 2"
_symmetry_group_IT_number 5
_symmetry_cell_setting 'monoclinic'
loop_
_space_group_symop_operation_xyz
x,y,z
-x,y,-z
1/2+x,1/2+y,z
1/2-x,1/2+y,-z
loop_
_atom_site_type_symbol
_atom_site_label
_atom_site_fract_x
_atom_site_fract_y
_atom_site_fract_z
Si Si1 0.565463 0.189380 0.145985
Si Si2 0.347545 0.664057 0.980654
Si Si3 0.111436 0.931814 0.793913
Si Si4 0.889581 0.104964 0.625424
Si Si5 0.640294 0.004483 0.416104
O O1 0.462773 0.304410 0.167286
O O2 0.583727 0.112273 0.303389
O O3 0.500000 0.113897 0.000000
O O4 0.722462 0.227640 0.082204
O O5 0.331880 0.658102 0.793411
O O6 0.500000 0.724256 0.000000
O O7 0.358397 0.527556 0.062732
O O8 0.259794 0.919104 0.695625
O O9 0.996997 0.999832 0.685971
O O10 0.751881 0.059768 0.536947
O O11 0.000000 0.172772 0.500000
O O12 0.500000 0.950224 0.500000
#
# Coordination Sequence:
#
# PCOD9124537 Si02
#       5
#     4   4   4   4   4
#     4  11  21  36  62  93 121 158 212 255 298 372
#     4   9  18  36  60  87 122 164 205 251 306 361
#     4   9  20  38  62  89 123 166 205 252 311 364
#     4   9  17  34  59  85 121 164 196 244 318 364
#     4  10  21  36  58  90 124 162 203 252 312 363
#
# _framework density 23.072953999999999
#
# number of rings (size 3 to 8) (size 9 to 14) (size 15 to 20)
#    0.000    2.400    0.000    4.200    0.000    2.400 
#    0.000    6.000    0.000   21.600    0.000    0.000 
#    0.000    0.000    0.000    0.000    0.000    0.000 
#
# Total GULP energy -55800.885615 kJ/mol
# GULP energy per Si atom -5580.088562 kJ/mol
# Density = 2.302044 g / cm^3
# Si number density = 23.072954 Si / 1000 Ang^3
#
#
#
# Elastic Constant Matrix: (Units=GPa)
#
#
# Indices 1 2 3 4 5 6 
#
# 1 184.8006 62.7196 60.8749 0.0000 -40.0447 0.0000
# 2 62.7196 88.9382 51.9273 0.0000 1.1291 0.0000
# 3 60.8749 51.9273 153.8648 0.0000 -1.6220 0.0000
# 4 0.0000 0.0000 0.0000 3.7123 0.0000 -0.1800
# 5 -40.0447 1.1291 -1.6220 0.0000 68.8388 0.0000
# 6 0.0000 0.0000 0.0000 -0.1800 0.0000 33.8251
#
#
#
# Elastic Compliance Matrix: (Units=1/GPa)
#
#
# Indices 1 2 3 4 5 6 
#
# 1 0.008922 -0.005392 -0.001655 0.000000 0.005239 0.000000
# 2 -0.005392 0.017270 -0.003732 0.000000 -0.003508 0.000000
# 3 -0.001655 -0.003732 0.008406 0.000000 -0.000703 0.000000
# 4 0.000000 0.000000 0.000000 0.269445 0.000000 0.001433
# 5 0.005239 -0.003508 -0.000703 0.000000 0.017615 0.000000
# 6 0.000000 0.000000 0.000000 0.001433 0.000000 0.029571
#
#
# Mechanical properties :
#
#
# Convention : Reuss Voigt Hill
#
# Bulk Modulus (GPa) = 76.68808 86.51635 81.60221
# Shear Modulus (GPa) = 13.25791 38.08070 25.66930
#
# Velocity S-wave (km/s) = 2.39970 4.06698 3.33908
# Velocity P-wave (km/s) = 6.40214 7.72218 7.09294
#
# Compressibility (1/GPa) = 0.01303984
#
# Stress axis : x y z
#
# Youngs Moduli (GPa) = 112.08725 57.90506 118.96258
#
# Poissons Ratio (x) = 0.31222 0.19686
# Poissons Ratio (y) = 0.60436 0.44397
# Poissons Ratio (z) = 0.18548 0.21610
#
# Static dielectric constant tensor:
#      x y z
#    x 1.882510 0.000000 -0.036560 
#    y 0.000000 1.885630 0.000000 
#    z -0.036560 0.000000 1.945470 
# 
# From -- ./inp_files/14292.got.cif
#   From: 2010.05.17/outbox.cif.g08.bks.cpg/sg5_8_cif.got.tgz:14292.got - 2010.06.03 18:56:24.
