data_PCOD9124604
_publ_section_title
;
Structure prediction by ZEFSAII (Michael W. Deem and Ramdas Pophale) SiO2 
 PCOD9124604
Probable space group: C 2
;
_chemical_formula_sum "Si O2"
_cell_formula_units_Z 30
_cell_length_a 5.218153
_cell_length_b 23.632409
_cell_length_c 11.813364
_cell_angle_alpha 90.000000
_cell_angle_beta 101.972698
_cell_angle_gamma 90.000000
_cell_volume 1425.104525
_symmetry_space_group_name_H-M "C 2"
_symmetry_group_IT_number 5
_symmetry_cell_setting 'monoclinic'
loop_
_space_group_symop_operation_xyz
x,y,z
-x,y,-z
1/2+x,1/2+y,z
1/2-x,1/2+y,-z
loop_
_atom_site_type_symbol
_atom_site_label
_atom_site_fract_x
_atom_site_fract_y
_atom_site_fract_z
Si Si1 0.523339 0.382700 0.746772
Si Si2 0.773711 0.732406 0.894365
Si Si3 0.500000 0.698755 0.500000
Si Si4 0.413310 0.857778 0.109459
Si Si5 0.454587 0.504673 0.362484
Si Si6 0.447480 0.267597 0.657909
Si Si7 0.454797 0.078160 0.361578
Si Si8 0.349489 0.679404 0.721258
O O1 0.323850 0.382412 0.836105
O O2 0.558827 0.444555 0.699993
O O3 0.416393 0.334827 0.650809
O O4 0.812119 0.358831 0.800216
O O5 0.674948 0.793695 0.927114
O O6 0.876020 0.748476 0.778981
O O7 0.541175 0.688543 0.844001
O O8 0.000000 0.712635 0.000000
O O9 0.750739 0.736744 0.555085
O O10 0.472816 0.661546 0.611303
O O11 0.500000 0.887253 0.000000
O O12 0.500000 0.494475 0.500000
O O13 0.700504 0.538455 0.335790
O O14 0.195823 0.543123 0.333645
O O15 0.736813 0.241225 0.678365
O O16 0.500000 0.091369 0.500000
O O17 0.385055 0.135131 0.287039
#
# Coordination Sequence:
#
# PCOD9124604 Si02
#       8
#     4   4   2   4   4   4   4   4
#     4  11  22  40  62  93 133 165 222 262 330 392
#     4  10  22  37  59  93 133 168 214 263 326 398
#     4  10  22  34  54  92 132 170 218 254 342 390
#     4  11  21  39  64  95 129 169 213 272 323 392
#     4  10  23  41  61  92 126 177 216 269 314 384
#     4  10  21  37  56  93 127 174 204 263 331 393
#     4  10  22  39  63  87 124 171 229 260 315 378
#     4  11  22  37  61  91 128 170 215 274 323 387
#
# _framework density 21.051086999999999
#
# number of rings (size 3 to 8) (size 9 to 14) (size 15 to 20)
#    0.000    1.600    1.333    4.000    6.533    1.067 
#    3.600    0.000    0.000    0.800    3.467    0.000 
#    0.000    0.000    0.000    0.000    0.000    0.000 
#
# Total GULP energy -83718.972780 kJ/mol
# GULP energy per Si atom -5581.264852 kJ/mol
# Density = 2.100317 g / cm^3
# Si number density = 21.051087 Si / 1000 Ang^3
#
#
#
# Elastic Constant Matrix: (Units=GPa)
#
#
# Indices 1 2 3 4 5 6 
#
# 1 128.7502 47.3074 44.4224 0.0000 18.3575 0.0000
# 2 47.3074 122.3016 38.6808 0.0000 14.6394 0.0000
# 3 44.4224 38.6808 83.7632 0.0000 20.8905 0.0000
# 4 0.0000 0.0000 0.0000 13.6972 0.0000 0.5522
# 5 18.3575 14.6394 20.8905 0.0000 40.1560 0.0000
# 6 0.0000 0.0000 0.0000 0.5522 0.0000 21.9728
#
#
#
# Elastic Compliance Matrix: (Units=1/GPa)
#
#
# Indices 1 2 3 4 5 6 
#
# 1 0.010279 -0.002552 -0.003830 0.000000 -0.001776 0.000000
# 2 -0.002552 0.010274 -0.003158 0.000000 -0.000936 0.000000
# 3 -0.003830 -0.003158 0.016896 0.000000 -0.005888 0.000000
# 4 0.000000 0.000000 0.000000 0.073082 0.000000 -0.001837
# 5 -0.001776 -0.000936 -0.005888 0.000000 0.029119 0.000000
# 6 0.000000 0.000000 0.000000 -0.001837 0.000000 0.045557
#
#
# Mechanical properties :
#
#
# Convention : Reuss Voigt Hill
#
# Bulk Modulus (GPa) = 54.43494 66.18182 60.30838
# Shear Modulus (GPa) = 23.76299 28.79216 26.27758
#
# Velocity S-wave (km/s) = 3.36344 3.70229 3.53693
# Velocity P-wave (km/s) = 6.40299 7.05570 6.73725
#
# Compressibility (1/GPa) = 0.01837055
#
# Stress axis : x y z
#
# Youngs Moduli (GPa) = 97.28118 97.32865 59.18525
#
# Poissons Ratio (x) = 0.24841 0.22667
# Poissons Ratio (y) = 0.24829 0.18688
# Poissons Ratio (z) = 0.37258 0.30732
#
# Static dielectric constant tensor:
#      x y z
#    x 1.894490 0.000000 -0.049680 
#    y 0.000000 1.762930 0.000000 
#    z -0.049680 0.000000 1.790220 
# 
# From -- ./inp_files/34261.got.cif
#   From: 2010.05.17/outbox.cif.g08.bks.cpg/sg5_18_cif.got.tgz:34261.got - 2010.06.03 18:56:24.
