data_PCOD9124366
_publ_section_title
;
Structure prediction by ZEFSAII (Michael W. Deem and Ramdas Pophale) SiO2 
 PCOD9124366
Probable space group: C 2
;
_chemical_formula_sum "Si O2"
_cell_formula_units_Z 16
_cell_length_a 7.100339
_cell_length_b 12.683924
_cell_length_c 7.133306
_cell_angle_alpha 90.000000
_cell_angle_beta 93.531440
_cell_angle_gamma 90.000000
_cell_volume 641.206809
_symmetry_space_group_name_H-M "C 2"
_symmetry_group_IT_number 5
_symmetry_cell_setting 'monoclinic'
loop_
_space_group_symop_operation_xyz
x,y,z
-x,y,-z
1/2+x,1/2+y,z
1/2-x,1/2+y,-z
loop_
_atom_site_type_symbol
_atom_site_label
_atom_site_fract_x
_atom_site_fract_y
_atom_site_fract_z
Si Si1 0.276230 0.077760 0.204381
Si Si2 0.991608 0.249789 0.294051
Si Si3 0.551599 0.247714 0.281044
Si Si4 0.000000 0.452911 0.500000
Si Si5 0.500000 0.424032 0.000000
O O1 0.473142 0.138231 0.196365
O O2 0.129526 0.175459 0.190630
O O3 0.324194 0.018040 0.405504
O O4 0.182254 0.994251 0.060954
O O5 0.771111 0.253396 0.241297
O O6 0.000000 0.197648 0.500000
O O7 0.055200 0.370166 0.337963
O O8 0.500000 0.250318 0.500000
O O9 0.463069 0.347837 0.173016
#
# Coordination Sequence:
#
# PCOD9124366 Si02
#       5
#     4   4   4   2   2
#     4  12  25  47  74 112 154 196 248 313 376 439
#     4  10  21  45  73 110 144 189 257 295 358 460
#     4  12  25  53  75 110 156 195 253 311 366 462
#     4  10  20  44  72 112 144 194 254 294 376 448
#     4  12  30  48  76 118 150 196 256 306 384 436
#
# _framework density 24.952949
#
# number of rings (size 3 to 8) (size 9 to 14) (size 15 to 20)
#    0.750    0.000    6.250    0.000    3.500    1.000 
#    9.000    2.500    0.000    0.000    0.000    0.000 
#    0.000    0.000    0.000    0.000    0.000    0.000 
#
# Total GULP energy -44640.271749 kJ/mol
# GULP energy per Si atom -5580.033969 kJ/mol
# Density = 2.489616 g / cm^3
# Si number density = 24.952949 Si / 1000 Ang^3
#
#
#
# Elastic Constant Matrix: (Units=GPa)
#
#
# Indices 1 2 3 4 5 6 
#
# 1 117.3720 60.4181 42.4183 0.0000 42.6536 0.0000
# 2 60.4181 165.8506 54.8429 0.0000 30.6456 0.0000
# 3 42.4183 54.8429 123.6516 0.0000 27.7571 0.0000
# 4 0.0000 0.0000 0.0000 86.1575 0.0000 37.0226
# 5 42.6536 30.6456 27.7571 0.0000 43.4563 0.0000
# 6 0.0000 0.0000 0.0000 37.0226 0.0000 49.4746
#
#
#
# Elastic Compliance Matrix: (Units=1/GPa)
#
#
# Indices 1 2 3 4 5 6 
#
# 1 0.014597 -0.002786 -0.001164 0.000000 -0.011620 0.000000
# 2 -0.002786 0.008079 -0.002291 0.000000 -0.001500 0.000000
# 3 -0.001164 -0.002291 0.010370 0.000000 -0.003866 0.000000
# 4 0.000000 0.000000 0.000000 0.017108 0.000000 -0.012802
# 5 -0.011620 -0.001500 -0.003866 0.000000 0.037944 0.000000
# 6 0.000000 0.000000 0.000000 -0.012802 0.000000 0.029792
#
#
# Mechanical properties :
#
#
# Convention : Reuss Voigt Hill
#
# Bulk Modulus (GPa) = 48.62405 80.24808 64.43607
# Shear Modulus (GPa) = 36.43615 52.43068 44.43342
#
# Velocity S-wave (km/s) = 3.82539 4.58884 4.22440
# Velocity P-wave (km/s) = 6.24821 7.76570 7.04792
#
# Compressibility (1/GPa) = 0.02056595
#
# Stress axis : x y z
#
# Youngs Moduli (GPa) = 68.50680 123.77695 96.42839
#
# Poissons Ratio (x) = 0.34482 0.11220
# Poissons Ratio (y) = 0.19084 0.22091
# Poissons Ratio (z) = 0.07971 0.28357
#
# Static dielectric constant tensor:
#      x y z
#    x 1.819100 0.000000 0.143360 
#    y 0.000000 1.972950 0.000000 
#    z 0.143360 0.000000 1.969350 
# 
# From -- ./inp_files/13837.got.cif
#   From: 2010.05.17/outbox.cif.g08.bks.cpg/sg5_7_cif.got.tgz:13837.got - 2010.06.03 18:56:24.
