data_PCOD9124502
_publ_section_title
;
Structure prediction by ZEFSAII (Michael W. Deem and Ramdas Pophale) SiO2 
 PCOD9124502
Probable space group: C 2
;
_chemical_formula_sum "Si O2"
_cell_formula_units_Z 28
_cell_length_a 5.153438
_cell_length_b 34.355306
_cell_length_c 9.278796
_cell_angle_alpha 90.000000
_cell_angle_beta 63.047774
_cell_angle_gamma 90.000000
_cell_volume 1464.359493
_symmetry_space_group_name_H-M "C 2"
_symmetry_group_IT_number 5
_symmetry_cell_setting 'monoclinic'
loop_
_space_group_symop_operation_xyz
x,y,z
-x,y,-z
1/2+x,1/2+y,z
1/2-x,1/2+y,-z
loop_
_atom_site_type_symbol
_atom_site_label
_atom_site_fract_x
_atom_site_fract_y
_atom_site_fract_z
Si Si1 0.652814 0.612530 0.806367
Si Si2 0.833428 0.427027 0.889219
Si Si3 0.838718 0.488575 0.389619
Si Si4 0.665835 0.837278 0.109152
Si Si5 0.154986 0.274910 0.614283
Si Si6 0.842268 0.188046 0.385815
Si Si7 0.342922 0.065667 0.195776
O O1 0.606953 0.652937 0.736151
O O2 0.481465 0.580093 0.757254
O O3 0.979062 0.598389 0.759055
O O4 0.500000 0.615024 0.000000
O O5 0.827730 0.382040 0.839010
O O6 0.994170 0.454155 0.734941
O O7 0.500000 0.439487 0.000000
O O8 0.000000 0.428992 0.000000
O O9 0.500000 0.478689 0.500000
O O10 0.849642 0.526389 0.284604
O O11 0.000000 0.496123 0.500000
O O12 0.487820 0.808279 0.254479
O O13 0.500000 0.837898 0.000000
O O14 0.000000 0.824803 0.000000
O O15 0.500000 0.279733 0.500000
O O16 0.091027 0.231362 0.689928
O O17 0.000000 0.276170 0.500000
O O18 0.500000 0.188042 0.500000
O O19 0.000000 0.182594 0.500000
O O20 0.500000 0.060625 0.000000
#
# Coordination Sequence:
#
# PCOD9124502 Si02
#       7
#     4   4   4   4   4   4   4
#     4  10  21  37  57  81 107 144 192 234 275 328
#     4  10  22  41  62  83 115 155 188 226 285 344
#     4  12  25  38  58  90 117 144 191 239 280 331
#     4  10  21  38  61  88 113 147 194 235 276 332
#     4  10  21  37  57  84 118 154 187 227 286 342
#     4  10  21  36  55  80 112 149 185 226 282 337
#     4  10  22  39  57  78 111 151 186 227 285 340
#
# _framework density 19.120989000000002
#
# number of rings (size 3 to 8) (size 9 to 14) (size 15 to 20)
#    0.000    1.714    0.000    3.857    0.000    6.857 
#    0.000    2.143    0.000    0.000    0.000    0.000 
#    0.000    0.000    0.000    0.000    0.000    0.000 
#
# Total GULP energy -78203.647917 kJ/mol
# GULP energy per Si atom -5585.974851 kJ/mol
# Density = 1.907747 g / cm^3
# Si number density = 19.120989 Si / 1000 Ang^3
#
#
#
# Elastic Constant Matrix: (Units=GPa)
#
#
# Indices 1 2 3 4 5 6 
#
# 1 145.9891 35.0196 45.8843 0.0000 -2.8084 0.0000
# 2 35.0196 126.8821 77.8747 0.0000 -1.5321 0.0000
# 3 45.8843 77.8747 70.5691 0.0000 0.4645 0.0000
# 4 0.0000 0.0000 0.0000 36.5006 0.0000 -3.2345
# 5 -2.8084 -1.5321 0.4645 0.0000 26.4283 0.0000
# 6 0.0000 0.0000 0.0000 -3.2345 0.0000 24.0342
#
#
#
# Elastic Compliance Matrix: (Units=1/GPa)
#
#
# Indices 1 2 3 4 5 6 
#
# 1 0.009122 0.003546 -0.009853 0.000000 0.001348 0.000000
# 2 0.003546 0.025896 -0.030898 0.000000 0.002421 0.000000
# 3 -0.009853 -0.030898 0.054699 0.000000 -0.003800 0.000000
# 4 0.000000 0.000000 0.000000 0.027727 0.000000 0.003732
# 5 0.001348 0.002421 -0.003800 0.000000 0.038189 0.000000
# 6 0.000000 0.000000 0.000000 0.003732 0.000000 0.042110
#
#
# Mechanical properties :
#
#
# Convention : Reuss Voigt Hill
#
# Bulk Modulus (GPa) = 65.33344 73.44417 69.38880
# Shear Modulus (GPa) = 18.03391 29.70339 23.86865
#
# Velocity S-wave (km/s) = 3.07440 3.94565 3.53696
# Velocity P-wave (km/s) = 6.84436 7.69748 7.28342
#
# Compressibility (1/GPa) = 0.01530610
#
# Stress axis : x y z
#
# Youngs Moduli (GPa) = 109.62528 38.61618 18.28186
#
# Poissons Ratio (x) = -0.13693 0.18013
# Poissons Ratio (y) = -0.38873 0.56488
# Poissons Ratio (z) = 1.08015 1.19317
#
# Static dielectric constant tensor:
#      x y z
#    x 1.650680 0.000000 -0.001360 
#    y 0.000000 1.689370 0.000000 
#    z -0.001360 0.000000 1.621940 
# 
# From -- ./inp_files/13282.got.cif
#   From: 2010.05.17/outbox.cif.g08.bks.cpg/sg5_7_cif.got.tgz:13282.got - 2010.06.03 18:56:24.
