data_PCOD9124369
_publ_section_title
;
Structure prediction by ZEFSAII (Michael W. Deem and Ramdas Pophale) SiO2 
 PCOD9124369
Probable space group: C 2
;
_chemical_formula_sum "Si O2"
_cell_formula_units_Z 20
_cell_length_a 19.917779
_cell_length_b 8.582302
_cell_length_c 14.493568
_cell_angle_alpha 90.000000
_cell_angle_beta 17.880129
_cell_angle_gamma 90.000000
_cell_volume 760.669458
_symmetry_space_group_name_H-M "C 2"
_symmetry_group_IT_number 5
_symmetry_cell_setting 'monoclinic'
loop_
_space_group_symop_operation_xyz
x,y,z
-x,y,-z
1/2+x,1/2+y,z
1/2-x,1/2+y,-z
loop_
_atom_site_type_symbol
_atom_site_label
_atom_site_fract_x
_atom_site_fract_y
_atom_site_fract_z
Si Si1 0.445328 0.395460 0.282145
Si Si2 0.453596 0.685978 0.167457
Si Si3 0.556855 0.913546 0.327804
Si Si4 0.819875 0.451450 0.026522
Si Si5 0.148099 0.079994 0.421151
O O1 0.466051 0.501269 0.164673
O O2 0.280195 0.254299 0.497516
O O3 0.331928 0.515338 0.502983
O O4 0.691510 0.357577 0.990737
O O5 0.500000 0.724191 0.000000
O O6 0.620543 0.775922 0.019029
O O7 0.500000 0.994301 0.500000
O O8 0.409591 0.760392 0.511394
O O9 0.548322 0.994680 0.239055
O O10 0.836424 0.543567 0.101318
O O11 0.570886 0.485075 0.322920
#
# Coordination Sequence:
#
# PCOD9124369 Si02
#       5
#     4   4   4   4   4
#     4  11  27  46  69 109 144 192 238 293 359 428
#     4  12  26  48  69 107 153 190 234 289 366 438
#     4  11  23  44  71 104 142 179 245 295 348 415
#     4  10  21  40  72  98 134 185 234 285 346 422
#     4  10  20  44  72  99 133 186 239 289 349 406
#
# _framework density 26.292627
#
# number of rings (size 3 to 8) (size 9 to 14) (size 15 to 20)
#    0.000    1.200    6.000    0.000    2.800    1.600 
#    7.200    0.000    0.000    0.000    0.000    0.000 
#    0.000    0.000    0.000    0.000    0.000    0.000 
#
# Total GULP energy -55906.241933 kJ/mol
# GULP energy per Si atom -5590.624193 kJ/mol
# Density = 2.623278 g / cm^3
# Si number density = 26.292627 Si / 1000 Ang^3
#
#
#
# Elastic Constant Matrix: (Units=GPa)
#
#
# Indices 1 2 3 4 5 6 
#
# 1 109.2735 22.2761 38.0739 -0.0005 44.9969 0.0004
# 2 22.2761 83.7084 39.2717 -0.0005 -0.0598 0.0004
# 3 38.0739 39.2717 97.7731 -0.0011 24.5042 0.0011
# 4 -0.0005 -0.0005 -0.0011 39.1065 0.0006 1.8057
# 5 44.9969 -0.0598 24.5042 0.0006 73.6672 -0.0006
# 6 0.0004 0.0004 0.0011 1.8057 -0.0006 42.1463
#
#
#
# Elastic Compliance Matrix: (Units=1/GPa)
#
#
# Indices 1 2 3 4 5 6 
#
# 1 0.013587 -0.002490 -0.002412 0.000000 -0.007499 0.000000
# 2 -0.002490 0.015498 -0.006153 0.000000 0.003580 0.000000
# 3 -0.002412 -0.006153 0.014477 0.000000 -0.003348 0.000000
# 4 0.000000 0.000000 0.000000 0.025622 0.000000 -0.001098
# 5 -0.007499 0.003580 -0.003348 0.000000 0.019271 0.000000
# 6 0.000000 0.000000 0.000000 -0.001098 0.000000 0.023774
#
#
# Mechanical properties :
#
#
# Convention : Reuss Voigt Hill
#
# Bulk Modulus (GPa) = 46.61049 54.44426 50.52738
# Shear Modulus (GPa) = 35.33863 43.72624 39.53244
#
# Velocity S-wave (km/s) = 3.67011 4.08249 3.88178
# Velocity P-wave (km/s) = 5.97709 6.55548 6.27296
#
# Compressibility (1/GPa) = 0.02145440
#
# Stress axis : x y z
#
# Youngs Moduli (GPa) = 73.59913 64.52529 69.07491
#
# Poissons Ratio (x) = 0.16065 0.16657
# Poissons Ratio (y) = 0.18324 0.42499
# Poissons Ratio (z) = 0.17748 0.39699
#
# Static dielectric constant tensor:
#      x y z
#    x 2.238970 0.000000 0.078230 
#    y 0.000000 2.007340 0.000000 
#    z 0.078230 0.000000 2.100290 
# 
# From -- ./inp_files/56771.got.cif
#   From: 2010.05.17/outbox.cif.g08.bks.cpg/sg5_29_cif.got.tgz:56771.got - 2010.06.03 18:56:24.
