data_PCOD9124297
_publ_section_title
;
Structure prediction by ZEFSAII (Michael W. Deem and Ramdas Pophale) SiO2 
 PCOD9124297
Probable space group: C 2
;
_chemical_formula_sum "Si O2"
_cell_formula_units_Z 22
_cell_length_a 5.312384
_cell_length_b 20.522102
_cell_length_c 8.540867
_cell_angle_alpha 90.000000
_cell_angle_beta 74.868929
_cell_angle_gamma 90.000000
_cell_volume 898.854946
_symmetry_space_group_name_H-M "C 2"
_symmetry_group_IT_number 5
_symmetry_cell_setting 'monoclinic'
loop_
_space_group_symop_operation_xyz
x,y,z
-x,y,-z
1/2+x,1/2+y,z
1/2-x,1/2+y,-z
loop_
_atom_site_type_symbol
_atom_site_label
_atom_site_fract_x
_atom_site_fract_y
_atom_site_fract_z
Si Si1 0.454837 0.566660 0.844459
Si Si2 0.265872 0.943789 0.726713
Si Si3 0.500000 0.372414 0.500000
Si Si4 0.840134 0.191263 0.686671
Si Si5 0.500000 0.969367 0.000000
Si Si6 0.290308 0.267366 0.775488
Si Si7 0.000000 0.845613 0.000000
O O1 0.683450 0.520292 0.739248
O O2 0.336859 0.616140 0.739887
O O3 0.500000 0.605245 0.000000
O O4 0.249458 0.514397 0.941077
O O5 0.078516 0.893981 0.849868
O O6 0.211143 0.916809 0.560458
O O7 0.489064 0.938151 0.826824
O O8 0.339365 0.323394 0.637733
O O9 0.551838 0.221874 0.725246
O O10 0.000000 0.196566 0.500000
O O11 0.031435 0.229264 0.773321
O O12 0.296684 0.299761 0.945383
#
# Coordination Sequence:
#
# PCOD9124297 Si02
#       7
#     4   4   2   4   2   4   2
#     4  10  24  42  69  98 136 174 234 289 343 409
#     4  10  21  44  67 103 138 174 231 285 357 406
#     4  10  22  46  66 100 146 180 224 290 348 422
#     4  12  26  47  67  99 140 180 233 286 340 416
#     4  10  20  43  68 106 127 180 230 288 346 420
#     4  11  26  46  69 101 137 185 230 283 344 407
#     4  10  22  43  70 100 137 176 232 280 342 420
#
# _framework density 24.475580999999998
#
# number of rings (size 3 to 8) (size 9 to 14) (size 15 to 20)
#    0.000    1.455    4.545    0.000    8.909    2.909 
#    3.273    0.000    0.000    0.000    0.000    0.000 
#    0.000    0.000    0.000    0.000    0.000    0.000 
#
# Total GULP energy -61308.664197 kJ/mol
# GULP energy per Si atom -5573.514927 kJ/mol
# Density = 2.441987 g / cm^3
# Si number density = 24.475581 Si / 1000 Ang^3
#
#
#
# Elastic Constant Matrix: (Units=GPa)
#
#
# Indices 1 2 3 4 5 6 
#
# 1 68.4552 14.3933 43.7080 0.0000 20.7181 0.0000
# 2 14.3933 99.4991 62.0940 0.0000 18.2823 0.0000
# 3 43.7080 62.0940 87.9402 0.0000 36.1832 0.0000
# 4 0.0000 0.0000 0.0000 45.8622 0.0000 43.6391
# 5 20.7181 18.2823 36.1832 0.0000 38.5541 0.0000
# 6 0.0000 0.0000 0.0000 43.6391 0.0000 -49.1349
#
#
#
# Elastic Compliance Matrix: (Units=1/GPa)
#
#
# Indices 1 2 3 4 5 6 
#
# 1 0.023899 0.006992 -0.016562 0.000000 -0.000614 0.000000
# 2 0.006992 0.020764 -0.020427 0.000000 0.005567 0.000000
# 3 -0.016562 -0.020427 0.042973 0.000000 -0.021744 0.000000
# 4 0.000000 0.000000 0.000000 0.011818 0.000000 0.010496
# 5 -0.000614 0.005567 -0.021744 0.000000 0.044034 0.000000
# 6 0.000000 0.000000 0.000000 0.010496 0.000000 -0.011030
#
#
# Mechanical properties :
#
#
# Convention : Reuss Voigt Hill
#
# Bulk Modulus (GPa) = 36.17858 55.14279 45.66069
# Shear Modulus (GPa) = 24.79375 16.10291 20.44833
#
# Velocity S-wave (km/s) = 3.18622 2.56777 2.89357
# Velocity P-wave (km/s) = 5.32443 5.60088 5.46441
#
# Compressibility (1/GPa) = 0.02764066
#
# Stress axis : x y z
#
# Youngs Moduli (GPa) = 41.84327 48.16134 23.27069
#
# Poissons Ratio (x) = -0.33672 0.38541
# Poissons Ratio (y) = -0.29255 0.47534
# Poissons Ratio (z) = 0.69301 0.98377
#
# Static dielectric constant tensor:
#      x y z
#    x 2.128120 0.000000 0.017230 
#    y 0.000000 1.979020 0.000000 
#    z 0.017230 0.000000 2.065250 
# 
# From -- ./inp_files/12509.got.cif
#   From: 2010.05.17/outbox.cif.g08.bks.cpg/sg5_7_cif.got.tgz:12509.got - 2010.06.03 18:56:24.
