data_PCOD9124215
_publ_section_title
;
Structure prediction by ZEFSAII (Michael W. Deem and Ramdas Pophale) SiO2 
 PCOD9124215
Probable space group: C 2
;
_chemical_formula_sum "Si O2"
_cell_formula_units_Z 26
_cell_length_a 19.552129
_cell_length_b 7.600031
_cell_length_c 8.724070
_cell_angle_alpha 90.000000
_cell_angle_beta 124.495764
_cell_angle_gamma 90.000000
_cell_volume 1068.425735
_symmetry_space_group_name_H-M "C 2"
_symmetry_group_IT_number 5
_symmetry_cell_setting 'monoclinic'
loop_
_space_group_symop_operation_xyz
x,y,z
-x,y,-z
1/2+x,1/2+y,z
1/2-x,1/2+y,-z
loop_
_atom_site_type_symbol
_atom_site_label
_atom_site_fract_x
_atom_site_fract_y
_atom_site_fract_z
Si Si1 0.799111 0.144410 0.538126
Si Si2 0.681376 0.799219 0.754283
Si Si3 0.326170 0.192516 0.146546
Si Si4 0.142957 0.772335 0.497484
Si Si5 0.522256 0.695572 0.194793
Si Si6 0.500000 0.635919 0.500000
Si Si7 0.018378 0.597900 0.846769
O O1 0.775421 0.223315 0.343132
O O2 0.721741 0.154040 0.550316
O O3 0.880579 0.248727 0.695201
O O4 0.835315 0.949340 0.566146
O O5 0.586855 0.737928 0.618060
O O6 0.676734 0.005713 0.773497
O O7 0.736227 0.731205 0.965001
O O8 0.353948 0.321978 0.318423
O O9 0.396422 0.179978 0.106720
O O10 0.058451 0.673837 0.348690
O O11 0.505522 0.575766 0.325438
O O12 0.477178 0.884411 0.160197
O O13 0.500000 0.617872 0.000000
O O14 0.000000 0.639010 0.000000
#
# Coordination Sequence:
#
# PCOD9124215 Si02
#       7
#     4   4   4   4   4   2   4
#     4  11  25  45  67 102 138 191 237 305 361 440
#     4  11  24  45  69 104 144 189 242 293 362 434
#     4  12  25  43  72 106 143 191 240 300 363 432
#     4  12  25  44  70 100 144 184 245 302 371 433
#     4  10  22  41  72 101 138 188 240 292 366 440
#     4  10  20  42  68  98 148 186 240 288 352 440
#     4  11  24  44  69 101 144 188 238 298 367 442
#
# _framework density 24.334869999999999
#
# number of rings (size 3 to 8) (size 9 to 14) (size 15 to 20)
#    0.000    0.923    1.538    6.000    2.154    1.846 
#   16.615    0.000    0.000    0.000    0.000    0.000 
#    0.000    0.000    0.000    0.000    0.000    0.000 
#
# Total GULP energy -72673.749509 kJ/mol
# GULP energy per Si atom -5590.288424 kJ/mol
# Density = 2.427948 g / cm^3
# Si number density = 24.334870 Si / 1000 Ang^3
#
#
#
# Elastic Constant Matrix: (Units=GPa)
#
#
# Indices 1 2 3 4 5 6 
#
# 1 139.1358 20.4038 42.4429 0.0000 -12.6895 0.0000
# 2 20.4038 48.9616 -11.8912 0.0000 -5.3405 0.0000
# 3 42.4429 -11.8912 142.8623 0.0000 -17.3483 0.0000
# 4 0.0000 0.0000 0.0000 15.8689 0.0000 -3.7416
# 5 -12.6895 -5.3405 -17.3483 0.0000 46.4836 0.0000
# 6 0.0000 0.0000 0.0000 -3.7416 0.0000 26.6087
#
#
#
# Elastic Compliance Matrix: (Units=1/GPa)
#
#
# Indices 1 2 3 4 5 6 
#
# 1 0.008758 -0.004251 -0.002854 0.000000 0.000837 0.000000
# 2 -0.004251 0.023370 0.003554 0.000000 0.002851 0.000000
# 3 -0.002854 0.003554 0.008483 0.000000 0.002795 0.000000
# 4 0.000000 0.000000 0.000000 0.065177 0.000000 0.009165
# 5 0.000837 0.002851 0.002795 0.000000 0.023112 0.000000
# 6 0.000000 0.000000 0.000000 0.009165 0.000000 0.038870
#
#
# Mechanical properties :
#
#
# Convention : Reuss Voigt Hill
#
# Bulk Modulus (GPa) = 29.84296 48.09676 38.96986
# Shear Modulus (GPa) = 26.87565 36.45919 31.66742
#
# Velocity S-wave (km/s) = 3.32687 3.87489 3.61129
# Velocity P-wave (km/s) = 5.20072 6.31088 5.78250
#
# Compressibility (1/GPa) = 0.03350874
#
# Stress axis : x y z
#
# Youngs Moduli (GPa) = 114.18610 42.78975 117.88378
#
# Poissons Ratio (x) = 0.18192 0.33644
# Poissons Ratio (y) = 0.48545 -0.41901
# Poissons Ratio (z) = 0.32589 -0.15209
#
# Static dielectric constant tensor:
#      x y z
#    x 1.945820 0.000000 -0.044570 
#    y 0.000000 1.981350 0.000000 
#    z -0.044570 0.000000 2.015730 
# 
# From -- ./inp_files/29160.got.cif
#   From: 2010.05.17/outbox.cif.g08.bks.cpg/sg5_15_cif.got.tgz:29160.got - 2010.06.03 18:56:24.
