data_PCOD9124821
_publ_section_title
;
Structure prediction by ZEFSAII (Michael W. Deem and Ramdas Pophale) SiO2 
 PCOD9124821
Probable space group: C 2
;
_chemical_formula_sum "Si O2"
_cell_formula_units_Z 24
_cell_length_a 12.329124
_cell_length_b 10.063537
_cell_length_c 13.492729
_cell_angle_alpha 90.000000
_cell_angle_beta 140.174675
_cell_angle_gamma 90.000000
_cell_volume 1072.179176
_symmetry_space_group_name_H-M "C 2"
_symmetry_group_IT_number 5
_symmetry_cell_setting 'monoclinic'
loop_
_space_group_symop_operation_xyz
x,y,z
-x,y,-z
1/2+x,1/2+y,z
1/2-x,1/2+y,-z
loop_
_atom_site_type_symbol
_atom_site_label
_atom_site_fract_x
_atom_site_fract_y
_atom_site_fract_z
Si Si1 0.845365 0.500000 0.809103
Si Si2 0.361289 0.723344 0.701599
Si Si3 0.284653 0.592056 0.095312
Si Si4 0.177693 0.879325 0.027703
Si Si5 0.173332 0.213659 0.558936
Si Si6 0.214817 0.964432 0.260602
O O1 0.844465 0.364622 0.744666
O O2 0.692001 0.527459 0.780162
O O3 0.814880 0.619003 0.709178
O O4 0.000000 0.500939 0.000000
O O5 0.553266 0.667236 0.837218
O O6 0.323435 0.706756 0.557997
O O7 0.257292 0.616008 0.692623
O O8 0.165533 0.720946 0.016396
O O9 0.231816 0.467048 0.992161
O O10 0.276250 0.917966 0.196612
O O11 0.985704 0.931821 0.887612
O O12 0.212011 0.367272 0.607313
O O13 0.000000 0.186952 0.500000
#
# Coordination Sequence:
#
# PCOD9124821 Si02
#       6
#     4   4   4   4   4   4
#     4  12  25  42  75 106 140 185 240 297 358 421
#     4  11  25  42  68 100 139 187 237 289 354 435
#     4  11  22  40  65 103 136 176 232 292 352 422
#     4  10  21  38  63  97 132 172 226 293 354 411
#     4  12  23  46  70  96 143 187 234 292 362 426
#     4  10  22  40  64  91 136 180 226 284 358 417
#
# _framework density 22.384318
#
# number of rings (size 3 to 8) (size 9 to 14) (size 15 to 20)
#    0.000    1.000    3.333    3.000    7.000    0.000 
#    0.000    2.500    0.000    0.000    0.000    0.000 
#    0.000    0.000    0.000    0.000    0.000    0.000 
#
# Total GULP energy -66829.256673 kJ/mol
# GULP energy per Si atom -5569.104723 kJ/mol
# Density = 2.233337 g / cm^3
# Si number density = 22.384318 Si / 1000 Ang^3
#
#
#
# Elastic Constant Matrix: (Units=GPa)
#
#
# Indices 1 2 3 4 5 6 
#
# 1 64.4771 61.6631 17.7034 0.0000 -27.4269 0.0000
# 2 61.6631 170.0668 58.4507 0.0000 -26.2509 0.0000
# 3 17.7034 58.4507 80.3169 0.0000 -19.7285 0.0000
# 4 0.0000 0.0000 0.0000 30.1109 0.0000 -16.5684
# 5 -27.4269 -26.2509 -19.7285 0.0000 27.2728 0.0000
# 6 0.0000 0.0000 0.0000 -16.5684 0.0000 39.0511
#
#
#
# Elastic Compliance Matrix: (Units=1/GPa)
#
#
# Indices 1 2 3 4 5 6 
#
# 1 0.038742 -0.011678 0.008231 0.000000 0.033675 0.000000
# 2 -0.011678 0.011770 -0.007410 0.000000 -0.005776 0.000000
# 3 0.008231 -0.007410 0.019835 0.000000 0.015493 0.000000
# 4 0.000000 0.000000 0.000000 0.043325 0.000000 0.018382
# 5 0.033675 -0.005776 0.015493 0.000000 0.076179 0.000000
# 6 0.000000 0.000000 0.000000 0.018382 0.000000 0.033406
#
#
# Mechanical properties :
#
#
# Convention : Reuss Voigt Hill
#
# Bulk Modulus (GPa) = 20.56263 65.61055 43.08659
# Shear Modulus (GPa) = 19.14371 31.08986 25.11678
#
# Velocity S-wave (km/s) = 2.92760 3.73086 3.35337
# Velocity P-wave (km/s) = 4.54246 6.92341 5.85523
#
# Compressibility (1/GPa) = 0.04863190
#
# Stress axis : x y z
#
# Youngs Moduli (GPa) = 25.81156 84.96484 50.41692
#
# Poissons Ratio (x) = 0.99224 -0.41498
# Poissons Ratio (y) = 0.30143 0.37359
# Poissons Ratio (z) = -0.21245 0.62958
#
# Static dielectric constant tensor:
#      x y z
#    x 2.106090 0.000000 0.056150 
#    y 0.000000 1.810790 0.000000 
#    z 0.056150 0.000000 1.878400 
# 
# From -- ./inp_files/54061.got.cif
#   From: 2010.05.17/outbox.cif.g08.bks.cpg/sg5_28_cif.got.tgz:54061.got - 2010.06.03 18:56:24.
