data_PCOD9124387
_publ_section_title
;
Structure prediction by ZEFSAII (Michael W. Deem and Ramdas Pophale) SiO2 
 PCOD9124387
Probable space group: C 2
;
_chemical_formula_sum "Si O2"
_cell_formula_units_Z 28
_cell_length_a 12.745862
_cell_length_b 8.638177
_cell_length_c 17.211839
_cell_angle_alpha 90.000000
_cell_angle_beta 37.869367
_cell_angle_gamma 90.000000
_cell_volume 1163.295925
_symmetry_space_group_name_H-M "C 2"
_symmetry_group_IT_number 5
_symmetry_cell_setting 'monoclinic'
loop_
_space_group_symop_operation_xyz
x,y,z
-x,y,-z
1/2+x,1/2+y,z
1/2-x,1/2+y,-z
loop_
_atom_site_type_symbol
_atom_site_label
_atom_site_fract_x
_atom_site_fract_y
_atom_site_fract_z
Si Si1 0.553739 0.671260 0.057193
Si Si2 0.222643 0.676092 0.336178
Si Si3 0.500000 0.442806 0.500000
Si Si4 0.840196 0.091825 0.726985
Si Si5 0.500000 0.140204 0.000000
Si Si6 0.488962 0.899928 0.599030
Si Si7 0.599241 0.327267 0.096968
Si Si8 0.861362 0.908274 0.364714
O O1 0.382393 0.739920 0.195495
O O2 0.594321 0.508051 0.076309
O O3 0.500000 0.641898 0.000000
O O4 0.718507 0.776685 0.975550
O O5 0.139115 0.808267 0.436783
O O6 0.096136 0.572806 0.353364
O O7 0.296594 0.550012 0.350475
O O8 0.369046 0.555949 0.620374
O O9 0.666881 0.052064 0.871803
O O10 0.874459 0.276288 0.712632
O O11 0.990558 0.978846 0.668969
O O12 0.442743 0.237646 0.957958
O O13 0.500000 0.865677 0.500000
O O14 0.684365 0.868079 0.510498
O O15 0.454571 0.297462 0.247780
#
# Coordination Sequence:
#
# PCOD9124387 Si02
#       8
#     4   4   2   4   2   4   4   4
#     4  11  25  48  74 112 150 202 259 313 386 467
#     4  10  22  46  69  94 143 197 238 304 379 446
#     4  12  26  42  68 108 138 190 240 310 376 430
#     4  12  27  42  73 110 144 190 250 314 378 447
#     4  12  24  50  74 106 156 206 248 316 386 466
#     4  10  20  45  70  94 141 195 233 299 375 460
#     4  11  25  48  77 108 152 206 255 315 392 456
#     4  10  23  44  71 101 142 187 256 298 381 451
#
# _framework density 24.069541999999998
#
# number of rings (size 3 to 8) (size 9 to 14) (size 15 to 20)
#    0.000    1.143    3.571    4.286    4.000    2.286 
#    1.286    0.000    0.000    0.000    0.000    0.000 
#    0.000    0.000    0.000    0.000    0.000    0.000 
#
# Total GULP energy -78025.268389 kJ/mol
# GULP energy per Si atom -5573.233456 kJ/mol
# Density = 2.401476 g / cm^3
# Si number density = 24.069542 Si / 1000 Ang^3
#
#
#
# Elastic Constant Matrix: (Units=GPa)
#
#
# Indices 1 2 3 4 5 6 
#
# 1 24.7670 35.3070 -3.0372 0.0000 -47.3248 0.0000
# 2 35.3070 78.3691 42.3318 0.0000 -11.0005 0.0000
# 3 -3.0372 42.3318 104.4353 0.0000 -66.7958 0.0000
# 4 0.0000 0.0000 0.0000 32.2582 0.0000 -5.0671
# 5 -47.3248 -11.0005 -66.7958 0.0000 12.2504 0.0000
# 6 0.0000 0.0000 0.0000 -5.0671 0.0000 27.0239
#
#
#
# Elastic Compliance Matrix: (Units=1/GPa)
#
#
# Indices 1 2 3 4 5 6 
#
# 1 0.009733 -0.001473 -0.009682 0.000000 -0.016514 0.000000
# 2 -0.001473 0.014572 0.000491 0.000000 0.010069 0.000000
# 3 -0.009682 0.000491 0.005848 0.000000 -0.005076 0.000000
# 4 0.000000 0.000000 0.000000 0.031941 0.000000 0.005989
# 5 -0.016514 0.010069 -0.005076 0.000000 -0.000805 0.000000
# 6 0.000000 0.000000 0.000000 0.005989 0.000000 0.038127
#
#
# Mechanical properties :
#
#
# Convention : Reuss Voigt Hill
#
# Bulk Modulus (GPa) = 113.32770 39.64164 76.48467
# Shear Modulus (GPa) = 40.42436 23.17117 31.79776
#
# Velocity S-wave (km/s) = 4.10259 3.10607 3.63861
# Velocity P-wave (km/s) = 8.34430 5.41931 7.03549
#
# Compressibility (1/GPa) = 0.00882397
#
# Stress axis : x y z
#
# Youngs Moduli (GPa) = 102.73926 68.62368 170.99733
#
# Poissons Ratio (x) = 0.10110 1.65564
# Poissons Ratio (y) = 0.15136 -0.08390
# Poissons Ratio (z) = 0.99475 -0.03367
#
# Static dielectric constant tensor:
#      x y z
#    x 2.241520 0.000000 0.154680 
#    y 0.000000 1.991030 0.000000 
#    z 0.154680 0.000000 2.165620 
# 
# From -- ./inp_files/65988.got.cif
#   From: 2010.05.17/outbox.cif.g08.bks.cpg/sg5_33_cif.got.tgz:65988.got - 2010.06.03 18:56:24.
