data_PCOD9124364
_publ_section_title
;
Structure prediction by ZEFSAII (Michael W. Deem and Ramdas Pophale) SiO2 
 PCOD9124364
Probable space group: C 2
;
_chemical_formula_sum "Si O2"
_cell_formula_units_Z 18
_cell_length_a 11.660781
_cell_length_b 7.441380
_cell_length_c 8.639702
_cell_angle_alpha 90.000000
_cell_angle_beta 99.349657
_cell_angle_gamma 90.000000
_cell_volume 739.727461
_symmetry_space_group_name_H-M "C 2"
_symmetry_group_IT_number 5
_symmetry_cell_setting 'monoclinic'
loop_
_space_group_symop_operation_xyz
x,y,z
-x,y,-z
1/2+x,1/2+y,z
1/2-x,1/2+y,-z
loop_
_atom_site_type_symbol
_atom_site_label
_atom_site_fract_x
_atom_site_fract_y
_atom_site_fract_z
Si Si1 0.500000 0.036960 0.000000
Si Si2 0.790659 0.493332 0.737193
Si Si3 0.663486 0.028554 0.807461
Si Si4 0.869073 0.735542 0.489899
Si Si5 0.127656 0.138535 0.960881
O O1 0.591860 0.945548 0.141661
O O2 0.418260 0.147441 0.096653
O O3 0.830955 0.670111 0.650704
O O4 0.731174 0.361859 0.601015
O O5 0.689790 0.520062 0.841839
O O6 0.628875 0.062937 0.625249
O O7 0.790321 0.098210 0.873836
O O8 0.639314 0.832093 0.874039
O O9 0.000000 0.813198 0.500000
O O10 0.000000 0.105942 0.000000
#
# Coordination Sequence:
#
# PCOD9124364 Si02
#       5
#     2   4   4   4   4
#     4  10  20  44  72 102 136 190 234 290 356 434
#     4  11  26  48  75 108 146 195 246 298 372 431
#     4  11  22  44  73 102 146 190 238 297 366 425
#     4  12  26  48  72 108 151 193 241 305 367 439
#     4  11  25  45  71 109 145 193 243 303 356 441
#
# _framework density 24.333283999999999
#
# number of rings (size 3 to 8) (size 9 to 14) (size 15 to 20)
#    0.000    0.889    3.333    4.000    0.000    3.556 
#   10.000    0.000    0.000    0.000    0.000    0.000 
#    0.000    0.000    0.000    0.000    0.000    0.000 
#
# Total GULP energy -50161.802517 kJ/mol
# GULP energy per Si atom -5573.533613 kJ/mol
# Density = 2.427790 g / cm^3
# Si number density = 24.333284 Si / 1000 Ang^3
#
#
#
# Elastic Constant Matrix: (Units=GPa)
#
#
# Indices 1 2 3 4 5 6 
#
# 1 236.6531 42.2014 54.1501 0.0000 13.4608 0.0000
# 2 42.2014 51.3829 7.2478 0.0000 14.2644 0.0000
# 3 54.1501 7.2478 85.8301 0.0000 15.5923 0.0000
# 4 0.0000 0.0000 0.0000 28.6886 0.0000 -3.2465
# 5 13.4608 14.2644 15.5923 0.0000 50.8881 0.0000
# 6 0.0000 0.0000 0.0000 -3.2465 0.0000 27.9127
#
#
#
# Elastic Compliance Matrix: (Units=1/GPa)
#
#
# Indices 1 2 3 4 5 6 
#
# 1 0.005754 -0.004460 -0.003393 0.000000 0.000768 0.000000
# 2 -0.004460 0.024607 0.001879 0.000000 -0.006294 0.000000
# 3 -0.003393 0.001879 0.014365 0.000000 -0.004031 0.000000
# 4 0.000000 0.000000 0.000000 0.035322 0.000000 0.004108
# 5 0.000768 -0.006294 -0.004031 0.000000 0.022447 0.000000
# 6 0.000000 0.000000 0.000000 0.004108 0.000000 0.036304
#
#
# Mechanical properties :
#
#
# Convention : Reuss Voigt Hill
#
# Bulk Modulus (GPa) = 30.50799 64.56275 47.53537
# Shear Modulus (GPa) = 30.92690 39.51568 35.22129
#
# Velocity S-wave (km/s) = 3.56894 4.03418 3.80867
# Velocity P-wave (km/s) = 5.43579 6.94908 6.23849
#
# Compressibility (1/GPa) = 0.03277830
#
# Stress axis : x y z
#
# Youngs Moduli (GPa) = 173.80436 40.63897 69.61367
#
# Poissons Ratio (x) = 0.18125 0.23618
# Poissons Ratio (y) = 0.77518 -0.13082
# Poissons Ratio (z) = 0.58968 -0.07637
#
# Static dielectric constant tensor:
#      x y z
#    x 2.015440 0.000000 -0.065830 
#    y 0.000000 2.164640 0.000000 
#    z -0.065830 0.000000 1.965380 
# 
# From -- ./inp_files/18002.got.cif
#   From: 2010.05.17/outbox.cif.g08.bks.cpg/sg5_10_cif.got.tgz:18002.got - 2010.06.03 18:56:24.
