data_PCOD9124738
_publ_section_title
;
Structure prediction by ZEFSAII (Michael W. Deem and Ramdas Pophale) SiO2 
 PCOD9124738
Probable space group: C 2
;
_chemical_formula_sum "Si O2"
_cell_formula_units_Z 30
_cell_length_a 19.355132
_cell_length_b 12.916695
_cell_length_c 6.497875
_cell_angle_alpha 90.000000
_cell_angle_beta 98.113019
_cell_angle_gamma 90.000000
_cell_volume 1608.238340
_symmetry_space_group_name_H-M "C 2"
_symmetry_group_IT_number 5
_symmetry_cell_setting 'monoclinic'
loop_
_space_group_symop_operation_xyz
x,y,z
-x,y,-z
1/2+x,1/2+y,z
1/2-x,1/2+y,-z
loop_
_atom_site_type_symbol
_atom_site_label
_atom_site_fract_x
_atom_site_fract_y
_atom_site_fract_z
Si Si1 0.753752 0.186600 0.546297
Si Si2 0.816889 0.021068 0.277487
Si Si3 0.917812 0.006196 0.966524
Si Si4 0.709440 0.015799 0.855155
Si Si5 0.565913 0.925416 0.906873
Si Si6 0.191130 0.874855 0.342908
Si Si7 0.000000 0.314122 0.500000
Si Si8 0.607698 0.736381 0.220749
O O1 0.801595 0.119535 0.412582
O O2 0.699757 0.253881 0.391734
O O3 0.811795 0.255317 0.686527
O O4 0.719216 0.110922 0.700520
O O5 0.811283 0.927025 0.433701
O O6 0.889248 0.012946 0.186932
O O7 0.759715 0.025372 0.072751
O O8 0.872754 0.921407 0.818778
O O9 0.900827 0.119673 0.865512
O O10 0.000000 0.986813 0.000000
O O11 0.631934 0.998125 0.902345
O O12 0.739484 0.916520 0.743510
O O13 0.541304 0.885733 0.675912
O O14 0.500000 0.972994 0.000000
O O15 0.586420 0.822733 0.045468
O O16 0.944818 0.249670 0.610340
#
# Coordination Sequence:
#
# PCOD9124738 Si02
#       8
#     4   4   4   4   4   4   2   4
#     4  11  22  37  62  88 117 156 208 246 300 355
#     4  10  21  39  60  89 114 153 198 252 303 347
#     4  11  23  37  57  90 126 159 201 243 308 371
#     4  10  21  38  58  89 117 152 201 248 299 359
#     4  10  22  37  58  87 119 155 190 245 311 361
#     4  10  22  38  58  88 118 163 200 246 303 355
#     4  10  22  34  58  84 120 154 186 236 312 364
#     4  11  21  35  55  94 117 157 196 246 308 366
#
# _framework density 18.653950999999999
#
# number of rings (size 3 to 8) (size 9 to 14) (size 15 to 20)
#    0.000    1.600    4.000    2.800    5.600    5.867 
#    0.000    0.000    0.000    8.000    0.000    0.000 
#    0.000    0.000    0.000    0.000    0.000    0.000 
#
# Total GULP energy -83706.529261 kJ/mol
# GULP energy per Si atom -5580.435284 kJ/mol
# Density = 1.861149 g / cm^3
# Si number density = 18.653951 Si / 1000 Ang^3
#
#
#
# Elastic Constant Matrix: (Units=GPa)
#
#
# Indices 1 2 3 4 5 6 
#
# 1 137.6763 31.6615 39.0873 0.0000 -12.3166 0.0000
# 2 31.6615 41.0220 17.7968 0.0000 0.0399 0.0000
# 3 39.0873 17.7968 96.3966 0.0000 -14.3449 0.0000
# 4 0.0000 0.0000 0.0000 7.5313 0.0000 8.2518
# 5 -12.3166 0.0399 -14.3449 0.0000 21.6114 0.0000
# 6 0.0000 0.0000 0.0000 8.2518 0.0000 20.0516
#
#
#
# Elastic Compliance Matrix: (Units=1/GPa)
#
#
# Indices 1 2 3 4 5 6 
#
# 1 0.009759 -0.006619 -0.002115 0.000000 0.004170 0.000000
# 2 -0.006619 0.031252 -0.004057 0.000000 -0.006522 0.000000
# 3 -0.002115 -0.004057 0.013095 0.000000 0.007495 0.000000
# 4 0.000000 0.000000 0.000000 0.241810 0.000000 -0.099511
# 5 0.004170 -0.006522 0.007495 0.000000 0.053635 0.000000
# 6 0.000000 0.000000 0.000000 -0.099511 0.000000 0.090823
#
#
# Mechanical properties :
#
#
# Convention : Reuss Voigt Hill
#
# Bulk Modulus (GPa) = 35.05508 50.24288 42.64898
# Shear Modulus (GPa) = 10.51606 22.27547 16.39577
#
# Velocity S-wave (km/s) = 2.37691 3.45939 2.96791
# Velocity P-wave (km/s) = 5.13478 6.55356 5.88707
#
# Compressibility (1/GPa) = 0.02852654
#
# Stress axis : x y z
#
# Youngs Moduli (GPa) = 102.46980 31.99806 76.36252
#
# Poissons Ratio (x) = 0.21179 0.16147
# Poissons Ratio (y) = 0.67823 0.30977
# Poissons Ratio (z) = 0.21668 0.12980
#
# Static dielectric constant tensor:
#      x y z
#    x 1.652980 0.000000 0.006830 
#    y 0.000000 1.650720 0.000000 
#    z 0.006830 0.000000 1.663640 
# 
# From -- ./inp_files/8557.got.cif
#   From: 2010.05.17/outbox.cif.g08.bks.cpg/sg5_5_cif.got.tgz:8557.got - 2010.06.03 18:56:24.
