data_PCOD9124376
_publ_section_title
;
Structure prediction by ZEFSAII (Michael W. Deem and Ramdas Pophale) SiO2 
 PCOD9124376
Probable space group: C 2
;
_chemical_formula_sum "Si O2"
_cell_formula_units_Z 24
_cell_length_a 5.156936
_cell_length_b 13.622449
_cell_length_c 14.382899
_cell_angle_alpha 90.000000
_cell_angle_beta 117.056257
_cell_angle_gamma 90.000000
_cell_volume 899.822215
_symmetry_space_group_name_H-M "C 2"
_symmetry_group_IT_number 5
_symmetry_cell_setting 'monoclinic'
loop_
_space_group_symop_operation_xyz
x,y,z
-x,y,-z
1/2+x,1/2+y,z
1/2-x,1/2+y,-z
loop_
_atom_site_type_symbol
_atom_site_label
_atom_site_fract_x
_atom_site_fract_y
_atom_site_fract_z
Si Si1 0.500000 0.451150 0.500000
Si Si2 0.802810 0.058900 0.224998
Si Si3 0.130923 0.139341 0.436863
Si Si4 0.254169 0.293293 0.318432
Si Si5 0.479099 0.709119 0.101136
Si Si6 0.232504 0.437996 0.787907
Si Si7 0.000000 0.869982 0.000000
O O1 0.721781 0.535106 0.497234
O O2 0.418947 0.381962 0.399396
O O3 0.809975 0.133279 0.140163
O O4 0.849015 0.116000 0.327689
O O5 0.517323 0.994744 0.194850
O O6 0.105329 0.998425 0.264243
O O7 0.316615 0.200494 0.394188
O O8 0.000000 0.203161 0.500000
O O9 0.245961 0.251417 0.209985
O O10 0.923825 0.338870 0.271294
O O11 0.500000 0.665751 0.000000
O O12 0.281208 0.802948 0.050920
O O13 0.495433 0.425979 0.903310
#
# Coordination Sequence:
#
# PCOD9124376 Si02
#       7
#     2   4   4   4   4   4   2
#     4  10  20  44  76 108 162 198 260 322 396 462
#     4  11  25  47  73 108 152 198 263 316 385 464
#     4   9  21  45  68 112 148 197 256 313 390 463
#     4  10  22  47  72 111 154 203 257 323 389 461
#     4  10  25  46  71 110 154 210 254 324 382 466
#     4  11  25  46  73 106 149 201 253 321 383 460
#     4  10  26  40  70 106 148 202 258 308 390 456
#
# _framework density 26.671935999999999
#
# number of rings (size 3 to 8) (size 9 to 14) (size 15 to 20)
#    0.500    1.333    1.667    0.000    8.167    1.333 
#   12.000    0.000    0.000    0.000    0.000    0.000 
#    0.000    0.000    0.000    0.000    0.000    0.000 
#
# Total GULP energy -66890.715198 kJ/mol
# GULP energy per Si atom -5574.226267 kJ/mol
# Density = 2.661123 g / cm^3
# Si number density = 26.671936 Si / 1000 Ang^3
#
#
#
# Elastic Constant Matrix: (Units=GPa)
#
#
# Indices 1 2 3 4 5 6 
#
# 1 102.8856 36.5891 41.2453 0.0000 -17.0791 0.0000
# 2 36.5891 127.4051 49.1570 0.0000 -16.7602 0.0000
# 3 41.2453 49.1570 189.1863 0.0000 -36.1990 0.0000
# 4 0.0000 0.0000 0.0000 7.2504 0.0000 -6.5610
# 5 -17.0791 -16.7602 -36.1990 0.0000 37.8811 0.0000
# 6 0.0000 0.0000 0.0000 -6.5610 0.0000 22.9760
#
#
#
# Elastic Compliance Matrix: (Units=1/GPa)
#
#
# Indices 1 2 3 4 5 6 
#
# 1 0.011602 -0.002435 -0.001349 0.000000 0.002865 0.000000
# 2 -0.002435 0.009369 -0.001616 0.000000 0.001503 0.000000
# 3 -0.001349 -0.001616 0.007032 0.000000 0.005397 0.000000
# 4 0.000000 0.000000 0.000000 0.185984 0.000000 0.053110
# 5 0.002865 0.001503 0.005397 0.000000 0.033513 0.000000
# 6 0.000000 0.000000 0.000000 0.053110 0.000000 0.058690
#
#
# Mechanical properties :
#
#
# Convention : Reuss Voigt Hill
#
# Bulk Modulus (GPa) = 58.12276 74.82885 66.47580
# Shear Modulus (GPa) = 15.49318 33.12054 24.30686
#
# Velocity S-wave (km/s) = 2.41276 3.52771 3.02209
# Velocity P-wave (km/s) = 5.44067 6.68649 6.09549
#
# Compressibility (1/GPa) = 0.01720497
#
# Stress axis : x y z
#
# Youngs Moduli (GPa) = 86.19551 106.72948 142.19933
#
# Poissons Ratio (x) = 0.25985 0.19176
# Poissons Ratio (y) = 0.20985 0.22980
# Poissons Ratio (z) = 0.11624 0.17248
#
# Static dielectric constant tensor:
#      x y z
#    x 2.230030 0.000000 -0.101080 
#    y 0.000000 2.157790 0.000000 
#    z -0.101080 0.000000 2.239260 
# 
# From -- ./inp_files/49044.got.cif
#   From: 2010.05.17/outbox.cif.g08.bks.cpg/sg5_25_cif.got.tgz:49044.got - 2010.06.03 18:56:24.
