data_PCOD9124009
_publ_section_title
;
Structure prediction by ZEFSAII (Michael W. Deem and Ramdas Pophale) SiO2 
 PCOD9124009
Probable space group: C 2
;
_chemical_formula_sum "Si O2"
_cell_formula_units_Z 30
_cell_length_a 15.672485
_cell_length_b 10.650757
_cell_length_c 9.550001
_cell_angle_alpha 90.000000
_cell_angle_beta 72.452917
_cell_angle_gamma 90.000000
_cell_volume 1519.947445
_symmetry_space_group_name_H-M "C 2"
_symmetry_group_IT_number 5
_symmetry_cell_setting 'monoclinic'
loop_
_space_group_symop_operation_xyz
x,y,z
-x,y,-z
1/2+x,1/2+y,z
1/2-x,1/2+y,-z
loop_
_atom_site_type_symbol
_atom_site_label
_atom_site_fract_x
_atom_site_fract_y
_atom_site_fract_z
Si Si1 0.271812 0.989470 0.981690
Si Si2 0.257050 0.547409 0.708627
Si Si3 0.000000 0.439412 0.500000
Si Si4 0.429587 0.186258 0.926860
Si Si5 0.838719 0.307883 0.714556
Si Si6 0.084878 0.650224 0.644653
Si Si7 0.597428 0.460397 0.919350
Si Si8 0.680688 0.394491 0.587774
O O1 0.309160 0.874938 0.871856
O O2 0.179783 0.028814 0.952039
O O3 0.344057 0.101099 0.943135
O O4 0.253534 0.957769 0.152574
O O5 0.321028 0.660399 0.725964
O O6 0.159462 0.604924 0.719914
O O7 0.295663 0.486109 0.549716
O O8 0.937273 0.353319 0.626628
O O9 0.937996 0.533386 0.441464
O O10 0.491926 0.196702 0.759223
O O11 0.500000 0.123437 0.000000
O O12 0.404274 0.319857 0.009324
O O13 0.771067 0.356814 0.626149
O O14 0.132830 0.769847 0.552028
O O15 0.618015 0.447113 0.744216
O O16 0.500000 0.514531 0.000000
#
# Coordination Sequence:
#
# PCOD9124009 Si02
#       8
#     4   4   2   4   4   4   4   4
#     4  11  21  37  66  94 127 169 220 264 326 384
#     4  11  23  42  63  96 139 172 214 271 338 388
#     4  12  22  40  64  96 130 174 224 270 316 404
#     4  11  18  37  67  93 122 163 219 271 313 381
#     4  10  23  41  63  93 133 174 211 271 334 381
#     4  11  21  37  67  98 127 167 224 275 318 386
#     4  10  21  40  65  90 127 168 215 273 332 379
#     4  10  20  41  64  94 126 170 213 273 327 385
#
# _framework density 19.737525000000002
#
# number of rings (size 3 to 8) (size 9 to 14) (size 15 to 20)
#    0.000    1.333    6.667    1.600    0.000    1.067 
#    4.800    0.000    0.000    3.200    0.000    0.000 
#    0.000    0.000    0.000    0.000    0.000    0.000 
#
# Total GULP energy -83718.631830 kJ/mol
# GULP energy per Si atom -5581.242122 kJ/mol
# Density = 1.969260 g / cm^3
# Si number density = 19.737525 Si / 1000 Ang^3
#
#
#
# Elastic Constant Matrix: (Units=GPa)
#
#
# Indices 1 2 3 4 5 6 
#
# 1 106.9092 35.8924 25.8378 0.0000 -15.9333 0.0000
# 2 35.8924 66.2293 53.3074 0.0000 -0.2321 0.0000
# 3 25.8378 53.3074 122.7556 0.0000 -16.7955 0.0000
# 4 0.0000 0.0000 0.0000 25.4804 0.0000 7.8946
# 5 -15.9333 -0.2321 -16.7955 0.0000 30.7630 0.0000
# 6 0.0000 0.0000 0.0000 7.8946 0.0000 29.7826
#
#
#
# Elastic Compliance Matrix: (Units=1/GPa)
#
#
# Indices 1 2 3 4 5 6 
#
# 1 0.012913 -0.008670 0.002111 0.000000 0.007775 0.000000
# 2 -0.008670 0.030017 -0.012746 0.000000 -0.011223 0.000000
# 3 0.002111 -0.012746 0.014453 0.000000 0.008888 0.000000
# 4 0.000000 0.000000 0.000000 0.042758 0.000000 -0.011334
# 5 0.007775 -0.011223 0.008888 0.000000 0.041301 0.000000
# 6 0.000000 0.000000 0.000000 -0.011334 0.000000 0.036581
#
#
# Mechanical properties :
#
#
# Convention : Reuss Voigt Hill
#
# Bulk Modulus (GPa) = 53.26643 58.44103 55.85373
# Shear Modulus (GPa) = 22.43248 29.26229 25.84738
#
# Velocity S-wave (km/s) = 3.37492 3.85459 3.62270
# Velocity P-wave (km/s) = 6.49867 7.03448 6.77188
#
# Compressibility (1/GPa) = 0.01877355
#
# Stress axis : x y z
#
# Youngs Moduli (GPa) = 77.44083 33.31411 69.18964
#
# Poissons Ratio (x) = 0.28883 -0.14604
# Poissons Ratio (y) = 0.67140 0.88188
# Poissons Ratio (z) = -0.16346 0.42462
#
# Static dielectric constant tensor:
#      x y z
#    x 1.714220 0.000000 -0.004370 
#    y 0.000000 1.681300 0.000000 
#    z -0.004370 0.000000 1.713550 
# 
# From -- ./inp_files/23842.got.cif
#   From: 2010.05.17/outbox.cif.g08.bks.cpg/sg5_12_cif.got.tgz:23842.got - 2010.06.03 18:56:24.
