data_PCOD9124954
_publ_section_title
;
Structure prediction by ZEFSAII (Michael W. Deem and Ramdas Pophale) SiO2 
 PCOD9124954
Probable space group: C 2
;
_chemical_formula_sum "Si O2"
_cell_formula_units_Z 24
_cell_length_a 15.326394
_cell_length_b 8.228295
_cell_length_c 8.666606
_cell_angle_alpha 90.000000
_cell_angle_beta 82.107001
_cell_angle_gamma 90.000000
_cell_volume 1082.592171
_symmetry_space_group_name_H-M "C 2"
_symmetry_group_IT_number 5
_symmetry_cell_setting 'monoclinic'
loop_
_space_group_symop_operation_xyz
x,y,z
-x,y,-z
1/2+x,1/2+y,z
1/2-x,1/2+y,-z
loop_
_atom_site_type_symbol
_atom_site_label
_atom_site_fract_x
_atom_site_fract_y
_atom_site_fract_z
Si Si1 0.174683 0.989440 0.540523
Si Si2 0.000000 0.552052 0.500000
Si Si3 0.146810 0.357883 0.645710
Si Si4 0.189409 0.783666 0.840550
Si Si5 0.583717 0.340947 0.288688
Si Si6 0.760484 0.435477 0.104940
Si Si7 0.500000 0.329678 0.000000
O O1 0.269918 0.959955 0.440723
O O2 0.172630 0.856286 0.676960
O O3 0.099664 0.953265 0.432776
O O4 0.161751 0.170634 0.602664
O O5 0.935453 0.438489 0.417487
O O6 0.952672 0.672567 0.634572
O O7 0.151606 0.376929 0.830218
O O8 0.247174 0.622780 0.844769
O O9 0.242272 0.916022 0.929171
O O10 0.092165 0.744415 0.933554
O O11 0.682337 0.326815 0.196724
O O12 0.526873 0.410265 0.158470
#
# Coordination Sequence:
#
# PCOD9124954 Si02
#       7
#     4   2   4   4   4   4   2
#     4  11  22  41  66  91 124 170 215 254 310 385
#     4  12  24  40  64  94 128 162 210 270 318 362
#     4  11  23  40  63  94 125 165 214 263 312 373
#     4  11  22  40  66  93 126 169 212 259 311 375
#     4  10  21  39  62  89 124 166 206 256 315 373
#     4  10  21  39  62  92 127 169 210 249 311 381
#     4  10  22  38  62  90 120 158 204 258 316 356
#
# _framework density 22.169013
#
# number of rings (size 3 to 8) (size 9 to 14) (size 15 to 20)
#    0.000    1.333    0.000    8.000    0.000    3.333 
#    0.000    0.000    0.000   11.000    0.000    0.000 
#    0.000    0.000    0.000    0.000    0.000    0.000 
#
# Total GULP energy -66920.463493 kJ/mol
# GULP energy per Si atom -5576.705291 kJ/mol
# Density = 2.211856 g / cm^3
# Si number density = 22.169013 Si / 1000 Ang^3
#
#
#
# Elastic Constant Matrix: (Units=GPa)
#
#
# Indices 1 2 3 4 5 6 
#
# 1 103.2439 18.6476 33.0323 0.0000 29.4962 0.0000
# 2 18.6476 107.6680 25.7000 0.0000 18.2420 0.0000
# 3 33.0323 25.7000 127.2325 0.0000 49.1506 0.0000
# 4 0.0000 0.0000 0.0000 24.2988 0.0000 7.2769
# 5 29.4962 18.2420 49.1506 0.0000 53.9769 0.0000
# 6 0.0000 0.0000 0.0000 7.2769 0.0000 30.3474
#
#
#
# Elastic Compliance Matrix: (Units=1/GPa)
#
#
# Indices 1 2 3 4 5 6 
#
# 1 0.011624 -0.000925 -0.000768 0.000000 -0.005340 0.000000
# 2 -0.000925 0.010024 -0.001035 0.000000 -0.001939 0.000000
# 3 -0.000768 -0.001035 0.012296 0.000000 -0.010427 0.000000
# 4 0.000000 0.000000 0.000000 0.044338 0.000000 -0.010632
# 5 -0.005340 -0.001939 -0.010427 0.000000 0.031595 0.000000
# 6 0.000000 0.000000 0.000000 -0.010632 0.000000 0.035501
#
#
# Mechanical properties :
#
#
# Convention : Reuss Voigt Hill
#
# Bulk Modulus (GPa) = 35.10386 54.76714 44.93550
# Shear Modulus (GPa) = 31.18542 39.10892 35.14717
#
# Velocity S-wave (km/s) = 3.75468 4.20471 3.98605
# Velocity P-wave (km/s) = 5.88778 6.95203 6.44192
#
# Compressibility (1/GPa) = 0.02848690
#
# Stress axis : x y z
#
# Youngs Moduli (GPa) = 86.02665 99.76307 81.32578
#
# Poissons Ratio (x) = 0.09230 0.06247
# Poissons Ratio (y) = 0.07959 0.08420
# Poissons Ratio (z) = 0.06608 0.10329
#
# Static dielectric constant tensor:
#      x y z
#    x 1.853430 0.000000 -0.002280 
#    y 0.000000 1.764200 0.000000 
#    z -0.002280 0.000000 1.947830 
# 
# From -- ./inp_files/22872.got.cif
#   From: 2010.05.17/outbox.cif.g08.bks.cpg/sg5_12_cif.got.tgz:22872.got - 2010.06.03 18:56:24.
