data_PCOD9124560
_publ_section_title
;
Structure prediction by ZEFSAII (Michael W. Deem and Ramdas Pophale) SiO2 
 PCOD9124560
Probable space group: C 2
;
_chemical_formula_sum "Si O2"
_cell_formula_units_Z 26
_cell_length_a 9.587489
_cell_length_b 10.690578
_cell_length_c 21.608290
_cell_angle_alpha 90.000000
_cell_angle_beta 33.928289
_cell_angle_gamma 90.000000
_cell_volume 1236.178444
_symmetry_space_group_name_H-M "C 2"
_symmetry_group_IT_number 5
_symmetry_cell_setting 'monoclinic'
loop_
_space_group_symop_operation_xyz
x,y,z
-x,y,-z
1/2+x,1/2+y,z
1/2-x,1/2+y,-z
loop_
_atom_site_type_symbol
_atom_site_label
_atom_site_fract_x
_atom_site_fract_y
_atom_site_fract_z
Si Si1 0.873654 0.093870 0.822137
Si Si2 0.500000 0.878981 0.000000
Si Si3 0.522084 0.795268 0.858896
Si Si4 0.581897 0.211142 0.677055
Si Si5 0.630732 0.960955 0.393298
Si Si6 0.794412 0.559837 0.250072
Si Si7 0.337941 0.492451 0.505290
O O1 0.768910 0.122930 0.792254
O O2 0.858475 0.206652 0.875810
O O3 0.160441 0.050741 0.710940
O O4 0.726002 0.971781 0.899718
O O5 0.561886 0.801785 0.038778
O O6 0.805916 0.743569 0.756178
O O7 0.546834 0.935562 0.823252
O O8 0.732730 0.338298 0.631699
O O9 0.573509 0.143839 0.746982
O O10 0.729079 0.119686 0.576232
O O11 0.500000 0.025585 0.500000
O O12 0.409221 0.924760 0.427925
O O13 0.531598 0.519927 0.378974
O O14 0.500000 0.428663 0.500000
#
# Coordination Sequence:
#
# PCOD9124560 Si02
#       7
#     4   2   4   4   4   4   4
#     4  11  23  43  70  94 125 172 215 270 331 383
#     4  10  24  46  64  94 126 166 224 278 328 378
#     4  11  23  45  68  92 126 168 217 278 330 378
#     4  11  22  39  66  94 135 178 211 256 319 384
#     4  12  20  39  67  95 133 175 211 258 328 384
#     4  10  22  39  60 100 133 163 215 263 312 392
#     4  10  21  36  60  99 134 174 214 250 311 389
#
# _framework density 21.032563
#
# number of rings (size 3 to 8) (size 9 to 14) (size 15 to 20)
#    0.000    1.231    6.154    1.385    0.000    4.923 
#    0.000    3.846    0.000    0.000    0.000    0.000 
#    0.000    0.000    0.000    0.000    0.000    0.000 
#
# Total GULP energy -72660.080558 kJ/mol
# GULP energy per Si atom -5589.236966 kJ/mol
# Density = 2.098469 g / cm^3
# Si number density = 21.032563 Si / 1000 Ang^3
#
#
#
# Elastic Constant Matrix: (Units=GPa)
#
#
# Indices 1 2 3 4 5 6 
#
# 1 96.5955 32.7133 8.1882 -0.0005 18.2315 0.0000
# 2 32.7133 49.8544 -0.1967 0.0007 24.3174 -0.0004
# 3 8.1882 -0.1967 61.0008 -0.0003 26.6520 0.0009
# 4 -0.0005 0.0007 -0.0003 16.5180 -0.0002 10.6903
# 5 18.2315 24.3174 26.6520 -0.0002 42.5525 -0.0002
# 6 0.0000 -0.0004 0.0009 10.6903 -0.0002 32.4313
#
#
#
# Elastic Compliance Matrix: (Units=1/GPa)
#
#
# Indices 1 2 3 4 5 6 
#
# 1 0.013532 -0.009366 -0.002275 0.000001 0.000979 0.000000
# 2 -0.009366 0.039177 0.012958 -0.000002 -0.026492 0.000001
# 3 -0.002275 0.012958 0.026916 0.000000 -0.023289 -0.000001
# 4 0.000001 -0.000002 0.000000 0.076958 0.000001 -0.025368
# 5 0.000979 -0.026492 -0.023289 0.000001 0.052807 0.000000
# 6 0.000000 0.000001 -0.000001 -0.025368 0.000000 0.039196
#
#
# Mechanical properties :
#
#
# Convention : Reuss Voigt Hill
#
# Bulk Modulus (GPa) = 12.15652 32.09560 22.12606
# Shear Modulus (GPa) = 18.29011 29.41673 23.85342
#
# Velocity S-wave (km/s) = 2.95211 3.74388 3.37132
# Velocity P-wave (km/s) = 4.17281 5.82940 5.06924
#
# Compressibility (1/GPa) = 0.08226037
#
# Stress axis : x y z
#
# Youngs Moduli (GPa) = 73.89644 25.52487 37.15328
#
# Poissons Ratio (x) = 0.23907 0.08451
# Poissons Ratio (y) = 0.69214 -0.48144
# Poissons Ratio (z) = 0.16808 -0.33076
#
# Static dielectric constant tensor:
#      x y z
#    x 1.778010 0.000000 0.011370 
#    y 0.000000 1.732670 0.000000 
#    z 0.011370 0.000000 1.769340 
# 
# From -- ./inp_files/64524.got.cif
#   From: 2010.05.17/outbox.cif.g08.bks.cpg/sg5_33_cif.got.tgz:64524.got - 2010.06.03 18:56:24.
