data_PCOD9124121
_publ_section_title
;
Structure prediction by ZEFSAII (Michael W. Deem and Ramdas Pophale) SiO2 
 PCOD9124121
Probable space group: C 2
;
_chemical_formula_sum "Si O2"
_cell_formula_units_Z 26
_cell_length_a 8.633468
_cell_length_b 17.620583
_cell_length_c 14.272317
_cell_angle_alpha 90.000000
_cell_angle_beta 36.880349
_cell_angle_gamma 90.000000
_cell_volume 1303.037448
_symmetry_space_group_name_H-M "C 2"
_symmetry_group_IT_number 5
_symmetry_cell_setting 'monoclinic'
loop_
_space_group_symop_operation_xyz
x,y,z
-x,y,-z
1/2+x,1/2+y,z
1/2-x,1/2+y,-z
loop_
_atom_site_type_symbol
_atom_site_label
_atom_site_fract_x
_atom_site_fract_y
_atom_site_fract_z
Si Si1 0.774507 0.506400 0.163149
Si Si2 0.500000 0.546756 0.000000
Si Si3 0.581108 0.717390 0.315107
Si Si4 0.500000 0.847738 0.500000
Si Si5 0.500000 0.296233 0.000000
Si Si6 0.573001 0.088524 0.742917
Si Si7 0.988387 0.919089 0.166135
Si Si8 0.237741 0.587245 0.450463
O O1 0.863756 0.513173 0.226462
O O2 0.724366 0.433913 0.122755
O O3 0.492632 0.542526 0.298036
O O4 0.000000 0.551949 0.000000
O O5 0.543303 0.491310 0.888800
O O6 0.761920 0.594586 0.890568
O O7 0.479738 0.788667 0.423690
O O8 0.761958 0.658569 0.290411
O O9 0.332979 0.673394 0.398790
O O10 0.757570 0.745534 0.145239
O O11 0.740903 0.898445 0.349935
O O12 0.457638 0.349638 0.930300
O O13 0.670175 0.074864 0.591360
O O14 0.000000 0.570493 0.500000
#
# Coordination Sequence:
#
# PCOD9124121 Si02
#       8
#     4   2   4   2   2   4   4   4
#     4  11  22  40  62  95 128 164 208 266 332 382
#     4  11  22  38  62 100 134 161 216 262 338 373
#     4  10  20  42  65  91 126 173 215 260 323 382
#     4  10  20  42  64  82 126 180 220 252 310 382
#     4   9  22  38  66  86 128 179 220 250 314 385
#     4  11  23  39  66  98 133 161 211 280 322 393
#     4  10  22  39  62  91 123 177 214 260 309 393
#     4  11  24  39  65  98 131 164 208 276 332 381
#
# _framework density 19.953379999999999
#
# number of rings (size 3 to 8) (size 9 to 14) (size 15 to 20)
#    0.000    1.538    3.077    2.308    7.538    0.000 
#    0.000    1.538    6.769    0.000    0.000    0.000 
#    0.000    0.000    0.000    0.000    0.000    0.000 
#
# Total GULP energy -72437.436832 kJ/mol
# GULP energy per Si atom -5572.110526 kJ/mol
# Density = 1.990797 g / cm^3
# Si number density = 19.953380 Si / 1000 Ang^3
#
#
#
# Elastic Constant Matrix: (Units=GPa)
#
#
# Indices 1 2 3 4 5 6 
#
# 1 110.0044 29.0228 68.4161 0.0000 -4.5731 -0.0007
# 2 29.0228 48.4195 33.5820 0.0000 2.4241 -0.0002
# 3 68.4161 33.5820 168.3625 0.0005 7.9931 -0.0018
# 4 0.0000 0.0000 0.0005 23.1862 -0.0003 -1.5232
# 5 -4.5731 2.4241 7.9931 -0.0003 41.6040 0.0013
# 6 -0.0007 -0.0002 -0.0018 -1.5232 0.0013 10.6643
#
#
#
# Elastic Compliance Matrix: (Units=1/GPa)
#
#
# Indices 1 2 3 4 5 6 
#
# 1 0.013345 -0.004971 -0.004556 0.000000 0.002632 0.000000
# 2 -0.004971 0.025830 -0.003063 0.000000 -0.001463 0.000000
# 3 -0.004556 -0.003063 0.008495 0.000000 -0.001954 0.000001
# 4 0.000000 0.000000 0.000000 0.043538 0.000000 0.006219
# 5 0.002632 -0.001463 -0.001954 0.000000 0.024786 -0.000003
# 6 0.000000 0.000000 0.000001 0.006219 -0.000003 0.094659
#
#
# Mechanical properties :
#
#
# Convention : Reuss Voigt Hill
#
# Bulk Modulus (GPa) = 44.46424 65.42535 54.94479
# Shear Modulus (GPa) = 20.54831 28.14193 24.34512
#
# Velocity S-wave (km/s) = 3.21256 3.75958 3.49678
# Velocity P-wave (km/s) = 6.00776 7.19070 6.62568
#
# Compressibility (1/GPa) = 0.02248998
#
# Stress axis : x y z
#
# Youngs Moduli (GPa) = 74.93295 38.71510 117.71875
#
# Poissons Ratio (x) = 0.19244 0.53638
# Poissons Ratio (y) = 0.37247 0.36054
# Poissons Ratio (z) = 0.34143 0.11857
#
# Static dielectric constant tensor:
#      x y z
#    x 1.722290 0.000000 0.002770 
#    y 0.000000 1.770780 0.000000 
#    z 0.002770 0.000000 1.759100 
# 
# From -- ./inp_files/51537.got.cif
#   From: 2010.05.17/outbox.cif.g08.bks.cpg/sg5_26_cif.got.tgz:51537.got - 2010.06.03 18:56:24.
