data_PCOD9124704
_publ_section_title
;
Structure prediction by ZEFSAII (Michael W. Deem and Ramdas Pophale) SiO2 
 PCOD9124704
Probable space group: C 2
;
_chemical_formula_sum "Si O2"
_cell_formula_units_Z 22
_cell_length_a 7.615454
_cell_length_b 18.854392
_cell_length_c 11.689225
_cell_angle_alpha 90.000000
_cell_angle_beta 35.535971
_cell_angle_gamma 90.000000
_cell_volume 975.506306
_symmetry_space_group_name_H-M "C 2"
_symmetry_group_IT_number 5
_symmetry_cell_setting 'monoclinic'
loop_
_space_group_symop_operation_xyz
x,y,z
-x,y,-z
1/2+x,1/2+y,z
1/2-x,1/2+y,-z
loop_
_atom_site_type_symbol
_atom_site_label
_atom_site_fract_x
_atom_site_fract_y
_atom_site_fract_z
Si Si1 0.819709 0.988720 0.805990
Si Si2 0.289466 0.949532 0.725859
Si Si3 0.233476 0.833821 0.230776
Si Si4 0.065133 0.303936 0.633451
Si Si5 0.375900 0.083739 0.439504
Si Si6 0.500000 0.688365 0.500000
O O1 0.777031 0.919621 0.748894
O O2 0.956366 0.957439 0.852191
O O3 0.500000 0.022633 0.000000
O O4 0.060787 0.042850 0.629548
O O5 0.500000 0.948511 0.500000
O O6 0.365609 0.875195 0.741597
O O7 0.396095 0.022812 0.727006
O O8 0.329095 0.793169 0.293980
O O9 0.880822 0.816368 0.395760
O O10 0.500000 0.820030 0.000000
O O11 0.909410 0.238732 0.654011
O O12 0.500000 0.107522 0.500000
O O13 0.281207 0.143179 0.399932
#
# Coordination Sequence:
#
# PCOD9124704 Si02
#       6
#     4   4   4   4   4   2
#     4   9  17  35  61  93 130 167 218 274 332 381
#     4   9  16  36  61  91 127 166 224 265 321 391
#     4  10  21  37  65  99 132 169 225 276 326 389
#     4  11  21  38  66  96 134 176 216 272 333 396
#     4   9  21  37  61  91 129 170 223 269 312 403
#     4  12  24  38  66  98 130 176 226 258 344 396
#
# _framework density 22.552392000000001
#
# number of rings (size 3 to 8) (size 9 to 14) (size 15 to 20)
#    0.000    2.545    4.545    0.000    5.091    0.000 
#    0.000   10.000    0.000    0.000    0.000    0.000 
#    0.000    0.000    0.000    0.000    0.000    0.000 
#
# Total GULP energy -61370.323300 kJ/mol
# GULP energy per Si atom -5579.120300 kJ/mol
# Density = 2.250106 g / cm^3
# Si number density = 22.552392 Si / 1000 Ang^3
#
#
#
# Elastic Constant Matrix: (Units=GPa)
#
#
# Indices 1 2 3 4 5 6 
#
# 1 118.0434 69.3175 24.7812 0.0000 -16.3447 0.0000
# 2 69.3175 102.6685 2.4169 0.0000 -1.3903 0.0000
# 3 24.7812 2.4169 89.9932 0.0000 -8.2154 0.0000
# 4 0.0000 0.0000 0.0000 4.9644 0.0000 -7.2736
# 5 -16.3447 -1.3903 -8.2154 0.0000 24.6648 0.0000
# 6 0.0000 0.0000 0.0000 -7.2736 0.0000 59.3203
#
#
#
# Elastic Compliance Matrix: (Units=1/GPa)
#
#
# Indices 1 2 3 4 5 6 
#
# 1 0.017276 -0.011450 -0.003572 0.000000 0.009613 0.000000
# 2 -0.011450 0.017340 0.002149 0.000000 -0.005894 0.000000
# 3 -0.003572 0.002149 0.012204 0.000000 0.001819 0.000000
# 4 0.000000 0.000000 0.000000 0.245546 0.000000 0.030108
# 5 0.009613 -0.005894 0.001819 0.000000 0.047187 0.000000
# 6 0.000000 0.000000 0.000000 0.030108 0.000000 0.020549
#
#
# Mechanical properties :
#
#
# Convention : Reuss Voigt Hill
#
# Bulk Modulus (GPa) = 47.45099 55.97072 51.71085
# Shear Modulus (GPa) = 12.72674 32.06920 22.39797
#
# Velocity S-wave (km/s) = 2.37812 3.77501 3.15485
# Velocity P-wave (km/s) = 5.35038 6.62367 6.02078
#
# Compressibility (1/GPa) = 0.02107438
#
# Stress axis : x y z
#
# Youngs Moduli (GPa) = 57.88386 57.66984 81.94083
#
# Poissons Ratio (x) = 0.66031 0.29271
# Poissons Ratio (y) = 0.66276 -0.17610
# Poissons Ratio (z) = 0.20677 -0.12394
#
# Static dielectric constant tensor:
#      x y z
#    x 1.911490 0.000000 0.020560 
#    y 0.000000 1.902040 0.000000 
#    z 0.020560 0.000000 1.858210 
# 
# From -- ./inp_files/51316.got.cif
#   From: 2010.05.17/outbox.cif.g08.bks.cpg/sg5_26_cif.got.tgz:51316.got - 2010.06.03 18:56:24.
