data_PCOD9124828
_publ_section_title
;
Structure prediction by ZEFSAII (Michael W. Deem and Ramdas Pophale) SiO2 
 PCOD9124828
Probable space group: C 2
;
_chemical_formula_sum "Si O2"
_cell_formula_units_Z 18
_cell_length_a 10.777113
_cell_length_b 11.426405
_cell_length_c 6.950654
_cell_angle_alpha 90.000000
_cell_angle_beta 116.350138
_cell_angle_gamma 90.000000
_cell_volume 766.996542
_symmetry_space_group_name_H-M "C 2"
_symmetry_group_IT_number 5
_symmetry_cell_setting 'monoclinic'
loop_
_space_group_symop_operation_xyz
x,y,z
-x,y,-z
1/2+x,1/2+y,z
1/2-x,1/2+y,-z
loop_
_atom_site_type_symbol
_atom_site_label
_atom_site_fract_x
_atom_site_fract_y
_atom_site_fract_z
Si Si1 0.000000 0.428601 0.500000
Si Si2 0.535334 0.524031 0.799261
Si Si3 0.339650 0.729190 0.606196
Si Si4 0.036870 0.757752 0.307394
Si Si5 0.802658 0.609306 0.136354
O O1 0.927468 0.344441 0.610522
O O2 0.878988 0.507166 0.315396
O O3 0.435737 0.617875 0.633017
O O4 0.496582 0.393736 0.719019
O O5 0.500000 0.530342 0.000000
O O6 0.697018 0.554129 0.910594
O O7 0.197851 0.735086 0.388181
O O8 0.284495 0.700671 0.786099
O O9 0.000000 0.719787 0.500000
O O10 0.922151 0.684117 0.117980
#
# Coordination Sequence:
#
# PCOD9124828 Si02
#       5
#     2   4   4   4   4
#     4  12  22  40  70  88 130 174 210 260 322 380
#     4  10  22  39  62  91 130 162 213 262 313 376
#     4  10  21  38  64  91 119 170 212 249 322 372
#     4  10  21  41  65  88 132 167 210 263 317 375
#     4  10  22  43  62  93 131 166 212 268 313 374
#
# _framework density 23.468163000000001
#
# number of rings (size 3 to 8) (size 9 to 14) (size 15 to 20)
#    0.000    1.778    3.333    2.667    4.667    0.000 
#    0.000    0.000    0.000    0.000    0.000    0.000 
#    0.000    0.000    0.000    0.000    0.000    0.000 
#
# Total GULP energy -50210.139014 kJ/mol
# GULP energy per Si atom -5578.904335 kJ/mol
# Density = 2.341475 g / cm^3
# Si number density = 23.468163 Si / 1000 Ang^3
#
#
#
# Elastic Constant Matrix: (Units=GPa)
#
#
# Indices 1 2 3 4 5 6 
#
# 1 112.6203 53.7310 49.4952 0.0000 12.7645 0.0000
# 2 53.7310 185.1509 68.8233 0.0000 43.6100 0.0000
# 3 49.4952 68.8233 106.6957 0.0000 47.3577 0.0000
# 4 0.0000 0.0000 0.0000 6.0309 0.0000 34.7326
# 5 12.7645 43.6100 47.3577 0.0000 55.3447 0.0000
# 6 0.0000 0.0000 0.0000 34.7326 0.0000 13.4983
#
#
#
# Elastic Compliance Matrix: (Units=1/GPa)
#
#
# Indices 1 2 3 4 5 6 
#
# 1 0.012125 -0.002260 -0.005992 0.000000 0.004111 0.000000
# 2 -0.002260 0.007786 -0.002390 0.000000 -0.003569 0.000000
# 3 -0.005992 -0.002390 0.019743 0.000000 -0.013629 0.000000
# 4 0.000000 0.000000 0.000000 -0.011999 0.000000 0.030875
# 5 0.004111 -0.003569 -0.013629 0.000000 0.031594 0.000000
# 6 0.000000 0.000000 0.000000 0.030875 0.000000 -0.005361
#
#
# Mechanical properties :
#
#
# Convention : Reuss Voigt Hill
#
# Bulk Modulus (GPa) = 54.43514 83.17398 68.80456
# Shear Modulus (GPa) = 61.50559 30.46928 45.98743
#
# Velocity S-wave (km/s) = 5.12494 3.60714 4.43150
# Velocity P-wave (km/s) = 7.63319 7.27095 7.45427
#
# Compressibility (1/GPa) = 0.01837049
#
# Stress axis : x y z
#
# Youngs Moduli (GPa) = 82.47507 128.44069 50.65182
#
# Poissons Ratio (x) = 0.29025 0.30350
# Poissons Ratio (y) = 0.18638 0.12105
# Poissons Ratio (z) = 0.49417 0.30694
#
# Static dielectric constant tensor:
#      x y z
#    x 1.957370 0.000000 -0.000860 
#    y 0.000000 1.861610 0.000000 
#    z -0.000860 0.000000 2.067890 
# 
# From -- ./inp_files/18621.got.cif
#   From: 2010.05.17/outbox.cif.g08.bks.cpg/sg5_10_cif.got.tgz:18621.got - 2010.06.03 18:56:24.
