data_PCOD9124616
_publ_section_title
;
Structure prediction by ZEFSAII (Michael W. Deem and Ramdas Pophale) SiO2 
 PCOD9124616
Probable space group: C 2
;
_chemical_formula_sum "Si O2"
_cell_formula_units_Z 30
_cell_length_a 18.549852
_cell_length_b 15.284399
_cell_length_c 13.045265
_cell_angle_alpha 90.000000
_cell_angle_beta 24.821453
_cell_angle_gamma 90.000000
_cell_volume 1552.658072
_symmetry_space_group_name_H-M "C 2"
_symmetry_group_IT_number 5
_symmetry_cell_setting 'monoclinic'
loop_
_space_group_symop_operation_xyz
x,y,z
-x,y,-z
1/2+x,1/2+y,z
1/2-x,1/2+y,-z
loop_
_atom_site_type_symbol
_atom_site_label
_atom_site_fract_x
_atom_site_fract_y
_atom_site_fract_z
Si Si1 0.559859 0.545950 0.808350
Si Si2 0.437927 0.708179 0.696021
Si Si3 0.135543 0.230195 0.648246
Si Si4 0.763239 0.882512 0.980917
Si Si5 0.205459 0.327833 0.831346
Si Si6 0.500000 0.194804 0.500000
Si Si7 0.845416 0.885728 0.447539
Si Si8 0.261119 0.070607 0.929054
O O1 0.661113 0.637682 0.671391
O O2 0.661395 0.468754 0.619276
O O3 0.500000 0.523404 0.000000
O O4 0.385645 0.564374 0.968878
O O5 0.500000 0.709086 0.500000
O O6 0.583466 0.713072 0.597240
O O7 0.324652 0.794643 0.864362
O O8 0.331207 0.620123 0.857975
O O9 0.290432 0.297769 0.459642
O O10 0.971411 0.277369 0.914971
O O11 0.748629 0.881820 0.877418
O O12 0.960128 0.883364 0.762497
O O13 0.679427 0.972463 0.127033
O O14 0.355130 0.254742 0.635040
O O15 0.224058 0.384968 0.705029
O O16 0.408923 0.133816 0.699806
#
# Coordination Sequence:
#
# PCOD9124616 Si02
#       8
#     4   4   4   4   4   2   4   4
#     4  10  21  38  55  83 118 150 199 238 298 353
#     4  10  21  41  58  83 122 153 191 246 301 353
#     4  10  22  39  59  86 114 162 197 240 299 345
#     4  10  21  37  57  90 114 153 199 239 301 346
#     4  11  19  38  62  86 120 151 201 245 289 350
#     4  12  18  38  62  90 114 150 200 246 278 354
#     4  11  21  35  61  85 116 157 198 247 291 344
#     4  10  22  36  59  90 113 154 197 240 295 344
#
# _framework density 19.321705999999999
#
# number of rings (size 3 to 8) (size 9 to 14) (size 15 to 20)
#    0.000    1.600    5.333    1.200    0.933    5.333 
#    2.400    0.000    0.000    6.400    0.000    0.000 
#    0.000    0.000    0.000    0.000    0.000    0.000 
#
# Total GULP energy -83721.429937 kJ/mol
# GULP energy per Si atom -5581.428662 kJ/mol
# Density = 1.927773 g / cm^3
# Si number density = 19.321706 Si / 1000 Ang^3
#
#
#
# Elastic Constant Matrix: (Units=GPa)
#
#
# Indices 1 2 3 4 5 6 
#
# 1 63.1880 28.6401 33.6488 0.0002 32.0282 -0.0003
# 2 28.6401 105.7535 24.7955 -0.0001 7.4260 -0.0001
# 3 33.6488 24.7955 60.8004 -0.0003 30.9356 -0.0001
# 4 0.0002 -0.0001 -0.0003 19.4675 0.0000 13.0355
# 5 32.0282 7.4260 30.9356 0.0000 29.1423 0.0003
# 6 -0.0003 -0.0001 -0.0001 13.0355 0.0003 18.8719
#
#
#
# Elastic Compliance Matrix: (Units=1/GPa)
#
#
# Indices 1 2 3 4 5 6 
#
# 1 0.042714 -0.009439 0.006244 -0.000002 -0.051167 0.000003
# 2 -0.009439 0.012766 -0.007840 0.000000 0.015443 -0.000001
# 3 0.006244 -0.007840 0.040584 0.000000 -0.047946 0.000001
# 4 -0.000002 0.000000 0.000000 0.095571 0.000003 -0.066014
# 5 -0.051167 0.015443 -0.047946 0.000003 0.137510 -0.000005
# 6 0.000003 -0.000001 0.000001 -0.066014 -0.000005 0.098587
#
#
# Mechanical properties :
#
#
# Convention : Reuss Voigt Hill
#
# Bulk Modulus (GPa) = 13.51440 44.87898 29.19669
# Shear Modulus (GPa) = 10.53817 23.00685 16.77251
#
# Velocity S-wave (km/s) = 2.33793 3.45443 2.94949
# Velocity P-wave (km/s) = 3.78120 6.26007 5.17136
#
# Compressibility (1/GPa) = 0.07399517
#
# Stress axis : x y z
#
# Youngs Moduli (GPa) = 23.41158 78.33335 24.64016
#
# Poissons Ratio (x) = 0.73938 -0.15386
# Poissons Ratio (y) = 0.22098 0.19318
# Poissons Ratio (z) = -0.14619 0.61412
#
# Static dielectric constant tensor:
#      x y z
#    x 1.708300 0.000000 -0.010980 
#    y 0.000000 1.681280 0.000000 
#    z -0.010980 0.000000 1.672160 
# 
# From -- ./inp_files/44882.got.cif
#   From: 2010.05.17/outbox.cif.g08.bks.cpg/sg5_23_cif.got.tgz:44882.got - 2010.06.03 18:56:24.
