data_PCOD9124195
_publ_section_title
;
Structure prediction by ZEFSAII (Michael W. Deem and Ramdas Pophale) SiO2 
 PCOD9124195
Probable space group: C 2
;
_chemical_formula_sum "Si O2"
_cell_formula_units_Z 28
_cell_length_a 16.548607
_cell_length_b 8.906910
_cell_length_c 11.181950
_cell_angle_alpha 90.000000
_cell_angle_beta 128.542231
_cell_angle_gamma 90.000000
_cell_volume 1289.126709
_symmetry_space_group_name_H-M "C 2"
_symmetry_group_IT_number 5
_symmetry_cell_setting 'monoclinic'
loop_
_space_group_symop_operation_xyz
x,y,z
-x,y,-z
1/2+x,1/2+y,z
1/2-x,1/2+y,-z
loop_
_atom_site_type_symbol
_atom_site_label
_atom_site_fract_x
_atom_site_fract_y
_atom_site_fract_z
Si Si1 0.685843 0.177510 0.339653
Si Si2 0.355739 0.438768 0.287780
Si Si3 0.524533 0.214774 0.740665
Si Si4 0.166750 0.272281 0.715093
Si Si5 0.000000 0.320393 0.000000
Si Si6 0.651407 0.958879 0.944576
Si Si7 0.000000 0.496462 0.500000
Si Si8 0.204310 0.316684 0.330884
O O1 0.570372 0.230780 0.259041
O O2 0.724614 0.248621 0.250938
O O3 0.762011 0.231960 0.517198
O O4 0.684593 0.995638 0.332966
O O5 0.447934 0.365834 0.301043
O O6 0.381675 0.607479 0.347413
O O7 0.307517 0.326489 0.342437
O O8 0.259311 0.458126 0.110241
O O9 0.624402 0.130062 0.885324
O O10 0.495354 0.096747 0.611924
O O11 0.160527 0.342155 0.842487
O O12 0.099478 0.392443 0.582935
O O13 0.101616 0.253365 0.166634
O O14 0.939264 0.409029 0.048346
#
# Coordination Sequence:
#
# PCOD9124195 Si02
#       8
#     4   4   4   4   2   4   2   4
#     4  11  22  39  63 101 127 170 213 278 316 389
#     4  10  22  39  62  94 130 168 209 279 322 383
#     4  11  21  39  65  94 126 170 219 263 326 386
#     4  10  23  39  61  93 130 164 214 267 328 379
#     4  10  20  42  68  90 118 180 218 254 312 404
#     4  10  21  41  67  90 124 173 222 257 325 403
#     4  10  22  38  62  88 124 174 210 256 322 390
#     4  10  22  40  66  95 130 167 224 261 325 378
#
# _framework density 21.720130000000001
#
# number of rings (size 3 to 8) (size 9 to 14) (size 15 to 20)
#    0.000    1.714    1.429    2.571    2.000    4.000 
#    0.000    0.000    0.000    0.857    0.000    0.000 
#    0.000    0.000    0.000    0.000    0.000    0.000 
#
# Total GULP energy -78103.357185 kJ/mol
# GULP energy per Si atom -5578.811227 kJ/mol
# Density = 2.167069 g / cm^3
# Si number density = 21.720130 Si / 1000 Ang^3
#
#
#
# Elastic Constant Matrix: (Units=GPa)
#
#
# Indices 1 2 3 4 5 6 
#
# 1 145.7513 46.1088 8.0906 0.0000 -4.3386 0.0000
# 2 46.1088 52.8199 10.7587 0.0000 3.3953 0.0000
# 3 8.0906 10.7587 71.5598 0.0000 -0.5768 0.0000
# 4 0.0000 0.0000 0.0000 90.9576 0.0000 -6.1982
# 5 -4.3386 3.3953 -0.5768 0.0000 28.6595 0.0000
# 6 0.0000 0.0000 0.0000 -6.1982 0.0000 22.0877
#
#
#
# Elastic Compliance Matrix: (Units=1/GPa)
#
#
# Indices 1 2 3 4 5 6 
#
# 1 0.009654 -0.008633 0.000227 0.000000 0.002489 0.000000
# 2 -0.008633 0.027414 -0.003183 0.000000 -0.004619 0.000000
# 3 0.000227 -0.003183 0.014433 0.000000 0.000702 0.000000
# 4 0.000000 0.000000 0.000000 0.011208 0.000000 0.003145
# 5 0.002489 -0.004619 0.000702 0.000000 0.035831 0.000000
# 6 0.000000 0.000000 0.000000 0.003145 0.000000 0.046157
#
#
# Mechanical properties :
#
#
# Convention : Reuss Voigt Hill
#
# Bulk Modulus (GPa) = 35.30874 44.44967 39.87921
# Shear Modulus (GPa) = 28.19840 42.01916 35.10878
#
# Velocity S-wave (km/s) = 3.60705 4.40315 4.02483
# Velocity P-wave (km/s) = 5.79994 6.80878 6.32450
#
# Compressibility (1/GPa) = 0.02832160
#
# Stress axis : x y z
#
# Youngs Moduli (GPa) = 103.58787 36.47812 69.28628
#
# Poissons Ratio (x) = 0.31492 -0.01570
# Poissons Ratio (y) = 0.89429 0.22052
# Poissons Ratio (z) = -0.02347 0.11610
#
# Static dielectric constant tensor:
#      x y z
#    x 1.735470 0.000000 0.067760 
#    y 0.000000 1.785960 0.000000 
#    z 0.067760 0.000000 1.787560 
# 
# From -- ./inp_files/41915.got.cif
#   From: 2010.05.17/outbox.cif.g08.bks.cpg/sg5_21_cif.got.tgz:41915.got - 2010.06.03 18:56:24.
