data_PCOD9124468
_publ_section_title
;
Structure prediction by ZEFSAII (Michael W. Deem and Ramdas Pophale) SiO2 
 PCOD9124468
Probable space group: C 2
;
_chemical_formula_sum "Si O2"
_cell_formula_units_Z 24
_cell_length_a 10.636551
_cell_length_b 8.452091
_cell_length_c 20.009649
_cell_angle_alpha 90.000000
_cell_angle_beta 30.505798
_cell_angle_gamma 90.000000
_cell_volume 913.162223
_symmetry_space_group_name_H-M "C 2"
_symmetry_group_IT_number 5
_symmetry_cell_setting 'monoclinic'
loop_
_space_group_symop_operation_xyz
x,y,z
-x,y,-z
1/2+x,1/2+y,z
1/2-x,1/2+y,-z
loop_
_atom_site_type_symbol
_atom_site_label
_atom_site_fract_x
_atom_site_fract_y
_atom_site_fract_z
Si Si1 0.024436 0.166520 0.341492
Si Si2 0.854778 0.912091 0.996503
Si Si3 0.495896 0.006004 0.421962
Si Si4 0.727683 0.082942 0.651432
Si Si5 0.907703 0.245219 0.257884
Si Si6 0.269572 0.261675 0.902962
O O1 0.046108 0.148509 0.252611
O O2 0.032604 0.345660 0.364982
O O3 0.237721 0.081838 0.284217
O O4 0.764205 0.084520 0.478250
O O5 0.601477 0.818110 0.120151
O O6 0.812142 0.096851 0.025237
O O7 0.911665 0.869604 0.893143
O O8 0.000000 0.869020 0.000000
O O9 0.500000 0.977736 0.500000
O O10 0.701043 0.140441 0.318620
O O11 0.487541 0.196556 0.751174
O O12 0.000000 0.132425 0.500000
O O13 0.695924 0.896500 0.652528
O O14 0.000000 0.326092 0.000000
#
# Coordination Sequence:
#
# PCOD9124468 Si02
#       6
#     4   4   4   4   4   4
#     4  11  21  37  59  86 125 164 204 259 319 378
#     4  10  22  42  65  91 125 168 218 269 322 383
#     4  10  21  35  55  87 124 165 208 254 317 385
#     4  11  22  40  64  92 127 166 210 264 322 379
#     4  10  22  38  59  88 124 165 210 261 317 380
#     4  10  24  44  66  94 129 172 219 267 323 387
#
# _framework density 26.282297
#
# number of rings (size 3 to 8) (size 9 to 14) (size 15 to 20)
#    0.000    1.667    0.000    5.000    0.000    7.333 
#    0.000    6.667    0.000    0.000    0.000    0.000 
#    0.000    0.000    0.000    0.000    0.000    0.000 
#
# Total GULP energy -67024.388216 kJ/mol
# GULP energy per Si atom -5585.365685 kJ/mol
# Density = 2.622248 g / cm^3
# Si number density = 26.282297 Si / 1000 Ang^3
#
#
#
# Elastic Constant Matrix: (Units=GPa)
#
#
# Indices 1 2 3 4 5 6 
#
# 1 159.8130 29.0219 22.4771 0.0000 -21.7840 0.0000
# 2 29.0219 57.9867 26.0341 0.0000 -8.3226 0.0000
# 3 22.4771 26.0341 109.5786 -0.0022 -20.6792 -0.0002
# 4 0.0000 0.0000 -0.0022 34.1078 0.0000 -1.9976
# 5 -21.7840 -8.3226 -20.6792 0.0000 29.8401 0.0001
# 6 0.0000 0.0000 -0.0002 -1.9976 0.0001 39.2031
#
#
#
# Elastic Compliance Matrix: (Units=1/GPa)
#
#
# Indices 1 2 3 4 5 6 
#
# 1 0.007438 -0.003096 0.000082 0.000000 0.004624 0.000000
# 2 -0.003096 0.020762 -0.004178 0.000000 0.000635 0.000000
# 3 0.000082 -0.004178 0.011381 0.000001 0.006782 0.000000
# 4 0.000000 0.000000 0.000001 0.029407 0.000000 0.001498
# 5 0.004624 0.000635 0.006782 0.000000 0.041765 0.000000
# 6 0.000000 0.000000 0.000000 0.001498 0.000000 0.025585
#
#
# Mechanical properties :
#
#
# Convention : Reuss Voigt Hill
#
# Bulk Modulus (GPa) = 39.68484 53.60493 46.64489
# Shear Modulus (GPa) = 31.42291 37.28655 34.35473
#
# Velocity S-wave (km/s) = 3.46148 3.77064 3.61937
# Velocity P-wave (km/s) = 5.57746 6.27671 5.93739
#
# Compressibility (1/GPa) = 0.02519854
#
# Stress axis : x y z
#
# Youngs Moduli (GPa) = 134.44058 48.16558 87.86225
#
# Poissons Ratio (x) = 0.14913 -0.00724
# Poissons Ratio (y) = 0.41625 0.36706
# Poissons Ratio (z) = -0.01108 0.20122
#
# Static dielectric constant tensor:
#      x y z
#    x 2.164880 0.000000 0.092530 
#    y 0.000000 2.041490 0.000000 
#    z 0.092530 0.000000 2.144630 
# 
# From -- ./inp_files/47227.got.cif
#   From: 2010.05.17/outbox.cif.g08.bks.cpg/sg5_24_cif.got.tgz:47227.got - 2010.06.03 18:56:24.
