data_PCOD9124184
_publ_section_title
;
Structure prediction by ZEFSAII (Michael W. Deem and Ramdas Pophale) SiO2 
 PCOD9124184
Probable space group: C 2
;
_chemical_formula_sum "Si O2"
_cell_formula_units_Z 18
_cell_length_a 16.972594
_cell_length_b 5.807381
_cell_length_c 11.539535
_cell_angle_alpha 90.000000
_cell_angle_beta 33.968916
_cell_angle_gamma 90.000000
_cell_volume 635.519656
_symmetry_space_group_name_H-M "C 2"
_symmetry_group_IT_number 5
_symmetry_cell_setting 'monoclinic'
loop_
_space_group_symop_operation_xyz
x,y,z
-x,y,-z
1/2+x,1/2+y,z
1/2-x,1/2+y,-z
loop_
_atom_site_type_symbol
_atom_site_label
_atom_site_fract_x
_atom_site_fract_y
_atom_site_fract_z
Si Si1 0.064238 0.396030 0.310129
Si Si2 0.000000 0.901126 0.000000
Si Si3 0.842028 0.340955 0.174027
Si Si4 0.320320 0.372102 0.838697
Si Si5 0.413104 0.262774 0.356853
O O1 0.128002 0.633220 0.284311
O O2 0.000000 0.269715 0.500000
O O3 0.955901 0.504664 0.348608
O O4 0.199844 0.294331 0.078014
O O5 0.070869 0.798144 0.798322
O O6 0.119345 0.076619 0.903229
O O7 0.766170 0.477509 0.163013
O O8 0.737438 0.334533 0.409853
O O9 0.000000 0.432100 0.000000
O O10 0.466602 0.423818 0.727215
#
# Coordination Sequence:
#
# PCOD9124184 Si02
#       5
#     4   2   4   4   4
#     4  10  21  39  69  90 133 164 223 268 319 382
#     4  10  24  42  64  96 138 170 214 268 334 382
#     4  10  22  42  65  92 133 170 214 270 329 378
#     4  10  20  42  67  95 124 180 213 269 329 387
#     4  10  21  41  69  89 132 176 214 267 320 392
#
# _framework density 28.32328
#
# number of rings (size 3 to 8) (size 9 to 14) (size 15 to 20)
#    2.000    0.000    2.222    2.000    0.000    1.778 
#    6.000    5.556    0.000    0.000    0.000    0.000 
#    0.000    0.000    0.000    0.000    0.000    0.000 
#
# Total GULP energy -50211.171914 kJ/mol
# GULP energy per Si atom -5579.019102 kJ/mol
# Density = 2.825881 g / cm^3
# Si number density = 28.323280 Si / 1000 Ang^3
#
#
#
# Elastic Constant Matrix: (Units=GPa)
#
#
# Indices 1 2 3 4 5 6 
#
# 1 167.3173 32.1633 104.6184 0.0004 5.0745 0.0000
# 2 32.1633 20.0744 48.4514 -0.0130 9.5915 0.0078
# 3 104.6184 48.4514 319.1570 -0.0060 17.9674 0.0027
# 4 0.0004 -0.0130 -0.0060 47.6748 0.0030 0.2158
# 5 5.0745 9.5915 17.9674 0.0030 66.9981 0.0002
# 6 0.0000 0.0078 0.0027 0.2158 0.0002 23.0522
#
#
#
# Elastic Compliance Matrix: (Units=1/GPa)
#
#
# Indices 1 2 3 4 5 6 
#
# 1 0.009033 -0.012315 -0.001170 -0.000004 0.001393 0.000004
# 2 -0.012315 0.100086 -0.010563 0.000027 -0.010563 -0.000033
# 3 -0.001170 -0.010563 0.005107 -0.000002 0.000231 0.000003
# 4 -0.000004 0.000027 -0.000002 0.020976 -0.000004 -0.000196
# 5 0.001393 -0.010563 0.000231 -0.000004 0.016271 0.000003
# 6 0.000004 -0.000033 0.000003 -0.000196 0.000003 0.043382
#
#
# Mechanical properties :
#
#
# Convention : Reuss Voigt Hill
#
# Bulk Modulus (GPa) = 15.12125 97.44610 56.28367
# Shear Modulus (GPa) = 18.86834 48.96605 33.91720
#
# Velocity S-wave (km/s) = 2.58384 4.16243 3.46425
# Velocity P-wave (km/s) = 3.77519 7.58820 5.99303
#
# Compressibility (1/GPa) = 0.06613211
#
# Stress axis : x y z
#
# Youngs Moduli (GPa) = 110.70279 9.99138 195.79812
#
# Poissons Ratio (x) = 0.12304 0.22908
# Poissons Ratio (y) = 1.36325 2.06818
# Poissons Ratio (z) = 0.12952 0.10554
#
# Static dielectric constant tensor:
#      x y z
#    x 2.140820 -0.000010 -0.081020 
#    y -0.000010 2.728690 0.000000 
#    z -0.081020 0.000000 2.128330 
# 
# From -- ./inp_files/44054.got.cif
#   From: 2010.05.17/outbox.cif.g08.bks.cpg/sg5_23_cif.got.tgz:44054.got - 2010.06.03 18:56:24.
