data_PCOD9124973
_publ_section_title
;
Structure prediction by ZEFSAII (Michael W. Deem and Ramdas Pophale) SiO2 
 PCOD9124973
Probable space group: C 2
;
_chemical_formula_sum "Si O2"
_cell_formula_units_Z 30
_cell_length_a 21.586718
_cell_length_b 9.292149
_cell_length_c 15.971731
_cell_angle_alpha 90.000000
_cell_angle_beta 31.153873
_cell_angle_gamma 90.000000
_cell_volume 1657.407618
_symmetry_space_group_name_H-M "C 2"
_symmetry_group_IT_number 5
_symmetry_cell_setting 'monoclinic'
loop_
_space_group_symop_operation_xyz
x,y,z
-x,y,-z
1/2+x,1/2+y,z
1/2-x,1/2+y,-z
loop_
_atom_site_type_symbol
_atom_site_label
_atom_site_fract_x
_atom_site_fract_y
_atom_site_fract_z
Si Si1 0.839069 0.737510 0.261702
Si Si2 0.713023 0.445681 0.368459
Si Si3 0.463438 0.615710 0.867642
Si Si4 0.834678 0.340652 0.396564
Si Si5 0.500000 0.458252 0.000000
Si Si6 0.985834 0.595262 0.815434
Si Si7 0.545325 0.373932 0.261757
Si Si8 0.281120 0.875624 0.101547
O O1 0.753160 0.613023 0.326232
O O2 0.771856 0.816402 0.415670
O O3 0.885070 0.854976 0.143729
O O4 0.955881 0.663583 0.168283
O O5 0.784338 0.370497 0.362252
O O6 0.574036 0.418098 0.549336
O O7 0.751539 0.386352 0.234025
O O8 0.582184 0.700502 0.701375
O O9 0.438024 0.489547 0.831703
O O10 0.486384 0.551537 0.932678
O O11 0.358091 0.732735 0.994190
O O12 0.916590 0.476699 0.326179
O O13 0.969835 0.719353 0.765583
O O14 0.865313 0.509792 0.977330
O O15 0.659700 0.374896 0.189323
#
# Coordination Sequence:
#
# PCOD9124973 Si02
#       8
#     4   4   4   4   2   4   4   4
#     4  11  21  38  62  95 122 150 192 259 307 356
#     4  11  22  38  65  90 121 157 201 247 305 351
#     4  11  23  40  61  93 117 160 198 252 300 352
#     4  10  21  39  63  90 123 150 196 253 310 357
#     4  12  22  34  64  92 126 142 202 258 306 340
#     4  10  22  39  63  89 119 161 197 241 304 353
#     4  12  22  42  63  85 124 167 202 236 294 366
#     4  11  25  41  60  89 125 161 205 243 285 359
#
# _framework density 18.100556000000001
#
# number of rings (size 3 to 8) (size 9 to 14) (size 15 to 20)
#    0.000    1.067    4.000    2.800    1.867    4.800 
#    0.000    0.000    0.000    0.000    0.000    0.000 
#    0.000    0.000    0.000    0.000    0.000    0.000 
#
# Total GULP energy -83846.568944 kJ/mol
# GULP energy per Si atom -5589.771263 kJ/mol
# Density = 1.805936 g / cm^3
# Si number density = 18.100556 Si / 1000 Ang^3
#
#
#
# Elastic Constant Matrix: (Units=GPa)
#
#
# Indices 1 2 3 4 5 6 
#
# 1 62.4572 40.2547 65.5202 0.0000 -7.5778 0.0000
# 2 40.2547 102.9945 57.4050 0.0000 -0.7346 0.0000
# 3 65.5202 57.4050 113.9252 0.0000 -6.5061 0.0000
# 4 0.0000 0.0000 0.0000 15.3938 0.0000 -1.8751
# 5 -7.5778 -0.7346 -6.5061 0.0000 32.6094 0.0000
# 6 0.0000 0.0000 0.0000 -1.8751 0.0000 12.5020
#
#
#
# Elastic Compliance Matrix: (Units=1/GPa)
#
#
# Indices 1 2 3 4 5 6 
#
# 1 0.042465 -0.004336 -0.021929 0.000000 0.005395 0.000000
# 2 -0.004336 0.013980 -0.004643 0.000000 -0.001619 0.000000
# 3 -0.021929 -0.004643 0.023702 0.000000 -0.000472 0.000000
# 4 0.000000 0.000000 0.000000 0.066170 0.000000 0.009924
# 5 0.005395 -0.001619 -0.000472 0.000000 0.031789 0.000000
# 6 0.000000 0.000000 0.000000 0.009924 0.000000 0.081476
#
#
# Mechanical properties :
#
#
# Convention : Reuss Voigt Hill
#
# Bulk Modulus (GPa) = 54.55403 67.30407 60.92905
# Shear Modulus (GPa) = 15.26673 19.84751 17.55712
#
# Velocity S-wave (km/s) = 2.90735 3.31496 3.11782
# Velocity P-wave (km/s) = 6.44012 7.20528 6.83342
#
# Compressibility (1/GPa) = 0.01833045
#
# Stress axis : x y z
#
# Youngs Moduli (GPa) = 23.54878 71.52889 42.19014
#
# Poissons Ratio (x) = 0.31016 0.92520
# Poissons Ratio (y) = 0.10211 0.19589
# Poissons Ratio (z) = 0.51641 0.33212
#
# Static dielectric constant tensor:
#      x y z
#    x 1.578800 0.000000 -0.008770 
#    y 0.000000 1.626850 0.000000 
#    z -0.008770 0.000000 1.606370 
# 
# From -- ./inp_files/41931.got.cif
#   From: 2010.05.17/outbox.cif.g08.bks.cpg/sg5_21_cif.got.tgz:41931.got - 2010.06.03 18:56:24.
