data_PCOD9124500
_publ_section_title
;
Structure prediction by ZEFSAII (Michael W. Deem and Ramdas Pophale) SiO2 
 PCOD9124500
Probable space group: C 2
;
_chemical_formula_sum "Si O2"
_cell_formula_units_Z 20
_cell_length_a 7.016511
_cell_length_b 24.503892
_cell_length_c 8.019595
_cell_angle_alpha 90.000000
_cell_angle_beta 140.803123
_cell_angle_gamma 90.000000
_cell_volume 871.398693
_symmetry_space_group_name_H-M "C 2"
_symmetry_group_IT_number 5
_symmetry_cell_setting 'monoclinic'
loop_
_space_group_symop_operation_xyz
x,y,z
-x,y,-z
1/2+x,1/2+y,z
1/2-x,1/2+y,-z
loop_
_atom_site_type_symbol
_atom_site_label
_atom_site_fract_x
_atom_site_fract_y
_atom_site_fract_z
Si Si1 0.858528 0.952550 0.220056
Si Si2 0.216156 0.119714 0.481690
Si Si3 0.641396 0.332486 0.778259
Si Si4 0.782252 0.561967 0.016128
Si Si5 0.355566 0.226476 0.729976
O O1 0.960431 0.892742 0.228695
O O2 0.000000 0.963864 0.500000
O O3 0.500000 0.946751 0.000000
O O4 0.884859 0.003868 0.115088
O O5 0.479246 0.075146 0.679084
O O6 0.368305 0.178844 0.600216
O O7 0.000000 0.117155 0.500000
O O8 0.979190 0.106779 0.177757
O O9 0.500000 0.326848 0.500000
O O10 0.530427 0.281632 0.808933
O O11 0.000000 0.330306 0.000000
O O12 0.000000 0.564091 0.000000
O O13 0.000000 0.239358 0.500000
O O14 0.500000 0.204321 0.000000
#
# Coordination Sequence:
#
# PCOD9124500 Si02
#       5
#     4   4   4   4   4
#     4   9  16  26  43  66  93 121 155 198 244 287
#     4   9  16  25  41  67  97 122 152 197 247 289
#     4  10  21  36  52  74 102 134 169 206 246 294
#     4   9  14  23  40  65  95 122 148 195 253 289
#     4  11  21  34  52  76 103 133 168 206 246 295
#
# _framework density 22.951606000000002
#
# number of rings (size 3 to 8) (size 9 to 14) (size 15 to 20)
#    0.000    2.400    0.000    7.200    0.000    0.000 
#    0.000    0.000    0.000    0.000    0.000    8.400 
#    0.000    0.000    0.000    0.000    0.000    0.000 
#
# Total GULP energy -55810.906500 kJ/mol
# GULP energy per Si atom -5581.090650 kJ/mol
# Density = 2.289937 g / cm^3
# Si number density = 22.951606 Si / 1000 Ang^3
#
#
#
# Elastic Constant Matrix: (Units=GPa)
#
#
# Indices 1 2 3 4 5 6 
#
# 1 54.6772 18.7983 27.2119 0.0000 0.0095 0.0000
# 2 18.7983 175.5638 43.2172 0.0000 5.5617 0.0000
# 3 27.2119 43.2172 159.7948 0.0000 17.1012 0.0000
# 4 0.0000 0.0000 0.0000 32.4838 0.0000 17.1678
# 5 0.0095 5.5617 17.1012 0.0000 20.1079 0.0000
# 6 0.0000 0.0000 0.0000 17.1678 0.0000 6.7374
#
#
#
# Elastic Compliance Matrix: (Units=1/GPa)
#
#
# Indices 1 2 3 4 5 6 
#
# 1 0.020508 -0.001450 -0.003456 0.000000 0.003331 0.000000
# 2 -0.001450 0.006207 -0.001373 0.000000 -0.000548 0.000000
# 3 -0.003456 -0.001373 0.007896 0.000000 -0.006334 0.000000
# 4 0.000000 0.000000 0.000000 -0.088793 0.000000 0.226257
# 5 0.003331 -0.000548 -0.006334 0.000000 0.055269 0.000000
# 6 0.000000 0.000000 0.000000 0.226257 0.000000 -0.428108
#
#
# Mechanical properties :
#
#
# Convention : Reuss Voigt Hill
#
# Bulk Modulus (GPa) = 45.35125 63.16565 54.25845
# Shear Modulus (GPa) = -12.28161 31.91970 9.81905
#
# Velocity S-wave (km/s) = -2.31575 3.73331 2.07061
# Velocity P-wave (km/s) = 3.55698 6.79444 5.42294
#
# Compressibility (1/GPa) = 0.02205011
#
# Stress axis : x y z
#
# Youngs Moduli (GPa) = 48.76263 161.11949 126.64980
#
# Poissons Ratio (x) = 0.23370 0.43776
# Poissons Ratio (y) = 0.07073 0.17388
# Poissons Ratio (z) = 0.16855 0.22120
#
# Static dielectric constant tensor:
#      x y z
#    x 1.914310 0.000000 -0.022480 
#    y 0.000000 1.951350 0.000000 
#    z -0.022480 0.000000 1.804620 
# 
# From -- ./inp_files/3172.got.cif
#   From: 2010.05.17/outbox.cif.g08.bks.cpg/sg5_2_cif.got.tgz:3172.got - 2010.06.03 18:56:24.
