data_PCOD9124925
_publ_section_title
;
Structure prediction by ZEFSAII (Michael W. Deem and Ramdas Pophale) SiO2 
 PCOD9124925
Probable space group: C 2
;
_chemical_formula_sum "Si O2"
_cell_formula_units_Z 28
_cell_length_a 12.928746
_cell_length_b 8.684250
_cell_length_c 11.235289
_cell_angle_alpha 90.000000
_cell_angle_beta 89.524171
_cell_angle_gamma 90.000000
_cell_volume 1261.415003
_symmetry_space_group_name_H-M "C 2"
_symmetry_group_IT_number 5
_symmetry_cell_setting 'monoclinic'
loop_
_space_group_symop_operation_xyz
x,y,z
-x,y,-z
1/2+x,1/2+y,z
1/2-x,1/2+y,-z
loop_
_atom_site_type_symbol
_atom_site_label
_atom_site_fract_x
_atom_site_fract_y
_atom_site_fract_z
Si Si1 0.500000 0.856640 0.000000
Si Si2 0.716166 0.981561 0.347279
Si Si3 0.268428 0.636000 0.729116
Si Si4 0.824450 0.104915 0.001249
Si Si5 0.393872 0.113161 0.857876
Si Si6 0.613711 0.116593 0.548414
Si Si7 0.500000 0.366707 0.000000
Si Si8 0.877600 0.968874 0.506778
O O1 0.601242 0.751939 0.976627
O O2 0.535410 0.968721 0.105644
O O3 0.646126 0.098737 0.274762
O O4 0.667807 0.976728 0.478973
O O5 0.829853 0.037207 0.383890
O O6 0.715202 0.820001 0.280515
O O7 0.298891 0.588200 0.861055
O O8 0.150278 0.607555 0.684912
O O9 0.336351 0.551540 0.626437
O O10 0.714232 0.110997 0.066971
O O11 0.900500 0.966449 0.038201
O O12 0.459661 0.260674 0.893478
O O13 0.500000 0.108808 0.500000
O O14 0.650696 0.286799 0.505506
O O15 0.000000 0.980627 0.500000
#
# Coordination Sequence:
#
# PCOD9124925 Si02
#       8
#     2   4   4   4   4   4   2   4
#     4  10  22  42  60  86 128 160 216 256 306 378
#     4  10  21  39  61  87 127 159 201 259 309 373
#     4  10  21  39  61  87 127 159 201 259 309 373
#     4  11  23  43  63  93 129 167 209 265 315 375
#     4  11  23  43  63  93 129 167 209 265 315 375
#     4   9  20  39  62  92 120 159 204 252 310 372
#     4  10  26  38  64  94 120 172 220 248 318 382
#     4   9  20  39  62  92 120 159 204 252 310 372
#
# _framework density 22.197292999999998
#
# number of rings (size 3 to 8) (size 9 to 14) (size 15 to 20)
#    0.000    2.000    1.429    0.857    2.000    5.143 
#    5.143    0.000    0.000    0.000    0.000    0.000 
#    0.000    0.000    0.000    0.000    0.000    0.000 
#
# Total GULP energy -78062.830133 kJ/mol
# GULP energy per Si atom -5575.916438 kJ/mol
# Density = 2.214677 g / cm^3
# Si number density = 22.197293 Si / 1000 Ang^3
#
#
#
# Elastic Constant Matrix: (Units=GPa)
#
#
# Indices 1 2 3 4 5 6 
#
# 1 102.4288 38.1585 60.2865 0.0000 36.6095 0.0000
# 2 38.1585 54.5978 26.3752 0.0000 17.9250 0.0000
# 3 60.2865 26.3752 112.9864 0.0000 29.5861 0.0000
# 4 0.0000 0.0000 0.0000 -149.2235 0.0000 -36.9366
# 5 36.6095 17.9250 29.5861 0.0000 43.3499 0.0000
# 6 0.0000 0.0000 0.0000 -36.9366 0.0000 6.8162
#
#
#
# Elastic Compliance Matrix: (Units=1/GPa)
#
#
# Indices 1 2 3 4 5 6 
#
# 1 0.019542 -0.007656 -0.006267 0.000000 -0.009060 0.000000
# 2 -0.007656 0.025206 -0.000929 0.000000 -0.003323 0.000000
# 3 -0.006267 -0.000929 0.013302 0.000000 -0.003402 0.000000
# 4 0.000000 0.000000 0.000000 -0.002862 0.000000 -0.015510
# 5 -0.009060 -0.003323 -0.003402 0.000000 0.034416 0.000000
# 6 0.000000 0.000000 0.000000 -0.015510 0.000000 0.062661
#
#
# Mechanical properties :
#
#
# Convention : Reuss Voigt Hill
#
# Bulk Modulus (GPa) = 35.27788 57.73926 46.50857
# Shear Modulus (GPa) = 26.12086 -10.13197 7.99445
#
# Velocity S-wave (km/s) = 3.43411 -2.13879 1.89983
# Velocity P-wave (km/s) = 5.62597 4.46868 5.08039
#
# Compressibility (1/GPa) = 0.02834638
#
# Stress axis : x y z
#
# Youngs Moduli (GPa) = 51.17171 39.67286 75.17432
#
# Poissons Ratio (x) = 0.30372 0.47115
# Poissons Ratio (y) = 0.39175 0.06984
# Poissons Ratio (z) = 0.32072 0.03686
#
# Static dielectric constant tensor:
#      x y z
#    x 1.963240 0.000000 0.059580 
#    y 0.000000 1.868420 0.000000 
#    z 0.059580 0.000000 1.830570 
# 
# From -- ./inp_files/41786.got.cif
#   From: 2010.05.17/outbox.cif.g08.bks.cpg/sg5_21_cif.got.tgz:41786.got - 2010.06.03 18:56:24.
