data_PCOD9124921
_publ_section_title
;
Structure prediction by ZEFSAII (Michael W. Deem and Ramdas Pophale) SiO2 
 PCOD9124921
Probable space group: C 2
;
_chemical_formula_sum "Si O2"
_cell_formula_units_Z 20
_cell_length_a 12.093481
_cell_length_b 17.863671
_cell_length_c 10.309272
_cell_angle_alpha 90.000000
_cell_angle_beta 155.538074
_cell_angle_gamma 90.000000
_cell_volume 922.238336
_symmetry_space_group_name_H-M "C 2"
_symmetry_group_IT_number 5
_symmetry_cell_setting 'monoclinic'
loop_
_space_group_symop_operation_xyz
x,y,z
-x,y,-z
1/2+x,1/2+y,z
1/2-x,1/2+y,-z
loop_
_atom_site_type_symbol
_atom_site_label
_atom_site_fract_x
_atom_site_fract_y
_atom_site_fract_z
Si Si1 0.774900 0.676940 0.864273
Si Si2 0.597126 0.011556 0.907597
Si Si3 0.098649 0.920287 0.456273
Si Si4 0.734914 0.102828 0.648631
Si Si5 0.553538 0.250721 0.401230
O O1 0.500000 0.695139 0.500000
O O2 0.834254 0.717146 0.066036
O O3 0.000000 0.697593 0.000000
O O4 0.794111 0.586578 0.905869
O O5 0.394796 0.045602 0.586952
O O6 0.387988 0.957582 0.755910
O O7 0.855108 0.966823 0.131255
O O8 0.118658 0.834987 0.429510
O O9 0.000000 0.921863 0.500000
O O10 0.500000 0.114288 0.500000
O O11 0.777481 0.185241 0.631751
O O12 0.000000 0.076775 0.000000
O O13 0.500000 0.258965 0.500000
#
# Coordination Sequence:
#
# PCOD9124921 Si02
#       5
#     4   4   4   4   4
#     4  11  23  41  64  91 122 159 202 250 301 357
#     4  11  22  38  61  88 121 156 197 249 303 354
#     4  11  22  38  60  88 118 153 199 250 298 351
#     4  10  21  39  61  86 116 158 205 246 292 356
#     4   9  23  42  64  89 122 162 204 247 298 360
#
# _framework density 21.686368000000002
#
# number of rings (size 3 to 8) (size 9 to 14) (size 15 to 20)
#    0.000    1.600    0.000    4.800    0.000   14.400 
#    0.000    6.000    0.000    0.000    0.000    0.000 
#    0.000    0.000    0.000    0.000    0.000    0.000 
#
# Total GULP energy -55755.738396 kJ/mol
# GULP energy per Si atom -5575.573840 kJ/mol
# Density = 2.163701 g / cm^3
# Si number density = 21.686368 Si / 1000 Ang^3
#
#
#
# Elastic Constant Matrix: (Units=GPa)
#
#
# Indices 1 2 3 4 5 6 
#
# 1 60.3252 31.2483 44.7147 0.0018 3.2480 0.0001
# 2 31.2483 135.2138 47.0843 0.0001 -11.1585 -0.0003
# 3 44.7147 47.0843 173.0874 0.0055 -10.4259 0.0019
# 4 0.0018 0.0001 0.0055 -9.1138 0.0023 -8.4015
# 5 3.2480 -11.1585 -10.4259 0.0023 39.0593 0.0005
# 6 0.0001 -0.0003 0.0019 -8.4015 0.0005 11.2524
#
#
#
# Elastic Compliance Matrix: (Units=1/GPa)
#
#
# Indices 1 2 3 4 5 6 
#
# 1 0.022515 -0.003803 -0.005041 0.000000 -0.004304 0.000001
# 2 -0.003803 0.008934 -0.001296 -0.000001 0.002523 0.000000
# 3 -0.005041 -0.001296 0.007557 0.000003 0.002066 0.000001
# 4 0.000000 -0.000001 0.000003 -0.064991 0.000005 -0.048525
# 5 -0.004304 0.002523 0.002066 0.000005 0.027232 0.000002
# 6 0.000001 0.000000 0.000001 -0.048525 0.000002 0.052639
#
#
# Mechanical properties :
#
#
# Convention : Reuss Voigt Hill
#
# Bulk Modulus (GPa) = 53.40276 68.30234 60.85255
# Shear Modulus (GPa) = 62.18240 24.61152 43.39696
#
# Velocity S-wave (km/s) = 5.36057 3.37246 4.47824
# Velocity P-wave (km/s) = 7.93680 6.83583 7.40680
#
# Compressibility (1/GPa) = 0.01872562
#
# Stress axis : x y z
#
# Youngs Moduli (GPa) = 44.41431 111.93154 132.33257
#
# Poissons Ratio (x) = 0.42569 0.66712
# Poissons Ratio (y) = 0.16891 0.17148
# Poissons Ratio (z) = 0.22390 0.14505
#
# Static dielectric constant tensor:
#      x y z
#    x 1.859620 0.000000 -0.045390 
#    y 0.000000 1.855490 0.000000 
#    z -0.045390 0.000000 1.803960 
# 
# From -- ./inp_files/43222.got.cif
#   From: 2010.05.17/outbox.cif.g08.bks.cpg/sg5_22_cif.got.tgz:43222.got - 2010.06.03 18:56:24.
