data_PCOD9124663
_publ_section_title
;
Structure prediction by ZEFSAII (Michael W. Deem and Ramdas Pophale) SiO2 
 PCOD9124663
Probable space group: C 2
;
_chemical_formula_sum "Si O2"
_cell_formula_units_Z 24
_cell_length_a 4.909728
_cell_length_b 13.330452
_cell_length_c 17.818413
_cell_angle_alpha 90.000000
_cell_angle_beta 77.325401
_cell_angle_gamma 90.000000
_cell_volume 1137.777462
_symmetry_space_group_name_H-M "C 2"
_symmetry_group_IT_number 5
_symmetry_cell_setting 'monoclinic'
loop_
_space_group_symop_operation_xyz
x,y,z
-x,y,-z
1/2+x,1/2+y,z
1/2-x,1/2+y,-z
loop_
_atom_site_type_symbol
_atom_site_label
_atom_site_fract_x
_atom_site_fract_y
_atom_site_fract_z
Si Si1 0.653178 0.512430 0.073012
Si Si2 0.267905 0.808558 0.668918
Si Si3 0.329187 0.394623 0.586236
Si Si4 0.000000 0.688683 0.000000
Si Si5 0.209244 0.489884 0.229196
Si Si6 0.351495 0.574980 0.689686
Si Si7 0.500000 0.839757 0.000000
O O1 0.404166 0.507529 0.146679
O O2 0.500000 0.509918 0.000000
O O3 0.846399 0.611246 0.065694
O O4 0.866013 0.418696 0.067127
O O5 0.516123 0.853404 0.602467
O O6 0.307860 0.691824 0.680237
O O7 0.982078 0.832866 0.643349
O O8 0.283792 0.874475 0.743957
O O9 0.500000 0.383334 0.500000
O O10 0.331095 0.509408 0.615035
O O11 0.753899 0.764318 0.995517
O O12 0.355628 0.550991 0.288479
O O13 0.894565 0.529106 0.243348
#
# Coordination Sequence:
#
# PCOD9124663 Si02
#       7
#     4   4   4   2   4   4   2
#     4  11  25  42  66  94 128 164 218 278 327 380
#     4  10  21  41  60  89 125 162 205 247 303 370
#     4  10  21  37  61  92 125 158 202 253 299 360
#     4  11  24  41  60  88 126 159 204 265 328 390
#     4  10  24  39  63  87 123 163 209 254 310 369
#     4  10  22  41  61  90 123 165 204 249 304 375
#     4  11  24  43  62  90 124 159 204 263 330 390
#
# _framework density 21.093758999999999
#
# number of rings (size 3 to 8) (size 9 to 14) (size 15 to 20)
#    0.000    1.667    1.667    1.500    4.667    4.000 
#    0.000    0.000    0.000    0.000    0.000    0.000 
#    0.000    0.000    0.000    0.000    0.000    0.000 
#
# Total GULP energy -67006.504752 kJ/mol
# GULP energy per Si atom -5583.875396 kJ/mol
# Density = 2.104575 g / cm^3
# Si number density = 21.093759 Si / 1000 Ang^3
#
#
#
# Elastic Constant Matrix: (Units=GPa)
#
#
# Indices 1 2 3 4 5 6 
#
# 1 95.2112 11.8416 -11.1198 0.0000 -8.1682 0.0000
# 2 11.8416 162.9884 -5.6388 0.0000 11.6888 0.0000
# 3 -11.1198 -5.6388 59.8751 0.0000 -16.3129 0.0000
# 4 0.0000 0.0000 0.0000 6.2484 0.0000 -9.9225
# 5 -8.1682 11.6888 -16.3129 0.0000 27.7985 0.0000
# 6 0.0000 0.0000 0.0000 -9.9225 0.0000 29.5777
#
#
#
# Elastic Compliance Matrix: (Units=1/GPa)
#
#
# Indices 1 2 3 4 5 6 
#
# 1 0.011598 -0.001149 0.003697 0.000000 0.006060 0.000000
# 2 -0.001149 0.006441 -0.000520 0.000000 -0.003351 0.000000
# 3 0.003697 -0.000520 0.021062 0.000000 0.013665 0.000000
# 4 0.000000 0.000000 0.000000 0.342509 0.000000 0.114903
# 5 0.006060 -0.003351 0.013665 0.000000 0.047182 0.000000
# 6 0.000000 0.000000 0.000000 0.114903 0.000000 0.072356
#
#
# Mechanical properties :
#
#
# Convention : Reuss Voigt Hill
#
# Bulk Modulus (GPa) = 23.17181 34.24900 28.71041
# Shear Modulus (GPa) = 9.77559 34.25770 22.01664
#
# Velocity S-wave (km/s) = 2.15509 4.03434 3.23422
# Velocity P-wave (km/s) = 4.14747 6.16223 5.25236
#
# Compressibility (1/GPa) = 0.04315588
#
# Stress axis : x y z
#
# Youngs Moduli (GPa) = 86.22485 155.24917 47.47906
#
# Poissons Ratio (x) = 0.17843 -0.17552
# Poissons Ratio (y) = 0.09910 0.02468
# Poissons Ratio (z) = -0.31875 0.08071
#
# Static dielectric constant tensor:
#      x y z
#    x 1.753580 0.000000 0.031710 
#    y 0.000000 1.739080 0.000000 
#    z 0.031710 0.000000 1.765020 
# 
# From -- ./inp_files/58597.got.cif
#   From: 2010.05.17/outbox.cif.g08.bks.cpg/sg5_30_cif.got.tgz:58597.got - 2010.06.03 18:56:24.
