data_PCOD9124016
_publ_section_title
;
Structure prediction by ZEFSAII (Michael W. Deem and Ramdas Pophale) SiO2 
 PCOD9124016
Probable space group: C 2
;
_chemical_formula_sum "Si O2"
_cell_formula_units_Z 32
_cell_length_a 23.129108
_cell_length_b 9.548070
_cell_length_c 13.616001
_cell_angle_alpha 90.000000
_cell_angle_beta 151.448800
_cell_angle_gamma 90.000000
_cell_volume 1437.146248
_symmetry_space_group_name_H-M "C 2"
_symmetry_group_IT_number 5
_symmetry_cell_setting 'monoclinic'
loop_
_space_group_symop_operation_xyz
x,y,z
-x,y,-z
1/2+x,1/2+y,z
1/2-x,1/2+y,-z
loop_
_atom_site_type_symbol
_atom_site_label
_atom_site_fract_x
_atom_site_fract_y
_atom_site_fract_z
Si Si1 0.626768 0.207270 0.239638
Si Si2 0.469998 0.676658 0.183904
Si Si3 0.250238 0.565192 0.260690
Si Si4 0.304737 0.080898 0.217424
Si Si5 0.983569 0.462035 0.813827
Si Si6 0.009245 0.637670 0.668848
Si Si7 0.586096 0.385623 0.361331
Si Si8 0.393731 0.788011 0.415309
O O1 0.727757 0.189448 0.308124
O O2 0.649829 0.306984 0.365924
O O3 0.604417 0.050165 0.248186
O O4 0.500000 0.250860 0.000000
O O5 0.511027 0.796802 0.169765
O O6 0.522471 0.527068 0.232323
O O7 0.530638 0.730517 0.376265
O O8 0.325938 0.653667 0.978005
O O9 0.323017 0.440457 0.419532
O O10 0.319717 0.646580 0.279037
O O11 0.118614 0.515943 0.035731
O O12 0.306417 0.923442 0.267097
O O13 0.401380 0.160211 0.430611
O O14 0.370327 0.091380 0.208650
O O15 0.963103 0.515227 0.672469
O O16 0.010702 0.776865 0.737430
O O17 0.500000 0.825678 0.500000
#
# Coordination Sequence:
#
# PCOD9124016 Si02
#       8
#     4   4   4   4   4   4   4   4
#     4   9  21  42  66  88 125 173 215 273 339 391
#     4  11  24  39  65  99 130 172 223 270 333 403
#     4  10  23  40  68  92 130 173 218 271 342 392
#     4  11  22  39  65  92 133 174 221 265 334 385
#     4  10  20  41  65  91 131 169 219 271 335 397
#     4  10  21  41  62  91 132 174 220 269 325 404
#     4  10  23  42  60  99 127 164 225 269 328 406
#     4  11  23  43  61  98 134 170 224 274 329 401
#
# _framework density 22.266347
#
# number of rings (size 3 to 8) (size 9 to 14) (size 15 to 20)
#    0.000    1.750    2.500    0.750    7.000    3.000 
#   11.250    3.125    0.000    0.000    0.000    0.000 
#    0.000    0.000    0.000    0.000    0.000    0.000 
#
# Total GULP energy -89215.788466 kJ/mol
# GULP energy per Si atom -5575.986779 kJ/mol
# Density = 2.221567 g / cm^3
# Si number density = 22.266347 Si / 1000 Ang^3
#
#
#
# Elastic Constant Matrix: (Units=GPa)
#
#
# Indices 1 2 3 4 5 6 
#
# 1 14.6969 -1.5639 7.6538 0.0000 -6.4197 0.0000
# 2 -1.5639 126.4619 13.5772 0.0000 -5.3576 0.0000
# 3 7.6538 13.5772 78.5337 0.0000 7.4980 0.0000
# 4 0.0000 0.0000 0.0000 24.8441 0.0000 3.9048
# 5 -6.4197 -5.3576 7.4980 0.0000 21.2172 0.0000
# 6 0.0000 0.0000 0.0000 3.9048 0.0000 13.2335
#
#
#
# Elastic Compliance Matrix: (Units=1/GPa)
#
#
# Indices 1 2 3 4 5 6 
#
# 1 0.089011 0.003801 -0.012414 0.000000 0.032279 0.000000
# 2 0.003801 0.008362 -0.002202 0.000000 0.004040 0.000000
# 3 -0.012414 -0.002202 0.015250 0.000000 -0.009701 0.000000
# 4 0.000000 0.000000 0.000000 0.042208 0.000000 -0.012454
# 5 0.032279 0.004040 -0.009701 0.000000 0.061347 0.000000
# 6 0.000000 0.000000 0.000000 -0.012454 0.000000 0.079240
#
#
# Mechanical properties :
#
#
# Convention : Reuss Voigt Hill
#
# Bulk Modulus (GPa) = 10.98978 28.78074 19.88526
# Shear Modulus (GPa) = 14.39352 25.19398 19.79375
#
# Velocity S-wave (km/s) = 2.54525 3.36740 2.98477
# Velocity P-wave (km/s) = 3.68565 5.29839 4.56382
#
# Compressibility (1/GPa) = 0.09099365
#
# Stress axis : x y z
#
# Youngs Moduli (GPa) = 11.23462 119.58772 65.57336
#
# Poissons Ratio (x) = -0.45456 0.81401
# Poissons Ratio (y) = -0.04270 0.14438
# Poissons Ratio (z) = 0.13946 0.26331
#
# Static dielectric constant tensor:
#      x y z
#    x 1.840400 0.000000 -0.058770 
#    y 0.000000 1.855060 0.000000 
#    z -0.058770 0.000000 1.859540 
# 
# From -- ./inp_files/57718.got.cif
#   From: 2010.05.17/outbox.cif.g08.bks.cpg/sg5_29_cif.got.tgz:57718.got - 2010.06.03 18:56:24.
