data_PCOD9124334
_publ_section_title
;
Structure prediction by ZEFSAII (Michael W. Deem and Ramdas Pophale) SiO2 
 PCOD9124334
Probable space group: C 2
;
_chemical_formula_sum "Si O2"
_cell_formula_units_Z 28
_cell_length_a 14.386747
_cell_length_b 16.339452
_cell_length_c 7.900820
_cell_angle_alpha 90.000000
_cell_angle_beta 141.714076
_cell_angle_gamma 90.000000
_cell_volume 1150.731516
_symmetry_space_group_name_H-M "C 2"
_symmetry_group_IT_number 5
_symmetry_cell_setting 'monoclinic'
loop_
_space_group_symop_operation_xyz
x,y,z
-x,y,-z
1/2+x,1/2+y,z
1/2-x,1/2+y,-z
loop_
_atom_site_type_symbol
_atom_site_label
_atom_site_fract_x
_atom_site_fract_y
_atom_site_fract_z
Si Si1 0.607408 0.302130 0.999429
Si Si2 0.670297 0.999769 0.344714
Si Si3 0.507291 0.447713 0.320578
Si Si4 0.191032 0.623651 0.068863
Si Si5 0.500000 0.707684 0.000000
Si Si6 0.000000 0.219121 0.500000
Si Si7 0.287425 0.574643 0.847228
Si Si8 0.407938 0.832913 0.626800
O O1 0.596417 0.206206 0.949266
O O2 0.769681 0.329258 0.300327
O O3 0.500000 0.323757 0.000000
O O4 0.554302 0.356070 0.768050
O O5 0.645266 0.056817 0.143480
O O6 0.569404 0.923573 0.268588
O O7 0.697946 0.056966 0.547474
O O8 0.827397 0.956256 0.518231
O O9 0.500000 0.481361 0.500000
O O10 0.393630 0.498042 0.041210
O O11 0.360072 0.660137 0.342684
O O12 0.191588 0.590079 0.878956
O O13 0.403345 0.648361 0.980263
O O14 0.616324 0.769291 0.255675
O O15 0.965760 0.283082 0.297796
#
# Coordination Sequence:
#
# PCOD9124334 Si02
#       8
#     4   4   4   4   2   2   4   4
#     4  11  23  46  66 100 142 184 221 293 355 417
#     4  12  23  43  71 104 138 182 230 296 350 408
#     4  12  22  39  71 103 136 176 243 292 340 410
#     4  11  24  42  72  96 138 184 241 281 345 426
#     4  12  24  42  74 104 138 186 240 292 354 424
#     4  10  20  44  66 100 134 186 228 294 346 406
#     4  12  21  41  70 103 132 180 240 299 337 410
#     4  11  24  43  71 104 143 179 232 295 354 417
#
# _framework density 24.332349000000001
#
# number of rings (size 3 to 8) (size 9 to 14) (size 15 to 20)
#    0.000    0.571    7.143    2.571    0.000    1.143 
#    6.429    0.000    0.000    0.000    0.000    0.000 
#    0.000    0.000    0.000    0.000    0.000    0.000 
#
# Total GULP energy -78292.555050 kJ/mol
# GULP energy per Si atom -5592.325361 kJ/mol
# Density = 2.427697 g / cm^3
# Si number density = 24.332349 Si / 1000 Ang^3
#
#
#
# Elastic Constant Matrix: (Units=GPa)
#
#
# Indices 1 2 3 4 5 6 
#
# 1 104.3339 52.9864 38.8765 0.0000 -25.9754 0.0000
# 2 52.9864 192.4284 42.0605 0.0000 -21.2483 0.0000
# 3 38.8765 42.0605 64.5276 0.0000 -28.0756 0.0000
# 4 0.0000 0.0000 0.0000 41.1199 0.0000 -0.3763
# 5 -25.9754 -21.2483 -28.0756 0.0000 37.2200 0.0000
# 6 0.0000 0.0000 0.0000 -0.3763 0.0000 29.5877
#
#
#
# Elastic Compliance Matrix: (Units=1/GPa)
#
#
# Indices 1 2 3 4 5 6 
#
# 1 0.013635 -0.002201 -0.004744 0.000000 0.004681 0.000000
# 2 -0.002201 0.006428 -0.002881 0.000000 -0.000040 0.000000
# 3 -0.004744 -0.002881 0.026909 0.000000 0.015342 0.000000
# 4 0.000000 0.000000 0.000000 0.024322 0.000000 0.000309
# 5 0.004681 -0.000040 0.015342 0.000000 0.041685 0.000000
# 6 0.000000 0.000000 0.000000 0.000309 0.000000 0.033802
#
#
# Mechanical properties :
#
#
# Convention : Reuss Voigt Hill
#
# Bulk Modulus (GPa) = 36.60249 69.90410 53.25330
# Shear Modulus (GPa) = 28.48375 36.74328 32.61351
#
# Velocity S-wave (km/s) = 3.42513 3.89016 3.66503
# Velocity P-wave (km/s) = 5.54233 6.99779 6.31215
#
# Compressibility (1/GPa) = 0.02732054
#
# Stress axis : x y z
#
# Youngs Moduli (GPa) = 73.33877 155.56548 37.16289
#
# Poissons Ratio (x) = 0.34237 0.17629
# Poissons Ratio (y) = 0.16140 0.10708
# Poissons Ratio (z) = 0.34789 0.44823
#
# Static dielectric constant tensor:
#      x y z
#    x 1.966240 0.000000 -0.010740 
#    y 0.000000 1.906890 0.000000 
#    z -0.010740 0.000000 2.009530 
# 
# From -- ./inp_files/24704.got.cif
#   From: 2010.05.17/outbox.cif.g08.bks.cpg/sg5_13_cif.got.tgz:24704.got - 2010.06.03 18:56:24.
