data_PCOD9124967
_publ_section_title
;
Structure prediction by ZEFSAII (Michael W. Deem and Ramdas Pophale) SiO2 
 PCOD9124967
Probable space group: C 2
;
_chemical_formula_sum "Si O2"
_cell_formula_units_Z 30
_cell_length_a 16.434164
_cell_length_b 7.598935
_cell_length_c 12.656231
_cell_angle_alpha 90.000000
_cell_angle_beta 102.364847
_cell_angle_gamma 90.000000
_cell_volume 1543.874871
_symmetry_space_group_name_H-M "C 2"
_symmetry_group_IT_number 5
_symmetry_cell_setting 'monoclinic'
loop_
_space_group_symop_operation_xyz
x,y,z
-x,y,-z
1/2+x,1/2+y,z
1/2-x,1/2+y,-z
loop_
_atom_site_type_symbol
_atom_site_label
_atom_site_fract_x
_atom_site_fract_y
_atom_site_fract_z
Si Si1 0.517992 0.661280 0.228003
Si Si2 0.925060 0.049257 0.399979
Si Si3 0.950401 0.634713 0.379637
Si Si4 0.602636 0.026799 0.287631
Si Si5 0.872180 0.871552 0.822372
Si Si6 0.253265 0.658990 0.461002
Si Si7 0.500000 0.537077 0.000000
Si Si8 0.732109 0.010582 0.662651
O O1 0.448164 0.650850 0.298492
O O2 0.571710 0.479542 0.248724
O O3 0.482115 0.651496 0.099192
O O4 0.580472 0.826136 0.253878
O O5 0.928403 0.840576 0.380202
O O6 0.000000 0.094797 0.500000
O O7 0.838405 0.091866 0.432199
O O8 0.865418 0.527591 0.344848
O O9 0.000000 0.585181 0.500000
O O10 0.014555 0.599225 0.304544
O O11 0.630793 0.165074 0.204587
O O12 0.672175 0.051786 0.397913
O O13 0.784149 0.969660 0.782238
O O14 0.921404 0.918148 0.942874
O O15 0.242858 0.849585 0.406584
O O16 0.254794 0.667554 0.588302
#
# Coordination Sequence:
#
# PCOD9124967 Si02
#       8
#     4   4   4   4   4   4   2   4
#     4  10  21  39  63  88 116 158 202 248 302 356
#     4  11  23  36  57  87 126 161 199 248 309 360
#     4  11  21  36  54  86 126 165 199 246 296 371
#     4  11  22  38  61  88 124 157 204 248 306 362
#     4   9  21  40  57  91 113 156 198 258 297 348
#     4  11  24  34  55  89 120 167 195 245 302 375
#     4   8  20  40  66  86 116 158 206 256 298 354
#     4  11  22  34  57  83 128 158 207 240 306 358
#
# _framework density 19.431626000000001
#
# number of rings (size 3 to 8) (size 9 to 14) (size 15 to 20)
#    0.800    0.800    2.667    2.400    9.333    1.600 
#    0.000    0.000    0.000   14.400    0.000    0.000 
#    0.000    0.000    0.000    0.000    0.000    0.000 
#
# Total GULP energy -83594.271448 kJ/mol
# GULP energy per Si atom -5572.951430 kJ/mol
# Density = 1.938740 g / cm^3
# Si number density = 19.431626 Si / 1000 Ang^3
#
#
#
# Elastic Constant Matrix: (Units=GPa)
#
#
# Indices 1 2 3 4 5 6 
#
# 1 108.0779 11.2790 36.0529 0.0000 13.0059 0.0000
# 2 11.2790 60.1041 17.1756 0.0000 9.5111 0.0000
# 3 36.0529 17.1756 105.8674 0.0000 23.3165 0.0000
# 4 0.0000 0.0000 0.0000 20.8527 0.0000 6.3706
# 5 13.0059 9.5111 23.3165 0.0000 31.3906 0.0000
# 6 0.0000 0.0000 0.0000 6.3706 0.0000 28.4059
#
#
#
# Elastic Compliance Matrix: (Units=1/GPa)
#
#
# Indices 1 2 3 4 5 6 
#
# 1 0.010583 -0.000816 -0.003061 0.000000 -0.001864 0.000000
# 2 -0.000816 0.017899 -0.001800 0.000000 -0.003748 0.000000
# 3 -0.003061 -0.001800 0.012411 0.000000 -0.007405 0.000000
# 4 0.000000 0.000000 0.000000 0.051483 0.000000 -0.011546
# 5 -0.001864 -0.003748 -0.007405 0.000000 0.039265 0.000000
# 6 0.000000 0.000000 0.000000 -0.011546 0.000000 0.037793
#
#
# Mechanical properties :
#
#
# Convention : Reuss Voigt Hill
#
# Bulk Modulus (GPa) = 33.85572 44.78496 39.32034
# Shear Modulus (GPa) = 26.22806 30.09928 28.16367
#
# Velocity S-wave (km/s) = 3.67790 3.93998 3.81119
# Velocity P-wave (km/s) = 5.95791 6.61781 6.29651
#
# Compressibility (1/GPa) = 0.02953711
#
# Stress axis : x y z
#
# Youngs Moduli (GPa) = 94.48924 55.87060 80.57186
#
# Poissons Ratio (x) = 0.04561 0.24664
# Poissons Ratio (y) = 0.07713 0.14506
# Poissons Ratio (z) = 0.28925 0.10059
#
# Static dielectric constant tensor:
#      x y z
#    x 1.680280 0.000000 0.023600 
#    y 0.000000 1.764290 0.000000 
#    z 0.023600 0.000000 1.700110 
# 
# From -- ./inp_files/54041.got.cif
#   From: 2010.05.17/outbox.cif.g08.bks.cpg/sg5_28_cif.got.tgz:54041.got - 2010.06.03 18:56:24.
