data_PCOD9124986
_publ_section_title
;
Structure prediction by ZEFSAII (Michael W. Deem and Ramdas Pophale) SiO2 
 PCOD9124986
Probable space group: C 2
;
_chemical_formula_sum "Si O2"
_cell_formula_units_Z 22
_cell_length_a 12.651084
_cell_length_b 13.571305
_cell_length_c 10.630175
_cell_angle_alpha 90.000000
_cell_angle_beta 32.473627
_cell_angle_gamma 90.000000
_cell_volume 979.923883
_symmetry_space_group_name_H-M "C 2"
_symmetry_group_IT_number 5
_symmetry_cell_setting 'monoclinic'
loop_
_space_group_symop_operation_xyz
x,y,z
-x,y,-z
1/2+x,1/2+y,z
1/2-x,1/2+y,-z
loop_
_atom_site_type_symbol
_atom_site_label
_atom_site_fract_x
_atom_site_fract_y
_atom_site_fract_z
Si Si1 0.717067 0.049670 0.451341
Si Si2 0.584198 0.838607 0.555040
Si Si3 0.510510 0.634439 0.635834
Si Si4 0.500000 0.208711 0.500000
Si Si5 0.113867 0.577114 0.008104
Si Si6 0.331640 0.852284 0.063351
O O1 0.653288 0.132791 0.414873
O O2 0.543993 0.057910 0.727015
O O3 0.916886 0.064787 0.327200
O O4 0.714966 0.935597 0.414401
O O5 0.500000 0.830612 0.500000
O O6 0.657320 0.727335 0.502443
O O7 0.431328 0.847054 0.825024
O O8 0.500000 0.604296 0.500000
O O9 0.279660 0.651043 0.889732
O O10 0.642079 0.282907 0.277422
O O11 0.208069 0.469631 0.880468
O O12 0.000000 0.612947 0.000000
O O13 0.500000 0.827874 0.000000
#
# Coordination Sequence:
#
# PCOD9124986 Si02
#       6
#     4   4   4   2   4   4
#     4  11  23  41  66  95 138 178 219 279 341 402
#     4  10  22  44  67  99 143 179 218 289 343 396
#     4  11  22  38  68  95 126 175 229 272 331 402
#     4  12  24  40  68 100 138 188 222 272 346 422
#     4  10  21  39  63  95 128 168 226 282 326 389
#     4  10  23  40  68  99 138 177 230 284 334 402
#
# _framework density 22.450724000000001
#
# number of rings (size 3 to 8) (size 9 to 14) (size 15 to 20)
#    0.000    1.455    2.727    2.182    1.273    1.455 
#    0.000    0.000    0.000    0.000    0.000    0.000 
#    0.000    0.000    0.000    0.000    0.000    0.000 
#
# Total GULP energy -61242.161287 kJ/mol
# GULP energy per Si atom -5567.469208 kJ/mol
# Density = 2.239962 g / cm^3
# Si number density = 22.450724 Si / 1000 Ang^3
#
#
#
# Elastic Constant Matrix: (Units=GPa)
#
#
# Indices 1 2 3 4 5 6 
#
# 1 70.9629 25.2079 29.2237 -0.0009 -0.6852 -0.0009
# 2 25.2079 104.7806 21.1518 -0.0001 -12.9766 -0.0007
# 3 29.2237 21.1518 39.8067 -0.0015 1.6658 -0.0002
# 4 -0.0009 -0.0001 -0.0015 -111.2232 0.0014 11.6730
# 5 -0.6852 -12.9766 1.6658 0.0014 31.7659 0.0003
# 6 -0.0009 -0.0007 -0.0002 11.6730 0.0003 44.1947
#
#
#
# Elastic Compliance Matrix: (Units=1/GPa)
#
#
# Indices 1 2 3 4 5 6 
#
# 1 0.020619 -0.002085 -0.014043 0.000000 0.000330 0.000000
# 2 -0.002085 0.011642 -0.004863 0.000000 0.004966 0.000000
# 3 -0.014043 -0.004863 0.038195 0.000000 -0.004293 0.000000
# 4 0.000000 0.000000 0.000000 -0.008748 0.000000 0.002311
# 5 0.000330 0.004966 -0.004293 0.000000 0.033741 0.000000
# 6 0.000000 0.000000 0.000000 0.002311 0.000000 0.022017
#
#
# Mechanical properties :
#
#
# Convention : Reuss Voigt Hill
#
# Bulk Modulus (GPa) = 35.12089 40.74635 37.93362
# Shear Modulus (GPa) = 29.59644 2.27860 15.93752
#
# Velocity S-wave (km/s) = 3.63476 1.00853 2.66726
# Velocity P-wave (km/s) = 5.76999 4.42095 5.13992
#
# Compressibility (1/GPa) = 0.02847308
#
# Stress axis : x y z
#
# Youngs Moduli (GPa) = 48.49936 85.89522 26.18147
#
# Poissons Ratio (x) = 0.17907 0.36767
# Poissons Ratio (y) = 0.10111 0.12733
# Poissons Ratio (z) = 0.68108 0.41775
#
# Static dielectric constant tensor:
#      x y z
#    x 2.461210 0.000000 -0.444820 
#    y 0.000000 1.958210 0.000000 
#    z -0.444820 0.000000 2.204430 
# 
# From -- ./inp_files/6919.got.cif
#   From: 2010.05.17/outbox.cif.g08.bks.cpg/sg5_4_cif.got.tgz:6919.got - 2010.06.03 18:56:24.
