data_PCOD9124360
_publ_section_title
;
Structure prediction by ZEFSAII (Michael W. Deem and Ramdas Pophale) SiO2 
 PCOD9124360
Probable space group: C 2
;
_chemical_formula_sum "Si O2"
_cell_formula_units_Z 28
_cell_length_a 14.963862
_cell_length_b 8.343400
_cell_length_c 20.920529
_cell_angle_alpha 90.000000
_cell_angle_beta 149.803590
_cell_angle_gamma 90.000000
_cell_volume 1313.705053
_symmetry_space_group_name_H-M "C 2"
_symmetry_group_IT_number 5
_symmetry_cell_setting 'monoclinic'
loop_
_space_group_symop_operation_xyz
x,y,z
-x,y,-z
1/2+x,1/2+y,z
1/2-x,1/2+y,-z
loop_
_atom_site_type_symbol
_atom_site_label
_atom_site_fract_x
_atom_site_fract_y
_atom_site_fract_z
Si Si1 0.500000 0.769181 0.500000
Si Si2 0.000000 0.540915 0.000000
Si Si3 0.146519 0.099626 0.472166
Si Si4 0.501953 0.251135 0.354792
Si Si5 0.279697 0.021216 0.283329
Si Si6 0.834288 0.278484 0.205391
Si Si7 0.752193 0.331776 0.917449
Si Si8 0.416233 0.635443 0.122675
O O1 0.607141 0.656950 0.518660
O O2 0.359486 0.881996 0.376874
O O3 0.170896 0.653872 0.116203
O O4 0.061154 0.421593 0.981564
O O5 0.348919 0.134649 0.581086
O O6 0.012985 0.208559 0.347506
O O7 0.094367 0.918125 0.427272
O O8 0.343705 0.283188 0.207002
O O9 0.420829 0.163457 0.365188
O O10 0.275006 0.936981 0.209015
O O11 0.104382 0.100075 0.205053
O O12 0.882146 0.266560 0.158897
O O13 0.632371 0.466887 0.875719
O O14 0.784317 0.186266 0.984643
#
# Coordination Sequence:
#
# PCOD9124360 Si02
#       8
#     2   2   4   4   4   4   4   4
#     4  10  24  46  68 108 136 186 242 300 368 444
#     4  10  20  44  70  94 150 174 242 286 366 428
#     4  11  23  48  70 100 144 185 238 304 361 437
#     4  12  25  47  72 101 145 192 242 298 370 436
#     4  11  26  44  73 104 146 188 251 300 372 448
#     4  10  24  44  71 103 141 195 227 307 366 429
#     4  11  25  44  68 108 139 189 237 300 360 451
#     4  11  25  44  71 104 145 182 247 297 370 442
#
# _framework density 21.313765
#
# number of rings (size 3 to 8) (size 9 to 14) (size 15 to 20)
#    0.000    1.143    2.857    3.429    8.000    0.571 
#    2.571    0.000    0.000    0.000    0.000    0.000 
#    0.000    0.000    0.000    0.000    0.000    0.000 
#
# Total GULP energy -78161.066335 kJ/mol
# GULP energy per Si atom -5582.933310 kJ/mol
# Density = 2.126525 g / cm^3
# Si number density = 21.313765 Si / 1000 Ang^3
#
#
#
# Elastic Constant Matrix: (Units=GPa)
#
#
# Indices 1 2 3 4 5 6 
#
# 1 131.9424 40.1660 38.8522 0.0003 21.7336 -0.0003
# 2 40.1660 79.4858 18.6194 0.0009 -11.7934 -0.0009
# 3 38.8522 18.6194 48.9139 0.0014 7.7986 -0.0014
# 4 0.0003 0.0009 0.0014 617.6474 0.0005 -574.1675
# 5 21.7336 -11.7934 7.7986 0.0005 32.9551 -0.0005
# 6 -0.0003 -0.0009 -0.0014 -574.1675 -0.0005 568.1784
#
#
#
# Elastic Compliance Matrix: (Units=1/GPa)
#
#
# Indices 1 2 3 4 5 6 
#
# 1 0.012947 -0.006443 -0.006341 0.000000 -0.009343 0.000000
# 2 -0.006443 0.018468 -0.003786 0.000000 0.011754 0.000000
# 3 -0.006341 -0.003786 0.027509 0.000000 -0.003683 0.000000
# 4 0.000000 0.000000 0.000000 0.026718 0.000000 0.027000
# 5 -0.009343 0.011754 -0.003683 0.000000 0.041584 0.000000
# 6 0.000000 0.000000 0.000000 0.027000 0.000000 0.029044
#
#
# Mechanical properties :
#
#
# Convention : Reuss Voigt Hill
#
# Bulk Modulus (GPa) = 38.78570 50.62414 44.70492
# Shear Modulus (GPa) = 25.25180 254.60314 139.92747
#
# Velocity S-wave (km/s) = 3.44578 10.94139 8.11133
# Velocity P-wave (km/s) = 5.83679 13.54335 10.42810
#
# Compressibility (1/GPa) = 0.02578270
#
# Stress axis : x y z
#
# Youngs Moduli (GPa) = 77.23886 54.14895 36.35135
#
# Poissons Ratio (x) = 0.34889 0.23052
# Poissons Ratio (y) = 0.49767 0.13763
# Poissons Ratio (z) = 0.48980 0.20501
#
# Static dielectric constant tensor:
#      x y z
#    x -1.013720 0.000000 -1.900630 
#    y 0.000000 1.769070 0.000000 
#    z -1.900630 0.000000 0.484960 
# 
# From -- ./inp_files/41727.got.cif
#   From: 2010.05.17/outbox.cif.g08.bks.cpg/sg5_21_cif.got.tgz:41727.got - 2010.06.03 18:56:24.
