data_PCOD9124294
_publ_section_title
;
Structure prediction by ZEFSAII (Michael W. Deem and Ramdas Pophale) SiO2 
 PCOD9124294
Probable space group: C 2
;
_chemical_formula_sum "Si O2"
_cell_formula_units_Z 32
_cell_length_a 11.776541
_cell_length_b 12.145720
_cell_length_c 10.885508
_cell_angle_alpha 90.000000
_cell_angle_beta 75.573487
_cell_angle_gamma 90.000000
_cell_volume 1507.908470
_symmetry_space_group_name_H-M "C 2"
_symmetry_group_IT_number 5
_symmetry_cell_setting 'monoclinic'
loop_
_space_group_symop_operation_xyz
x,y,z
-x,y,-z
1/2+x,1/2+y,z
1/2-x,1/2+y,-z
loop_
_atom_site_type_symbol
_atom_site_label
_atom_site_fract_x
_atom_site_fract_y
_atom_site_fract_z
Si Si1 0.197365 0.180500 0.641495
Si Si2 0.045283 0.780461 0.853935
Si Si3 0.086766 0.838786 0.366654
Si Si4 0.516431 0.798039 0.863387
Si Si5 0.688065 0.801906 0.255374
Si Si6 0.101517 0.509232 0.376474
Si Si7 0.923065 0.533623 0.215087
Si Si8 0.323629 0.578191 0.614528
O O1 0.290820 0.280576 0.629776
O O2 0.090075 0.219493 0.753952
O O3 0.154153 0.140279 0.519738
O O4 0.279817 0.077936 0.655154
O O5 0.174872 0.827395 0.792389
O O6 0.068786 0.648598 0.857691
O O7 0.963838 0.805623 0.755156
O O8 0.000000 0.818329 0.000000
O O9 0.000000 0.803503 0.500000
O O10 0.102509 0.970365 0.374061
O O11 0.387835 0.821839 0.844834
O O12 0.581220 0.917451 0.854332
O O13 0.500000 0.746653 0.000000
O O14 0.634013 0.880739 0.374472
O O15 0.667525 0.674832 0.289821
O O16 0.000000 0.538674 0.500000
O O17 0.039393 0.530251 0.264447
O O18 0.812516 0.540780 0.337525
#
# Coordination Sequence:
#
# PCOD9124294 Si02
#       8
#     4   4   4   4   4   4   4   4
#     4  12  25  42  71 103 140 188 234 311 354 445
#     4  11  25  46  73 103 147 193 246 297 367 441
#     4  12  26  44  72 104 144 186 241 305 371 438
#     4  11  26  45  69 100 144 193 244 292 367 434
#     4  10  27  43  67 103 141 185 236 297 359 438
#     4  11  22  39  69 101 140 182 241 291 363 431
#     4  10  20  43  67 102 133 190 239 300 341 439
#     4  11  25  41  69 104 144 179 239 299 377 415
#
# _framework density 21.221446
#
# number of rings (size 3 to 8) (size 9 to 14) (size 15 to 20)
#    0.000    1.000    3.750    2.250   10.500    0.000 
#    0.000    2.500    0.000    0.000    0.000    0.000 
#    0.000    0.000    0.000    0.000    0.000    0.000 
#
# Total GULP energy -89250.244043 kJ/mol
# GULP energy per Si atom -5578.140253 kJ/mol
# Density = 2.117315 g / cm^3
# Si number density = 21.221446 Si / 1000 Ang^3
#
#
#
# Elastic Constant Matrix: (Units=GPa)
#
#
# Indices 1 2 3 4 5 6 
#
# 1 71.5648 22.3864 32.8993 0.0000 -4.1069 0.0000
# 2 22.3864 105.5841 25.7304 0.0000 -0.5076 0.0000
# 3 32.8993 25.7304 119.5392 0.0000 -0.2502 0.0000
# 4 0.0000 0.0000 0.0000 16.4469 0.0000 -4.9899
# 5 -4.1069 -0.5076 -0.2502 0.0000 19.7723 0.0000
# 6 0.0000 0.0000 0.0000 -4.9899 0.0000 34.7936
#
#
#
# Elastic Compliance Matrix: (Units=1/GPa)
#
#
# Indices 1 2 3 4 5 6 
#
# 1 0.016843 -0.002561 -0.004077 0.000000 0.003381 0.000000
# 2 -0.002561 0.010386 -0.001531 0.000000 -0.000285 0.000000
# 3 -0.004077 -0.001531 0.009816 0.000000 -0.000762 0.000000
# 4 0.000000 0.000000 0.000000 0.063568 0.000000 0.009117
# 5 0.003381 -0.000285 -0.000762 0.000000 0.051261 0.000000
# 6 0.000000 0.000000 0.000000 0.009117 0.000000 0.030048
#
#
# Mechanical properties :
#
#
# Convention : Reuss Voigt Hill
#
# Bulk Modulus (GPa) = 48.29703 50.96892 49.63298
# Shear Modulus (GPa) = 24.37092 28.58068 26.47580
#
# Velocity S-wave (km/s) = 3.39250 3.67384 3.53596
# Velocity P-wave (km/s) = 6.17684 6.48582 6.33322
#
# Compressibility (1/GPa) = 0.02070521
#
# Stress axis : x y z
#
# Youngs Moduli (GPa) = 59.37228 96.28378 101.87934
#
# Poissons Ratio (x) = 0.24661 0.41537
# Poissons Ratio (y) = 0.15207 0.15600
# Poissons Ratio (z) = 0.24206 0.14743
#
# Static dielectric constant tensor:
#      x y z
#    x 1.783390 0.000000 0.001340 
#    y 0.000000 1.805120 0.000000 
#    z 0.001340 0.000000 1.776300 
# 
# From -- ./inp_files/39382.got.cif
#   From: 2010.05.17/outbox.cif.g08.bks.cpg/sg5_20_cif.got.tgz:39382.got - 2010.06.03 18:56:24.
