data_PCOD9124566
_publ_section_title
;
Structure prediction by ZEFSAII (Michael W. Deem and Ramdas Pophale) SiO2 
 PCOD9124566
Probable space group: C 2
;
_chemical_formula_sum "Si O2"
_cell_formula_units_Z 30
_cell_length_a 16.723877
_cell_length_b 8.871914
_cell_length_c 26.251959
_cell_angle_alpha 90.000000
_cell_angle_beta 23.913819
_cell_angle_gamma 90.000000
_cell_volume 1578.916366
_symmetry_space_group_name_H-M "C 2"
_symmetry_group_IT_number 5
_symmetry_cell_setting 'monoclinic'
loop_
_space_group_symop_operation_xyz
x,y,z
-x,y,-z
1/2+x,1/2+y,z
1/2-x,1/2+y,-z
loop_
_atom_site_type_symbol
_atom_site_label
_atom_site_fract_x
_atom_site_fract_y
_atom_site_fract_z
Si Si1 0.068399 0.042570 0.216812
Si Si2 0.206592 0.564026 0.360125
Si Si3 0.000000 0.041547 0.000000
Si Si4 0.129032 0.784720 0.993853
Si Si5 0.187850 0.206514 0.356539
Si Si6 0.124690 0.762147 0.113133
Si Si7 0.226331 0.554623 0.796372
Si Si8 0.925243 0.220925 0.138666
O O1 0.182987 0.182377 0.125451
O O2 0.129061 0.033372 0.240167
O O3 0.844683 0.060480 0.329586
O O4 0.134800 0.891397 0.149361
O O5 0.182243 0.389317 0.356787
O O6 0.304165 0.653890 0.256574
O O7 0.000000 0.626316 0.500000
O O8 0.882424 0.140918 0.109405
O O9 0.867881 0.928544 0.043786
O O10 0.108661 0.826471 0.065012
O O11 0.942134 0.676360 0.091024
O O12 0.416047 0.173977 0.241833
O O13 0.168461 0.126257 0.313684
O O14 0.000000 0.161847 0.500000
O O15 0.341515 0.690670 0.988142
O O16 0.122558 0.397713 0.840942
#
# Coordination Sequence:
#
# PCOD9124566 Si02
#       8
#     4   4   2   4   4   4   4   4
#     4  11  19  38  61  89 119 160 204 252 304 361
#     4  10  23  44  64  85 126 169 208 251 311 376
#     4  12  24  34  56  92 130 152 200 254 326 356
#     4  11  21  35  59  90 122 161 199 248 303 375
#     4   9  21  41  65  87 122 169 212 249 297 383
#     4  10  21  36  62  92 122 158 206 249 312 365
#     4  11  22  37  62  91 125 158 204 261 311 358
#     4  12  23  38  60  93 127 159 199 268 316 367
#
# _framework density 19.000371999999999
#
# number of rings (size 3 to 8) (size 9 to 14) (size 15 to 20)
#    0.000    1.333    4.000    3.200    0.000    0.533 
#    0.000    5.333    0.000    0.000    0.000    0.000 
#    0.000    0.000    0.000    0.000    0.000    0.000 
#
# Total GULP energy -83670.656782 kJ/mol
# GULP energy per Si atom -5578.043785 kJ/mol
# Density = 1.895713 g / cm^3
# Si number density = 19.000372 Si / 1000 Ang^3
#
#
#
# Elastic Constant Matrix: (Units=GPa)
#
#
# Indices 1 2 3 4 5 6 
#
# 1 142.8442 55.7058 61.8290 -0.0016 10.6120 -0.0007
# 2 55.7058 57.3890 39.0923 0.0009 8.9873 0.0005
# 3 61.8290 39.0923 150.4906 -0.0029 2.2096 -0.0023
# 4 -0.0016 0.0009 -0.0029 16.2134 -0.0020 5.6774
# 5 10.6120 8.9873 2.2096 -0.0020 18.9979 -0.0004
# 6 -0.0007 0.0005 -0.0023 5.6774 -0.0004 31.9184
#
#
#
# Elastic Compliance Matrix: (Units=1/GPa)
#
#
# Indices 1 2 3 4 5 6 
#
# 1 0.011938 -0.009698 -0.002359 0.000001 -0.001806 0.000000
# 2 -0.009698 0.030866 -0.003905 -0.000004 -0.008730 0.000000
# 3 -0.002359 -0.003905 0.008597 0.000002 0.002165 0.000000
# 4 0.000001 -0.000004 0.000002 0.065774 0.000008 -0.011699
# 5 -0.001806 -0.008730 0.002165 0.000008 0.057525 -0.000001
# 6 0.000000 0.000000 0.000000 -0.011699 -0.000001 0.033411
#
#
# Mechanical properties :
#
#
# Convention : Reuss Voigt Hill
#
# Bulk Modulus (GPa) = 51.34511 73.77535 62.56023
# Shear Modulus (GPa) = 20.28179 26.36572 23.32376
#
# Velocity S-wave (km/s) = 3.27072 3.72915 3.50743
# Velocity P-wave (km/s) = 6.43003 7.57989 7.02852
#
# Compressibility (1/GPa) = 0.01947605
#
# Stress axis : x y z
#
# Youngs Moduli (GPa) = 83.76715 32.39818 116.32271
#
# Poissons Ratio (x) = 0.31420 0.27440
# Poissons Ratio (y) = 0.81238 0.45428
# Poissons Ratio (z) = 0.19760 0.12652
#
# Static dielectric constant tensor:
#      x y z
#    x 1.687030 0.000000 -0.024260 
#    y 0.000000 1.679040 0.000000 
#    z -0.024260 0.000000 1.669560 
# 
# From -- ./inp_files/68699.got.cif
#   From: 2010.05.17/outbox.cif.g08.bks.cpg/sg5_35_cif.got.tgz:68699.got - 2010.06.03 18:56:24.
