data_PCOD9124069
_publ_section_title
;
Structure prediction by ZEFSAII (Michael W. Deem and Ramdas Pophale) SiO2 
 PCOD9124069
Probable space group: C 2
;
_chemical_formula_sum "Si O2"
_cell_formula_units_Z 20
_cell_length_a 18.054033
_cell_length_b 7.665232
_cell_length_c 8.366419
_cell_angle_alpha 90.000000
_cell_angle_beta 135.462377
_cell_angle_gamma 90.000000
_cell_volume 812.065304
_symmetry_space_group_name_H-M "C 2"
_symmetry_group_IT_number 5
_symmetry_cell_setting 'monoclinic'
loop_
_space_group_symop_operation_xyz
x,y,z
-x,y,-z
1/2+x,1/2+y,z
1/2-x,1/2+y,-z
loop_
_atom_site_type_symbol
_atom_site_label
_atom_site_fract_x
_atom_site_fract_y
_atom_site_fract_z
Si Si1 0.981378 0.925390 0.301857
Si Si2 0.617427 0.253926 0.265743
Si Si3 0.880954 0.385012 0.860988
Si Si4 0.396570 0.042424 0.241161
Si Si5 0.797300 0.041469 0.816423
O O1 0.916737 0.747054 0.236384
O O2 0.000000 0.012746 0.500000
O O3 0.087645 0.855628 0.382072
O O4 0.909019 0.045320 0.082526
O O5 0.692707 0.369222 0.273128
O O6 0.642499 0.049360 0.291490
O O7 0.500000 0.258115 0.000000
O O8 0.801702 0.222474 0.726254
O O9 0.880218 0.453290 0.043730
O O10 0.000000 0.329982 0.000000
O O11 0.500000 0.982297 0.500000
O O12 0.296508 0.027727 0.202372
#
# Coordination Sequence:
#
# PCOD9124069 Si02
#       5
#     4   4   4   4   4
#     4  10  20  41  70  92 131 170 204 269 332 373
#     4   9  18  39  65  92 128 168 200 265 328 372
#     4  11  20  38  68  90 123 171 212 258 324 380
#     4  11  23  41  61  91 132 170 213 265 318 370
#     4  11  22  39  67  95 122 171 217 257 317 389
#
# _framework density 24.628558999999999
#
# number of rings (size 3 to 8) (size 9 to 14) (size 15 to 20)
#    0.000    1.600    6.000    3.000    0.000    0.800 
#    0.000    6.000    0.000    0.000    0.000    0.000 
#    0.000    0.000    0.000    0.000    0.000    0.000 
#
# Total GULP energy -55993.025468 kJ/mol
# GULP energy per Si atom -5599.302547 kJ/mol
# Density = 2.457250 g / cm^3
# Si number density = 24.628559 Si / 1000 Ang^3
#
#
#
# Elastic Constant Matrix: (Units=GPa)
#
#
# Indices 1 2 3 4 5 6 
#
# 1 214.3228 46.2755 7.4025 0.0000 11.3571 0.0000
# 2 46.2755 67.5503 12.9244 0.0000 14.6934 0.0000
# 3 7.4025 12.9244 65.8270 0.0000 -2.8148 0.0000
# 4 0.0000 0.0000 0.0000 44.8559 0.0000 -2.7817
# 5 11.3571 14.6934 -2.8148 0.0000 34.9772 0.0000
# 6 0.0000 0.0000 0.0000 -2.7817 0.0000 39.8186
#
#
#
# Elastic Compliance Matrix: (Units=1/GPa)
#
#
# Indices 1 2 3 4 5 6 
#
# 1 0.005478 -0.003729 0.000107 0.000000 -0.000204 0.000000
# 2 -0.003729 0.019678 -0.003759 0.000000 -0.007358 0.000000
# 3 0.000107 -0.003759 0.016038 0.000000 0.002835 0.000000
# 4 0.000000 0.000000 0.000000 0.022391 0.000000 0.001564
# 5 -0.000204 -0.007358 0.002835 0.000000 0.031975 0.000000
# 6 0.000000 0.000000 0.000000 0.001564 0.000000 0.025223
#
#
# Mechanical properties :
#
#
# Convention : Reuss Voigt Hill
#
# Bulk Modulus (GPa) = 37.83050 53.43385 45.63218
# Shear Modulus (GPa) = 34.63659 42.67019 38.65339
#
# Velocity S-wave (km/s) = 3.75421 4.16691 3.96593
# Velocity P-wave (km/s) = 5.84687 6.70028 6.28807
#
# Compressibility (1/GPa) = 0.02643369
#
# Stress axis : x y z
#
# Youngs Moduli (GPa) = 182.54521 50.81794 62.34999
#
# Poissons Ratio (x) = 0.18950 -0.00670
# Poissons Ratio (y) = 0.68072 0.23436
# Poissons Ratio (z) = -0.01961 0.19102
#
# Static dielectric constant tensor:
#      x y z
#    x 1.915480 0.000000 -0.031350 
#    y 0.000000 1.912560 0.000000 
#    z -0.031350 0.000000 2.156960 
# 
# From -- ./inp_files/26825.got.cif
#   From: 2010.05.17/outbox.cif.g08.bks.cpg/sg5_14_cif.got.tgz:26825.got - 2010.06.03 18:56:24.
