data_PCOD9124750
_publ_section_title
;
Structure prediction by ZEFSAII (Michael W. Deem and Ramdas Pophale) SiO2 
 PCOD9124750
Probable space group: C 2
;
_chemical_formula_sum "Si O2"
_cell_formula_units_Z 32
_cell_length_a 9.066424
_cell_length_b 22.076395
_cell_length_c 15.281151
_cell_angle_alpha 90.000000
_cell_angle_beta 149.333900
_cell_angle_gamma 90.000000
_cell_volume 1559.981497
_symmetry_space_group_name_H-M "C 2"
_symmetry_group_IT_number 5
_symmetry_cell_setting 'monoclinic'
loop_
_space_group_symop_operation_xyz
x,y,z
-x,y,-z
1/2+x,1/2+y,z
1/2-x,1/2+y,-z
loop_
_atom_site_type_symbol
_atom_site_label
_atom_site_fract_x
_atom_site_fract_y
_atom_site_fract_z
Si Si1 0.772158 0.700360 0.204660
Si Si2 0.261764 0.102957 0.566779
Si Si3 0.677594 0.625254 0.329358
Si Si4 0.765348 0.909928 0.702694
Si Si5 0.332288 0.336242 0.199087
Si Si6 0.826254 0.950866 0.322517
Si Si7 0.835334 0.487355 0.188923
Si Si8 0.339076 0.514648 0.165606
O O1 0.701292 0.676928 0.267767
O O2 0.878799 0.769582 0.260760
O O3 0.016458 0.655985 0.291935
O O4 0.500000 0.697458 0.000000
O O5 0.132016 0.131914 0.410012
O O6 0.000000 0.093101 0.500000
O O7 0.477082 0.043666 0.676927
O O8 0.434772 0.578269 0.176435
O O9 0.000000 0.596099 0.500000
O O10 0.500000 0.912443 0.500000
O O11 0.657687 0.928449 0.743668
O O12 0.951455 0.850963 0.771284
O O13 0.987840 0.963904 0.796457
O O14 0.364422 0.389706 0.286622
O O15 0.000000 0.340000 0.000000
O O16 0.501265 0.966838 0.185852
O O17 0.000000 0.946649 0.500000
O O18 0.938768 0.004591 0.317177
O O19 0.500000 0.503607 0.000000
O O20 0.000000 0.505798 0.000000
#
# Coordination Sequence:
#
# PCOD9124750 Si02
#       8
#     4   4   4   4   4   4   4   4
#     4  10  23  43  64  85 114 158 211 257 302 355
#     4  11  23  39  60  89 128 162 198 248 301 360
#     4  10  21  38  60  85 116 159 204 248 299 357
#     4  11  21  36  58  86 119 155 193 236 293 354
#     4  10  22  43  63  82 115 157 199 245 300 357
#     4  11  22  36  58  89 121 154 193 242 296 355
#     4  12  22  35  59  92 124 153 193 240 296 361
#     4  11  21  36  57  84 121 158 193 234 293 357
#
# _framework density 20.513062999999999
#
# number of rings (size 3 to 8) (size 9 to 14) (size 15 to 20)
#    0.000    1.250    0.000    9.375    0.000    4.000 
#    0.000    1.250    0.000    3.750    0.000    0.000 
#    0.000    0.000    0.000    0.000    0.000    0.000 
#
# Total GULP energy -89223.345302 kJ/mol
# GULP energy per Si atom -5576.459081 kJ/mol
# Density = 2.046637 g / cm^3
# Si number density = 20.513063 Si / 1000 Ang^3
#
#
#
# Elastic Constant Matrix: (Units=GPa)
#
#
# Indices 1 2 3 4 5 6 
#
# 1 111.8526 42.4534 14.2131 -0.0001 -5.9226 0.0142
# 2 42.4534 120.5499 19.0098 0.0004 1.3159 0.0149
# 3 14.2131 19.0098 88.7661 0.0069 6.3269 0.0547
# 4 -0.0001 0.0004 0.0069 22.3368 0.0017 -6.3365
# 5 -5.9226 1.3159 6.3269 0.0017 37.3780 0.0285
# 6 0.0142 0.0149 0.0547 -6.3365 0.0285 -121.4394
#
#
#
# Elastic Compliance Matrix: (Units=1/GPa)
#
#
# Indices 1 2 3 4 5 6 
#
# 1 0.010532 -0.003563 -0.001064 0.000000 0.001974 0.000001
# 2 -0.003563 0.009790 -0.001479 0.000000 -0.000659 0.000000
# 3 -0.001064 -0.001479 0.011905 -0.000002 -0.002132 0.000005
# 4 0.000000 0.000000 -0.000002 0.044116 0.000000 -0.002302
# 5 0.001974 -0.000659 -0.002132 0.000000 0.027451 0.000006
# 6 0.000001 0.000000 0.000005 -0.002302 0.000006 -0.008114
#
#
# Mechanical properties :
#
#
# Convention : Reuss Voigt Hill
#
# Bulk Modulus (GPa) = 49.96254 52.50236 51.23245
# Shear Modulus (GPa) = 43.64374 4.02124 23.83249
#
# Velocity S-wave (km/s) = 4.61760 1.40164 3.41225
# Velocity P-wave (km/s) = 7.26904 5.31692 6.36823
#
# Compressibility (1/GPa) = 0.02001500
#
# Stress axis : x y z
#
# Youngs Moduli (GPa) = 94.94530 102.13988 84.00068
#
# Poissons Ratio (x) = 0.36391 0.08939
# Poissons Ratio (y) = 0.33828 0.12426
# Poissons Ratio (z) = 0.10104 0.15109
#
# Static dielectric constant tensor:
#      x y z
#    x 2.256320 -0.000040 0.150270 
#    y -0.000040 1.738670 -0.000020 
#    z 0.150270 -0.000020 1.870960 
# 
# From -- ./inp_files/25650.got.cif
#   From: 2010.05.17/outbox.cif.g08.bks.cpg/sg5_13_cif.got.tgz:25650.got - 2010.06.03 18:56:24.
