data_PCOD9124844
_publ_section_title
;
Structure prediction by ZEFSAII (Michael W. Deem and Ramdas Pophale) SiO2 
 PCOD9124844
Probable space group: C 2
;
_chemical_formula_sum "Si O2"
_cell_formula_units_Z 20
_cell_length_a 10.815188
_cell_length_b 12.569922
_cell_length_c 10.308063
_cell_angle_alpha 90.000000
_cell_angle_beta 39.893757
_cell_angle_gamma 90.000000
_cell_volume 898.772299
_symmetry_space_group_name_H-M "C 2"
_symmetry_group_IT_number 5
_symmetry_cell_setting 'monoclinic'
loop_
_space_group_symop_operation_xyz
x,y,z
-x,y,-z
1/2+x,1/2+y,z
1/2-x,1/2+y,-z
loop_
_atom_site_type_symbol
_atom_site_label
_atom_site_fract_x
_atom_site_fract_y
_atom_site_fract_z
Si Si1 0.196215 0.551500 0.284971
Si Si2 0.288847 0.765965 0.118053
Si Si3 0.718988 0.001246 0.781443
Si Si4 0.917109 0.019932 0.354902
Si Si5 0.888372 0.859912 0.971676
O O1 0.158486 0.663249 0.246145
O O2 0.331487 0.577713 0.299380
O O3 0.294013 0.465501 0.111969
O O4 0.000000 0.504888 0.500000
O O5 0.241893 0.874637 0.232226
O O6 0.500000 0.738581 0.000000
O O7 0.269499 0.796967 0.982624
O O8 0.768638 0.025320 0.593043
O O9 0.877590 0.053733 0.749034
O O10 0.500000 0.021300 0.000000
O O11 0.958283 0.903090 0.258401
O O12 0.000000 0.804105 0.000000
#
# Coordination Sequence:
#
# PCOD9124844 Si02
#       5
#     4   4   4   4   4
#     4  11  24  37  65  97 128 170 217 257 321 383
#     4  10  21  38  65  91 130 163 216 261 318 378
#     4   9  19  35  67  95 123 169 213 259 324 374
#     4   9  19  36  61  89 131 161 215 252 317 376
#     4   9  20  41  64  88 128 171 209 266 320 377
#
# _framework density 22.252576999999999
#
# number of rings (size 3 to 8) (size 9 to 14) (size 15 to 20)
#    0.000    2.400    0.000    1.800   14.000    0.000 
#    0.000    1.000    8.800    0.000    0.000    0.000 
#    0.000    0.000    0.000    0.000    0.000    0.000 
#
# Total GULP energy -55765.271842 kJ/mol
# GULP energy per Si atom -5576.527184 kJ/mol
# Density = 2.220193 g / cm^3
# Si number density = 22.252577 Si / 1000 Ang^3
#
#
#
# Elastic Constant Matrix: (Units=GPa)
#
#
# Indices 1 2 3 4 5 6 
#
# 1 159.2741 29.9388 61.6481 -0.0003 27.4016 0.0001
# 2 29.9388 50.6848 27.0673 -0.0003 7.7284 0.0003
# 3 61.6481 27.0673 131.8735 -0.0009 4.4933 0.0008
# 4 -0.0003 -0.0003 -0.0009 4.6199 0.0005 9.9305
# 5 27.4016 7.7284 4.4933 0.0005 34.0236 -0.0004
# 6 0.0001 0.0003 0.0008 9.9305 -0.0004 -7.2141
#
#
#
# Elastic Compliance Matrix: (Units=1/GPa)
#
#
# Indices 1 2 3 4 5 6 
#
# 1 0.009246 -0.002578 -0.003576 0.000000 -0.006389 0.000000
# 2 -0.002578 0.023570 -0.003537 0.000000 -0.002811 0.000001
# 3 -0.003576 -0.003537 0.009900 0.000000 0.002376 0.000001
# 4 0.000000 0.000000 0.000000 0.054676 0.000000 0.075263
# 5 -0.006389 -0.002811 0.002376 0.000000 0.034861 -0.000002
# 6 0.000000 0.000001 0.000001 0.075263 -0.000002 -0.035014
#
#
# Mechanical properties :
#
#
# Convention : Reuss Voigt Hill
#
# Bulk Modulus (GPa) = 42.85441 64.34897 53.60169
# Shear Modulus (GPa) = 40.19372 21.16441 30.67907
#
# Velocity S-wave (km/s) = 4.25461 3.08734 3.71708
# Velocity P-wave (km/s) = 6.59057 6.45672 6.52399
#
# Compressibility (1/GPa) = 0.02333482
#
# Stress axis : x y z
#
# Youngs Moduli (GPa) = 108.15326 42.42700 101.01493
#
# Poissons Ratio (x) = 0.10937 0.36119
# Poissons Ratio (y) = 0.27881 0.35728
# Poissons Ratio (z) = 0.38671 0.15006
#
# Static dielectric constant tensor:
#      x y z
#    x 1.877800 0.000000 -0.028040 
#    y 0.000000 1.804980 0.000000 
#    z -0.028040 0.000000 1.817790 
# 
# From -- ./inp_files/39524.got.cif
#   From: 2010.05.17/outbox.cif.g08.bks.cpg/sg5_20_cif.got.tgz:39524.got - 2010.06.03 18:56:24.
