data_PCOD9124708
_publ_section_title
;
Structure prediction by ZEFSAII (Michael W. Deem and Ramdas Pophale) SiO2 
 PCOD9124708
Probable space group: C 2
;
_chemical_formula_sum "Si O2"
_cell_formula_units_Z 20
_cell_length_a 11.144077
_cell_length_b 9.164020
_cell_length_c 9.586390
_cell_angle_alpha 90.000000
_cell_angle_beta 127.839713
_cell_angle_gamma 90.000000
_cell_volume 773.150184
_symmetry_space_group_name_H-M "C 2"
_symmetry_group_IT_number 5
_symmetry_cell_setting 'monoclinic'
loop_
_space_group_symop_operation_xyz
x,y,z
-x,y,-z
1/2+x,1/2+y,z
1/2-x,1/2+y,-z
loop_
_atom_site_type_symbol
_atom_site_label
_atom_site_fract_x
_atom_site_fract_y
_atom_site_fract_z
Si Si1 0.865630 0.397180 0.695795
Si Si2 0.838363 0.334528 0.381399
Si Si3 0.925779 0.817297 0.621096
Si Si4 0.036990 0.094936 0.865938
Si Si5 0.631002 0.063140 0.837219
O O1 0.864751 0.445172 0.530550
O O2 0.685108 0.373164 0.583372
O O3 0.935609 0.235728 0.761261
O O4 0.002370 0.496954 0.847560
O O5 0.693550 0.255129 0.343440
O O6 0.818276 0.429178 0.228799
O O7 0.000000 0.250375 0.500000
O O8 0.052750 0.695056 0.698817
O O9 0.994930 0.960372 0.739946
O O10 0.217106 0.121667 0.981627
O O11 0.000000 0.058670 0.000000
#
# Coordination Sequence:
#
# PCOD9124708 Si02
#       5
#     4   4   4   4   4
#     4   9  21  37  62  91 131 173 221 262 325 404
#     4   8  18  36  64  90 125 166 216 258 326 384
#     4  10  21  37  66  94 127 176 223 264 328 404
#     4  12  22  38  64  96 137 172 215 279 337 378
#     4  11  20  39  64  94 128 170 218 276 335 381
#
# _framework density 25.868195
#
# number of rings (size 3 to 8) (size 9 to 14) (size 15 to 20)
#    1.200    0.800    2.000    2.400    0.000    0.000 
#    0.000    1.000    8.800   10.800    0.000    0.000 
#    0.000    0.000    0.000    0.000    0.000    0.000 
#
# Total GULP energy -55674.638381 kJ/mol
# GULP energy per Si atom -5567.463838 kJ/mol
# Density = 2.580932 g / cm^3
# Si number density = 25.868195 Si / 1000 Ang^3
#
#
#
# Elastic Constant Matrix: (Units=GPa)
#
#
# Indices 1 2 3 4 5 6 
#
# 1 69.3721 32.6004 52.0572 0.0000 5.8345 0.0000
# 2 32.6004 80.0614 42.6676 0.0000 12.5320 0.0000
# 3 52.0572 42.6676 117.6689 0.0000 39.7719 0.0000
# 4 0.0000 0.0000 0.0000 40.5526 0.0000 19.8069
# 5 5.8345 12.5320 39.7719 0.0000 58.7340 0.0000
# 6 0.0000 0.0000 0.0000 19.8069 0.0000 31.7880
#
#
#
# Elastic Compliance Matrix: (Units=1/GPa)
#
#
# Indices 1 2 3 4 5 6 
#
# 1 0.024647 -0.005056 -0.011162 0.000000 0.006189 0.000000
# 2 -0.005056 0.016538 -0.003550 0.000000 -0.000623 0.000000
# 3 -0.011162 -0.003550 0.018276 0.000000 -0.010509 0.000000
# 4 0.000000 0.000000 0.000000 0.035447 0.000000 -0.022087
# 5 0.006189 -0.000623 -0.010509 0.000000 0.023660 0.000000
# 6 0.000000 0.000000 0.000000 -0.022087 0.000000 0.045221
#
#
# Mechanical properties :
#
#
# Convention : Reuss Voigt Hill
#
# Bulk Modulus (GPa) = 50.18766 57.97252 54.08009
# Shear Modulus (GPa) = 23.81323 35.53340 29.67332
#
# Velocity S-wave (km/s) = 3.03737 3.71028 3.39056
# Velocity P-wave (km/s) = 5.63420 6.38860 6.02322
#
# Compressibility (1/GPa) = 0.01992522
#
# Stress axis : x y z
#
# Youngs Moduli (GPa) = 40.57328 60.46541 54.71643
#
# Poissons Ratio (x) = 0.30571 0.61077
# Poissons Ratio (y) = 0.20513 0.19423
# Poissons Ratio (z) = 0.45290 0.21463
#
# Static dielectric constant tensor:
#      x y z
#    x 2.257050 0.000000 0.064370 
#    y 0.000000 1.996220 0.000000 
#    z 0.064370 0.000000 2.098110 
# 
# From -- ./inp_files/38488.got.cif
#   From: 2010.05.17/outbox.cif.g08.bks.cpg/sg5_20_cif.got.tgz:38488.got - 2010.06.03 18:56:24.
