data_PCOD9124646
_publ_section_title
;
Structure prediction by ZEFSAII (Michael W. Deem and Ramdas Pophale) SiO2 
 PCOD9124646
Probable space group: C 2
;
_chemical_formula_sum "Si O2"
_cell_formula_units_Z 30
_cell_length_a 12.781993
_cell_length_b 17.741224
_cell_length_c 12.161515
_cell_angle_alpha 90.000000
_cell_angle_beta 34.049295
_cell_angle_gamma 90.000000
_cell_volume 1544.133804
_symmetry_space_group_name_H-M "C 2"
_symmetry_group_IT_number 5
_symmetry_cell_setting 'monoclinic'
loop_
_space_group_symop_operation_xyz
x,y,z
-x,y,-z
1/2+x,1/2+y,z
1/2-x,1/2+y,-z
loop_
_atom_site_type_symbol
_atom_site_label
_atom_site_fract_x
_atom_site_fract_y
_atom_site_fract_z
Si Si1 0.286326 0.879330 0.060775
Si Si2 0.551130 0.614075 0.830669
Si Si3 0.205706 0.715015 0.041311
Si Si4 0.500000 0.157476 0.000000
Si Si5 0.336630 0.212760 0.484990
Si Si6 0.151497 0.139081 0.437101
Si Si7 0.728095 0.875301 0.666504
Si Si8 0.974713 0.997478 0.325695
O O1 0.241504 0.803820 0.030889
O O2 0.235985 0.867943 0.233948
O O3 0.166312 0.953151 0.137243
O O4 0.506902 0.890028 0.853905
O O5 0.741276 0.661695 0.659640
O O6 0.582700 0.536585 0.738021
O O7 0.500000 0.601588 0.000000
O O8 0.387526 0.664228 0.912356
O O9 0.048533 0.696246 0.269344
O O10 0.113971 0.700192 0.999996
O O11 0.665385 0.114761 0.791227
O O12 0.226376 0.189198 0.470753
O O13 0.294182 0.298001 0.553508
O O14 0.000000 0.185071 0.500000
O O15 0.032428 0.069419 0.587559
O O16 0.836457 0.939885 0.506539
#
# Coordination Sequence:
#
# PCOD9124646 Si02
#       8
#     4   4   4   2   4   4   4   4
#     4  11  23  37  61  93 123 162 206 258 312 362
#     4  11  24  43  66  92 127 165 206 258 312 376
#     4  11  22  39  65  95 126 161 213 256 311 366
#     4  10  22  38  62  96 122 164 210 258 306 370
#     4  10  21  37  62  93 121 157 208 258 303 367
#     4  10  21  37  60  89 124 161 204 252 310 368
#     4  11  22  38  61  91 126 158 208 261 308 362
#     4  11  24  40  60  90 128 161 203 254 318 372
#
# _framework density 19.428369
#
# number of rings (size 3 to 8) (size 9 to 14) (size 15 to 20)
#    0.000    1.333    2.667    3.600    0.000    6.933 
#    1.200    0.000    0.000    0.000    0.000    0.000 
#    0.000    0.000    0.000    0.000    0.000    0.000 
#
# Total GULP energy -83642.007915 kJ/mol
# GULP energy per Si atom -5576.133861 kJ/mol
# Density = 1.938415 g / cm^3
# Si number density = 19.428369 Si / 1000 Ang^3
#
#
#
# Elastic Constant Matrix: (Units=GPa)
#
#
# Indices 1 2 3 4 5 6 
#
# 1 64.2683 24.2339 17.2211 -0.0009 7.4997 0.0047
# 2 24.2339 78.7617 20.8588 -0.0012 2.4421 0.0033
# 3 17.2211 20.8588 115.6413 -0.0029 4.5542 0.0045
# 4 -0.0009 -0.0012 -0.0029 31.7729 0.0019 7.5331
# 5 7.4997 2.4421 4.5542 0.0019 34.3385 -0.0017
# 6 0.0047 0.0033 0.0045 7.5331 -0.0017 -25.1190
#
#
#
# Elastic Compliance Matrix: (Units=1/GPa)
#
#
# Indices 1 2 3 4 5 6 
#
# 1 0.018327 -0.005089 -0.001677 0.000000 -0.003418 0.000003
# 2 -0.005089 0.014760 -0.001917 0.000000 0.000316 0.000001
# 3 -0.001677 -0.001917 0.009272 0.000000 -0.000727 0.000001
# 4 0.000000 0.000000 0.000000 0.029384 -0.000001 0.008812
# 5 -0.003418 0.000316 -0.000727 -0.000001 0.029942 -0.000003
# 6 0.000003 0.000001 0.000001 0.008812 -0.000003 -0.037168
#
#
# Mechanical properties :
#
#
# Convention : Reuss Voigt Hill
#
# Bulk Modulus (GPa) = 40.01046 42.58879 41.29963
# Shear Modulus (GPa) = 55.42410 21.28899 38.35654
#
# Velocity S-wave (km/s) = 5.34690 3.31383 4.44808
# Velocity P-wave (km/s) = 7.66535 6.05066 6.90537
#
# Compressibility (1/GPa) = 0.02499346
#
# Stress axis : x y z
#
# Youngs Moduli (GPa) = 54.56476 67.74979 107.85711
#
# Poissons Ratio (x) = 0.34477 0.18084
# Poissons Ratio (y) = 0.27767 0.20676
# Poissons Ratio (z) = 0.09149 0.12988
#
# Static dielectric constant tensor:
#      x y z
#    x 1.728760 0.000000 -0.003900 
#    y 0.000000 1.667130 0.000000 
#    z -0.003900 0.000000 1.705270 
# 
# From -- ./inp_files/40442.got.cif
#   From: 2010.05.17/outbox.cif.g08.bks.cpg/sg5_21_cif.got.tgz:40442.got - 2010.06.03 18:56:24.
