data_PCOD9124095
_publ_section_title
;
Structure prediction by ZEFSAII (Michael W. Deem and Ramdas Pophale) SiO2 
 PCOD9124095
Probable space group: C 2
;
_chemical_formula_sum "Si O2"
_cell_formula_units_Z 28
_cell_length_a 19.961203
_cell_length_b 6.095933
_cell_length_c 24.168777
_cell_angle_alpha 90.000000
_cell_angle_beta 158.458569
_cell_angle_gamma 90.000000
_cell_volume 1079.825055
_symmetry_space_group_name_H-M "C 2"
_symmetry_group_IT_number 5
_symmetry_cell_setting 'monoclinic'
loop_
_space_group_symop_operation_xyz
x,y,z
-x,y,-z
1/2+x,1/2+y,z
1/2-x,1/2+y,-z
loop_
_atom_site_type_symbol
_atom_site_label
_atom_site_fract_x
_atom_site_fract_y
_atom_site_fract_z
Si Si1 0.707187 0.279650 0.412347
Si Si2 0.052009 0.425415 0.745192
Si Si3 0.000000 0.666579 0.500000
Si Si4 0.000000 0.494496 0.000000
Si Si5 0.527443 0.635504 0.823910
Si Si6 0.287487 0.002972 0.678816
Si Si7 0.258436 0.102354 0.216786
Si Si8 0.995579 0.840766 0.090988
O O1 0.857482 0.339178 0.572405
O O2 0.643523 0.497564 0.331401
O O3 0.797264 0.094791 0.442537
O O4 0.516375 0.160195 0.282687
O O5 0.119368 0.229013 0.837971
O O6 0.190241 0.486336 0.801922
O O7 0.067334 0.559986 0.608944
O O8 0.164675 0.827456 0.613048
O O9 0.817148 0.348301 0.850038
O O10 0.054849 0.641258 0.989175
O O11 0.593855 0.485181 0.926634
O O12 0.470391 0.867988 0.806200
O O13 0.336624 0.218514 0.749265
O O14 0.089667 0.008452 0.121629
#
# Coordination Sequence:
#
# PCOD9124095 Si02
#       8
#     4   4   2   2   4   4   4   4
#     4  10  21  35  61  96 153 202 230 295 387 467
#     4  11  23  38  66 110 158 200 244 314 391 479
#     4  12  22  40  66 110 160 184 244 330 388 470
#     4  12  26  52  70 110 154 212 264 332 384 466
#     4  10  20  42  61 102 145 200 247 299 387 461
#     4  10  22  37  62 102 145 190 233 299 383 455
#     4  12  28  43  72 119 156 197 267 328 387 462
#     4  11  23  45  74 106 143 207 252 321 382 454
#
# _framework density 25.930126000000001
#
# number of rings (size 3 to 8) (size 9 to 14) (size 15 to 20)
#    0.000    1.143    4.286    1.286    6.000    1.143 
#    0.000    0.000    0.000    0.000  167.143    0.000 
#    0.000    0.000    0.000    0.000    0.000    0.000 
#
# Total GULP energy -78049.087142 kJ/mol
# GULP energy per Si atom -5574.934796 kJ/mol
# Density = 2.587111 g / cm^3
# Si number density = 25.930126 Si / 1000 Ang^3
#
#
#
# Elastic Constant Matrix: (Units=GPa)
#
#
# Indices 1 2 3 4 5 6 
#
# 1 144.9547 65.8163 44.2246 0.0002 -24.3874 -0.0003
# 2 65.8163 101.6579 44.8061 0.0009 -22.7324 0.0014
# 3 44.2246 44.8061 71.6938 -0.0047 -20.1694 -0.0061
# 4 0.0002 0.0009 -0.0047 43.9136 0.0004 -17.4586
# 5 -24.3874 -22.7324 -20.1694 0.0004 40.5563 -0.0001
# 6 -0.0003 0.0014 -0.0061 -17.4586 -0.0001 43.6381
#
#
#
# Elastic Compliance Matrix: (Units=1/GPa)
#
#
# Indices 1 2 3 4 5 6 
#
# 1 0.010358 -0.005084 -0.002629 0.000000 0.002071 0.000000
# 2 -0.005084 0.016636 -0.006392 -0.000002 0.003089 -0.000002
# 3 -0.002629 -0.006392 0.021059 0.000004 0.005309 0.000005
# 4 0.000000 -0.000002 0.000004 0.027079 0.000001 0.010834
# 5 0.002071 0.003089 0.005309 0.000001 0.030274 0.000001
# 6 0.000000 -0.000002 0.000005 0.010834 0.000001 0.027250
#
#
# Mechanical properties :
#
#
# Convention : Reuss Voigt Hill
#
# Bulk Modulus (GPa) = 50.39817 69.77783 60.08800
# Shear Modulus (GPa) = 29.85423 36.51890 33.18657
#
# Velocity S-wave (km/s) = 3.39681 3.75688 3.58137
# Velocity P-wave (km/s) = 5.90447 6.76663 6.35020
#
# Compressibility (1/GPa) = 0.01984199
#
# Stress axis : x y z
#
# Youngs Moduli (GPa) = 96.54720 60.10888 47.48675
#
# Poissons Ratio (x) = 0.30558 0.12486
# Poissons Ratio (y) = 0.49083 0.30354
# Poissons Ratio (z) = 0.25385 0.38423
#
# Static dielectric constant tensor:
#      x y z
#    x 2.355520 0.000000 0.133560 
#    y 0.000000 1.963540 0.000000 
#    z 0.133560 0.000000 2.235700 
# 
# From -- ./inp_files/69353.got.cif
#   From: 2010.05.17/outbox.cif.g08.bks.cpg/sg5_35_cif.got.tgz:69353.got - 2010.06.03 18:56:24.
