data_PCOD9124105
_publ_section_title
;
Structure prediction by ZEFSAII (Michael W. Deem and Ramdas Pophale) SiO2 
 PCOD9124105
Probable space group: C 2
;
_chemical_formula_sum "Si O2"
_cell_formula_units_Z 24
_cell_length_a 13.757200
_cell_length_b 5.231278
_cell_length_c 13.111416
_cell_angle_alpha 90.000000
_cell_angle_beta 106.783563
_cell_angle_gamma 90.000000
_cell_volume 903.403874
_symmetry_space_group_name_H-M "C 2"
_symmetry_group_IT_number 5
_symmetry_cell_setting 'monoclinic'
loop_
_space_group_symop_operation_xyz
x,y,z
-x,y,-z
1/2+x,1/2+y,z
1/2-x,1/2+y,-z
loop_
_atom_site_type_symbol
_atom_site_label
_atom_site_fract_x
_atom_site_fract_y
_atom_site_fract_z
Si Si1 0.514416 0.985580 0.687230
Si Si2 0.500000 0.358118 0.500000
Si Si3 0.140153 0.123605 0.396631
Si Si4 0.554635 0.336939 0.185091
Si Si5 0.272664 0.979873 0.260618
Si Si6 0.775614 0.330578 0.941776
Si Si7 0.000000 0.214178 0.000000
O O1 0.398571 0.911277 0.621864
O O2 0.620775 0.836233 0.716081
O O3 0.537400 0.186236 0.604410
O O4 0.501537 0.084203 0.798136
O O5 0.597400 0.519621 0.489554
O O6 0.061337 0.001381 0.291225
O O7 0.243299 0.058050 0.369391
O O8 0.674156 0.315049 0.196502
O O9 0.497024 0.514049 0.091308
O O10 0.269791 0.219746 0.179815
O O11 0.896232 0.367006 0.960704
O O12 0.763700 0.088134 0.016193
#
# Coordination Sequence:
#
# PCOD9124105 Si02
#       7
#     4   2   4   4   4   4   2
#     4  11  20  42  67  79 128 165 196 277 322 371
#     4  10  22  44  60  92 120 150 214 268 322 394
#     4   9  21  42  58  91 120 154 215 253 316 390
#     4   8  20  39  56  95 123 157 219 244 306 391
#     4   9  22  41  60  98 120 167 214 254 319 388
#     4  11  25  41  66 102 137 178 232 264 326 399
#     4  10  20  42  62  94 142 176 212 282 318 380
#
# _framework density 26.566191
#
# number of rings (size 3 to 8) (size 9 to 14) (size 15 to 20)
#    1.000    1.333    0.000    1.500    2.333    3.333 
#   12.000    0.000    0.000    0.000    0.000    0.000 
#    0.000    0.000    0.000    0.000    0.000    0.000 
#
# Total GULP energy -66891.008947 kJ/mol
# GULP energy per Si atom -5574.250746 kJ/mol
# Density = 2.650573 g / cm^3
# Si number density = 26.566191 Si / 1000 Ang^3
#
#
#
# Elastic Constant Matrix: (Units=GPa)
#
#
# Indices 1 2 3 4 5 6 
#
# 1 154.7667 19.3261 0.8504 0.0000 -13.1458 0.0000
# 2 19.3261 49.7883 12.5325 0.0000 -11.7315 0.0000
# 3 0.8504 12.5325 79.8994 0.0000 -22.0653 0.0000
# 4 0.0000 0.0000 0.0000 35.0195 0.0000 -12.4422
# 5 -13.1458 -11.7315 -22.0653 0.0000 38.6978 0.0000
# 6 0.0000 0.0000 0.0000 -12.4422 0.0000 17.2637
#
#
#
# Elastic Compliance Matrix: (Units=1/GPa)
#
#
# Indices 1 2 3 4 5 6 
#
# 1 0.006939 -0.002416 0.000895 0.000000 0.002135 0.000000
# 2 -0.002416 0.022711 -0.002210 0.000000 0.004804 0.000000
# 3 0.000895 -0.002210 0.015135 0.000000 0.008264 0.000000
# 4 0.000000 0.000000 0.000000 0.038384 0.000000 0.027664
# 5 0.002135 0.004804 0.008264 0.000000 0.032735 0.000000
# 6 0.000000 0.000000 0.000000 0.027664 0.000000 0.077863
#
#
# Mechanical properties :
#
#
# Convention : Reuss Voigt Hill
#
# Bulk Modulus (GPa) = 26.79257 38.87472 32.83365
# Shear Modulus (GPa) = 23.40045 34.97922 29.18984
#
# Velocity S-wave (km/s) = 2.97111 3.63255 3.31835
# Velocity P-wave (km/s) = 4.67729 5.67968 5.20269
#
# Compressibility (1/GPa) = 0.03732378
#
# Stress axis : x y z
#
# Youngs Moduli (GPa) = 144.10375 44.03147 66.07186
#
# Poissons Ratio (x) = 0.10637 -0.05912
# Poissons Ratio (y) = 0.34812 0.14601
# Poissons Ratio (z) = -0.12893 0.09730
#
# Static dielectric constant tensor:
#      x y z
#    x 2.100100 0.000000 0.017390 
#    y 0.000000 2.716960 0.000000 
#    z 0.017390 0.000000 2.190910 
# 
# From -- ./inp_files/53658.got.cif
#   From: 2010.05.17/outbox.cif.g08.bks.cpg/sg5_27_cif.got.tgz:53658.got - 2010.06.03 18:56:24.
