data_PCOD9124775
_publ_section_title
;
Structure prediction by ZEFSAII (Michael W. Deem and Ramdas Pophale) SiO2 
 PCOD9124775
Probable space group: C 2
;
_chemical_formula_sum "Si O2"
_cell_formula_units_Z 24
_cell_length_a 15.447669
_cell_length_b 4.745144
_cell_length_c 21.658226
_cell_angle_alpha 90.000000
_cell_angle_beta 141.143198
_cell_angle_gamma 90.000000
_cell_volume 996.008902
_symmetry_space_group_name_H-M "C 2"
_symmetry_group_IT_number 5
_symmetry_cell_setting 'monoclinic'
loop_
_space_group_symop_operation_xyz
x,y,z
-x,y,-z
1/2+x,1/2+y,z
1/2-x,1/2+y,-z
loop_
_atom_site_type_symbol
_atom_site_label
_atom_site_fract_x
_atom_site_fract_y
_atom_site_fract_z
Si Si1 0.347901 0.016430 0.549066
Si Si2 0.368735 0.573011 0.884615
Si Si3 0.144472 0.174511 0.258102
Si Si4 0.973021 0.693790 0.742646
Si Si5 0.177178 0.077520 0.789017
Si Si6 0.049967 0.908720 0.591597
O O1 0.214058 0.207784 0.491203
O O2 0.442068 0.038435 0.661784
O O3 0.438078 0.167095 0.546489
O O4 0.399345 0.521402 0.829636
O O5 0.314160 0.891937 0.853757
O O6 0.239923 0.383273 0.835194
O O7 0.500000 0.532319 0.000000
O O8 0.045165 0.439209 0.218927
O O9 0.299793 0.280714 0.338638
O O10 0.142768 0.927687 0.307452
O O11 0.100022 0.907903 0.800749
O O12 0.084282 0.073206 0.674840
O O13 0.000000 0.051929 0.500000
#
# Coordination Sequence:
#
# PCOD9124775 Si02
#       6
#     4   4   4   4   4   4
#     4  11  23  37  57  86 125 172 216 260 316 378
#     4  11  23  44  69  94 124 166 217 271 328 390
#     4  11  23  40  64  93 125 167 216 268 321 386
#     4  11  22  40  61  91 132 167 209 268 325 384
#     4  10  23  41  65  95 130 170 210 264 329 387
#     4  10  21  38  61  91 127 168 214 259 311 383
#
# _framework density 24.096171999999999
#
# number of rings (size 3 to 8) (size 9 to 14) (size 15 to 20)
#    0.000    1.333    0.000    6.500    0.000    8.000 
#    0.000   13.333    0.000    0.000    0.000    0.000 
#    0.000    0.000    0.000    0.000    0.000    0.000 
#
# Total GULP energy -67074.137051 kJ/mol
# GULP energy per Si atom -5589.511421 kJ/mol
# Density = 2.404133 g / cm^3
# Si number density = 24.096172 Si / 1000 Ang^3
#
#
#
# Elastic Constant Matrix: (Units=GPa)
#
#
# Indices 1 2 3 4 5 6 
#
# 1 103.2484 34.4147 39.3695 -0.0028 1.9561 0.0000
# 2 34.4147 115.5969 24.8171 -0.0047 1.2819 0.0061
# 3 39.3695 24.8171 146.0463 -0.0003 8.1280 -0.0005
# 4 -0.0028 -0.0047 -0.0003 22.6459 -0.0006 7.4109
# 5 1.9561 1.2819 8.1280 -0.0006 17.8986 -0.0013
# 6 0.0000 0.0061 -0.0005 7.4109 -0.0013 49.1760
#
#
#
# Elastic Compliance Matrix: (Units=1/GPa)
#
#
# Indices 1 2 3 4 5 6 
#
# 1 0.011664 -0.002903 -0.002659 0.000001 0.000141 0.000000
# 2 -0.002903 0.009701 -0.000867 0.000002 0.000016 -0.000002
# 3 -0.002659 -0.000867 0.007891 -0.000001 -0.003231 0.000000
# 4 0.000001 0.000002 -0.000001 0.046449 0.000001 -0.007000
# 5 0.000141 0.000016 -0.003231 0.000001 0.057321 0.000001
# 6 0.000000 -0.000002 0.000000 -0.007000 0.000001 0.021390
#
#
# Mechanical properties :
#
#
# Convention : Reuss Voigt Hill
#
# Bulk Modulus (GPa) = 60.98105 62.45493 61.71799
# Shear Modulus (GPa) = 28.94526 35.69679 32.32103
#
# Velocity S-wave (km/s) = 3.46965 3.85311 3.66640
# Velocity P-wave (km/s) = 6.43534 6.76540 6.60243
#
# Compressibility (1/GPa) = 0.01639854
#
# Stress axis : x y z
#
# Youngs Moduli (GPa) = 85.73185 103.08206 126.72759
#
# Poissons Ratio (x) = 0.29928 0.33694
# Poissons Ratio (y) = 0.24891 0.10983
# Poissons Ratio (z) = 0.22794 0.08934
#
# Static dielectric constant tensor:
#      x y z
#    x 2.078010 -0.000010 -0.033280 
#    y -0.000010 1.926100 0.000000 
#    z -0.033280 0.000000 1.860950 
# 
# From -- ./inp_files/65732.got.cif
#   From: 2010.05.17/outbox.cif.g08.bks.cpg/sg5_33_cif.got.tgz:65732.got - 2010.06.03 18:56:24.
