data_PCOD9124092
_publ_section_title
;
Structure prediction by ZEFSAII (Michael W. Deem and Ramdas Pophale) SiO2 
 PCOD9124092
Probable space group: C 2
;
_chemical_formula_sum "Si O2"
_cell_formula_units_Z 26
_cell_length_a 15.756517
_cell_length_b 9.122904
_cell_length_c 15.674457
_cell_angle_alpha 90.000000
_cell_angle_beta 142.406333
_cell_angle_gamma 90.000000
_cell_volume 1374.537728
_symmetry_space_group_name_H-M "C 2"
_symmetry_group_IT_number 5
_symmetry_cell_setting 'monoclinic'
loop_
_space_group_symop_operation_xyz
x,y,z
-x,y,-z
1/2+x,1/2+y,z
1/2-x,1/2+y,-z
loop_
_atom_site_type_symbol
_atom_site_label
_atom_site_fract_x
_atom_site_fract_y
_atom_site_fract_z
Si Si1 0.633221 0.887710 0.353539
Si Si2 0.872948 0.641433 0.958768
Si Si3 0.600581 0.194234 0.420357
Si Si4 0.000000 0.532084 0.500000
Si Si5 0.373577 0.855391 0.251351
Si Si6 0.673229 0.156006 0.881296
Si Si7 0.445227 0.815790 0.043275
O O1 0.783086 0.817116 0.486988
O O2 0.521831 0.812630 0.329049
O O3 0.567202 0.859343 0.207174
O O4 0.634716 0.058253 0.383491
O O5 0.883925 0.669865 0.068638
O O6 0.872614 0.465761 0.953229
O O7 0.732950 0.724733 0.823002
O O8 0.000000 0.692270 0.000000
O O9 0.589848 0.127720 0.506456
O O10 0.442342 0.235546 0.269358
O O11 0.902134 0.433004 0.363561
O O12 0.322304 0.986346 0.146763
O O13 0.826208 0.221978 0.994255
O O14 0.500000 0.741377 0.000000
#
# Coordination Sequence:
#
# PCOD9124092 Si02
#       7
#     4   4   4   2   4   4   4
#     4  10  21  41  60  86 118 155 194 238 295 345
#     4  11  21  37  60  88 120 152 190 246 296 341
#     4  10  22  39  63  83 120 154 196 243 290 344
#     4   8  20  40  58  84 116 156 198 242 280 350
#     4  10  21  40  60  84 118 155 196 244 286 348
#     4  10  20  42  60  86 119 153 198 239 291 348
#     4  11  23  39  62  87 121 153 195 243 295 346
#
# _framework density 18.915451000000001
#
# number of rings (size 3 to 8) (size 9 to 14) (size 15 to 20)
#    0.000    2.154    4.615    0.000    4.308    4.308 
#    2.769    0.000    0.000    0.000    0.000    0.000 
#    0.000    0.000    0.000    0.000    0.000    0.000 
#
# Total GULP energy -72445.857134 kJ/mol
# GULP energy per Si atom -5572.758241 kJ/mol
# Density = 1.887240 g / cm^3
# Si number density = 18.915451 Si / 1000 Ang^3
#
#
#
# Elastic Constant Matrix: (Units=GPa)
#
#
# Indices 1 2 3 4 5 6 
#
# 1 85.6762 3.1680 17.2336 0.0000 -19.8873 0.0000
# 2 3.1680 26.8375 10.0802 0.0000 9.1760 0.0000
# 3 17.2336 10.0802 44.5025 0.0000 -5.6675 0.0000
# 4 0.0000 0.0000 0.0000 27.2706 0.0000 11.9503
# 5 -19.8873 9.1760 -5.6675 0.0000 35.6982 0.0000
# 6 0.0000 0.0000 0.0000 11.9503 0.0000 29.2459
#
#
#
# Elastic Compliance Matrix: (Units=1/GPa)
#
#
# Indices 1 2 3 4 5 6 
#
# 1 0.014475 -0.003078 -0.003859 0.000000 0.008242 0.000000
# 2 -0.003078 0.047326 -0.011529 0.000000 -0.015710 0.000000
# 3 -0.003859 -0.011529 0.027230 0.000000 0.005137 0.000000
# 4 0.000000 0.000000 0.000000 0.044668 0.000000 -0.018252
# 5 0.008242 -0.015710 0.005137 0.000000 0.037458 0.000000
# 6 0.000000 0.000000 0.000000 -0.018252 0.000000 0.041651
#
#
# Mechanical properties :
#
#
# Convention : Reuss Voigt Hill
#
# Bulk Modulus (GPa) = 19.19317 24.21998 21.70657
# Shear Modulus (GPa) = 18.71921 26.87856 22.79888
#
# Velocity S-wave (km/s) = 3.14924 3.77368 3.47552
# Velocity P-wave (km/s) = 4.83658 5.64090 5.25415
#
# Compressibility (1/GPa) = 0.05210186
#
# Stress axis : x y z
#
# Youngs Moduli (GPa) = 69.08436 21.12999 36.72359
#
# Poissons Ratio (x) = 0.06503 0.14170
# Poissons Ratio (y) = 0.21261 0.42337
# Poissons Ratio (z) = 0.26657 0.24360
#
# Static dielectric constant tensor:
#      x y z
#    x 1.689340 0.000000 -0.010290 
#    y 0.000000 1.658020 0.000000 
#    z -0.010290 0.000000 1.681870 
# 
# From -- ./inp_files/23375.got.cif
#   From: 2010.05.17/outbox.cif.g08.bks.cpg/sg5_12_cif.got.tgz:23375.got - 2010.06.03 18:56:24.
