data_PCOD9124296
_publ_section_title
;
Structure prediction by ZEFSAII (Michael W. Deem and Ramdas Pophale) SiO2 
 PCOD9124296
Probable space group: C 2
;
_chemical_formula_sum "Si O2"
_cell_formula_units_Z 26
_cell_length_a 17.982980
_cell_length_b 8.613444
_cell_length_c 7.437056
_cell_angle_alpha 90.000000
_cell_angle_beta 118.695519
_cell_angle_gamma 90.000000
_cell_volume 1010.485555
_symmetry_space_group_name_H-M "C 2"
_symmetry_group_IT_number 5
_symmetry_cell_setting 'monoclinic'
loop_
_space_group_symop_operation_xyz
x,y,z
-x,y,-z
1/2+x,1/2+y,z
1/2-x,1/2+y,-z
loop_
_atom_site_type_symbol
_atom_site_label
_atom_site_fract_x
_atom_site_fract_y
_atom_site_fract_z
Si Si1 0.092122 0.133430 0.257216
Si Si2 0.753442 0.120224 0.018322
Si Si3 0.670541 0.130229 0.560867
Si Si4 0.500000 0.351715 0.000000
Si Si5 0.921570 0.284681 0.129407
Si Si6 0.568512 0.145585 0.773653
Si Si7 0.760973 0.966875 0.386203
O O1 0.170623 0.096749 0.473501
O O2 0.006887 0.184845 0.262681
O O3 0.099767 0.258232 0.106410
O O4 0.074404 0.972977 0.130360
O O5 0.839865 0.215104 0.134390
O O6 0.752528 0.984328 0.163189
O O7 0.736884 0.071314 0.792054
O O8 0.663380 0.203498 0.949146
O O9 0.584194 0.149602 0.574959
O O10 0.678442 0.012413 0.406234
O O11 0.701113 0.298670 0.535041
O O12 0.510787 0.247352 0.836247
O O13 0.938405 0.463475 0.190193
#
# Coordination Sequence:
#
# PCOD9124296 Si02
#       7
#     4   4   4   2   4   4   4
#     4  10  24  39  70 103 139 183 231 278 358 406
#     4  10  24  41  73  99 133 180 232 289 345 401
#     4  10  27  41  72 107 134 182 229 288 342 407
#     4  10  22  42  70 100 148 188 216 294 346 408
#     4  10  20  43  68 101 138 184 229 280 345 405
#     4  10  23  43  71  99 141 187 232 277 351 405
#     4  12  25  45  71 103 140 178 236 284 345 414
#
# _framework density 25.730205000000002
#
# number of rings (size 3 to 8) (size 9 to 14) (size 15 to 20)
#    0.923    0.923    1.538    1.846    8.615    0.615 
#    0.000    0.000    3.385    0.000    0.000    0.000 
#    0.000    0.000    0.000    0.000    0.000    0.000 
#
# Total GULP energy -72667.695890 kJ/mol
# GULP energy per Si atom -5589.822761 kJ/mol
# Density = 2.567164 g / cm^3
# Si number density = 25.730205 Si / 1000 Ang^3
#
#
#
# Elastic Constant Matrix: (Units=GPa)
#
#
# Indices 1 2 3 4 5 6 
#
# 1 108.9056 58.3884 27.2322 0.0000 -28.3246 0.0000
# 2 58.3884 137.8608 49.3088 0.0000 -51.4051 0.0000
# 3 27.2322 49.3088 87.9551 0.0000 -18.2267 0.0000
# 4 0.0000 0.0000 0.0000 35.9655 0.0000 -10.9299
# 5 -28.3246 -51.4051 -18.2267 0.0000 25.3588 0.0000
# 6 0.0000 0.0000 0.0000 -10.9299 0.0000 43.0834
#
#
#
# Elastic Compliance Matrix: (Units=1/GPa)
#
#
# Indices 1 2 3 4 5 6 
#
# 1 0.013049 0.000068 -0.001209 0.000000 0.013843 0.000000
# 2 0.000068 0.031630 -0.005230 0.000000 0.060435 0.000000
# 3 -0.001209 -0.005230 0.014334 0.000000 -0.001649 0.000000
# 4 0.000000 0.000000 0.000000 0.030127 0.000000 0.007643
# 5 0.013843 0.060435 -0.001649 0.000000 0.176219 0.000000
# 6 0.000000 0.000000 0.000000 0.007643 0.000000 0.025150
#
#
# Mechanical properties :
#
#
# Convention : Reuss Voigt Hill
#
# Bulk Modulus (GPa) = 21.61218 67.17559 44.39388
# Shear Modulus (GPa) = 15.68997 34.20100 24.94549
#
# Velocity S-wave (km/s) = 2.47207 3.64980 3.11706
# Velocity P-wave (km/s) = 4.07013 6.62765 5.49962
#
# Compressibility (1/GPa) = 0.04627021
#
# Stress axis : x y z
#
# Youngs Moduli (GPa) = 76.63629 31.61518 69.76481
#
# Poissons Ratio (x) = -0.00214 0.08437
# Poissons Ratio (y) = -0.00518 0.36484
# Poissons Ratio (z) = 0.09269 0.16533
#
# Static dielectric constant tensor:
#      x y z
#    x 2.161640 0.000000 0.092340 
#    y 0.000000 1.935010 0.000000 
#    z 0.092340 0.000000 2.092510 
# 
# From -- ./inp_files/28762.got.cif
#   From: 2010.05.17/outbox.cif.g08.bks.cpg/sg5_15_cif.got.tgz:28762.got - 2010.06.03 18:56:24.
