data_PCOD9124807
_publ_section_title
;
Structure prediction by ZEFSAII (Michael W. Deem and Ramdas Pophale) SiO2 
 PCOD9124807
Probable space group: C 2
;
_chemical_formula_sum "Si O2"
_cell_formula_units_Z 24
_cell_length_a 21.757564
_cell_length_b 8.226923
_cell_length_c 9.448292
_cell_angle_alpha 90.000000
_cell_angle_beta 135.357012
_cell_angle_gamma 90.000000
_cell_volume 1188.400907
_symmetry_space_group_name_H-M "C 2"
_symmetry_group_IT_number 5
_symmetry_cell_setting 'monoclinic'
loop_
_space_group_symop_operation_xyz
x,y,z
-x,y,-z
1/2+x,1/2+y,z
1/2-x,1/2+y,-z
loop_
_atom_site_type_symbol
_atom_site_label
_atom_site_fract_x
_atom_site_fract_y
_atom_site_fract_z
Si Si1 0.169541 0.548680 0.535343
Si Si2 0.963749 0.308668 0.597796
Si Si3 0.265099 0.846153 0.616629
Si Si4 0.924633 0.126167 0.989220
Si Si5 0.794487 0.097224 0.248665
Si Si6 0.198872 0.926540 0.034443
O O1 0.074104 0.476537 0.402303
O O2 0.181950 0.727020 0.492867
O O3 0.218704 0.426900 0.507673
O O4 0.220878 0.532292 0.767707
O O5 0.881610 0.184464 0.450917
O O6 0.000000 0.331156 0.500000
O O7 0.034541 0.234666 0.818774
O O8 0.250970 0.987536 0.707336
O O9 0.348101 0.732247 0.790097
O O10 0.000000 0.088686 0.000000
O O11 0.881511 0.971690 0.995300
O O12 0.730464 0.242172 0.095311
O O13 0.817368 0.987305 0.150558
#
# Coordination Sequence:
#
# PCOD9124807 Si02
#       6
#     4   4   4   4   4   4
#     4  10  21  38  63  90 122 168 212 254 313 377
#     4  11  22  41  64  92 132 169 206 264 324 372
#     4  11  23  41  66  91 125 167 221 259 314 386
#     4  11  22  41  64  92 132 169 206 264 324 372
#     4  11  23  41  66  91 125 167 221 259 314 386
#     4  10  21  38  63  90 122 168 212 254 313 377
#
# _framework density 20.195205999999999
#
# number of rings (size 3 to 8) (size 9 to 14) (size 15 to 20)
#    0.000    1.333    3.333    4.000    4.667    0.000 
#    0.000    3.333    0.000    0.000    0.000    0.000 
#    0.000    0.000    0.000    0.000    0.000    0.000 
#
# Total GULP energy -67062.761398 kJ/mol
# GULP energy per Si atom -5588.563450 kJ/mol
# Density = 2.014924 g / cm^3
# Si number density = 20.195206 Si / 1000 Ang^3
#
#
#
# Elastic Constant Matrix: (Units=GPa)
#
#
# Indices 1 2 3 4 5 6 
#
# 1 99.7526 27.6950 6.7241 0.0000 -5.7527 0.0000
# 2 27.6950 79.6868 5.9507 0.0000 5.0420 0.0000
# 3 6.7241 5.9507 61.6935 0.0000 -6.7640 0.0000
# 4 0.0000 0.0000 0.0000 26.7148 0.0000 -3.8303
# 5 -5.7527 5.0420 -6.7640 0.0000 31.0545 0.0000
# 6 0.0000 0.0000 0.0000 -3.8303 0.0000 36.6296
#
#
#
# Elastic Compliance Matrix: (Units=1/GPa)
#
#
# Indices 1 2 3 4 5 6 
#
# 1 0.011344 -0.004068 -0.000554 0.000000 0.002641 0.000000
# 2 -0.004068 0.014272 -0.001301 0.000000 -0.003354 0.000000
# 3 -0.000554 -0.001301 0.016808 0.000000 0.003770 0.000000
# 4 0.000000 0.000000 0.000000 0.038002 0.000000 0.003974
# 5 0.002641 -0.003354 0.003770 0.000000 0.034056 0.000000
# 6 0.000000 0.000000 0.000000 0.003974 0.000000 0.027716
#
#
# Mechanical properties :
#
#
# Convention : Reuss Voigt Hill
#
# Bulk Modulus (GPa) = 32.70391 35.76359 34.23375
# Shear Modulus (GPa) = 30.44341 32.26399 31.35370
#
# Velocity S-wave (km/s) = 3.88681 4.00134 3.94449
# Velocity P-wave (km/s) = 6.03093 6.25260 6.14277
#
# Compressibility (1/GPa) = 0.03057739
#
# Stress axis : x y z
#
# Youngs Moduli (GPa) = 88.15230 70.06510 59.49416
#
# Poissons Ratio (x) = 0.28505 0.03298
# Poissons Ratio (y) = 0.35863 0.07740
# Poissons Ratio (z) = 0.04887 0.09115
#
# Static dielectric constant tensor:
#      x y z
#    x 1.714210 0.000000 0.004690 
#    y 0.000000 1.709530 0.000000 
#    z 0.004690 0.000000 1.702340 
# 
# From -- ./inp_files/22798.got.cif
#   From: 2010.05.17/outbox.cif.g08.bks.cpg/sg5_12_cif.got.tgz:22798.got - 2010.06.03 18:56:24.
