data_PCOD9124089
_publ_section_title
;
Structure prediction by ZEFSAII (Michael W. Deem and Ramdas Pophale) SiO2 
 PCOD9124089
Probable space group: C 2
;
_chemical_formula_sum "Si O2"
_cell_formula_units_Z 22
_cell_length_a 12.379673
_cell_length_b 5.335700
_cell_length_c 30.170398
_cell_angle_alpha 90.000000
_cell_angle_beta 153.809244
_cell_angle_gamma 90.000000
_cell_volume 879.580625
_symmetry_space_group_name_H-M "C 2"
_symmetry_group_IT_number 5
_symmetry_cell_setting 'monoclinic'
loop_
_space_group_symop_operation_xyz
x,y,z
-x,y,-z
1/2+x,1/2+y,z
1/2-x,1/2+y,-z
loop_
_atom_site_type_symbol
_atom_site_label
_atom_site_fract_x
_atom_site_fract_y
_atom_site_fract_z
Si Si1 0.000000 0.036170 0.500000
Si Si2 0.786528 0.601058 0.986764
Si Si3 0.677268 0.229679 0.303460
Si Si4 0.134190 0.339056 0.219198
Si Si5 0.700792 0.648799 0.805319
Si Si6 0.988091 0.437821 0.648259
O O1 0.824896 0.187873 0.402972
O O2 0.801323 0.893424 0.456595
O O3 0.063745 0.680633 0.076717
O O4 0.774118 0.310686 0.997431
O O5 0.575456 0.644084 0.872714
O O6 0.552761 0.992024 0.232700
O O7 0.497644 0.461073 0.246744
O O8 0.883959 0.279211 0.342574
O O9 0.171715 0.506025 0.189610
O O10 0.398743 0.207990 0.322045
O O11 0.585680 0.873652 0.733769
#
# Coordination Sequence:
#
# PCOD9124089 Si02
#       6
#     2   4   4   4   4   4
#     4  12  28  46  72 102 140 202 246 316 392 442
#     4  10  20  41  82 109 152 209 249 307 393 466
#     4  11  27  44  74 107 149 190 261 315 379 456
#     4  10  22  46  73 108 147 191 254 315 372 460
#     4  10  22  45  75 106 151 198 245 314 387 458
#     4  11  25  45  71 102 145 191 250 317 372 463
#
# _framework density 25.011921000000001
#
# number of rings (size 3 to 8) (size 9 to 14) (size 15 to 20)
#    0.000    1.455    3.636    0.000    5.091    0.727 
#    0.000    0.909   12.000    0.000    0.000    0.000 
#    0.000    0.000    0.000    0.000    0.000    0.000 
#
# Total GULP energy -61400.567762 kJ/mol
# GULP energy per Si atom -5581.869797 kJ/mol
# Density = 2.495499 g / cm^3
# Si number density = 25.011921 Si / 1000 Ang^3
#
#
#
# Elastic Constant Matrix: (Units=GPa)
#
#
# Indices 1 2 3 4 5 6 
#
# 1 128.2069 10.0029 37.2109 -0.0128 1.5197 0.0067
# 2 10.0029 66.3948 10.0762 -0.0231 -5.9559 0.0108
# 3 37.2109 10.0762 119.7658 -0.0208 24.3273 0.0080
# 4 -0.0128 -0.0231 -0.0208 23.4787 0.0040 1.7783
# 5 1.5197 -5.9559 24.3273 0.0040 50.9064 -0.0036
# 6 0.0067 0.0108 0.0080 1.7783 -0.0036 32.0746
#
#
#
# Elastic Compliance Matrix: (Units=1/GPa)
#
#
# Indices 1 2 3 4 5 6 
#
# 1 0.008671 -0.000787 -0.002832 0.000001 0.001002 -0.000001
# 2 -0.000787 0.015659 -0.001606 0.000013 0.002623 -0.000005
# 3 -0.002832 -0.001606 0.010394 0.000007 -0.005071 -0.000002
# 4 0.000001 0.000013 0.000007 0.042772 -0.000005 -0.002371
# 5 0.001002 0.002623 -0.005071 -0.000005 0.022344 0.000003
# 6 -0.000001 -0.000005 -0.000002 -0.002371 0.000003 0.031309
#
#
# Mechanical properties :
#
#
# Convention : Reuss Voigt Hill
#
# Bulk Modulus (GPa) = 41.19202 47.66082 44.42642
# Shear Modulus (GPa) = 33.40254 38.43042 35.91648
#
# Velocity S-wave (km/s) = 3.65837 3.92405 3.79354
# Velocity P-wave (km/s) = 5.86085 6.29504 6.08182
#
# Compressibility (1/GPa) = 0.02427655
#
# Stress axis : x y z
#
# Youngs Moduli (GPa) = 115.32404 63.86131 96.20519
#
# Poissons Ratio (x) = 0.05024 0.27241
# Poissons Ratio (y) = 0.09073 0.15448
# Poissons Ratio (z) = 0.32654 0.10255
#
# Static dielectric constant tensor:
#      x y z
#    x 2.034250 0.000000 0.004210 
#    y 0.000000 2.119830 0.000010 
#    z 0.004210 0.000010 2.009260 
# 
# From -- ./inp_files/57959.got.cif
#   From: 2010.05.17/outbox.cif.g08.bks.cpg/sg5_29_cif.got.tgz:57959.got - 2010.06.03 18:56:24.
