data_PCOD9124835
_publ_section_title
;
Structure prediction by ZEFSAII (Michael W. Deem and Ramdas Pophale) SiO2 
 PCOD9124835
Probable space group: C 2
;
_chemical_formula_sum "Si O2"
_cell_formula_units_Z 32
_cell_length_a 23.765447
_cell_length_b 14.441812
_cell_length_c 9.050927
_cell_angle_alpha 90.000000
_cell_angle_beta 30.504228
_cell_angle_gamma 90.000000
_cell_volume 1576.826873
_symmetry_space_group_name_H-M "C 2"
_symmetry_group_IT_number 5
_symmetry_cell_setting 'monoclinic'
loop_
_space_group_symop_operation_xyz
x,y,z
-x,y,-z
1/2+x,1/2+y,z
1/2-x,1/2+y,-z
loop_
_atom_site_type_symbol
_atom_site_label
_atom_site_fract_x
_atom_site_fract_y
_atom_site_fract_z
Si Si1 0.972732 0.673390 0.307388
Si Si2 0.893803 0.506260 0.676099
Si Si3 0.200249 0.024174 0.345202
Si Si4 0.335236 0.201420 0.339781
Si Si5 0.374326 0.418600 0.226280
Si Si6 0.122140 0.207683 0.657428
Si Si7 0.245278 0.378441 0.225228
Si Si8 0.906455 0.864154 0.607445
O O1 0.944956 0.597923 0.489813
O O2 0.888080 0.657023 0.363781
O O3 0.952468 0.775530 0.417695
O O4 0.095075 0.669416 0.960998
O O5 0.829116 0.453620 0.691718
O O6 0.000000 0.450995 0.500000
O O7 0.810185 0.530250 0.998064
O O8 0.209552 0.980920 0.488112
O O9 0.132876 0.944066 0.412005
O O10 0.138730 0.121993 0.506839
O O11 0.360441 0.310740 0.298183
O O12 0.207102 0.187426 0.599651
O O13 0.332204 0.419665 0.150672
O O14 0.500000 0.444694 0.000000
O O15 0.169479 0.301807 0.477328
O O16 0.000000 0.215198 0.000000
O O17 0.312291 0.333208 0.936716
O O18 0.000000 0.905386 0.500000
#
# Coordination Sequence:
#
# PCOD9124835 Si02
#       8
#     4   4   4   4   4   4   4   4
#     4  11  20  39  67  98 124 158 207 284 323 371
#     4  11  25  43  62  92 129 170 215 261 321 373
#     4  11  23  40  63  92 125 169 208 258 317 378
#     4  10  21  38  65 100 120 156 220 264 327 369
#     4  11  19  40  67  97 125 157 211 272 323 367
#     4  11  24  42  60  89 132 173 209 252 311 389
#     4  10  25  41  62  94 128 173 217 251 314 391
#     4  11  20  38  67  96 127 153 205 273 326 370
#
# _framework density 20.29392
#
# number of rings (size 3 to 8) (size 9 to 14) (size 15 to 20)
#    0.000    1.250    2.500    4.500    1.750    2.000 
#    4.500    0.625    0.000    0.000    0.000    0.000 
#    0.000    0.000    0.000    0.000    0.000    0.000 
#
# Total GULP energy -89299.773793 kJ/mol
# GULP energy per Si atom -5581.235862 kJ/mol
# Density = 2.024773 g / cm^3
# Si number density = 20.293920 Si / 1000 Ang^3
#
#
#
# Elastic Constant Matrix: (Units=GPa)
#
#
# Indices 1 2 3 4 5 6 
#
# 1 127.1578 29.2577 53.1652 0.0000 -1.5559 0.0000
# 2 29.2577 63.9284 35.9450 0.0000 8.5959 0.0000
# 3 53.1652 35.9450 143.8963 0.0000 2.0210 0.0000
# 4 0.0000 0.0000 0.0000 26.0866 0.0000 9.5809
# 5 -1.5559 8.5959 2.0210 0.0000 37.3784 0.0000
# 6 0.0000 0.0000 0.0000 9.5809 0.0000 22.5592
#
#
#
# Elastic Compliance Matrix: (Units=1/GPa)
#
#
# Indices 1 2 3 4 5 6 
#
# 1 0.009778 -0.003028 -0.002874 0.000000 0.001259 0.000000
# 2 -0.003028 0.019736 -0.003748 0.000000 -0.004462 0.000000
# 3 -0.002874 -0.003748 0.008944 0.000000 0.000259 0.000000
# 4 0.000000 0.000000 0.000000 0.045418 0.000000 -0.019289
# 5 0.001259 -0.004462 0.000259 0.000000 0.027818 0.000000
# 6 0.000000 0.000000 0.000000 -0.019289 0.000000 0.052520
#
#
# Mechanical properties :
#
#
# Convention : Reuss Voigt Hill
#
# Bulk Modulus (GPa) = 52.20129 63.52427 57.86278
# Shear Modulus (GPa) = 26.32946 31.64580 28.98763
#
# Velocity S-wave (km/s) = 3.60586 3.95317 3.78350
# Velocity P-wave (km/s) = 6.56618 7.22543 6.90368
#
# Compressibility (1/GPa) = 0.01915661
#
# Stress axis : x y z
#
# Youngs Moduli (GPa) = 102.27002 50.66851 111.80712
#
# Poissons Ratio (x) = 0.15345 0.32132
# Poissons Ratio (y) = 0.30972 0.41910
# Poissons Ratio (z) = 0.29391 0.18993
#
# Static dielectric constant tensor:
#      x y z
#    x 1.757190 0.000000 -0.011710 
#    y 0.000000 1.708820 0.000000 
#    z -0.011710 0.000000 1.749620 
# 
# From -- ./inp_files/31030.got.cif
#   From: 2010.05.17/outbox.cif.g08.bks.cpg/sg5_16_cif.got.tgz:31030.got - 2010.06.03 18:56:24.
