data_PCOD9124696
_publ_section_title
;
Structure prediction by ZEFSAII (Michael W. Deem and Ramdas Pophale) SiO2 
 PCOD9124696
Probable space group: C 2
;
_chemical_formula_sum "Si O2"
_cell_formula_units_Z 32
_cell_length_a 8.768464
_cell_length_b 23.990552
_cell_length_c 14.929896
_cell_angle_alpha 90.000000
_cell_angle_beta 152.104962
_cell_angle_gamma 90.000000
_cell_volume 1469.366794
_symmetry_space_group_name_H-M "C 2"
_symmetry_group_IT_number 5
_symmetry_cell_setting 'monoclinic'
loop_
_space_group_symop_operation_xyz
x,y,z
-x,y,-z
1/2+x,1/2+y,z
1/2-x,1/2+y,-z
loop_
_atom_site_type_symbol
_atom_site_label
_atom_site_fract_x
_atom_site_fract_y
_atom_site_fract_z
Si Si1 0.247334 0.331540 0.448812
Si Si2 0.095373 0.099906 0.945888
Si Si3 0.894459 0.886061 0.193657
Si Si4 0.879712 0.100556 0.336736
Si Si5 0.609789 0.723299 0.954506
Si Si6 0.258616 0.828986 0.066908
Si Si7 0.601659 0.514485 0.800133
Si Si8 0.893580 0.222986 0.341942
O O1 0.500000 0.325245 0.500000
O O2 0.411448 0.357360 0.623432
O O3 0.969363 0.365559 0.246757
O O4 0.080769 0.273400 0.391981
O O5 0.487178 0.100119 0.138488
O O6 0.986698 0.162465 0.861239
O O7 0.985489 0.050153 0.825026
O O8 0.000000 0.092478 0.000000
O O9 0.998635 0.950480 0.247111
O O10 0.500000 0.883396 0.000000
O O11 0.924046 0.857719 0.111217
O O12 0.002539 0.049886 0.340374
O O13 0.977960 0.161278 0.349480
O O14 0.000000 0.096004 0.500000
O O15 0.001015 0.724792 0.144895
O O16 0.500000 0.728953 0.000000
O O17 0.517878 0.779967 0.857617
O O18 0.000000 0.802560 0.000000
O O19 0.000000 0.513928 0.000000
O O20 0.000000 0.224584 0.500000
#
# Coordination Sequence:
#
# PCOD9124696 Si02
#       8
#     4   4   4   4   4   4   4   4
#     4  12  26  42  67 100 130 179 224 268 332 394
#     4   9  19  37  64  95 125 162 208 257 323 388
#     4  11  24  46  64  95 135 169 228 278 318 387
#     4   9  19  38  62  93 126 165 206 259 321 385
#     4  10  21  37  64  97 135 170 207 269 328 393
#     4  12  25  41  66  97 131 177 217 272 336 389
#     4   9  20  39  67  89 122 171 210 263 322 386
#     4  10  21  38  61  96 139 167 211 269 323 394
#
# _framework density 21.778089999999999
#
# number of rings (size 3 to 8) (size 9 to 14) (size 15 to 20)
#    0.000    1.750    2.500    1.125    3.500    1.500 
#    2.250    0.625    2.750    0.000    0.000    0.000 
#    0.000    0.000    0.000    0.000    0.000    0.000 
#
# Total GULP energy -89193.932028 kJ/mol
# GULP energy per Si atom -5574.620752 kJ/mol
# Density = 2.172852 g / cm^3
# Si number density = 21.778090 Si / 1000 Ang^3
#
#
#
# Elastic Constant Matrix: (Units=GPa)
#
#
# Indices 1 2 3 4 5 6 
#
# 1 135.0011 83.8324 24.2295 -0.0002 -33.3977 0.0004
# 2 83.8324 172.8352 49.9686 0.0000 -33.2419 -0.0001
# 3 24.2295 49.9686 90.3102 -0.0002 -42.1908 0.0005
# 4 -0.0002 0.0000 -0.0002 48.1654 -0.0003 -31.2697
# 5 -33.3977 -33.2419 -42.1908 -0.0003 32.5246 0.0005
# 6 0.0004 -0.0001 0.0005 -31.2697 0.0005 50.3902
#
#
#
# Elastic Compliance Matrix: (Units=1/GPa)
#
#
# Indices 1 2 3 4 5 6 
#
# 1 0.014337 -0.005563 0.008764 0.000000 0.020405 0.000000
# 2 -0.005563 0.009429 -0.004800 0.000000 -0.002302 0.000000
# 3 0.008764 -0.004800 0.033732 0.000000 0.047851 -0.000001
# 4 0.000000 0.000000 0.000000 0.034769 0.000000 0.021576
# 5 0.020405 -0.002302 0.047851 0.000000 0.111418 -0.000002
# 6 0.000000 0.000000 -0.000001 0.021576 -0.000002 0.033234
#
#
# Mechanical properties :
#
#
# Convention : Reuss Voigt Hill
#
# Bulk Modulus (GPa) = 18.41604 79.35640 48.88622
# Shear Modulus (GPa) = 19.36343 42.22380 30.79361
#
# Velocity S-wave (km/s) = 2.98505 4.40798 3.76436
# Velocity P-wave (km/s) = 4.51169 7.90094 6.43351
#
# Compressibility (1/GPa) = 0.05430048
#
# Stress axis : x y z
#
# Youngs Moduli (GPa) = 69.74943 106.05197 29.64509
#
# Poissons Ratio (x) = 0.59001 -0.25982
# Poissons Ratio (y) = 0.38805 0.14230
# Poissons Ratio (z) = -0.61131 0.50907
#
# Static dielectric constant tensor:
#      x y z
#    x 1.766350 0.000000 0.019360 
#    y 0.000000 1.807870 0.000000 
#    z 0.019360 0.000000 1.922810 
# 
# From -- ./inp_files/51745.got.cif
#   From: 2010.05.17/outbox.cif.g08.bks.cpg/sg5_26_cif.got.tgz:51745.got - 2010.06.03 18:56:24.
