data_PCOD9124340
_publ_section_title
;
Structure prediction by ZEFSAII (Michael W. Deem and Ramdas Pophale) SiO2 
 PCOD9124340
Probable space group: C 2
;
_chemical_formula_sum "Si O2"
_cell_formula_units_Z 16
_cell_length_a 12.835322
_cell_length_b 7.232032
_cell_length_c 7.212779
_cell_angle_alpha 90.000000
_cell_angle_beta 61.503752
_cell_angle_gamma 90.000000
_cell_volume 588.414923
_symmetry_space_group_name_H-M "C 2"
_symmetry_group_IT_number 5
_symmetry_cell_setting 'monoclinic'
loop_
_space_group_symop_operation_xyz
x,y,z
-x,y,-z
1/2+x,1/2+y,z
1/2-x,1/2+y,-z
loop_
_atom_site_type_symbol
_atom_site_label
_atom_site_fract_x
_atom_site_fract_y
_atom_site_fract_z
Si Si1 0.224061 0.511940 0.062291
Si Si2 0.046409 0.814162 0.156511
Si Si3 0.330774 0.096373 0.489554
Si Si4 0.128605 0.208994 0.395767
O O1 0.118701 0.623414 0.055048
O O2 0.233437 0.612821 0.256145
O O3 0.173241 0.311611 0.171630
O O4 0.350017 0.454829 0.867286
O O5 0.932972 0.747810 0.369649
O O6 0.000000 0.888634 0.000000
O O7 0.233626 0.105313 0.412253
O O8 0.388472 0.893859 0.457092
O O9 0.000000 0.121965 0.500000
#
# Coordination Sequence:
#
# PCOD9124340 Si02
#       4
#     4   4   4   4
#     4  10  24  44  67 102 135 182 228 280 349 406
#     4  12  22  46  68 101 142 174 234 288 336 416
#     4  10  21  45  70  94 143 179 224 290 341 406
#     4  10  20  44  67  96 136 181 226 276 346 405
#
# _framework density 27.191694999999999
#
# number of rings (size 3 to 8) (size 9 to 14) (size 15 to 20)
#    1.500    0.000    5.000    0.750    0.000    2.000 
#    9.000    1.250    0.000    0.000    0.000    0.000 
#    0.000    0.000    0.000    0.000    0.000    0.000 
#
# Total GULP energy -44703.920261 kJ/mol
# GULP energy per Si atom -5587.990033 kJ/mol
# Density = 2.712981 g / cm^3
# Si number density = 27.191695 Si / 1000 Ang^3
#
#
#
# Elastic Constant Matrix: (Units=GPa)
#
#
# Indices 1 2 3 4 5 6 
#
# 1 160.4350 15.8669 50.0759 0.0000 -37.4231 0.0000
# 2 15.8669 65.8430 8.3166 0.0000 -26.0905 0.0000
# 3 50.0759 8.3166 174.6909 0.0000 -54.6368 0.0000
# 4 0.0000 0.0000 0.0000 22.7429 0.0000 -25.9083
# 5 -37.4231 -26.0905 -54.6368 0.0000 52.0547 0.0000
# 6 0.0000 0.0000 0.0000 -25.9083 0.0000 15.7605
#
#
#
# Elastic Compliance Matrix: (Units=1/GPa)
#
#
# Indices 1 2 3 4 5 6 
#
# 1 0.007547 0.000173 -0.000666 0.000000 0.004812 0.000000
# 2 0.000173 0.020138 0.003256 0.000000 0.013635 0.000000
# 3 -0.000666 0.003256 0.009112 0.000000 0.010718 0.000000
# 4 0.000000 0.000000 0.000000 -0.050385 0.000000 -0.082827
# 5 0.004812 0.013635 0.010718 0.000000 0.040754 0.000000
# 6 0.000000 0.000000 0.000000 -0.082827 0.000000 -0.072707
#
#
# Mechanical properties :
#
#
# Convention : Reuss Voigt Hill
#
# Bulk Modulus (GPa) = 23.62832 61.05421 42.34127
# Shear Modulus (GPa) = -135.28296 39.89226 -47.69535
#
# Velocity S-wave (km/s) = -7.06113 3.83440 -4.19267
# Velocity P-wave (km/s) = 7.60073 6.48887 2.79871
#
# Compressibility (1/GPa) = 0.04232210
#
# Stress axis : x y z
#
# Youngs Moduli (GPa) = 132.51155 49.65789 109.74038
#
# Poissons Ratio (x) = -0.00857 0.07312
# Poissons Ratio (y) = -0.02286 -0.35736
# Poissons Ratio (z) = 0.08829 -0.16171
#
# Static dielectric constant tensor:
#      x y z
#    x 2.220040 0.000000 0.036930 
#    y 0.000000 2.246790 0.000000 
#    z 0.036930 0.000000 2.266590 
# 
# From -- ./inp_files/17972.got.cif
#   From: 2010.05.17/outbox.cif.g08.bks.cpg/sg5_9_cif.got.tgz:17972.got - 2010.06.03 18:56:24.
