data_PCOD9124241
_publ_section_title
;
Structure prediction by ZEFSAII (Michael W. Deem and Ramdas Pophale) SiO2 
 PCOD9124241
Probable space group: C 2
;
_chemical_formula_sum "Si O2"
_cell_formula_units_Z 20
_cell_length_a 11.028140
_cell_length_b 8.966682
_cell_length_c 22.351040
_cell_angle_alpha 90.000000
_cell_angle_beta 21.868165
_cell_angle_gamma 90.000000
_cell_volume 823.238425
_symmetry_space_group_name_H-M "C 2"
_symmetry_group_IT_number 5
_symmetry_cell_setting 'monoclinic'
loop_
_space_group_symop_operation_xyz
x,y,z
-x,y,-z
1/2+x,1/2+y,z
1/2-x,1/2+y,-z
loop_
_atom_site_type_symbol
_atom_site_label
_atom_site_fract_x
_atom_site_fract_y
_atom_site_fract_z
Si Si1 0.621854 0.388600 0.509137
Si Si2 0.321901 0.969670 0.014085
Si Si3 0.307589 0.701534 0.217738
Si Si4 0.644590 0.643605 0.290651
Si Si5 0.132950 0.710374 0.174057
O O1 0.500000 0.443409 0.500000
O O2 0.357593 0.261753 0.647726
O O3 0.591640 0.511128 0.576382
O O4 0.955854 0.294157 0.359662
O O5 0.613579 0.089261 0.872772
O O6 0.445566 0.831563 0.917124
O O7 0.007717 0.053130 0.133594
O O8 0.192906 0.885173 0.132457
O O9 0.049951 0.687642 0.281200
O O10 0.881845 0.660408 0.239618
O O11 0.500000 0.641781 0.000000
#
# Coordination Sequence:
#
# PCOD9124241 Si02
#       5
#     4   4   4   4   4
#     4  11  29  47  66 104 144 189 231 278 355 418
#     4  10  20  42  71 103 136 177 233 289 339 404
#     4  10  23  42  71 105 138 184 235 283 350 410
#     4  11  25  48  70 106 142 184 233 283 354 417
#     4  10  21  41  77 101 135 178 233 293 344 397
#
# _framework density 24.2943
#
# number of rings (size 3 to 8) (size 9 to 14) (size 15 to 20)
#    0.000    1.600    4.000    0.000    5.600    6.400 
#    0.000    0.000    0.000    0.000    0.000    0.000 
#    0.000    0.000    0.000    0.000    0.000    0.000 
#
# Total GULP energy -55794.617469 kJ/mol
# GULP energy per Si atom -5579.461747 kJ/mol
# Density = 2.423900 g / cm^3
# Si number density = 24.294300 Si / 1000 Ang^3
#
#
#
# Elastic Constant Matrix: (Units=GPa)
#
#
# Indices 1 2 3 4 5 6 
#
# 1 49.9327 -3.5666 15.1662 -0.0115 0.2898 -0.0027
# 2 -3.5666 55.2808 30.4004 -0.0010 -20.8759 -0.0045
# 3 15.1662 30.4004 66.3060 -0.0198 -0.8359 -0.0213
# 4 -0.0115 -0.0010 -0.0198 55.3002 -0.0069 -7.8868
# 5 0.2898 -20.8759 -0.8359 -0.0069 32.4266 -0.0043
# 6 -0.0027 -0.0045 -0.0213 -7.8868 -0.0043 49.6151
#
#
#
# Elastic Compliance Matrix: (Units=1/GPa)
#
#
# Indices 1 2 3 4 5 6 
#
# 1 0.023375 0.008412 -0.009141 0.000002 0.004971 -0.000001
# 2 0.008412 0.038254 -0.019160 -0.000002 0.024058 -0.000002
# 3 -0.009141 -0.019160 0.025811 0.000007 -0.011588 0.000009
# 4 0.000002 -0.000002 0.000007 0.018503 0.000003 0.002941
# 5 0.004971 0.024058 -0.011588 0.000003 0.045984 0.000002
# 6 -0.000001 -0.000002 0.000009 0.002941 0.000002 0.020623
#
#
# Mechanical properties :
#
#
# Convention : Reuss Voigt Hill
#
# Bulk Modulus (GPa) = 20.98052 28.39105 24.68578
# Shear Modulus (GPa) = 21.90926 36.10300 29.00613
#
# Velocity S-wave (km/s) = 3.00630 3.85914 3.45910
# Velocity P-wave (km/s) = 4.55030 5.61862 5.11244
#
# Compressibility (1/GPa) = 0.04766326
#
# Stress axis : x y z
#
# Youngs Moduli (GPa) = 42.78006 26.14115 38.74348
#
# Poissons Ratio (x) = -0.21990 0.35415
# Poissons Ratio (y) = -0.35987 0.74231
# Poissons Ratio (z) = 0.39105 0.50086
#
# Static dielectric constant tensor:
#      x y z
#    x 2.086980 0.000000 -0.073940 
#    y 0.000000 1.950000 0.000000 
#    z -0.073940 0.000000 2.036980 
# 
# From -- ./inp_files/56770.got.cif
#   From: 2010.05.17/outbox.cif.g08.bks.cpg/sg5_29_cif.got.tgz:56770.got - 2010.06.03 18:56:24.
