data_PCOD9124204
_publ_section_title
;
Structure prediction by ZEFSAII (Michael W. Deem and Ramdas Pophale) SiO2 
 PCOD9124204
Probable space group: C 2
;
_chemical_formula_sum "Si O2"
_cell_formula_units_Z 28
_cell_length_a 14.617912
_cell_length_b 8.764301
_cell_length_c 21.641389
_cell_angle_alpha 90.000000
_cell_angle_beta 28.190379
_cell_angle_gamma 90.000000
_cell_volume 1309.785553
_symmetry_space_group_name_H-M "C 2"
_symmetry_group_IT_number 5
_symmetry_cell_setting 'monoclinic'
loop_
_space_group_symop_operation_xyz
x,y,z
-x,y,-z
1/2+x,1/2+y,z
1/2-x,1/2+y,-z
loop_
_atom_site_type_symbol
_atom_site_label
_atom_site_fract_x
_atom_site_fract_y
_atom_site_fract_z
Si Si1 0.694047 0.154790 0.184812
Si Si2 0.660946 0.184727 0.859568
Si Si3 0.720079 0.615624 0.345791
Si Si4 0.975699 0.900577 0.238208
Si Si5 0.306287 0.969168 0.408132
Si Si6 0.586979 0.644398 0.632054
Si Si7 0.994514 0.016734 0.091189
O O1 0.631525 0.318148 0.191832
O O2 0.499904 0.058006 0.313145
O O3 0.831238 0.138280 0.163921
O O4 0.814831 0.069122 0.058901
O O5 0.716737 0.101873 0.762684
O O6 0.583671 0.352684 0.886695
O O7 0.864477 0.192149 0.773677
O O8 0.500000 0.113642 0.000000
O O9 0.500000 0.638074 0.500000
O O10 0.837612 0.762931 0.300071
O O11 0.796462 0.474165 0.340357
O O12 0.861631 0.024473 0.346086
O O13 0.036955 0.987051 0.138398
O O14 0.129977 0.061127 0.542618
O O15 0.295878 0.798941 0.437392
#
# Coordination Sequence:
#
# PCOD9124204 Si02
#       7
#     4   4   4   4   4   4   4
#     4  10  20  42  68  94 136 183 234 283 356 420
#     4  11  21  41  69  97 135 183 232 279 354 423
#     4  10  21  42  66  96 137 183 233 285 356 418
#     4  10  25  39  65 104 133 184 235 296 346 434
#     4  11  22  40  67  95 133 181 226 293 346 423
#     4  12  24  42  66  99 137 174 236 285 356 417
#     4  10  20  42  70  95 137 190 225 286 359 418
#
# _framework density 21.377545000000001
#
# number of rings (size 3 to 8) (size 9 to 14) (size 15 to 20)
#    0.000    1.429    4.286    1.714    0.000    4.571 
#    5.143    0.714    0.000    0.000    0.000    0.000 
#    0.000    0.000    0.000    0.000    0.000    0.000 
#
# Total GULP energy -78036.081681 kJ/mol
# GULP energy per Si atom -5574.005834 kJ/mol
# Density = 2.132889 g / cm^3
# Si number density = 21.377545 Si / 1000 Ang^3
#
#
#
# Elastic Constant Matrix: (Units=GPa)
#
#
# Indices 1 2 3 4 5 6 
#
# 1 64.5295 32.5211 28.3660 0.0001 24.5354 -0.0002
# 2 32.5211 81.2993 24.2856 0.0005 11.9965 0.0003
# 3 28.3660 24.2856 104.6094 0.0003 4.6771 0.0012
# 4 0.0001 0.0005 0.0003 23.9200 0.0001 3.8261
# 5 24.5354 11.9965 4.6771 0.0001 37.4404 -0.0004
# 6 -0.0002 0.0003 0.0012 3.8261 -0.0004 18.3154
#
#
#
# Elastic Compliance Matrix: (Units=1/GPa)
#
#
# Indices 1 2 3 4 5 6 
#
# 1 0.026843 -0.007082 -0.004977 0.000000 -0.014700 0.000000
# 2 -0.007082 0.015668 -0.001710 0.000000 -0.000166 0.000000
# 3 -0.004977 -0.001710 0.011198 0.000000 0.002411 -0.000001
# 4 0.000000 0.000000 0.000000 0.043251 0.000000 -0.009035
# 5 -0.014700 -0.000166 0.002411 0.000000 0.036094 0.000000
# 6 0.000000 0.000000 -0.000001 -0.009035 0.000000 0.056486
#
#
# Mechanical properties :
#
#
# Convention : Reuss Voigt Hill
#
# Bulk Modulus (GPa) = 38.20942 46.75373 42.48158
# Shear Modulus (GPa) = 22.14323 26.95288 24.54805
#
# Velocity S-wave (km/s) = 3.22190 3.55463 3.39235
# Velocity P-wave (km/s) = 5.63501 6.22617 5.93795
#
# Compressibility (1/GPa) = 0.02617155
#
# Stress axis : x y z
#
# Youngs Moduli (GPa) = 37.25378 63.82336 89.29994
#
# Poissons Ratio (x) = 0.45198 0.44449
# Poissons Ratio (y) = 0.26382 0.15268
# Poissons Ratio (z) = 0.18543 0.10912
#
# Static dielectric constant tensor:
#      x y z
#    x 1.840800 0.000000 0.012690 
#    y 0.000000 1.752390 0.000000 
#    z 0.012690 0.000000 1.768110 
# 
# From -- ./inp_files/41691.got.cif
#   From: 2010.05.17/outbox.cif.g08.bks.cpg/sg5_21_cif.got.tgz:41691.got - 2010.06.03 18:56:24.
