data_PCOD9124147
_publ_section_title
;
Structure prediction by ZEFSAII (Michael W. Deem and Ramdas Pophale) SiO2 
 PCOD9124147
Probable space group: C 2
;
_chemical_formula_sum "Si O2"
_cell_formula_units_Z 26
_cell_length_a 17.803270
_cell_length_b 9.158682
_cell_length_c 7.321367
_cell_angle_alpha 90.000000
_cell_angle_beta 121.070443
_cell_angle_gamma 90.000000
_cell_volume 1022.513982
_symmetry_space_group_name_H-M "C 2"
_symmetry_group_IT_number 5
_symmetry_cell_setting 'monoclinic'
loop_
_space_group_symop_operation_xyz
x,y,z
-x,y,-z
1/2+x,1/2+y,z
1/2-x,1/2+y,-z
loop_
_atom_site_type_symbol
_atom_site_label
_atom_site_fract_x
_atom_site_fract_y
_atom_site_fract_z
Si Si1 0.658983 0.799270 0.359572
Si Si2 0.088600 0.253801 0.673802
Si Si3 0.500000 0.603538 0.000000
Si Si4 0.308330 0.086937 0.451683
Si Si5 0.787962 0.022659 0.010606
Si Si6 0.904292 0.564440 0.205415
Si Si7 0.952619 0.863417 0.247632
O O1 0.638454 0.779129 0.548224
O O2 0.754771 0.730114 0.440909
O O3 0.662323 0.975771 0.354002
O O4 0.581377 0.709729 0.159040
O O5 0.000000 0.871326 0.500000
O O6 0.155471 0.166126 0.880803
O O7 0.057898 0.401980 0.735344
O O8 0.518139 0.488837 0.857169
O O9 0.234859 0.006910 0.230987
O O10 0.384759 0.107765 0.395860
O O11 0.694621 0.039421 0.988784
O O12 0.848837 0.892304 0.150615
O O13 0.955261 0.696839 0.179262
O O14 0.000000 0.176023 0.500000
#
# Coordination Sequence:
#
# PCOD9124147 Si02
#       7
#     4   4   2   4   4   4   4
#     4  11  23  45  69 102 141 175 241 289 350 420
#     4  11  22  40  69  98 136 186 226 285 349 418
#     4  12  24  44  74 108 140 188 234 284 360 428
#     4   9  23  42  71  95 136 181 230 293 343 406
#     4  10  20  42  65  99 123 181 235 273 349 404
#     4   9  22  42  67  95 136 177 233 285 344 410
#     4  12  24  43  70 102 143 184 227 292 349 418
#
# _framework density 25.427524999999999
#
# number of rings (size 3 to 8) (size 9 to 14) (size 15 to 20)
#    0.923    0.615    1.538    3.692    0.000    2.462 
#    0.000    0.000   13.538    0.000    0.000    0.000 
#    0.000    0.000    0.000    0.000    0.000    0.000 
#
# Total GULP energy -72567.344803 kJ/mol
# GULP energy per Si atom -5582.103446 kJ/mol
# Density = 2.536965 g / cm^3
# Si number density = 25.427525 Si / 1000 Ang^3
#
#
#
# Elastic Constant Matrix: (Units=GPa)
#
#
# Indices 1 2 3 4 5 6 
#
# 1 49.0993 4.1514 23.8416 0.0000 -13.7539 0.0000
# 2 4.1514 107.6649 47.6315 0.0000 2.2262 0.0000
# 3 23.8416 47.6315 120.3294 0.0000 10.8163 0.0000
# 4 0.0000 0.0000 0.0000 37.8820 0.0000 9.2470
# 5 -13.7539 2.2262 10.8163 0.0000 41.9564 0.0000
# 6 0.0000 0.0000 0.0000 9.2470 0.0000 32.3115
#
#
#
# Elastic Compliance Matrix: (Units=1/GPa)
#
#
# Indices 1 2 3 4 5 6 
#
# 1 0.026461 0.001815 -0.006892 0.000000 0.010355 0.000000
# 2 0.001815 0.011397 -0.004986 0.000000 0.001275 0.000000
# 3 -0.006892 -0.004986 0.012110 0.000000 -0.005117 0.000000
# 4 0.000000 0.000000 0.000000 0.028380 0.000000 -0.008122
# 5 0.010355 0.001275 -0.005117 0.000000 0.028480 0.000000
# 6 0.000000 0.000000 0.000000 -0.008122 0.000000 0.033273
#
#
# Mechanical properties :
#
#
# Convention : Reuss Voigt Hill
#
# Bulk Modulus (GPa) = 33.51036 47.59364 40.55200
# Shear Modulus (GPa) = 29.38164 35.86126 32.62145
#
# Velocity S-wave (km/s) = 3.40296 3.75951 3.58567
# Velocity P-wave (km/s) = 5.35234 6.13215 5.75547
#
# Compressibility (1/GPa) = 0.02984152
#
# Stress axis : x y z
#
# Youngs Moduli (GPa) = 37.79208 87.73870 82.57939
#
# Poissons Ratio (x) = -0.15921 0.56913
# Poissons Ratio (y) = -0.06858 0.41172
# Poissons Ratio (z) = 0.26046 0.43745
#
# Static dielectric constant tensor:
#      x y z
#    x 2.078720 0.000000 0.008170 
#    y 0.000000 2.057920 0.000000 
#    z 0.008170 0.000000 1.994190 
# 
# From -- ./inp_files/29010.got.cif
#   From: 2010.05.17/outbox.cif.g08.bks.cpg/sg5_15_cif.got.tgz:29010.got - 2010.06.03 18:56:24.
