data_PCOD9124086
_publ_section_title
;
Structure prediction by ZEFSAII (Michael W. Deem and Ramdas Pophale) SiO2 
 PCOD9124086
Probable space group: C 2
;
_chemical_formula_sum "Si O2"
_cell_formula_units_Z 24
_cell_length_a 8.201483
_cell_length_b 17.748895
_cell_length_c 8.024948
_cell_angle_alpha 90.000000
_cell_angle_beta 64.608168
_cell_angle_gamma 90.000000
_cell_volume 1055.320336
_symmetry_space_group_name_H-M "C 2"
_symmetry_group_IT_number 5
_symmetry_cell_setting 'monoclinic'
loop_
_space_group_symop_operation_xyz
x,y,z
-x,y,-z
1/2+x,1/2+y,z
1/2-x,1/2+y,-z
loop_
_atom_site_type_symbol
_atom_site_label
_atom_site_fract_x
_atom_site_fract_y
_atom_site_fract_z
Si Si1 0.281579 0.255700 0.091926
Si Si2 0.813967 0.008128 0.041728
Si Si3 0.232965 0.666169 0.227670
Si Si4 0.198755 0.647724 0.604867
Si Si5 0.694730 0.483085 0.343403
Si Si6 0.525873 0.894132 0.292384
O O1 0.250106 0.192015 0.248982
O O2 0.148924 0.324530 0.185191
O O3 0.500000 0.271847 0.000000
O O4 0.230564 0.226326 0.931010
O O5 0.643068 0.966214 0.189600
O O6 0.818983 0.088233 0.130065
O O7 0.802493 0.009942 0.848590
O O8 0.000000 0.965952 0.000000
O O9 0.279360 0.682948 0.399278
O O10 0.017018 0.653905 0.312624
O O11 0.248092 0.559379 0.584695
O O12 0.500000 0.461418 0.500000
O O13 0.830660 0.412925 0.301022
O O14 0.500000 0.890417 0.500000
#
# Coordination Sequence:
#
# PCOD9124086 Si02
#       6
#     4   4   4   4   4   4
#     4  10  23  45  74 108 156 204 245 306 386 449
#     4  12  24  44  73 110 148 192 256 313 374 447
#     4  10  20  41  74 110 149 191 250 309 368 447
#     4  10  20  41  75 111 147 189 251 319 371 441
#     4  12  25  44  75 111 145 199 259 315 374 444
#     4  12  26  47  71 107 157 200 246 314 381 451
#
# _framework density 22.741910000000001
#
# number of rings (size 3 to 8) (size 9 to 14) (size 15 to 20)
#    0.000    1.000    3.333    4.000    0.000    0.667 
#    9.000    0.000    3.667    0.000    0.000    0.000 
#    0.000    0.000    0.000    0.000    0.000    0.000 
#
# Total GULP energy -67133.911888 kJ/mol
# GULP energy per Si atom -5594.492657 kJ/mol
# Density = 2.269015 g / cm^3
# Si number density = 22.741910 Si / 1000 Ang^3
#
#
#
# Elastic Constant Matrix: (Units=GPa)
#
#
# Indices 1 2 3 4 5 6 
#
# 1 74.6916 27.5723 49.4356 0.0000 -16.8695 0.0000
# 2 27.5723 57.7266 50.2600 0.0000 -15.4157 0.0000
# 3 49.4356 50.2600 189.3989 0.0000 2.6922 0.0000
# 4 0.0000 0.0000 0.0000 -251.1955 0.0000 76.3458
# 5 -16.8695 -15.4157 2.6922 0.0000 45.6103 0.0000
# 6 0.0000 0.0000 0.0000 76.3458 0.0000 -7.0197
#
#
#
# Elastic Compliance Matrix: (Units=1/GPa)
#
#
# Indices 1 2 3 4 5 6 
#
# 1 0.018776 -0.003997 -0.003923 0.000000 0.005825 0.000000
# 2 -0.003997 0.026704 -0.006155 0.000000 0.007911 0.000000
# 3 -0.003923 -0.006155 0.007994 0.000000 -0.004003 0.000000
# 4 0.000000 0.000000 0.000000 0.001727 0.000000 0.018780
# 5 0.005825 0.007911 -0.004003 0.000000 0.026989 0.000000
# 6 0.000000 0.000000 0.000000 0.018780 0.000000 0.061789
#
#
# Mechanical properties :
#
#
# Convention : Reuss Voigt Hill
#
# Bulk Modulus (GPa) = 39.48932 64.03921 51.76426
# Shear Modulus (GPa) = 27.68993 -29.55102 -0.93055
#
# Velocity S-wave (km/s) = 3.49316 -3.60864 -0.64036
# Velocity P-wave (km/s) = 5.80270 3.29503 4.71850
#
# Compressibility (1/GPa) = 0.02532331
#
# Stress axis : x y z
#
# Youngs Moduli (GPa) = 53.25967 37.44763 125.09134
#
# Poissons Ratio (x) = 0.14968 0.49072
# Poissons Ratio (y) = 0.21288 0.77000
# Poissons Ratio (z) = 0.20893 0.23051
#
# Static dielectric constant tensor:
#      x y z
#    x 1.912330 0.000000 -0.025930 
#    y 0.000000 1.821010 0.000000 
#    z -0.025930 0.000000 1.887320 
# 
# From -- ./inp_files/16437.got.cif
#   From: 2010.05.17/outbox.cif.g08.bks.cpg/sg5_9_cif.got.tgz:16437.got - 2010.06.03 18:56:24.
