data_PCOD9124525
_publ_section_title
;
Structure prediction by ZEFSAII (Michael W. Deem and Ramdas Pophale) SiO2 
 PCOD9124525
Probable space group: C 2
;
_chemical_formula_sum "Si O2"
_cell_formula_units_Z 28
_cell_length_a 5.046680
_cell_length_b 13.473227
_cell_length_c 21.641453
_cell_angle_alpha 90.000000
_cell_angle_beta 78.178500
_cell_angle_gamma 90.000000
_cell_volume 1440.302098
_symmetry_space_group_name_H-M "C 2"
_symmetry_group_IT_number 5
_symmetry_cell_setting 'monoclinic'
loop_
_space_group_symop_operation_xyz
x,y,z
-x,y,-z
1/2+x,1/2+y,z
1/2-x,1/2+y,-z
loop_
_atom_site_type_symbol
_atom_site_label
_atom_site_fract_x
_atom_site_fract_y
_atom_site_fract_z
Si Si1 0.302427 0.154580 0.136517
Si Si2 0.712266 0.333459 0.772620
Si Si3 0.707100 0.003192 0.544729
Si Si4 0.836207 0.422706 0.163528
Si Si5 0.948311 0.728422 0.430105
Si Si6 0.984185 0.322987 0.371335
Si Si7 0.148909 0.244153 0.927702
O O1 0.312142 0.223043 0.197481
O O2 0.558087 0.193104 0.084539
O O3 0.032044 0.182181 0.112251
O O4 0.318319 0.038629 0.150114
O O5 0.418225 0.383804 0.784131
O O6 0.864238 0.330696 0.700611
O O7 0.891424 0.395613 0.812878
O O8 0.500000 0.979501 0.500000
O O9 0.645098 0.114773 0.568860
O O10 0.000000 0.998455 0.500000
O O11 0.656430 0.925307 0.601278
O O12 0.825725 0.354355 0.102551
O O13 0.709813 0.791926 0.410911
O O14 0.000000 0.752927 0.500000
O O15 0.235568 0.745595 0.383249
O O16 0.000000 0.246237 0.000000
#
# Coordination Sequence:
#
# PCOD9124525 Si02
#       7
#     4   4   4   4   4   4   4
#     4  10  21  39  60  82 118 160 188 233 292 332
#     4  10  23  38  58  87 114 149 200 238 275 343
#     4  11  23  38  57  82 112 146 185 232 290 349
#     4  10  21  40  59  81 119 157 186 234 291 331
#     4  11  23  39  58  83 114 147 186 235 294 351
#     4  12  23  38  61  86 113 150 192 239 288 338
#     4  10  21  36  57  89 117 145 196 239 275 342
#
# _framework density 19.440366999999998
#
# number of rings (size 3 to 8) (size 9 to 14) (size 15 to 20)
#    0.000    1.429    0.000    6.429    0.000    3.429 
#    0.000    0.000    0.000    0.000    0.000    0.000 
#    0.000    0.000    0.000    0.000    0.000    0.000 
#
# Total GULP energy -78271.196172 kJ/mol
# GULP energy per Si atom -5590.799727 kJ/mol
# Density = 1.939612 g / cm^3
# Si number density = 19.440367 Si / 1000 Ang^3
#
#
#
# Elastic Constant Matrix: (Units=GPa)
#
#
# Indices 1 2 3 4 5 6 
#
# 1 84.3417 11.7318 -5.2037 0.0000 -13.3674 0.0000
# 2 11.7318 141.6003 44.6834 0.0000 -2.4488 0.0000
# 3 -5.2037 44.6834 90.2494 0.0000 -28.3964 0.0000
# 4 0.0000 0.0000 0.0000 6.1131 0.0000 -3.6988
# 5 -13.3674 -2.4488 -28.3964 0.0000 30.2404 0.0000
# 6 0.0000 0.0000 0.0000 -3.6988 0.0000 22.5527
#
#
#
# Elastic Compliance Matrix: (Units=1/GPa)
#
#
# Indices 1 2 3 4 5 6 
#
# 1 0.014491 -0.002880 0.005966 0.000000 0.011775 0.000000
# 2 -0.002880 0.009410 -0.007077 0.000000 -0.007156 0.000000
# 3 0.005966 -0.007077 0.022110 0.000000 0.022826 0.000000
# 4 0.000000 0.000000 0.000000 0.181605 0.000000 0.029785
# 5 0.011775 -0.007156 0.022826 0.000000 0.059129 0.000000
# 6 0.000000 0.000000 0.000000 0.029785 0.000000 0.049226
#
#
# Mechanical properties :
#
#
# Convention : Reuss Voigt Hill
#
# Bulk Modulus (GPa) = 26.29390 46.51270 36.40330
# Shear Modulus (GPa) = 14.02020 29.44657 21.73338
#
# Velocity S-wave (km/s) = 2.68841 3.89615 3.34721
# Velocity P-wave (km/s) = 4.81576 6.64965 5.80557
#
# Compressibility (1/GPa) = 0.03803164
#
# Stress axis : x y z
#
# Youngs Moduli (GPa) = 69.00627 106.26888 45.22760
#
# Poissons Ratio (x) = 0.30603 -0.26984
# Poissons Ratio (y) = 0.19872 0.32006
# Poissons Ratio (z) = -0.41171 0.75203
#
# Static dielectric constant tensor:
#      x y z
#    x 1.667200 0.000000 0.002150 
#    y 0.000000 1.671070 0.000000 
#    z 0.002150 0.000000 1.649830 
# 
# From -- ./inp_files/63999.got.cif
#   From: 2010.05.17/outbox.cif.g08.bks.cpg/sg5_32_cif.got.tgz:63999.got - 2010.06.03 18:56:24.
