data_PCOD9124583
_publ_section_title
;
Structure prediction by ZEFSAII (Michael W. Deem and Ramdas Pophale) SiO2 
 PCOD9124583
Probable space group: C 2
;
_chemical_formula_sum "Si O2"
_cell_formula_units_Z 24
_cell_length_a 12.106788
_cell_length_b 9.290278
_cell_length_c 14.174503
_cell_angle_alpha 90.000000
_cell_angle_beta 142.305440
_cell_angle_gamma 90.000000
_cell_volume 974.827555
_symmetry_space_group_name_H-M "C 2"
_symmetry_group_IT_number 5
_symmetry_cell_setting 'monoclinic'
loop_
_space_group_symop_operation_xyz
x,y,z
-x,y,-z
1/2+x,1/2+y,z
1/2-x,1/2+y,-z
loop_
_atom_site_type_symbol
_atom_site_label
_atom_site_fract_x
_atom_site_fract_y
_atom_site_fract_z
Si Si1 0.267338 0.943960 0.087631
Si Si2 0.307321 0.597908 0.260661
Si Si3 0.000000 0.168760 0.000000
Si Si4 0.739918 0.796759 0.309071
Si Si5 0.000000 0.539415 0.500000
Si Si6 0.422482 0.811209 0.595058
Si Si7 0.068329 0.667761 0.918082
O O1 0.374258 0.854586 0.236777
O O2 0.137175 0.059041 0.044818
O O3 0.424407 0.042919 0.152505
O O4 0.154275 0.823497 0.954411
O O5 0.315260 0.441385 0.314172
O O6 0.514133 0.655985 0.400198
O O7 0.142765 0.684414 0.201277
O O8 0.205894 0.595780 0.089125
O O9 0.059589 0.267781 0.127268
O O10 0.858211 0.655501 0.363556
O O11 0.701570 0.802422 0.395832
O O12 0.112240 0.433068 0.506430
#
# Coordination Sequence:
#
# PCOD9124583 Si02
#       7
#     4   4   2   4   2   4   4
#     4  11  21  38  66 106 145 186 231 295 358 424
#     4  10  22  42  66 101 141 181 234 296 352 425
#     4  12  22  42  76 110 150 176 238 312 360 426
#     4  12  27  47  77 110 141 192 241 296 365 427
#     4  12  30  50  72 104 148 196 246 288 352 440
#     4  11  25  50  69 102 145 194 240 291 356 427
#     4  10  21  36  65 107 147 183 231 290 373 421
#
# _framework density 24.61974
#
# number of rings (size 3 to 8) (size 9 to 14) (size 15 to 20)
#    0.000    1.000    3.333    5.000    2.333    3.333 
#    0.000    0.000    0.000    0.000    0.000    0.000 
#    0.000    0.000    0.000    0.000    0.000    0.000 
#
# Total GULP energy -66882.999749 kJ/mol
# GULP energy per Si atom -5573.583312 kJ/mol
# Density = 2.456370 g / cm^3
# Si number density = 24.619740 Si / 1000 Ang^3
#
#
#
# Elastic Constant Matrix: (Units=GPa)
#
#
# Indices 1 2 3 4 5 6 
#
# 1 65.1163 39.1915 -12.1176 0.0000 -12.2626 0.0000
# 2 39.1915 121.5906 10.8031 0.0000 -5.3383 0.0000
# 3 -12.1176 10.8031 30.2458 0.0000 -0.9222 0.0000
# 4 0.0000 0.0000 0.0000 29.0610 0.0000 6.9349
# 5 -12.2626 -5.3383 -0.9222 0.0000 19.2886 0.0000
# 6 0.0000 0.0000 0.0000 6.9349 0.0000 46.0255
#
#
#
# Elastic Compliance Matrix: (Units=1/GPa)
#
#
# Indices 1 2 3 4 5 6 
#
# 1 0.026265 -0.009076 0.014218 0.000000 0.014866 0.000000
# 2 -0.009076 0.011725 -0.007913 0.000000 -0.002903 0.000000
# 3 0.014218 -0.007913 0.041855 0.000000 0.008850 0.000000
# 4 0.000000 0.000000 0.000000 0.035694 0.000000 -0.005378
# 5 0.014866 -0.002903 0.008850 0.000000 0.060915 0.000000
# 6 0.000000 0.000000 0.000000 -0.005378 0.000000 0.022537
#
#
# Mechanical properties :
#
#
# Convention : Reuss Voigt Hill
#
# Bulk Modulus (GPa) = 13.45846 32.52297 22.99071
# Shear Modulus (GPa) = 21.80533 30.81341 26.30937
#
# Velocity S-wave (km/s) = 2.97927 3.54160 3.27254
# Velocity P-wave (km/s) = 4.16091 5.47382 4.86188
#
# Compressibility (1/GPa) = 0.07430271
#
# Stress axis : x y z
#
# Youngs Moduli (GPa) = 38.07304 85.28460 23.89212
#
# Poissons Ratio (x) = 0.77408 -0.33970
# Poissons Ratio (y) = 0.34557 0.18906
# Poissons Ratio (z) = -0.54132 0.67485
#
# Static dielectric constant tensor:
#      x y z
#    x 1.178850 0.000000 -0.150530 
#    y 0.000000 2.091310 0.000000 
#    z -0.150530 0.000000 2.059740 
# 
# From -- ./inp_files/54267.got.cif
#   From: 2010.05.17/outbox.cif.g08.bks.cpg/sg5_28_cif.got.tgz:54267.got - 2010.06.03 18:56:24.
