data_PCOD9124444
_publ_section_title
;
Structure prediction by ZEFSAII (Michael W. Deem and Ramdas Pophale) SiO2 
 PCOD9124444
Probable space group: C 2
;
_chemical_formula_sum "Si O2"
_cell_formula_units_Z 18
_cell_length_a 10.018442
_cell_length_b 19.117391
_cell_length_c 5.832090
_cell_angle_alpha 90.000000
_cell_angle_beta 41.597110
_cell_angle_gamma 90.000000
_cell_volume 741.563199
_symmetry_space_group_name_H-M "C 2"
_symmetry_group_IT_number 5
_symmetry_cell_setting 'monoclinic'
loop_
_space_group_symop_operation_xyz
x,y,z
-x,y,-z
1/2+x,1/2+y,z
1/2-x,1/2+y,-z
loop_
_atom_site_type_symbol
_atom_site_label
_atom_site_fract_x
_atom_site_fract_y
_atom_site_fract_z
Si Si1 0.723940 0.486080 0.711813
Si Si2 0.773704 0.779902 0.895507
Si Si3 0.747994 0.432736 0.182357
Si Si4 0.000000 0.735484 0.000000
Si Si5 0.709485 0.145437 0.355288
O O1 0.810759 0.460872 0.353920
O O2 0.703557 0.569777 0.715818
O O3 0.500000 0.453896 0.000000
O O4 0.805448 0.469860 0.865451
O O5 0.684535 0.852055 0.929623
O O6 0.680701 0.705291 0.940298
O O7 0.000000 0.776629 0.500000
O O8 0.833824 0.781345 0.083187
O O9 0.500000 0.435465 0.500000
O O10 0.860723 0.684762 0.327911
O O11 0.500000 0.129084 0.500000
#
# Coordination Sequence:
#
# PCOD9124444 Si02
#       5
#     4   4   4   2   4
#     4  10  21  34  51  77 106 134 165 208 257 302
#     4   8  16  28  49  75  98 129 168 215 251 290
#     4   9  19  31  50  75 105 130 166 212 258 293
#     4   8  16  28  52  72 102 126 174 212 252 286
#     4   9  19  32  52  76 101 136 170 208 251 301
#
# _framework density 24.273047999999999
#
# number of rings (size 3 to 8) (size 9 to 14) (size 15 to 20)
#    0.000    3.556    0.000    0.000   17.111    0.000 
#    0.000    0.000    0.000    2.667    0.000    0.000 
#    0.000    0.000    0.000    0.000    0.000    0.000 
#
# Total GULP energy -50110.888138 kJ/mol
# GULP energy per Si atom -5567.876460 kJ/mol
# Density = 2.421780 g / cm^3
# Si number density = 24.273048 Si / 1000 Ang^3
#
#
#
# Elastic Constant Matrix: (Units=GPa)
#
#
# Indices 1 2 3 4 5 6 
#
# 1 117.1140 45.6267 48.0625 0.0000 43.3621 0.0000
# 2 45.6267 198.5414 48.5468 0.0000 42.6990 0.0000
# 3 48.0625 48.5468 111.4490 0.0000 33.0632 0.0000
# 4 0.0000 0.0000 0.0000 69.2786 0.0000 64.5024
# 5 43.3621 42.6990 33.0632 0.0000 43.8817 0.0000
# 6 0.0000 0.0000 0.0000 64.5024 0.0000 92.2624
#
#
#
# Elastic Compliance Matrix: (Units=1/GPa)
#
#
# Indices 1 2 3 4 5 6 
#
# 1 0.013981 -0.000047 -0.002478 0.000000 -0.011903 0.000000
# 2 -0.000047 0.006498 -0.001221 0.000000 -0.005356 0.000000
# 3 -0.002478 -0.001221 0.012227 0.000000 -0.005576 0.000000
# 4 0.000000 0.000000 0.000000 0.041350 0.000000 -0.028909
# 5 -0.011903 -0.005356 -0.005576 0.000000 0.043964 0.000000
# 6 0.000000 0.000000 0.000000 -0.028909 0.000000 0.031049
#
#
# Mechanical properties :
#
#
# Convention : Reuss Voigt Hill
#
# Bulk Modulus (GPa) = 39.66002 79.06405 59.36203
# Shear Modulus (GPa) = 30.30923 60.07577 45.19250
#
# Velocity S-wave (km/s) = 3.53750 4.98033 4.31958
# Velocity P-wave (km/s) = 5.74976 8.10649 7.02762
#
# Compressibility (1/GPa) = 0.02521431
#
# Stress axis : x y z
#
# Youngs Moduli (GPa) = 71.52627 153.89093 81.78324
#
# Poissons Ratio (x) = 0.00728 0.20262
# Poissons Ratio (y) = 0.00339 0.09987
# Poissons Ratio (z) = 0.17721 0.18793
#
# Static dielectric constant tensor:
#      x y z
#    x 1.658080 0.000000 -0.194510 
#    y 0.000000 1.912350 0.000000 
#    z -0.194510 0.000000 1.925950 
# 
# From -- ./inp_files/2125.got.cif
#   From: 2010.05.17/outbox.cif.g08.bks.cpg/sg5_2_cif.got.tgz:2125.got - 2010.06.03 18:56:24.
