data_PCOD9125516
_publ_section_title
;
Structure prediction by ZEFSAII (Michael W. Deem and Ramdas Pophale) SiO2 
 PCOD9125516
Probable space group: C 2
;
_chemical_formula_sum "Si O2"
_cell_formula_units_Z 30
_cell_length_a 18.695202
_cell_length_b 10.096034
_cell_length_c 7.228463
_cell_angle_alpha 90.000000
_cell_angle_beta 101.965109
_cell_angle_gamma 90.000000
_cell_volume 1334.711657
_symmetry_space_group_name_H-M "C 2"
_symmetry_group_IT_number 5
_symmetry_cell_setting 'monoclinic'
loop_
_space_group_symop_operation_xyz
x,y,z
-x,y,-z
1/2+x,1/2+y,z
1/2-x,1/2+y,-z
loop_
_atom_site_type_symbol
_atom_site_label
_atom_site_fract_x
_atom_site_fract_y
_atom_site_fract_z
Si Si1 0.100241 0.145540 0.359409
Si Si2 0.870168 0.749547 0.920844
Si Si3 0.567342 0.979662 0.895453
Si Si4 0.802255 0.832921 0.234951
Si Si5 0.000000 0.364246 0.500000
Si Si6 0.842489 0.221246 0.980050
Si Si7 0.776886 0.124023 0.305010
Si Si8 0.429769 0.342014 0.578896
O O1 0.106090 0.152012 0.141776
O O2 0.182011 0.159625 0.485538
O O3 0.052738 0.265787 0.413339
O O4 0.073176 0.002240 0.411509
O O5 0.795504 0.705491 0.777538
O O6 0.924412 0.792475 0.786733
O O7 0.900874 0.623771 0.047494
O O8 0.847575 0.853734 0.067433
O O9 0.541486 0.953320 0.672656
O O10 0.500000 0.959608 0.000000
O O11 0.627496 0.868784 0.973293
O O12 0.739676 0.730084 0.144589
O O13 0.859190 0.795182 0.424378
O O14 0.764028 0.967534 0.283298
O O15 0.835854 0.155640 0.175841
O O16 0.500000 0.300530 0.500000
#
# Coordination Sequence:
#
# PCOD9125516 Si02
#       8
#     4   4   4   4   2   4   4   4
#     4  11  22  41  68 101 135 173 231 289 339 404
#     4  11  25  45  66  99 139 183 227 276 349 423
#     4  12  26  43  67  98 139 181 229 284 347 418
#     4  10  23  43  66  99 131 181 229 283 343 406
#     4  12  24  44  66 106 136 182 238 292 348 406
#     4  11  21  41  66  98 132 176 226 285 343 409
#     4  10  21  41  71  96 135 171 232 284 340 410
#     4  11  25  43  67  99 138 180 229 283 344 414
#
# _framework density 22.476766000000001
#
# number of rings (size 3 to 8) (size 9 to 14) (size 15 to 20)
#    0.000    1.067    4.667    1.600    1.867    1.067 
#    0.000    1.333    0.000    0.000    0.000    0.000 
#    0.000    0.000    0.000    0.000    0.000    0.000 
#
# Total GULP energy -83902.654688 kJ/mol
# GULP energy per Si atom -5593.510313 kJ/mol
# Density = 2.242561 g / cm^3
# Si number density = 22.476766 Si / 1000 Ang^3
#
#
#
# Elastic Constant Matrix: (Units=GPa)
#
#
# Indices 1 2 3 4 5 6 
#
# 1 58.8674 11.4104 26.8202 0.0000 -4.2514 0.0000
# 2 11.4104 46.7736 13.5217 0.0000 9.1480 0.0000
# 3 26.8202 13.5217 116.4428 0.0000 -14.1113 0.0000
# 4 0.0000 0.0000 0.0000 19.5450 0.0000 -5.3078
# 5 -4.2514 9.1480 -14.1113 0.0000 39.6740 0.0000
# 6 0.0000 0.0000 0.0000 -5.3078 0.0000 16.4720
#
#
#
# Elastic Compliance Matrix: (Units=1/GPa)
#
#
# Indices 1 2 3 4 5 6 
#
# 1 0.019640 -0.003999 -0.003859 0.000000 0.001654 0.000000
# 2 -0.003999 0.024546 -0.002787 0.000000 -0.007080 0.000000
# 3 -0.003859 -0.002787 0.010271 0.000000 0.003882 0.000000
# 4 0.000000 0.000000 0.000000 0.056071 0.000000 0.018068
# 5 0.001654 -0.007080 0.003882 0.000000 0.028396 0.000000
# 6 0.000000 0.000000 0.000000 0.018068 0.000000 0.066531
#
#
# Mechanical properties :
#
#
# Convention : Reuss Voigt Hill
#
# Bulk Modulus (GPa) = 30.15119 36.17650 33.16385
# Shear Modulus (GPa) = 21.02607 26.49363 23.75985
#
# Velocity S-wave (km/s) = 3.06184 3.43696 3.25481
# Velocity P-wave (km/s) = 5.09346 5.64626 5.37697
#
# Compressibility (1/GPa) = 0.03316618
#
# Stress axis : x y z
#
# Youngs Moduli (GPa) = 50.91632 40.74062 97.36302
#
# Poissons Ratio (x) = 0.16293 0.37571
# Poissons Ratio (y) = 0.20362 0.27136
# Poissons Ratio (z) = 0.19648 0.11355
#
# Static dielectric constant tensor:
#      x y z
#    x 1.844750 0.000000 -0.009300 
#    y 0.000000 1.812520 0.000000 
#    z -0.009300 0.000000 1.804370 
# 
# From -- ./inp_files/9587.got.cif
#   From: 2010.05.17/outbox.cif.g08.bks.cpg/sg5_5_cif.got.tgz:9587.got - 2010.06.03 18:56:24.
