data_PCOD9125171
_publ_section_title
;
Structure prediction by ZEFSAII (Michael W. Deem and Ramdas Pophale) SiO2 
 PCOD9125171
Probable space group: C 2
;
_chemical_formula_sum "Si O2"
_cell_formula_units_Z 22
_cell_length_a 5.907764
_cell_length_b 13.963051
_cell_length_c 11.631245
_cell_angle_alpha 90.000000
_cell_angle_beta 99.828657
_cell_angle_gamma 90.000000
_cell_volume 945.383742
_symmetry_space_group_name_H-M "C 2"
_symmetry_group_IT_number 5
_symmetry_cell_setting 'monoclinic'
loop_
_space_group_symop_operation_xyz
x,y,z
-x,y,-z
1/2+x,1/2+y,z
1/2-x,1/2+y,-z
loop_
_atom_site_type_symbol
_atom_site_label
_atom_site_fract_x
_atom_site_fract_y
_atom_site_fract_z
Si Si1 0.758196 0.684570 0.202031
Si Si2 0.202682 0.728727 0.398286
Si Si3 0.000000 0.565547 0.500000
Si Si4 0.638322 0.808955 0.813092
Si Si5 0.000000 0.895787 0.500000
Si Si6 0.167959 0.989228 0.296097
Si Si7 0.000000 0.699274 0.000000
O O1 0.614856 0.781584 0.164338
O O2 0.618303 0.592400 0.236511
O O3 0.958903 0.714038 0.308899
O O4 0.873519 0.647088 0.093902
O O5 0.369580 0.752640 0.310042
O O6 0.206650 0.633444 0.473528
O O7 0.196785 0.819276 0.482822
O O8 0.900772 0.504526 0.389326
O O9 0.756323 0.909296 0.789195
O O10 0.810730 0.761020 0.917264
O O11 0.012584 0.954483 0.620804
#
# Coordination Sequence:
#
# PCOD9125171 Si02
#       7
#     4   4   2   4   2   4   2
#     4  10  21  40  63  88 120 164 208 260 314 371
#     4   8  18  36  54  84 128 164 198 244 302 368
#     4   9  18  34  53  86 132 158 191 254 292 369
#     4  10  21  40  63  88 120 164 208 260 314 371
#     4   9  18  34  53  86 132 158 191 254 292 369
#     4  10  22  36  60 100 120 162 212 242 308 388
#     4  10  22  46  60  84 122 158 210 270 320 352
#
# _framework density 23.270973000000001
#
# number of rings (size 3 to 8) (size 9 to 14) (size 15 to 20)
#    0.000    2.545    0.000    0.545    5.091    0.000 
#    6.545    0.000    0.000    0.000    0.000    0.000 
#    0.000    0.000    0.000    0.000    0.000    0.000 
#
# Total GULP energy -61257.085281 kJ/mol
# GULP energy per Si atom -5568.825935 kJ/mol
# Density = 2.321801 g / cm^3
# Si number density = 23.270973 Si / 1000 Ang^3
#
#
#
# Elastic Constant Matrix: (Units=GPa)
#
#
# Indices 1 2 3 4 5 6 
#
# 1 41.6769 16.7048 17.0914 0.0000 -4.6072 0.0000
# 2 16.7048 99.8563 26.2186 0.0000 -16.4213 0.0000
# 3 17.0914 26.2186 104.5074 0.0000 -21.3448 0.0000
# 4 0.0000 0.0000 0.0000 22.0748 0.0000 -7.2488
# 5 -4.6072 -16.4213 -21.3448 0.0000 36.5170 0.0000
# 6 0.0000 0.0000 0.0000 -7.2488 0.0000 21.3553
#
#
#
# Elastic Compliance Matrix: (Units=1/GPa)
#
#
# Indices 1 2 3 4 5 6 
#
# 1 0.026864 -0.003613 -0.003550 0.000000 -0.000311 0.000000
# 2 -0.003613 0.011663 -0.001541 0.000000 0.003888 0.000000
# 3 -0.003550 -0.001541 0.011700 0.000000 0.005698 0.000000
# 4 0.000000 0.000000 0.000000 0.050983 0.000000 0.017306
# 5 -0.000311 0.003888 0.005698 0.000000 0.032424 0.000000
# 6 0.000000 0.000000 0.000000 0.017306 0.000000 0.052701
#
#
# Mechanical properties :
#
#
# Convention : Reuss Voigt Hill
#
# Bulk Modulus (GPa) = 30.47134 40.67447 35.57291
# Shear Modulus (GPa) = 23.29021 28.39115 25.84068
#
# Velocity S-wave (km/s) = 3.16702 3.49667 3.33592
# Velocity P-wave (km/s) = 5.14742 5.81540 5.49157
#
# Compressibility (1/GPa) = 0.03281772
#
# Stress axis : x y z
#
# Youngs Moduli (GPa) = 37.22475 85.74290 85.47252
#
# Poissons Ratio (x) = 0.30978 0.30346
# Poissons Ratio (y) = 0.13449 0.13171
# Poissons Ratio (z) = 0.13216 0.13213
#
# Static dielectric constant tensor:
#      x y z
#    x 2.040630 0.000000 -0.101950 
#    y 0.000000 1.898790 0.000000 
#    z -0.101950 0.000000 1.881590 
# 
# From -- ./inp_files/33239.got.cif
#   From: 2010.05.17/outbox.cif.g08.bks.cpg/sg5_17_cif.got.tgz:33239.got - 2010.06.03 18:56:24.
