data_PCOD9125378
_publ_section_title
;
Structure prediction by ZEFSAII (Michael W. Deem and Ramdas Pophale) SiO2 
 PCOD9125378
Probable space group: C 2
;
_chemical_formula_sum "Si O2"
_cell_formula_units_Z 18
_cell_length_a 12.156242
_cell_length_b 11.032313
_cell_length_c 9.398817
_cell_angle_alpha 90.000000
_cell_angle_beta 144.316854
_cell_angle_gamma 90.000000
_cell_volume 735.246217
_symmetry_space_group_name_H-M "C 2"
_symmetry_group_IT_number 5
_symmetry_cell_setting 'monoclinic'
loop_
_space_group_symop_operation_xyz
x,y,z
-x,y,-z
1/2+x,1/2+y,z
1/2-x,1/2+y,-z
loop_
_atom_site_type_symbol
_atom_site_label
_atom_site_fract_x
_atom_site_fract_y
_atom_site_fract_z
Si Si1 0.500364 0.573810 0.260721
Si Si2 0.000000 0.615405 0.500000
Si Si3 0.342471 0.779339 0.911876
Si Si4 0.722608 0.152574 0.220015
Si Si5 0.251492 0.402774 0.890760
O O1 0.332288 0.591532 0.201649
O O2 0.686964 0.592029 0.546146
O O3 0.477325 0.678126 0.122444
O O4 0.463392 0.454393 0.130635
O O5 0.169972 0.712364 0.650228
O O6 0.111030 0.516895 0.716097
O O7 0.500000 0.860725 0.000000
O O8 0.271700 0.844526 0.978537
O O9 0.771633 0.295642 0.247837
O O10 0.500000 0.144652 0.000000
#
# Coordination Sequence:
#
# PCOD9125378 Si02
#       5
#     4   2   4   4   4
#     4   9  21  40  60  90 123 152 200 250 293 357
#     4  10  22  42  62  86 124 160 196 250 300 348
#     4  10  22  40  62  91 123 157 201 247 294 357
#     4  10  21  41  64  87 120 159 200 249 298 351
#     4  10  21  41  64  87 122 160 197 247 300 352
#
# _framework density 24.481594000000001
#
# number of rings (size 3 to 8) (size 9 to 14) (size 15 to 20)
#    0.000    2.222    0.000    2.667    0.000   11.556 
#    0.000   15.556    0.000    0.000    0.000    0.000 
#    0.000    0.000    0.000    0.000    0.000    0.000 
#
# Total GULP energy -50130.518935 kJ/mol
# GULP energy per Si atom -5570.057659 kJ/mol
# Density = 2.442587 g / cm^3
# Si number density = 24.481594 Si / 1000 Ang^3
#
#
#
# Elastic Constant Matrix: (Units=GPa)
#
#
# Indices 1 2 3 4 5 6 
#
# 1 48.9028 6.1930 40.0199 0.0000 19.4833 0.0000
# 2 6.1930 89.2796 38.8079 0.0000 1.0009 0.0000
# 3 40.0199 38.8079 188.2719 0.0000 19.6031 0.0000
# 4 0.0000 0.0000 0.0000 25.7924 0.0000 0.2995
# 5 19.4833 1.0009 19.6031 0.0000 43.6409 0.0000
# 6 0.0000 0.0000 0.0000 0.2995 0.0000 -8.0604
#
#
#
# Elastic Compliance Matrix: (Units=1/GPa)
#
#
# Indices 1 2 3 4 5 6 
#
# 1 0.028780 0.000333 -0.005085 0.000000 -0.010572 0.000000
# 2 0.000333 0.012341 -0.002696 0.000000 0.000779 0.000000
# 3 -0.005085 -0.002696 0.007034 0.000000 -0.000828 0.000000
# 4 0.000000 0.000000 0.000000 0.038754 0.000000 0.001440
# 5 -0.010572 0.000779 -0.000828 0.000000 0.027988 0.000000
# 6 0.000000 0.000000 0.000000 0.001440 0.000000 -0.124010
#
#
# Mechanical properties :
#
#
# Convention : Reuss Voigt Hill
#
# Bulk Modulus (GPa) = 30.06754 55.16622 42.61688
# Shear Modulus (GPa) = 296.36762 28.37015 162.36889
#
# Velocity S-wave (km/s) = 11.01454 3.40786 8.15272
# Velocity P-wave (km/s) = 13.19350 6.16988 10.29893
#
# Compressibility (1/GPa) = 0.03325846
#
# Stress axis : x y z
#
# Youngs Moduli (GPa) = 34.74600 81.03289 142.16158
#
# Poissons Ratio (x) = -0.02696 0.72296
# Poissons Ratio (y) = -0.01156 0.38321
# Poissons Ratio (z) = 0.17670 0.21843
#
# Static dielectric constant tensor:
#      x y z
#    x 2.409300 0.000000 0.024840 
#    y 0.000000 1.979500 0.000000 
#    z 0.024840 0.000000 1.946690 
# 
# From -- ./inp_files/42112.got.cif
#   From: 2010.05.17/outbox.cif.g08.bks.cpg/sg5_22_cif.got.tgz:42112.got - 2010.06.03 18:56:24.
