data_PCOD9125540
_publ_section_title
;
Structure prediction by ZEFSAII (Michael W. Deem and Ramdas Pophale) SiO2 
 PCOD9125540
Probable space group: C 2
;
_chemical_formula_sum "Si O2"
_cell_formula_units_Z 30
_cell_length_a 15.661516
_cell_length_b 9.036873
_cell_length_c 10.407076
_cell_angle_alpha 90.000000
_cell_angle_beta 104.363655
_cell_angle_gamma 90.000000
_cell_volume 1426.882655
_symmetry_space_group_name_H-M "C 2"
_symmetry_group_IT_number 5
_symmetry_cell_setting 'monoclinic'
loop_
_space_group_symop_operation_xyz
x,y,z
-x,y,-z
1/2+x,1/2+y,z
1/2-x,1/2+y,-z
loop_
_atom_site_type_symbol
_atom_site_label
_atom_site_fract_x
_atom_site_fract_y
_atom_site_fract_z
Si Si1 0.170763 0.344440 0.198425
Si Si2 0.713528 0.627852 0.452028
Si Si3 0.062636 0.844753 0.693950
Si Si4 0.680625 0.601220 0.722066
Si Si5 0.856117 0.630065 0.089949
Si Si6 0.500000 0.939771 0.000000
Si Si7 0.870157 0.821093 0.571121
Si Si8 0.760250 0.336639 0.058791
O O1 0.187337 0.235122 0.324446
O O2 0.231275 0.493604 0.244796
O O3 0.067251 0.362856 0.126480
O O4 0.206678 0.294494 0.072331
O O5 0.661779 0.647984 0.568047
O O6 0.812155 0.674499 0.531868
O O7 0.693662 0.456404 0.411943
O O8 0.115272 0.706787 0.769474
O O9 0.090388 0.850736 0.555476
O O10 0.959955 0.821617 0.685441
O O11 0.104357 0.999281 0.755530
O O12 0.692878 0.745305 0.812477
O O13 0.778427 0.509339 0.076203
O O14 0.835711 0.763890 0.983766
O O15 0.934933 0.536145 0.061505
#
# Coordination Sequence:
#
# PCOD9125540 Si02
#       8
#     4   4   4   4   4   2   4   4
#     4  11  22  44  63  96 139 169 218 285 330 395
#     4  11  22  42  67  94 133 178 210 282 337 388
#     4  10  21  42  61  91 134 170 218 277 324 393
#     4  11  22  42  65  98 132 175 224 276 328 400
#     4  11  21  39  65  93 128 173 219 275 330 394
#     4  10  24  38  64  98 130 170 218 286 330 386
#     4  10  23  39  65  94 129 173 219 270 335 395
#     4  11  21  40  69  94 127 181 218 268 336 405
#
# _framework density 21.024854000000001
#
# number of rings (size 3 to 8) (size 9 to 14) (size 15 to 20)
#    0.000    1.333    6.667    0.000    1.867    4.267 
#    0.000    1.333    0.000    2.400    0.000    0.000 
#    0.000    0.000    0.000    0.000    0.000    0.000 
#
# Total GULP energy -83507.295550 kJ/mol
# GULP energy per Si atom -5567.153037 kJ/mol
# Density = 2.097700 g / cm^3
# Si number density = 21.024854 Si / 1000 Ang^3
#
#
#
# Elastic Constant Matrix: (Units=GPa)
#
#
# Indices 1 2 3 4 5 6 
#
# 1 75.8216 36.8156 8.9223 0.0000 34.9133 0.0000
# 2 36.8156 106.7583 38.6937 0.0000 10.0861 0.0000
# 3 8.9223 38.6937 94.7455 0.0000 1.9758 0.0000
# 4 0.0000 0.0000 0.0000 39.0383 0.0000 -8.7167
# 5 34.9133 10.0861 1.9758 0.0000 37.3653 0.0000
# 6 0.0000 0.0000 0.0000 -8.7167 0.0000 24.0409
#
#
#
# Elastic Compliance Matrix: (Units=1/GPa)
#
#
# Indices 1 2 3 4 5 6 
#
# 1 0.027872 -0.007715 0.001027 0.000000 -0.024015 0.000000
# 2 -0.007715 0.013416 -0.004833 0.000000 0.003843 0.000000
# 3 0.001027 -0.004833 0.012438 0.000000 -0.000313 0.000000
# 4 0.000000 0.000000 0.000000 0.027872 0.000000 0.010106
# 5 -0.024015 0.003843 -0.000313 0.000000 0.048181 0.000000
# 6 0.000000 0.000000 0.000000 0.010106 0.000000 0.045260
#
#
# Mechanical properties :
#
#
# Convention : Reuss Voigt Hill
#
# Bulk Modulus (GPa) = 32.58978 49.57653 41.08315
# Shear Modulus (GPa) = 24.00275 32.94849 28.47562
#
# Velocity S-wave (km/s) = 3.38248 3.96298 3.68418
# Velocity P-wave (km/s) = 5.54879 6.67619 6.13843
#
# Compressibility (1/GPa) = 0.03068446
#
# Stress axis : x y z
#
# Youngs Moduli (GPa) = 35.87809 74.53802 80.39853
#
# Poissons Ratio (x) = 0.57506 -0.08256
# Poissons Ratio (y) = 0.27680 0.38854
# Poissons Ratio (z) = -0.03684 0.36021
#
# Static dielectric constant tensor:
#      x y z
#    x 1.837040 0.000000 0.058610 
#    y 0.000000 1.766240 0.000000 
#    z 0.058610 0.000000 1.833240 
# 
# From -- ./inp_files/44199.got.cif
#   From: 2010.05.17/outbox.cif.g08.bks.cpg/sg5_23_cif.got.tgz:44199.got - 2010.06.03 18:56:24.
