data_PCOD9125594
_publ_section_title
;
Structure prediction by ZEFSAII (Michael W. Deem and Ramdas Pophale) SiO2 
 PCOD9125594
Probable space group: C 2
;
_chemical_formula_sum "Si O2"
_cell_formula_units_Z 32
_cell_length_a 11.598786
_cell_length_b 16.448161
_cell_length_c 13.229826
_cell_angle_alpha 90.000000
_cell_angle_beta 145.258708
_cell_angle_gamma 90.000000
_cell_volume 1438.338957
_symmetry_space_group_name_H-M "C 2"
_symmetry_group_IT_number 5
_symmetry_cell_setting 'monoclinic'
loop_
_space_group_symop_operation_xyz
x,y,z
-x,y,-z
1/2+x,1/2+y,z
1/2-x,1/2+y,-z
loop_
_atom_site_type_symbol
_atom_site_label
_atom_site_fract_x
_atom_site_fract_y
_atom_site_fract_z
Si Si1 0.197679 0.011050 0.076380
Si Si2 0.874740 0.551369 0.563011
Si Si3 0.859115 0.720570 0.662006
Si Si4 0.505190 0.618881 0.792580
Si Si5 0.233507 0.950774 0.652501
Si Si6 0.919243 0.292092 0.707289
Si Si7 0.632347 0.331668 0.993848
Si Si8 0.778095 0.617481 0.795791
O O1 0.188922 0.081990 0.987841
O O2 0.160407 0.926927 0.990502
O O3 0.403738 0.012026 0.289128
O O4 0.000000 0.024843 0.000000
O O5 0.915870 0.642697 0.634086
O O6 0.696590 0.563458 0.353555
O O7 0.772404 0.495888 0.574652
O O8 0.730115 0.777921 0.494710
O O9 0.750512 0.676357 0.679312
O O10 0.033264 0.776100 0.836546
O O11 0.433689 0.707004 0.776914
O O12 0.596545 0.626149 0.745139
O O13 0.358424 0.867577 0.733719
O O14 0.000000 0.929910 0.500000
O O15 0.286812 0.022602 0.769263
O O16 0.141538 0.303791 0.822781
O O17 0.500000 0.327523 0.000000
O O18 0.000000 0.638042 0.000000
#
# Coordination Sequence:
#
# PCOD9125594 Si02
#       8
#     4   4   4   4   4   4   4   4
#     4  11  25  43  65  91 131 177 226 278 335 416
#     4  10  21  42  66  92 129 173 223 275 330 413
#     4  10  23  40  66 101 136 168 221 280 346 404
#     4  11  23  42  70  93 130 184 224 280 344 407
#     4  11  22  42  65 101 139 172 226 282 345 410
#     4  11  24  42  65  96 142 171 216 287 342 406
#     4  11  23  38  62  96 130 169 217 274 341 405
#     4  11  22  40  73 104 133 180 234 291 343 412
#
# _framework density 22.247885
#
# number of rings (size 3 to 8) (size 9 to 14) (size 15 to 20)
#    0.000    1.250    2.500    4.125    1.750    3.000 
#    4.500    3.125    0.000    0.000    0.000    0.000 
#    0.000    0.000    0.000    0.000    0.000    0.000 
#
# Total GULP energy -89337.778925 kJ/mol
# GULP energy per Si atom -5583.611183 kJ/mol
# Density = 2.219725 g / cm^3
# Si number density = 22.247885 Si / 1000 Ang^3
#
#
#
# Elastic Constant Matrix: (Units=GPa)
#
#
# Indices 1 2 3 4 5 6 
#
# 1 43.3446 9.5230 13.7754 0.0000 20.4790 0.0000
# 2 9.5230 118.7226 23.6038 0.0001 -1.0998 0.0000
# 3 13.7754 23.6038 98.4175 0.0002 22.7891 -0.0001
# 4 0.0000 0.0001 0.0002 39.6213 0.0002 4.0128
# 5 20.4790 -1.0998 22.7891 0.0002 34.1546 -0.0001
# 6 0.0000 0.0000 -0.0001 4.0128 -0.0001 13.3477
#
#
#
# Elastic Compliance Matrix: (Units=1/GPa)
#
#
# Indices 1 2 3 4 5 6 
#
# 1 0.033176 -0.003018 0.000838 0.000000 -0.020549 0.000000
# 2 -0.003018 0.009238 -0.002698 0.000000 0.003907 0.000000
# 3 0.000838 -0.002698 0.012805 0.000000 -0.009134 0.000000
# 4 0.000000 0.000000 0.000000 0.026032 0.000000 -0.007826
# 5 -0.020549 0.003907 -0.009134 0.000000 0.047820 0.000000
# 6 0.000000 0.000000 0.000000 -0.007826 0.000000 0.077272
#
#
# Mechanical properties :
#
#
# Convention : Reuss Voigt Hill
#
# Bulk Modulus (GPa) = 21.99517 39.36545 30.68031
# Shear Modulus (GPa) = 21.62129 31.66353 26.64241
#
# Velocity S-wave (km/s) = 3.12081 3.77665 3.46428
# Velocity P-wave (km/s) = 4.78475 6.06216 5.46094
#
# Compressibility (1/GPa) = 0.04546453
#
# Stress axis : x y z
#
# Youngs Moduli (GPa) = 30.14183 108.25263 78.09179
#
# Poissons Ratio (x) = 0.32673 -0.06548
# Poissons Ratio (y) = 0.09098 0.21067
# Poissons Ratio (z) = -0.02527 0.29204
#
# Static dielectric constant tensor:
#      x y z
#    x 1.819680 0.000000 -0.004900 
#    y 0.000000 1.884860 0.000000 
#    z -0.004900 0.000000 1.816930 
# 
# From -- ./inp_files/53473.got.cif
#   From: 2010.05.17/outbox.cif.g08.bks.cpg/sg5_27_cif.got.tgz:53473.got - 2010.06.03 18:56:24.
