data_PCOD9125136
_publ_section_title
;
Structure prediction by ZEFSAII (Michael W. Deem and Ramdas Pophale) SiO2 
 PCOD9125136
Probable space group: C 2
;
_chemical_formula_sum "Si O2"
_cell_formula_units_Z 24
_cell_length_a 7.989312
_cell_length_b 16.681154
_cell_length_c 8.828214
_cell_angle_alpha 90.000000
_cell_angle_beta 84.284804
_cell_angle_gamma 90.000000
_cell_volume 1170.696037
_symmetry_space_group_name_H-M "C 2"
_symmetry_group_IT_number 5
_symmetry_cell_setting 'monoclinic'
loop_
_space_group_symop_operation_xyz
x,y,z
-x,y,-z
1/2+x,1/2+y,z
1/2-x,1/2+y,-z
loop_
_atom_site_type_symbol
_atom_site_label
_atom_site_fract_x
_atom_site_fract_y
_atom_site_fract_z
Si Si1 0.548777 0.591080 0.816170
Si Si2 0.953730 0.423835 0.327988
Si Si3 0.441395 0.425468 0.676457
Si Si4 0.548296 0.763948 0.822053
Si Si5 0.557907 0.097310 0.317175
Si Si6 0.046171 0.762261 0.172534
O O1 0.480745 0.508429 0.756075
O O2 0.483187 0.678281 0.766212
O O3 0.743648 0.594354 0.743247
O O4 0.500000 0.590184 0.000000
O O5 0.757349 0.416681 0.316485
O O6 0.025160 0.341877 0.252878
O O7 0.000000 0.425121 0.500000
O O8 0.000529 0.510894 0.259641
O O9 0.500000 0.431244 0.500000
O O10 0.516041 0.345623 0.747938
O O11 0.752579 0.761728 0.810576
O O12 0.500000 0.770279 0.000000
O O13 0.500000 0.099852 0.500000
O O14 0.484698 0.178124 0.248927
O O15 0.000000 0.763032 0.000000
#
# Coordination Sequence:
#
# PCOD9125136 Si02
#       6
#     4   4   4   4   4   4
#     4  10  22  41  61  88 121 155 197 246 296 354
#     4  10  22  38  57  84 115 152 196 242 291 346
#     4  11  22  38  60  87 119 158 199 245 297 353
#     4   9  21  39  58  82 115 152 194 239 290 347
#     4  10  21  40  61  86 120 157 198 246 294 351
#     4  10  22  38  59  87 119 156 197 242 295 353
#
# _framework density 20.500624999999999
#
# number of rings (size 3 to 8) (size 9 to 14) (size 15 to 20)
#    0.000    2.000    0.000    3.000    0.000   10.667 
#    0.000    3.333    0.000    0.000    0.000    0.000 
#    0.000    0.000    0.000    0.000    0.000    0.000 
#
# Total GULP energy -66831.524765 kJ/mol
# GULP energy per Si atom -5569.293730 kJ/mol
# Density = 2.045396 g / cm^3
# Si number density = 20.500625 Si / 1000 Ang^3
#
#
#
# Elastic Constant Matrix: (Units=GPa)
#
#
# Indices 1 2 3 4 5 6 
#
# 1 41.3596 27.8398 14.6402 0.0000 -3.8947 0.0000
# 2 27.8398 263.3595 86.5251 0.0000 16.3949 0.0000
# 3 14.6402 86.5251 98.2673 0.0000 -4.1688 0.0000
# 4 0.0000 0.0000 0.0000 44.4798 0.0000 6.0485
# 5 -3.8947 16.3949 -4.1688 0.0000 30.2638 0.0000
# 6 0.0000 0.0000 0.0000 6.0485 0.0000 28.4718
#
#
#
# Elastic Compliance Matrix: (Units=1/GPa)
#
#
# Indices 1 2 3 4 5 6 
#
# 1 0.026930 -0.002655 -0.001475 0.000000 0.004701 0.000000
# 2 -0.002655 0.006016 -0.005084 0.000000 -0.004301 0.000000
# 3 -0.001475 -0.005084 0.015069 0.000000 0.004640 0.000000
# 4 0.000000 0.000000 0.000000 0.023151 0.000000 -0.004918
# 5 0.004701 -0.004301 0.004640 0.000000 0.036617 0.000000
# 6 0.000000 0.000000 0.000000 -0.004918 0.000000 0.036167
#
#
# Mechanical properties :
#
#
# Convention : Reuss Voigt Hill
#
# Bulk Modulus (GPa) = 33.79813 73.44409 53.62111
# Shear Modulus (GPa) = 29.02930 38.90851 33.96890
#
# Velocity S-wave (km/s) = 3.76709 4.36124 4.07500
# Velocity P-wave (km/s) = 5.95344 7.82711 6.95367
#
# Compressibility (1/GPa) = 0.02958744
#
# Stress axis : x y z
#
# Youngs Moduli (GPa) = 37.13343 166.23102 66.36012
#
# Poissons Ratio (x) = 0.44130 0.09789
# Poissons Ratio (y) = 0.09858 0.33736
# Poissons Ratio (z) = 0.05478 0.84509
#
# Static dielectric constant tensor:
#      x y z
#    x 2.146430 0.000000 -0.254240 
#    y 0.000000 1.803340 0.000000 
#    z -0.254240 0.000000 1.825610 
# 
# From -- ./inp_files/14926.got.cif
#   From: 2010.05.17/outbox.cif.g08.bks.cpg/sg5_8_cif.got.tgz:14926.got - 2010.06.03 18:56:24.
