data_PCOD9125038
_publ_section_title
;
Structure prediction by ZEFSAII (Michael W. Deem and Ramdas Pophale) SiO2 
 PCOD9125038
Probable space group: C 2
;
_chemical_formula_sum "Si O2"
_cell_formula_units_Z 32
_cell_length_a 19.690045
_cell_length_b 10.388552
_cell_length_c 9.714336
_cell_angle_alpha 90.000000
_cell_angle_beta 132.778604
_cell_angle_gamma 90.000000
_cell_volume 1458.482313
_symmetry_space_group_name_H-M "C 2"
_symmetry_group_IT_number 5
_symmetry_cell_setting 'monoclinic'
loop_
_space_group_symop_operation_xyz
x,y,z
-x,y,-z
1/2+x,1/2+y,z
1/2-x,1/2+y,-z
loop_
_atom_site_type_symbol
_atom_site_label
_atom_site_fract_x
_atom_site_fract_y
_atom_site_fract_z
Si Si1 0.801128 0.920200 0.841381
Si Si2 0.412298 0.886461 0.821922
Si Si3 0.179915 0.219137 0.061133
Si Si4 0.462337 0.401946 0.242871
Si Si5 0.135742 0.849347 0.624221
Si Si6 0.104251 0.307549 0.662013
Si Si7 0.418724 0.655570 0.639412
Si Si8 0.228902 0.985524 0.496829
O O1 0.697379 0.886045 0.748774
O O2 0.803793 0.906928 0.680887
O O3 0.823299 0.068614 0.908957
O O4 0.887100 0.848677 0.032432
O O5 0.364100 0.806064 0.878596
O O6 0.449022 0.780482 0.764644
O O7 0.338159 0.978238 0.649967
O O8 0.500000 0.960348 0.000000
O O9 0.289834 0.251689 0.211208
O O10 0.128755 0.254736 0.847699
O O11 0.544494 0.308909 0.411532
O O12 0.403339 0.428887 0.300050
O O13 0.515467 0.530387 0.261990
O O14 0.191863 0.930845 0.589605
O O15 0.096652 0.194216 0.538815
O O16 0.000000 0.368698 0.500000
O O17 0.320301 0.622402 0.574582
#
# Coordination Sequence:
#
# PCOD9125038 Si02
#       8
#     4   4   4   4   4   4   4   4
#     4  12  23  41  64  95 126 161 211 264 314 374
#     4  11  21  40  62  93 126 167 202 256 314 375
#     4  11  24  40  65  89 130 166 208 255 322 371
#     4  10  21  39  65  93 120 161 214 255 309 367
#     4   9  21  40  60  89 125 164 202 256 307 374
#     4  12  26  42  62  97 128 162 213 265 312 376
#     4  11  23  39  67  93 125 162 211 264 308 367
#     4  10  23  38  62  91 129 161 204 256 317 370
#
# _framework density 21.940615000000001
#
# number of rings (size 3 to 8) (size 9 to 14) (size 15 to 20)
#    0.000    1.250    3.750    2.250    8.750    1.500 
#    2.250    0.000    2.750    0.000    0.000    0.000 
#    0.000    0.000    0.000    0.000    0.000    0.000 
#
# Total GULP energy -89182.267736 kJ/mol
# GULP energy per Si atom -5573.891733 kJ/mol
# Density = 2.189068 g / cm^3
# Si number density = 21.940615 Si / 1000 Ang^3
#
#
#
# Elastic Constant Matrix: (Units=GPa)
#
#
# Indices 1 2 3 4 5 6 
#
# 1 80.8863 10.3692 44.4272 0.0000 12.3022 0.0000
# 2 10.3692 9.4916 8.3669 0.0000 14.3103 0.0000
# 3 44.4272 8.3669 162.3484 0.0000 33.2009 0.0000
# 4 0.0000 0.0000 0.0000 20.0390 0.0000 2.0418
# 5 12.3022 14.3103 33.2009 0.0000 56.6911 0.0000
# 6 0.0000 0.0000 0.0000 2.0418 0.0000 26.2364
#
#
#
# Elastic Compliance Matrix: (Units=1/GPa)
#
#
# Indices 1 2 3 4 5 6 
#
# 1 0.016796 -0.020762 -0.004377 0.000000 0.004159 0.000000
# 2 -0.020762 0.195753 0.005427 0.000000 -0.048086 0.000000
# 3 -0.004377 0.005427 0.008138 0.000000 -0.005186 0.000000
# 4 0.000000 0.000000 0.000000 0.050302 0.000000 -0.003915
# 5 0.004159 -0.048086 -0.005186 0.000000 0.031912 0.000000
# 6 0.000000 0.000000 0.000000 -0.003915 0.000000 0.038420
#
#
# Mechanical properties :
#
#
# Convention : Reuss Voigt Hill
#
# Bulk Modulus (GPa) = 5.51681 42.11697 23.81689
# Shear Modulus (GPa) = 11.33360 33.23085 22.28223
#
# Velocity S-wave (km/s) = 2.27526 3.89598 3.19026
# Velocity P-wave (km/s) = 3.06957 6.28298 4.94460
#
# Compressibility (1/GPa) = 0.18126412
#
# Stress axis : x y z
#
# Youngs Moduli (GPa) = 59.53792 5.10847 122.87631
#
# Poissons Ratio (x) = 0.10606 0.53782
# Poissons Ratio (y) = 1.23611 -0.66684
# Poissons Ratio (z) = 0.26059 -0.02772
#
# Static dielectric constant tensor:
#      x y z
#    x 1.875500 0.000000 0.065160 
#    y 0.000000 1.810520 0.000000 
#    z 0.065160 0.000000 1.914370 
# 
# From -- ./inp_files/29627.got.cif
#   From: 2010.05.17/outbox.cif.g08.bks.cpg/sg5_15_cif.got.tgz:29627.got - 2010.06.03 18:56:24.
