data_PCOD9125871
_publ_section_title
;
Structure prediction by ZEFSAII (Michael W. Deem and Ramdas Pophale) SiO2 
 PCOD9125871
Probable space group: C 2
;
_chemical_formula_sum "Si O2"
_cell_formula_units_Z 24
_cell_length_a 15.419887
_cell_length_b 12.908905
_cell_length_c 12.242321
_cell_angle_alpha 90.000000
_cell_angle_beta 153.928559
_cell_angle_gamma 90.000000
_cell_volume 1070.988564
_symmetry_space_group_name_H-M "C 2"
_symmetry_group_IT_number 5
_symmetry_cell_setting 'monoclinic'
loop_
_space_group_symop_operation_xyz
x,y,z
-x,y,-z
1/2+x,1/2+y,z
1/2-x,1/2+y,-z
loop_
_atom_site_type_symbol
_atom_site_label
_atom_site_fract_x
_atom_site_fract_y
_atom_site_fract_z
Si Si1 0.000000 0.185081 0.000000
Si Si2 0.309904 0.342727 0.342354
Si Si3 0.500000 0.868099 0.500000
Si Si4 0.843316 0.016573 0.977356
Si Si5 0.771207 0.692275 0.728220
Si Si6 0.319391 0.016964 0.968832
Si Si7 0.220210 0.010339 0.507668
O O1 0.836841 0.262356 0.767531
O O2 0.132147 0.117637 0.068275
O O3 0.500000 0.293328 0.500000
O O4 0.344868 0.428915 0.473383
O O5 0.221738 0.410880 0.143132
O O6 0.621962 0.787397 0.563368
O O7 0.673150 0.939406 0.745790
O O8 0.074970 0.984531 0.243888
O O9 0.794783 0.037018 0.048946
O O10 0.717013 0.623802 0.560942
O O11 0.764740 0.609339 0.822293
O O12 0.000000 0.727684 0.000000
O O13 0.549437 0.005792 0.258668
#
# Coordination Sequence:
#
# PCOD9125871 Si02
#       7
#     2   4   2   4   4   4   4
#     4  12  30  48  62 102 158 190 234 296 358 420
#     4  11  21  44  80 109 138 180 236 303 363 423
#     4  12  28  44  64  92 148 194 232 274 350 424
#     4  12  29  45  65  97 148 199 235 282 351 426
#     4   9  21  44  76 108 134 170 234 306 355 411
#     4  10  21  44  79 111 133 176 237 302 356 425
#     4  10  21  46  77 108 138 175 240 306 354 421
#
# _framework density 22.409203000000002
#
# number of rings (size 3 to 8) (size 9 to 14) (size 15 to 20)
#    0.000    1.333    3.333    2.000    7.000    2.667 
#    6.000    0.000    0.000    0.000    0.000    0.000 
#    0.000    0.000    0.000    0.000    0.000    0.000 
#
# Total GULP energy -66897.334926 kJ/mol
# GULP energy per Si atom -5574.777910 kJ/mol
# Density = 2.235820 g / cm^3
# Si number density = 22.409203 Si / 1000 Ang^3
#
#
#
# Elastic Constant Matrix: (Units=GPa)
#
#
# Indices 1 2 3 4 5 6 
#
# 1 50.0386 31.0616 6.0180 0.0000 13.5589 0.0000
# 2 31.0616 93.5058 55.8403 0.0000 11.6818 0.0000
# 3 6.0180 55.8403 143.3278 0.0000 17.0556 0.0000
# 4 0.0000 0.0000 0.0000 32.1607 0.0000 41.6696
# 5 13.5589 11.6818 17.0556 0.0000 28.2054 0.0000
# 6 0.0000 0.0000 0.0000 41.6696 0.0000 23.3050
#
#
#
# Elastic Compliance Matrix: (Units=1/GPa)
#
#
# Indices 1 2 3 4 5 6 
#
# 1 0.029627 -0.010986 0.004514 0.000000 -0.012422 0.000000
# 2 -0.010986 0.018202 -0.006855 0.000000 0.001887 0.000000
# 3 0.004514 -0.006855 0.010106 0.000000 -0.005442 0.000000
# 4 0.000000 0.000000 0.000000 -0.023615 0.000000 0.042225
# 5 -0.012422 0.001887 -0.005442 0.000000 0.043935 0.000000
# 6 0.000000 0.000000 0.000000 0.042225 0.000000 -0.032589
#
#
# Mechanical properties :
#
#
# Convention : Reuss Voigt Hill
#
# Bulk Modulus (GPa) = 31.96728 52.52356 42.24542
# Shear Modulus (GPa) = 60.42749 29.66438 45.04593
#
# Velocity S-wave (km/s) = 5.19846 3.64230 4.48834
# Velocity P-wave (km/s) = 7.09424 6.41699 6.76409
#
# Compressibility (1/GPa) = 0.03128198
#
# Stress axis : x y z
#
# Youngs Moduli (GPa) = 33.75290 54.94040 98.95517
#
# Poissons Ratio (x) = 0.60356 -0.44671
# Poissons Ratio (y) = 0.37080 0.67830
# Poissons Ratio (z) = -0.15237 0.37660
#
# Static dielectric constant tensor:
#      x y z
#    x 1.848540 0.000000 0.042950 
#    y 0.000000 1.813620 0.000000 
#    z 0.042950 0.000000 1.879600 
# 
# From -- ./inp_files/43137.got.cif
#   From: 2010.05.17/outbox.cif.g08.bks.cpg/sg5_22_cif.got.tgz:43137.got - 2010.06.03 18:56:24.
