data_PCOD9125550
_publ_section_title
;
Structure prediction by ZEFSAII (Michael W. Deem and Ramdas Pophale) SiO2 
 PCOD9125550
Probable space group: C 2
;
_chemical_formula_sum "Si O2"
_cell_formula_units_Z 16
_cell_length_a 9.219968
_cell_length_b 8.263345
_cell_length_c 15.651250
_cell_angle_alpha 90.000000
_cell_angle_beta 151.345682
_cell_angle_gamma 90.000000
_cell_volume 571.800685
_symmetry_space_group_name_H-M "C 2"
_symmetry_group_IT_number 5
_symmetry_cell_setting 'monoclinic'
loop_
_space_group_symop_operation_xyz
x,y,z
-x,y,-z
1/2+x,1/2+y,z
1/2-x,1/2+y,-z
loop_
_atom_site_type_symbol
_atom_site_label
_atom_site_fract_x
_atom_site_fract_y
_atom_site_fract_z
Si Si1 0.236016 0.181900 0.200514
Si Si2 0.617906 0.863153 0.655148
Si Si3 0.382096 0.500653 0.344852
Si Si4 0.144392 0.681904 0.980364
O O1 0.425013 0.347029 0.306166
O O2 0.425028 0.016778 0.306175
O O3 0.000000 0.181897 0.000000
O O4 0.002205 0.181902 0.160012
O O5 0.500000 0.898545 0.500000
O O6 0.507192 0.681904 0.622873
O O7 0.980122 0.830357 0.846919
O O8 0.500000 0.465259 0.500000
O O9 0.019883 0.533457 0.153088
O O10 0.000000 0.681900 0.000000
#
# Coordination Sequence:
#
# PCOD9125550 Si02
#       4
#     4   4   4   4
#     4  12  23  38  65  96 120 158 212 254 301 368
#     4   9  21  41  61  89 128 163 200 253 312 363
#     4   9  21  41  61  89 128 163 200 253 312 363
#     4  10  21  42  63  88 124 164 204 252 307 362
#
# _framework density 27.981776
#
# number of rings (size 3 to 8) (size 9 to 14) (size 15 to 20)
#    1.500    0.500    0.000    3.750    0.000    0.000 
#    0.000   15.000    0.000    0.000    0.000    0.000 
#    0.000    0.000    0.000    0.000    0.000    0.000 
#
# Total GULP energy -44700.674307 kJ/mol
# GULP energy per Si atom -5587.584288 kJ/mol
# Density = 2.791809 g / cm^3
# Si number density = 27.981776 Si / 1000 Ang^3
#
#
#
# Elastic Constant Matrix: (Units=GPa)
#
#
# Indices 1 2 3 4 5 6 
#
# 1 128.5490 19.0957 47.8310 0.0032 -5.0721 0.0000
# 2 19.0957 280.4250 82.1081 0.0006 -29.7915 0.0003
# 3 47.8310 82.1081 166.2133 0.0136 -44.0731 0.0062
# 4 0.0032 0.0006 0.0136 61.1942 0.0050 1.5833
# 5 -5.0721 -29.7915 -44.0731 0.0050 69.6739 0.0003
# 6 0.0000 0.0003 0.0062 1.5833 0.0003 20.4369
#
#
#
# Elastic Compliance Matrix: (Units=1/GPa)
#
#
# Indices 1 2 3 4 5 6 
#
# 1 0.008792 0.000128 -0.002895 0.000000 -0.001136 0.000001
# 2 0.000128 0.004190 -0.001958 0.000000 0.000563 0.000001
# 3 -0.002895 -0.001958 0.009058 -0.000002 0.004682 -0.000003
# 4 0.000000 0.000000 -0.000002 0.016374 -0.000002 -0.001269
# 5 -0.001136 0.000563 0.004682 -0.000002 0.017472 -0.000002
# 6 0.000001 0.000001 -0.000003 -0.001269 -0.000002 0.049029
#
#
# Mechanical properties :
#
#
# Convention : Reuss Voigt Hill
#
# Bulk Modulus (GPa) = 79.41531 97.02856 88.22194
# Shear Modulus (GPa) = 42.17204 58.67118 50.42161
#
# Velocity S-wave (km/s) = 3.88638 4.58401 4.24954
# Velocity P-wave (km/s) = 6.97003 7.92265 7.46156
#
# Compressibility (1/GPa) = 0.01259203
#
# Stress axis : x y z
#
# Youngs Moduli (GPa) = 113.73514 238.64865 110.40094
#
# Poissons Ratio (x) = -0.03058 0.31958
# Poissons Ratio (y) = -0.01457 0.21612
# Poissons Ratio (z) = 0.32924 0.46719
#
# Static dielectric constant tensor:
#      x y z
#    x 2.214880 0.000000 0.032910 
#    y 0.000000 2.292850 0.000000 
#    z 0.032910 0.000000 2.133520 
# 
# From -- ./inp_files/43892.got.cif
#   From: 2010.05.17/outbox.cif.g08.bks.cpg/sg5_22_cif.got.tgz:43892.got - 2010.06.03 18:56:24.
