data_PCOD9125643
_publ_section_title
;
Structure prediction by ZEFSAII (Michael W. Deem and Ramdas Pophale) SiO2 
 PCOD9125643
Probable space group: C 2
;
_chemical_formula_sum "Si O2"
_cell_formula_units_Z 24
_cell_length_a 19.048306
_cell_length_b 6.930499
_cell_length_c 7.584767
_cell_angle_alpha 90.000000
_cell_angle_beta 73.362376
_cell_angle_gamma 90.000000
_cell_volume 959.377895
_symmetry_space_group_name_H-M "C 2"
_symmetry_group_IT_number 5
_symmetry_cell_setting 'monoclinic'
loop_
_space_group_symop_operation_xyz
x,y,z
-x,y,-z
1/2+x,1/2+y,z
1/2-x,1/2+y,-z
loop_
_atom_site_type_symbol
_atom_site_label
_atom_site_fract_x
_atom_site_fract_y
_atom_site_fract_z
Si Si1 0.534952 0.755210 0.796345
Si Si2 0.681990 0.206426 0.723418
Si Si3 0.221549 0.558982 0.340722
Si Si4 0.175958 0.326593 0.894508
Si Si5 0.559790 0.407936 0.586046
Si Si6 0.599305 0.779172 0.314701
O O1 0.521492 0.529137 0.770103
O O2 0.482356 0.842547 0.686535
O O3 0.620933 0.776774 0.770554
O O4 0.500000 0.829067 0.000000
O O5 0.719296 0.400421 0.760470
O O6 0.732678 0.104299 0.538979
O O7 0.672059 0.057993 0.888908
O O8 0.614107 0.267498 0.648163
O O9 0.244319 0.745696 0.212614
O O10 0.144455 0.453909 0.367739
O O11 0.143223 0.243190 0.098863
O O12 0.500000 0.317219 0.500000
O O13 0.594067 0.587385 0.442737
#
# Coordination Sequence:
#
# PCOD9125643 Si02
#       6
#     4   4   4   4   4   4
#     4   9  19  43  68  95 132 179 218 285 340 402
#     4  12  24  42  65  97 131 183 222 279 344 411
#     4  12  24  40  66  94 133 176 223 281 340 406
#     4  11  24  42  68  95 137 172 231 278 343 411
#     4  10  21  42  69 100 134 180 233 284 343 412
#     4  10  24  41  68  98 135 177 222 284 343 403
#
# _framework density 25.016213
#
# number of rings (size 3 to 8) (size 9 to 14) (size 15 to 20)
#    0.000    1.333    3.333    2.000    2.333    1.333 
#    0.000    2.500    0.000    0.000    0.000    0.000 
#    0.000    0.000    0.000    0.000    0.000    0.000 
#
# Total GULP energy -66957.253172 kJ/mol
# GULP energy per Si atom -5579.771098 kJ/mol
# Density = 2.495928 g / cm^3
# Si number density = 25.016213 Si / 1000 Ang^3
#
#
#
# Elastic Constant Matrix: (Units=GPa)
#
#
# Indices 1 2 3 4 5 6 
#
# 1 107.5053 28.2957 -4.7020 0.0000 12.5277 0.0000
# 2 28.2957 84.1810 10.5304 0.0000 4.5304 0.0000
# 3 -4.7020 10.5304 114.0430 0.0000 8.4111 0.0000
# 4 0.0000 0.0000 0.0000 16.2338 0.0000 -3.5871
# 5 12.5277 4.5304 8.4111 0.0000 21.8685 0.0000
# 6 0.0000 0.0000 0.0000 -3.5871 0.0000 42.2965
#
#
#
# Elastic Compliance Matrix: (Units=1/GPa)
#
#
# Indices 1 2 3 4 5 6 
#
# 1 0.010985 -0.003521 0.001223 0.000000 -0.006034 0.000000
# 2 -0.003521 0.013243 -0.001353 0.000000 -0.000206 0.000000
# 3 0.001223 -0.001353 0.009237 0.000000 -0.003973 0.000000
# 4 0.000000 0.000000 0.000000 0.062776 0.000000 0.005324
# 5 -0.006034 -0.000206 -0.003973 0.000000 0.050755 0.000000
# 6 0.000000 0.000000 0.000000 0.005324 0.000000 0.024094
#
#
# Mechanical properties :
#
#
# Convention : Reuss Voigt Hill
#
# Bulk Modulus (GPa) = 38.22007 41.55304 39.88655
# Shear Modulus (GPa) = 26.72178 34.18678 30.45428
#
# Velocity S-wave (km/s) = 3.27185 3.70075 3.49288
# Velocity P-wave (km/s) = 5.43917 5.90823 5.67855
#
# Compressibility (1/GPa) = 0.02616427
#
# Stress axis : x y z
#
# Youngs Moduli (GPa) = 91.03178 75.51221 108.26039
#
# Poissons Ratio (x) = 0.26585 -0.13241
# Poissons Ratio (y) = 0.32049 0.14645
# Poissons Ratio (z) = -0.11134 0.10215
#
# Static dielectric constant tensor:
#      x y z
#    x 2.077520 0.000000 -0.049680 
#    y 0.000000 2.015910 0.000000 
#    z -0.049680 0.000000 2.023840 
# 
# From -- ./inp_files/28521.got.cif
#   From: 2010.05.17/outbox.cif.g08.bks.cpg/sg5_15_cif.got.tgz:28521.got - 2010.06.03 18:56:24.
