data_PCOD9125930
_publ_section_title
;
Structure prediction by ZEFSAII (Michael W. Deem and Ramdas Pophale) SiO2 
 PCOD9125930
Probable space group: C 2
;
_chemical_formula_sum "Si O2"
_cell_formula_units_Z 16
_cell_length_a 7.416175
_cell_length_b 12.562767
_cell_length_c 7.372599
_cell_angle_alpha 90.000000
_cell_angle_beta 78.415808
_cell_angle_gamma 90.000000
_cell_volume 672.896501
_symmetry_space_group_name_H-M "C 2"
_symmetry_group_IT_number 5
_symmetry_cell_setting 'monoclinic'
loop_
_space_group_symop_operation_xyz
x,y,z
-x,y,-z
1/2+x,1/2+y,z
1/2-x,1/2+y,-z
loop_
_atom_site_type_symbol
_atom_site_label
_atom_site_fract_x
_atom_site_fract_y
_atom_site_fract_z
Si Si1 0.701438 0.815250 0.431881
Si Si2 0.500000 0.080896 0.000000
Si Si3 0.792692 0.952481 0.734423
Si Si4 0.000000 0.115961 0.500000
Si Si5 0.718071 0.763822 0.008294
O O1 0.500000 0.863710 0.500000
O O2 0.809782 0.892446 0.538839
O O3 0.668345 0.695355 0.515039
O O4 0.737932 0.798204 0.214543
O O5 0.337912 0.157273 0.958053
O O6 0.401196 0.007895 0.171148
O O7 0.809070 0.858628 0.875078
O O8 0.936709 0.048273 0.685189
O O9 0.500000 0.754667 0.000000
#
# Coordination Sequence:
#
# PCOD9125930 Si02
#       5
#     4   2   4   2   4
#     4  10  21  49  65 100 152 180 238 304 343 439
#     4  12  26  50  78 110 144 202 246 292 386 428
#     4  12  25  48  72 107 150 193 244 302 369 432
#     4  10  24  44  70 106 144 188 244 292 370 426
#     4  12  25  51  72 112 154 183 251 312 350 452
#
# _framework density 23.777802000000001
#
# number of rings (size 3 to 8) (size 9 to 14) (size 15 to 20)
#    0.750    0.000    6.250    0.000    3.500    0.000 
#   20.250    0.000    0.000    0.000    0.000    0.000 
#    0.000    0.000    0.000    0.000    0.000    0.000 
#
# Total GULP energy -44623.073573 kJ/mol
# GULP energy per Si atom -5577.884197 kJ/mol
# Density = 2.372368 g / cm^3
# Si number density = 23.777802 Si / 1000 Ang^3
#
#
#
# Elastic Constant Matrix: (Units=GPa)
#
#
# Indices 1 2 3 4 5 6 
#
# 1 108.9043 54.0425 54.6461 0.0000 -16.2887 0.0000
# 2 54.0425 126.6243 48.9584 0.0000 8.8615 0.0000
# 3 54.6461 48.9584 116.9828 0.0000 7.1204 0.0000
# 4 0.0000 0.0000 0.0000 196.9517 0.0000 -310.4936
# 5 -16.2887 8.8615 7.1204 0.0000 12.6552 0.0000
# 6 0.0000 0.0000 0.0000 -310.4936 0.0000 188.7241
#
#
#
# Elastic Compliance Matrix: (Units=1/GPa)
#
#
# Indices 1 2 3 4 5 6 
#
# 1 0.027830 -0.010941 -0.011461 0.000000 0.049930 0.000000
# 2 -0.010941 0.013981 0.000738 0.000000 -0.024288 0.000000
# 3 -0.011461 0.000738 0.015037 0.000000 -0.023729 0.000000
# 4 0.000000 0.000000 0.000000 -0.003186 0.000000 -0.005242
# 5 0.049930 -0.024288 -0.023729 0.000000 0.173643 0.000000
# 6 0.000000 0.000000 0.000000 -0.005242 0.000000 -0.003325
#
#
# Mechanical properties :
#
#
# Convention : Reuss Voigt Hill
#
# Bulk Modulus (GPa) = 73.95566 74.20059 74.07813
# Shear Modulus (GPa) = 18.39482 92.65717 55.52600
#
# Velocity S-wave (km/s) = 2.78441 6.24920 4.83764
# Velocity P-wave (km/s) = 6.44264 9.12927 7.90099
#
# Compressibility (1/GPa) = 0.01352161
#
# Stress axis : x y z
#
# Youngs Moduli (GPa) = 35.93186 71.52389 66.50098
#
# Poissons Ratio (x) = 0.78254 0.76214
# Poissons Ratio (y) = 0.39313 -0.04907
# Poissons Ratio (z) = 0.41180 -0.05277
#
# Static dielectric constant tensor:
#      x y z
#    x 1.608340 0.000000 -0.697980 
#    y 0.000000 1.939930 0.000000 
#    z -0.697980 0.000000 0.990470 
# 
# From -- ./inp_files/13975.got.cif
#   From: 2010.05.17/outbox.cif.g08.bks.cpg/sg5_7_cif.got.tgz:13975.got - 2010.06.03 18:56:24.
