data_PCOD9125507
_publ_section_title
;
Structure prediction by ZEFSAII (Michael W. Deem and Ramdas Pophale) SiO2 
 PCOD9125507
Probable space group: C 2
;
_chemical_formula_sum "Si O2"
_cell_formula_units_Z 26
_cell_length_a 9.733605
_cell_length_b 19.304664
_cell_length_c 7.838203
_cell_angle_alpha 90.000000
_cell_angle_beta 49.392973
_cell_angle_gamma 90.000000
_cell_volume 1118.159614
_symmetry_space_group_name_H-M "C 2"
_symmetry_group_IT_number 5
_symmetry_cell_setting 'monoclinic'
loop_
_space_group_symop_operation_xyz
x,y,z
-x,y,-z
1/2+x,1/2+y,z
1/2-x,1/2+y,-z
loop_
_atom_site_type_symbol
_atom_site_label
_atom_site_fract_x
_atom_site_fract_y
_atom_site_fract_z
Si Si1 0.500066 0.439390 0.795244
Si Si2 0.127841 0.799511 0.237411
Si Si3 0.074237 0.574702 0.616909
Si Si4 0.849202 0.674255 0.988226
Si Si5 0.992485 0.099047 0.212458
Si Si6 0.920216 0.425933 0.373441
Si Si7 0.500000 0.825678 0.000000
O O1 0.381703 0.380532 0.801597
O O2 0.450367 0.518965 0.795982
O O3 0.703803 0.423933 0.570994
O O4 0.500000 0.432774 0.000000
O O5 0.108280 0.754011 0.084101
O O6 0.325165 0.778872 0.139275
O O7 0.000000 0.785838 0.500000
O O8 0.281410 0.601404 0.442993
O O9 0.051832 0.502396 0.734625
O O10 0.000000 0.545020 0.500000
O O11 0.927324 0.633656 0.763783
O O12 0.641784 0.650031 0.177018
O O13 0.000000 0.648652 0.000000
O O14 0.000000 0.107266 0.000000
O O15 0.986863 0.370563 0.182455
O O16 0.000000 0.410931 0.500000
#
# Coordination Sequence:
#
# PCOD9125507 Si02
#       7
#     4   4   4   4   4   4   2
#     4  10  21  44  72 103 142 178 232 295 356 421
#     4  12  27  46  67  99 141 188 235 287 358 426
#     4  10  21  41  70 102 140 179 228 289 351 425
#     4  12  28  44  67 101 139 189 232 291 356 423
#     4  10  22  42  74 103 133 182 231 284 349 421
#     4  10  22  40  70 111 140 181 235 296 361 419
#     4  12  26  44  72 104 138 190 240 298 352 432
#
# _framework density 23.252496000000001
#
# number of rings (size 3 to 8) (size 9 to 14) (size 15 to 20)
#    0.000    1.231    3.077    1.846    6.462    0.615 
#    0.000    0.000    0.000    0.000    0.000    0.000 
#    0.000    0.000    0.000    0.000    0.000    0.000 
#
# Total GULP energy -72485.083691 kJ/mol
# GULP energy per Si atom -5575.775669 kJ/mol
# Density = 2.319957 g / cm^3
# Si number density = 23.252496 Si / 1000 Ang^3
#
#
#
# Elastic Constant Matrix: (Units=GPa)
#
#
# Indices 1 2 3 4 5 6 
#
# 1 76.2656 1.3178 14.2130 0.0000 -5.3402 0.0000
# 2 1.3178 44.6562 3.4390 0.0000 4.2481 0.0000
# 3 14.2130 3.4390 75.2548 0.0000 -12.2942 0.0000
# 4 0.0000 0.0000 0.0000 -6.2856 0.0000 16.0783
# 5 -5.3402 4.2481 -12.2942 0.0000 32.0414 0.0000
# 6 0.0000 0.0000 0.0000 16.0783 0.0000 22.4585
#
#
#
# Elastic Compliance Matrix: (Units=1/GPa)
#
#
# Indices 1 2 3 4 5 6 
#
# 1 0.013652 -0.000360 -0.002328 0.000000 0.001430 0.000000
# 2 -0.000360 0.022878 -0.001582 0.000000 -0.003700 0.000000
# 3 -0.002328 -0.001582 0.014692 0.000000 0.005459 0.000000
# 4 0.000000 0.000000 0.000000 -0.056192 0.000000 0.040228
# 5 0.001430 -0.003700 0.005459 0.000000 0.034033 0.000000
# 6 0.000000 0.000000 0.000000 0.040228 0.000000 0.015727
#
#
# Mechanical properties :
#
#
# Convention : Reuss Voigt Hill
#
# Bulk Modulus (GPa) = 23.42906 26.01290 24.72098
# Shear Modulus (GPa) = 74.01098 21.45667 47.73382
#
# Velocity S-wave (km/s) = 5.64786 3.04101 4.53575
# Velocity P-wave (km/s) = 7.25458 4.85198 6.17133
#
# Compressibility (1/GPa) = 0.04268203
#
# Stress axis : x y z
#
# Youngs Moduli (GPa) = 73.24759 43.71059 68.06398
#
# Poissons Ratio (x) = 0.01572 0.15848
# Poissons Ratio (y) = 0.02634 0.10768
# Poissons Ratio (z) = 0.17055 0.06915
#
# Static dielectric constant tensor:
#      x y z
#    x 1.888220 0.000000 -0.000850 
#    y 0.000000 1.913410 0.000000 
#    z -0.000850 0.000000 1.888760 
# 
# From -- ./inp_files/17005.got.cif
#   From: 2010.05.17/outbox.cif.g08.bks.cpg/sg5_9_cif.got.tgz:17005.got - 2010.06.03 18:56:24.
