data_PCOD9125231
_publ_section_title
;
Structure prediction by ZEFSAII (Michael W. Deem and Ramdas Pophale) SiO2 
 PCOD9125231
Probable space group: C 2
;
_chemical_formula_sum "Si O2"
_cell_formula_units_Z 28
_cell_length_a 12.985704
_cell_length_b 11.432180
_cell_length_c 24.013441
_cell_angle_alpha 90.000000
_cell_angle_beta 22.503390
_cell_angle_gamma 90.000000
_cell_volume 1364.428053
_symmetry_space_group_name_H-M "C 2"
_symmetry_group_IT_number 5
_symmetry_cell_setting 'monoclinic'
loop_
_space_group_symop_operation_xyz
x,y,z
-x,y,-z
1/2+x,1/2+y,z
1/2-x,1/2+y,-z
loop_
_atom_site_type_symbol
_atom_site_label
_atom_site_fract_x
_atom_site_fract_y
_atom_site_fract_z
Si Si1 0.188677 0.704500 0.957451
Si Si2 0.177816 0.295868 0.658070
Si Si3 0.287098 0.447343 0.866126
Si Si4 0.655366 0.719986 0.550088
Si Si5 0.533834 0.463762 0.620307
Si Si6 0.773638 0.540885 0.333512
Si Si7 0.926626 0.756794 0.206742
O O1 0.492733 0.751031 0.799936
O O2 0.212941 0.565611 0.936079
O O3 0.000000 0.747203 0.000000
O O4 0.066439 0.740200 0.077416
O O5 0.500000 0.277327 0.500000
O O6 0.075699 0.233187 0.654223
O O7 0.129565 0.433933 0.677571
O O8 0.417474 0.473452 0.740789
O O9 0.482974 0.370566 0.805892
O O10 0.000000 0.384691 0.000000
O O11 0.721789 0.579990 0.513853
O O12 0.392436 0.747129 0.645051
O O13 0.851735 0.831289 0.442174
O O14 0.309472 0.483277 0.684440
O O15 0.500000 0.582918 0.500000
O O16 0.977452 0.644442 0.220630
#
# Coordination Sequence:
#
# PCOD9125231 Si02
#       7
#     4   4   4   4   4   4   4
#     4  11  22  45  68  89 134 175 219 265 337 406
#     4  11  21  39  70  98 122 171 224 266 319 393
#     4  11  25  44  64  92 127 178 221 273 335 397
#     4  11  22  43  64 103 128 177 220 270 334 392
#     4  11  23  41  68  93 139 172 217 274 332 400
#     4  10  21  40  65  94 131 177 212 264 339 397
#     4  11  26  40  67  96 131 173 218 278 331 391
#
# _framework density 20.521419999999999
#
# number of rings (size 3 to 8) (size 9 to 14) (size 15 to 20)
#    0.000    1.143    5.714    2.571    8.000    1.143 
#    0.000    2.143    0.000    0.000    0.000    0.000 
#    0.000    0.000    0.000    0.000    0.000    0.000 
#
# Total GULP energy -78022.946913 kJ/mol
# GULP energy per Si atom -5573.067637 kJ/mol
# Density = 2.047471 g / cm^3
# Si number density = 20.521420 Si / 1000 Ang^3
#
#
#
# Elastic Constant Matrix: (Units=GPa)
#
#
# Indices 1 2 3 4 5 6 
#
# 1 74.3953 29.5624 22.2243 0.0030 20.6166 0.0012
# 2 29.5624 100.3744 32.0330 -0.0123 4.5455 0.0015
# 3 22.2243 32.0330 60.9398 0.0097 9.0772 -0.0321
# 4 0.0030 -0.0123 0.0097 32.4456 -0.0215 1.8021
# 5 20.6166 4.5455 9.0772 -0.0215 32.3131 -0.0002
# 6 0.0012 0.0015 -0.0321 1.8021 -0.0002 33.9742
#
#
#
# Elastic Compliance Matrix: (Units=1/GPa)
#
#
# Indices 1 2 3 4 5 6 
#
# 1 0.018963 -0.004088 -0.003184 -0.000009 -0.010629 -0.000003
# 2 -0.004088 0.012852 -0.005619 0.000009 0.002379 -0.000006
# 3 -0.003184 -0.005619 0.020982 -0.000011 -0.003072 0.000021
# 4 -0.000009 0.000009 -0.000011 0.030912 0.000028 -0.001640
# 5 -0.010629 0.002379 -0.003072 0.000028 0.038258 -0.000004
# 6 -0.000003 -0.000006 0.000021 -0.001640 -0.000004 0.029521
#
#
# Mechanical properties :
#
#
# Convention : Reuss Voigt Hill
#
# Bulk Modulus (GPa) = 37.01519 44.81654 40.91587
# Shear Modulus (GPa) = 26.84216 29.87256 28.35736
#
# Velocity S-wave (km/s) = 3.62056 3.81947 3.72135
# Velocity P-wave (km/s) = 5.96276 6.42942 6.20048
#
# Compressibility (1/GPa) = 0.02701594
#
# Stress axis : x y z
#
# Youngs Moduli (GPa) = 52.73510 77.80772 47.65954
#
# Poissons Ratio (x) = 0.31804 0.15173
# Poissons Ratio (y) = 0.21556 0.26782
# Poissons Ratio (z) = 0.16789 0.43723
#
# Static dielectric constant tensor:
#      x y z
#    x 1.749820 0.000000 -0.005030 
#    y 0.000000 1.788930 0.000020 
#    z -0.005030 0.000020 1.762810 
# 
# From -- ./inp_files/70664.got.cif
#   From: 2010.05.17/outbox.cif.g08.bks.cpg/sg5_36_cif.got.tgz:70664.got - 2010.06.03 18:56:24.
