data_PCOD9125989
_publ_section_title
;
Structure prediction by ZEFSAII (Michael W. Deem and Ramdas Pophale) SiO2 
 PCOD9125989
Probable space group: C 2
;
_chemical_formula_sum "Si O2"
_cell_formula_units_Z 28
_cell_length_a 28.387507
_cell_length_b 7.720788
_cell_length_c 9.296564
_cell_angle_alpha 90.000000
_cell_angle_beta 40.442048
_cell_angle_gamma 90.000000
_cell_volume 1321.724429
_symmetry_space_group_name_H-M "C 2"
_symmetry_group_IT_number 5
_symmetry_cell_setting 'monoclinic'
loop_
_space_group_symop_operation_xyz
x,y,z
-x,y,-z
1/2+x,1/2+y,z
1/2-x,1/2+y,-z
loop_
_atom_site_type_symbol
_atom_site_label
_atom_site_fract_x
_atom_site_fract_y
_atom_site_fract_z
Si Si1 0.951403 0.306130 0.257186
Si Si2 0.329851 0.929650 0.927915
Si Si3 0.806089 0.033699 0.924186
Si Si4 0.784601 0.387672 0.598430
Si Si5 0.398891 0.418527 0.463465
Si Si6 0.040692 0.594302 0.549226
Si Si7 0.756818 0.985802 0.621394
O O1 0.871752 0.397237 0.420178
O O2 0.987843 0.423587 0.298516
O O3 0.935454 0.103906 0.337680
O O4 0.000000 0.308976 0.000000
O O5 0.330049 0.729348 0.887449
O O6 0.387870 0.023666 0.696450
O O7 0.256236 0.022195 0.049572
O O8 0.318618 0.934754 0.124694
O O9 0.870071 0.932720 0.695709
O O10 0.766086 0.961976 0.157320
O O11 0.771333 0.184935 0.617034
O O12 0.755987 0.465317 0.516831
O O13 0.448626 0.248585 0.360574
O O14 0.328808 0.389993 0.520319
O O15 0.000000 0.656095 0.500000
#
# Coordination Sequence:
#
# PCOD9125989 Si02
#       7
#     4   4   4   4   4   4   4
#     4  11  26  48  68  96 148 186 229 280 340 419
#     4  11  20  38  64  98 131 168 221 288 338 405
#     4  11  19  38  70  95 132 169 217 296 345 391
#     4  11  22  39  63 103 129 181 218 279 352 408
#     4  10  23  47  68  98 130 179 229 290 342 400
#     4  12  26  44  69  98 132 189 239 280 334 406
#     4  10  22  36  64  98 135 164 221 282 358 407
#
# _framework density 21.184448
#
# number of rings (size 3 to 8) (size 9 to 14) (size 15 to 20)
#    0.000    1.143    2.857    5.143    4.000    1.143 
#    0.000    2.857    0.000    0.000    0.000    0.000 
#    0.000    0.000    0.000    0.000    0.000    0.000 
#
# Total GULP energy -78033.665637 kJ/mol
# GULP energy per Si atom -5573.833260 kJ/mol
# Density = 2.113623 g / cm^3
# Si number density = 21.184448 Si / 1000 Ang^3
#
#
#
# Elastic Constant Matrix: (Units=GPa)
#
#
# Indices 1 2 3 4 5 6 
#
# 1 78.0680 33.0470 18.6853 0.0000 23.8586 0.0000
# 2 33.0470 80.0495 25.5615 0.0000 -1.5034 0.0000
# 3 18.6853 25.5615 77.9719 0.0000 26.9398 0.0000
# 4 0.0000 0.0000 0.0000 27.9458 0.0000 5.1773
# 5 23.8586 -1.5034 26.9398 0.0000 33.8978 0.0000
# 6 0.0000 0.0000 0.0000 5.1773 0.0000 19.4325
#
#
#
# Elastic Compliance Matrix: (Units=1/GPa)
#
#
# Indices 1 2 3 4 5 6 
#
# 1 0.022797 -0.011593 0.005595 0.000000 -0.021006 0.000000
# 2 -0.011593 0.020748 -0.009871 0.000000 0.016925 0.000000
# 3 0.005595 -0.009871 0.022377 0.000000 -0.022159 0.000000
# 4 0.000000 0.000000 0.000000 0.037642 0.000000 -0.010029
# 5 -0.021006 0.016925 -0.022159 0.000000 0.062647 0.000000
# 6 0.000000 0.000000 0.000000 -0.010029 0.000000 0.054132
#
#
# Mechanical properties :
#
#
# Convention : Reuss Voigt Hill
#
# Bulk Modulus (GPa) = 29.25326 43.40855 36.33091
# Shear Modulus (GPa) = 18.97714 26.84159 22.90936
#
# Velocity S-wave (km/s) = 2.99625 3.56342 3.29207
# Velocity P-wave (km/s) = 5.08024 6.12093 5.62471
#
# Compressibility (1/GPa) = 0.03418423
#
# Stress axis : x y z
#
# Youngs Moduli (GPa) = 43.86497 48.19732 44.68942
#
# Poissons Ratio (x) = 0.55873 -0.25004
# Poissons Ratio (y) = 0.50851 0.44114
# Poissons Ratio (z) = -0.24543 0.47577
#
# Static dielectric constant tensor:
#      x y z
#    x 1.862910 0.000000 0.002370 
#    y 0.000000 1.815940 0.000000 
#    z 0.002370 0.000000 2.029120 
# 
# From -- ./inp_files/31730.got.cif
#   From: 2010.05.17/outbox.cif.g08.bks.cpg/sg5_16_cif.got.tgz:31730.got - 2010.06.03 18:56:24.
