data_PCOD9125280
_publ_section_title
;
Structure prediction by ZEFSAII (Michael W. Deem and Ramdas Pophale) SiO2 
 PCOD9125280
Probable space group: C 2
;
_chemical_formula_sum "Si O2"
_cell_formula_units_Z 32
_cell_length_a 8.465665
_cell_length_b 14.551152
_cell_length_c 21.824310
_cell_angle_alpha 90.000000
_cell_angle_beta 31.750863
_cell_angle_gamma 90.000000
_cell_volume 1414.724530
_symmetry_space_group_name_H-M "C 2"
_symmetry_group_IT_number 5
_symmetry_cell_setting 'monoclinic'
loop_
_space_group_symop_operation_xyz
x,y,z
-x,y,-z
1/2+x,1/2+y,z
1/2-x,1/2+y,-z
loop_
_atom_site_type_symbol
_atom_site_label
_atom_site_fract_x
_atom_site_fract_y
_atom_site_fract_z
Si Si1 0.268423 0.464530 0.191572
Si Si2 0.007915 0.783812 0.923863
Si Si3 0.352590 0.998939 0.210472
Si Si4 0.905418 0.690272 0.438916
Si Si5 0.843174 0.873373 0.398031
Si Si6 0.777076 0.596545 0.014753
Si Si7 0.511878 0.681480 0.680040
Si Si8 0.281698 0.991496 0.444986
O O1 0.504020 0.382587 0.103448
O O2 0.038471 0.467759 0.209435
O O3 0.076775 0.452361 0.315881
O O4 0.450212 0.558992 0.137145
O O5 0.309634 0.741964 0.792546
O O6 0.774029 0.701003 0.991027
O O7 0.000000 0.798856 0.000000
O O8 0.581648 0.028539 0.082024
O O9 0.179794 0.094779 0.278865
O O10 0.101491 0.924119 0.273192
O O11 0.992998 0.780117 0.372725
O O12 0.660748 0.723925 0.570040
O O13 0.789587 0.601851 0.441084
O O14 0.198541 0.651927 0.376731
O O15 0.500000 0.842205 0.500000
O O16 0.773530 0.953564 0.469891
O O17 0.000000 0.596984 0.000000
O O18 0.000000 0.956451 0.500000
#
# Coordination Sequence:
#
# PCOD9125280 Si02
#       8
#     4   4   4   4   4   4   4   4
#     4  12  24  44  72  98 139 186 231 293 349 421
#     4  10  22  41  67  96 131 175 233 278 343 413
#     4  11  22  43  67  99 134 177 231 286 351 408
#     4  11  23  39  66  97 141 179 230 279 354 415
#     4  12  25  40  66 100 140 186 231 291 348 417
#     4  10  25  44  68  98 133 179 234 290 356 417
#     4  10  21  40  67  97 135 181 222 288 343 420
#     4  12  25  43  66 104 139 180 233 286 355 422
#
# _framework density 22.619244999999999
#
# number of rings (size 3 to 8) (size 9 to 14) (size 15 to 20)
#    0.000    1.000    2.500    3.750    8.750    0.000 
#    0.000    2.500    0.000    0.000    0.000    0.000 
#    0.000    0.000    0.000    0.000    0.000    0.000 
#
# Total GULP energy -89283.572551 kJ/mol
# GULP energy per Si atom -5580.223284 kJ/mol
# Density = 2.256776 g / cm^3
# Si number density = 22.619245 Si / 1000 Ang^3
#
#
#
# Elastic Constant Matrix: (Units=GPa)
#
#
# Indices 1 2 3 4 5 6 
#
# 1 25.0272 -4.7365 -10.1233 0.0139 -10.4245 -0.0272
# 2 -4.7365 100.9980 23.0296 0.0162 1.2148 -0.0306
# 3 -10.1233 23.0296 59.9447 0.0237 4.6956 -0.0312
# 4 0.0139 0.0162 0.0237 22.1368 0.0076 21.9193
# 5 -10.4245 1.2148 4.6956 0.0076 36.2892 -0.0130
# 6 -0.0272 -0.0306 -0.0312 21.9193 -0.0130 -3.0686
#
#
#
# Elastic Compliance Matrix: (Units=1/GPa)
#
#
# Indices 1 2 3 4 5 6 
#
# 1 0.048253 0.000526 0.006932 0.000063 0.012946 -0.000107
# 2 0.000526 0.010859 -0.004108 0.000008 0.000319 -0.000013
# 3 0.006932 -0.004108 0.019461 0.000024 -0.000389 -0.000046
# 4 0.000063 0.000008 0.000024 0.005596 0.000028 0.039970
# 5 0.012946 0.000319 -0.000389 0.000028 0.031315 -0.000047
# 6 -0.000107 -0.000013 -0.000046 0.039970 -0.000047 -0.040367
#
#
# Mechanical properties :
#
#
# Convention : Reuss Voigt Hill
#
# Bulk Modulus (GPa) = 11.72682 22.47885 17.10283
# Shear Modulus (GPa) = 51.63171 22.92482 37.27826
#
# Velocity S-wave (km/s) = 4.78289 3.18702 4.06406
# Velocity P-wave (km/s) = 5.97470 4.84792 5.44056
#
# Compressibility (1/GPa) = 0.08527459
#
# Stress axis : x y z
#
# Youngs Moduli (GPa) = 20.72426 92.09209 51.38385
#
# Poissons Ratio (x) = -0.04848 -0.35621
# Poissons Ratio (y) = -0.01091 0.21108
# Poissons Ratio (z) = -0.14367 0.37830
#
# Static dielectric constant tensor:
#      x y z
#    x 1.912480 0.000010 -0.112010 
#    y 0.000010 1.820850 -0.000050 
#    z -0.112010 -0.000050 2.079010 
# 
# From -- ./inp_files/68034.got.cif
#   From: 2010.05.17/outbox.cif.g08.bks.cpg/sg5_35_cif.got.tgz:68034.got - 2010.06.03 18:56:24.
