data_PCOD9125085
_publ_section_title
;
Structure prediction by ZEFSAII (Michael W. Deem and Ramdas Pophale) SiO2 
 PCOD9125085
Probable space group: C 2
;
_chemical_formula_sum "Si O2"
_cell_formula_units_Z 28
_cell_length_a 20.974404
_cell_length_b 5.216199
_cell_length_c 11.795146
_cell_angle_alpha 90.000000
_cell_angle_beta 64.628481
_cell_angle_gamma 90.000000
_cell_volume 1165.999925
_symmetry_space_group_name_H-M "C 2"
_symmetry_group_IT_number 5
_symmetry_cell_setting 'monoclinic'
loop_
_space_group_symop_operation_xyz
x,y,z
-x,y,-z
1/2+x,1/2+y,z
1/2-x,1/2+y,-z
loop_
_atom_site_type_symbol
_atom_site_label
_atom_site_fract_x
_atom_site_fract_y
_atom_site_fract_z
Si Si1 0.513133 0.496230 0.370814
Si Si2 0.898390 0.355825 0.852114
Si Si3 0.903955 0.031006 0.267509
Si Si4 0.252162 0.091141 0.567765
Si Si5 0.472557 0.046825 0.140035
Si Si6 0.236633 0.399863 0.941570
Si Si7 0.349352 0.182277 0.693966
O O1 0.500000 0.647855 0.500000
O O2 0.556840 0.627423 0.235008
O O3 0.438143 0.451867 0.364485
O O4 0.570942 0.290086 0.371211
O O5 0.853347 0.453675 0.780819
O O6 0.956715 0.565099 0.839198
O O7 0.845761 0.314256 0.997629
O O8 0.937644 0.822549 0.158259
O O9 0.820731 0.003506 0.320418
O O10 0.924353 0.325271 0.229569
O O11 0.238592 0.379706 0.536296
O O12 0.318678 0.090327 0.599220
O O13 0.500000 0.948063 0.000000
O O14 0.288953 0.368413 0.795240
O O15 0.234994 0.691364 0.987843
#
# Coordination Sequence:
#
# PCOD9125085 Si02
#       7
#     4   4   4   4   4   4   4
#     4  11  23  42  73  99 143 183 244 298 359 421
#     4  10  23  43  67 108 134 187 242 299 355 435
#     4  11  25  48  67 107 140 191 236 295 362 440
#     4  12  29  49  73 103 150 190 246 297 367 435
#     4  11  24  45  73 100 148 184 238 292 368 432
#     4  10  21  39  67  99 141 170 226 296 354 416
#     4  11  24  44  71 105 138 191 240 301 358 428
#
# _framework density 24.013724
#
# number of rings (size 3 to 8) (size 9 to 14) (size 15 to 20)
#    0.000    1.143    2.857    2.143    6.000    0.571 
#   10.286    0.000    0.000    0.000    0.000    0.000 
#    0.000    0.000    0.000    0.000    0.000    0.000 
#
# Total GULP energy -78095.950774 kJ/mol
# GULP energy per Si atom -5578.282198 kJ/mol
# Density = 2.395907 g / cm^3
# Si number density = 24.013724 Si / 1000 Ang^3
#
#
#
# Elastic Constant Matrix: (Units=GPa)
#
#
# Indices 1 2 3 4 5 6 
#
# 1 92.2697 18.5471 3.7076 0.0000 3.1744 0.0000
# 2 18.5471 60.0060 2.6687 0.0000 -1.2109 0.0000
# 3 3.7076 2.6687 32.2966 0.0000 -4.9101 0.0000
# 4 0.0000 0.0000 0.0000 28.5938 0.0000 -7.9540
# 5 3.1744 -1.2109 -4.9101 0.0000 37.7489 0.0000
# 6 0.0000 0.0000 0.0000 -7.9540 0.0000 28.7467
#
#
#
# Elastic Compliance Matrix: (Units=1/GPa)
#
#
# Indices 1 2 3 4 5 6 
#
# 1 0.011648 -0.003571 -0.001233 0.000000 -0.001254 0.000000
# 2 -0.003571 0.017826 -0.000949 0.000000 0.000749 0.000000
# 3 -0.001233 -0.000949 0.031823 0.000000 0.004213 0.000000
# 4 0.000000 0.000000 0.000000 0.037889 0.000000 0.010484
# 5 -0.001254 0.000749 0.004213 0.000000 0.027168 0.000000
# 6 0.000000 0.000000 0.000000 0.010484 0.000000 0.037687
#
#
# Mechanical properties :
#
#
# Convention : Reuss Voigt Hill
#
# Bulk Modulus (GPa) = 20.08360 26.04657 23.06508
# Shear Modulus (GPa) = 26.02198 29.66115 27.84156
#
# Velocity S-wave (km/s) = 3.29542 3.51832 3.40869
# Velocity P-wave (km/s) = 4.78135 5.23210 5.01179
#
# Compressibility (1/GPa) = 0.04979187
#
# Stress axis : x y z
#
# Youngs Moduli (GPa) = 85.84972 56.09776 31.42341
#
# Poissons Ratio (x) = 0.20032 0.03874
# Poissons Ratio (y) = 0.30655 0.02983
# Poissons Ratio (z) = 0.10584 0.05325
#
# Static dielectric constant tensor:
#      x y z
#    x 1.987240 0.000000 -0.079460 
#    y 0.000000 1.913990 0.000000 
#    z -0.079460 0.000000 2.023050 
# 
# From -- ./inp_files/45647.got.cif
#   From: 2010.05.17/outbox.cif.g08.bks.cpg/sg5_23_cif.got.tgz:45647.got - 2010.06.03 18:56:24.
