data_PCOD9125878
_publ_section_title
;
Structure prediction by ZEFSAII (Michael W. Deem and Ramdas Pophale) SiO2 
 PCOD9125878
Probable space group: C 2
;
_chemical_formula_sum "Si O2"
_cell_formula_units_Z 24
_cell_length_a 8.130935
_cell_length_b 11.627377
_cell_length_c 19.262478
_cell_angle_alpha 90.000000
_cell_angle_beta 36.000141
_cell_angle_gamma 90.000000
_cell_volume 1070.420839
_symmetry_space_group_name_H-M "C 2"
_symmetry_group_IT_number 5
_symmetry_cell_setting 'monoclinic'
loop_
_space_group_symop_operation_xyz
x,y,z
-x,y,-z
1/2+x,1/2+y,z
1/2-x,1/2+y,-z
loop_
_atom_site_type_symbol
_atom_site_label
_atom_site_fract_x
_atom_site_fract_y
_atom_site_fract_z
Si Si1 0.770412 0.352220 0.200259
Si Si2 0.179671 0.476082 0.579965
Si Si3 0.947078 0.261377 0.289242
Si Si4 0.105680 0.611977 0.827025
Si Si5 0.000000 0.197947 0.000000
Si Si6 0.500000 0.076395 0.500000
Si Si7 0.276151 0.195717 0.361223
O O1 0.843816 0.320814 0.254160
O O2 0.821834 0.485904 0.172494
O O3 0.454442 0.310469 0.296023
O O4 0.941737 0.277487 0.086453
O O5 0.500000 0.469970 0.500000
O O6 0.043577 0.360145 0.654979
O O7 0.058603 0.592588 0.656029
O O8 0.142236 0.498859 0.511367
O O9 0.728776 0.162246 0.387228
O O10 0.251362 0.206030 0.172684
O O11 0.264274 0.642039 0.700584
O O12 0.779494 0.626679 0.921690
O O13 0.000000 0.214726 0.500000
#
# Coordination Sequence:
#
# PCOD9125878 Si02
#       7
#     4   4   4   4   2   2   4
#     4  11  25  49  75 105 147 189 252 310 373 446
#     4  11  23  45  67 103 160 204 242 295 354 449
#     4  12  25  44  68 109 146 195 249 299 374 452
#     4  11  26  48  75 106 140 196 246 313 379 436
#     4  10  28  52  74 108 136 190 262 320 380 430
#     4  12  26  42  68 112 158 206 242 294 372 454
#     4  10  21  45  68 107 153 191 234 295 367 451
#
# _framework density 22.421088999999998
#
# number of rings (size 3 to 8) (size 9 to 14) (size 15 to 20)
#    0.000    1.000    4.167    2.000    0.000    6.000 
#    7.500    0.000    0.000    0.000    0.000    0.000 
#    0.000    0.000    0.000    0.000    0.000    0.000 
#
# Total GULP energy -67134.224276 kJ/mol
# GULP energy per Si atom -5594.518690 kJ/mol
# Density = 2.237006 g / cm^3
# Si number density = 22.421089 Si / 1000 Ang^3
#
#
#
# Elastic Constant Matrix: (Units=GPa)
#
#
# Indices 1 2 3 4 5 6 
#
# 1 85.5540 37.8832 4.8310 0.0004 -3.3458 0.0005
# 2 37.8832 147.7445 32.3052 0.0003 -16.8784 0.0001
# 3 4.8310 32.3052 83.2687 -0.0004 -12.3806 0.0005
# 4 0.0004 0.0003 -0.0004 9.8428 0.0000 4.2935
# 5 -3.3458 -16.8784 -12.3806 0.0000 42.6395 -0.0004
# 6 0.0005 0.0001 0.0005 4.2935 -0.0004 38.4114
#
#
#
# Elastic Compliance Matrix: (Units=1/GPa)
#
#
# Indices 1 2 3 4 5 6 
#
# 1 0.013214 -0.003537 0.000576 0.000000 -0.000196 0.000000
# 2 -0.003537 0.008543 -0.002767 0.000000 0.002301 0.000000
# 3 0.000576 -0.002767 0.013475 0.000001 0.002862 0.000000
# 4 0.000000 0.000000 0.000001 0.106805 0.000000 -0.011938
# 5 -0.000196 0.002301 0.002862 0.000000 0.025179 0.000000
# 6 0.000000 0.000000 0.000000 -0.011938 0.000000 0.027368
#
#
# Mechanical properties :
#
#
# Convention : Reuss Voigt Hill
#
# Bulk Modulus (GPa) = 42.05647 51.84512 46.95080
# Shear Modulus (GPa) = 23.36826 34.28192 28.82509
#
# Velocity S-wave (km/s) = 3.23188 3.91449 3.58945
# Velocity P-wave (km/s) = 5.72058 6.60337 6.17777
#
# Compressibility (1/GPa) = 0.02377755
#
# Stress axis : x y z
#
# Youngs Moduli (GPa) = 75.67522 117.05247 74.21138
#
# Poissons Ratio (x) = 0.41398 -0.04277
# Poissons Ratio (y) = 0.26764 0.20536
# Poissons Ratio (z) = -0.04361 0.32390
#
# Static dielectric constant tensor:
#      x y z
#    x 1.899790 0.000000 -0.006680 
#    y 0.000000 1.831060 0.000000 
#    z -0.006680 0.000000 1.846490 
# 
# From -- ./inp_files/64456.got.cif
#   From: 2010.05.17/outbox.cif.g08.bks.cpg/sg5_33_cif.got.tgz:64456.got - 2010.06.03 18:56:24.
