data_PCOD9125906
_publ_section_title
;
Structure prediction by ZEFSAII (Michael W. Deem and Ramdas Pophale) SiO2 
 PCOD9125906
Probable space group: C 2
;
_chemical_formula_sum "Si O2"
_cell_formula_units_Z 26
_cell_length_a 18.401361
_cell_length_b 8.551238
_cell_length_c 11.418027
_cell_angle_alpha 90.000000
_cell_angle_beta 36.221195
_cell_angle_gamma 90.000000
_cell_volume 1061.663870
_symmetry_space_group_name_H-M "C 2"
_symmetry_group_IT_number 5
_symmetry_cell_setting 'monoclinic'
loop_
_space_group_symop_operation_xyz
x,y,z
-x,y,-z
1/2+x,1/2+y,z
1/2-x,1/2+y,-z
loop_
_atom_site_type_symbol
_atom_site_label
_atom_site_fract_x
_atom_site_fract_y
_atom_site_fract_z
Si Si1 0.837129 0.610330 0.908320
Si Si2 0.500000 0.014565 0.500000
Si Si3 0.288729 0.765418 0.735807
Si Si4 0.185557 0.281660 0.928762
Si Si5 0.500000 0.512506 0.500000
Si Si6 0.301411 0.103677 0.370768
Si Si7 0.500000 0.869236 0.000000
Si Si8 0.375996 0.343693 0.469138
O O1 0.956880 0.606954 0.670286
O O2 0.726573 0.648458 0.963131
O O3 0.822430 0.741228 0.027951
O O4 0.829887 0.441700 0.978151
O O5 0.379525 0.911712 0.626516
O O6 0.381198 0.623472 0.648935
O O7 0.236129 0.733182 0.676626
O O8 0.289041 0.305636 0.695253
O O9 0.060891 0.263107 0.019690
O O10 0.492341 0.416057 0.388775
O O11 0.356512 0.195392 0.409248
O O12 0.402585 0.985658 0.186083
O O13 0.182633 0.989358 0.529420
#
# Coordination Sequence:
#
# PCOD9125906 Si02
#       8
#     4   2   4   4   2   4   2   4
#     4  12  23  48  74 111 146 197 251 317 362 461
#     4  11  26  41  82 112 147 201 252 304 401 425
#     4  10  21  46  72 107 144 195 243 316 354 458
#     4  11  25  44  72 104 151 188 253 308 376 438
#     4   9  18  39  68 102 137 189 238 294 393 403
#     4  10  22  44  72  95 148 184 247 291 381 435
#     4  10  22  46  68 102 140 206 222 312 382 424
#     4  10  22  43  66 104 135 190 238 309 358 457
#
# _framework density 24.48986
#
# number of rings (size 3 to 8) (size 9 to 14) (size 15 to 20)
#    0.000    1.538    6.154    0.000    0.000    6.769 
#    8.308    0.000    0.000    0.923    0.000    0.000 
#    0.000    0.000    0.000    0.000    0.000    0.000 
#
# Total GULP energy -72657.001675 kJ/mol
# GULP energy per Si atom -5589.000129 kJ/mol
# Density = 2.443412 g / cm^3
# Si number density = 24.489860 Si / 1000 Ang^3
#
#
#
# Elastic Constant Matrix: (Units=GPa)
#
#
# Indices 1 2 3 4 5 6 
#
# 1 203.5034 47.7224 15.6844 0.0000 22.3685 0.0000
# 2 47.7224 70.4697 24.2455 0.0000 12.6188 0.0000
# 3 15.6844 24.2455 98.5152 0.0000 20.0669 0.0000
# 4 0.0000 0.0000 0.0000 12.3124 0.0000 5.0228
# 5 22.3685 12.6188 20.0669 0.0000 27.5292 0.0000
# 6 0.0000 0.0000 0.0000 5.0228 0.0000 40.3463
#
#
#
# Elastic Compliance Matrix: (Units=1/GPa)
#
#
# Indices 1 2 3 4 5 6 
#
# 1 0.006152 -0.003730 0.000715 0.000000 -0.003810 0.000000
# 2 -0.003730 0.018394 -0.003327 0.000000 -0.002976 0.000000
# 3 0.000715 -0.003327 0.012523 0.000000 -0.008184 0.000000
# 4 0.000000 0.000000 0.000000 0.085564 0.000000 -0.010652
# 5 -0.003810 -0.002976 -0.008184 0.000000 0.046750 0.000000
# 6 0.000000 0.000000 0.000000 -0.010652 0.000000 0.026111
#
#
# Mechanical properties :
#
#
# Convention : Reuss Voigt Hill
#
# Bulk Modulus (GPa) = 41.01004 60.86587 50.93795
# Shear Modulus (GPa) = 23.11516 35.02664 29.07090
#
# Velocity S-wave (km/s) = 3.07557 3.78597 3.44911
# Velocity P-wave (km/s) = 5.42165 6.63467 6.05860
#
# Compressibility (1/GPa) = 0.02438428
#
# Stress axis : x y z
#
# Youngs Moduli (GPa) = 162.53953 54.36571 79.85476
#
# Poissons Ratio (x) = 0.20278 -0.05706
# Poissons Ratio (y) = 0.60627 0.26567
# Poissons Ratio (z) = -0.11615 0.18087
#
# Static dielectric constant tensor:
#      x y z
#    x 1.964270 0.000000 -0.061320 
#    y 0.000000 1.956490 0.000000 
#    z -0.061320 0.000000 2.036800 
# 
# From -- ./inp_files/46115.got.cif
#   From: 2010.05.17/outbox.cif.g08.bks.cpg/sg5_24_cif.got.tgz:46115.got - 2010.06.03 18:56:24.
