data_PCOD9125181
_publ_section_title
;
Structure prediction by ZEFSAII (Michael W. Deem and Ramdas Pophale) SiO2 
 PCOD9125181
Probable space group: C 2
;
_chemical_formula_sum "Si O2"
_cell_formula_units_Z 26
_cell_length_a 5.348378
_cell_length_b 30.508519
_cell_length_c 7.529313
_cell_angle_alpha 90.000000
_cell_angle_beta 75.775659
_cell_angle_gamma 90.000000
_cell_volume 1190.899671
_symmetry_space_group_name_H-M "C 2"
_symmetry_group_IT_number 5
_symmetry_cell_setting 'monoclinic'
loop_
_space_group_symop_operation_xyz
x,y,z
-x,y,-z
1/2+x,1/2+y,z
1/2-x,1/2+y,-z
loop_
_atom_site_type_symbol
_atom_site_label
_atom_site_fract_x
_atom_site_fract_y
_atom_site_fract_z
Si Si1 0.708293 0.792340 0.622182
Si Si2 0.000000 0.565323 0.000000
Si Si3 0.292273 0.695713 0.377764
Si Si4 0.067778 0.385722 0.782656
Si Si5 0.531209 0.607773 0.200738
Si Si6 0.565298 0.433052 0.776958
Si Si7 0.780429 0.526443 0.684398
O O1 0.500000 0.791086 0.500000
O O2 0.704765 0.743918 0.711795
O O3 0.628032 0.834605 0.746414
O O4 0.000000 0.798002 0.500000
O O5 0.880253 0.533450 0.870238
O O6 0.164897 0.598285 0.842513
O O7 0.500000 0.698193 0.500000
O O8 0.403335 0.654553 0.252082
O O9 0.000000 0.688165 0.500000
O O10 0.329021 0.412719 0.710010
O O11 0.825603 0.403999 0.714321
O O12 0.000000 0.392403 0.000000
O O13 0.380335 0.570245 0.330560
O O14 0.500000 0.596924 0.000000
O O15 0.612108 0.482837 0.714147
O O16 0.500000 0.432412 0.000000
O O17 0.000000 0.521688 0.500000
#
# Coordination Sequence:
#
# PCOD9125181 Si02
#       7
#     4   2   4   4   4   4   4
#     4  10  21  40  63  91 127 165 207 268 323 381
#     4  10  24  42  64  90 136 178 210 288 316 390
#     4  10  23  40  65  93 126 169 215 265 327 390
#     4  10  22  39  65  89 125 165 208 261 322 377
#     4  10  23  40  62  91 129 167 218 267 330 378
#     4  10  22  40  63  91 126 168 210 268 320 381
#     4  11  25  41  64  95 128 175 225 264 333 392
#
# _framework density 21.832232000000001
#
# number of rings (size 3 to 8) (size 9 to 14) (size 15 to 20)
#    0.000    1.846    0.000    2.769   11.846    2.462 
#    0.000    0.000    5.077    0.000    0.000    0.000 
#    0.000    0.000    0.000    0.000    0.000    0.000 
#
# Total GULP energy -72548.995033 kJ/mol
# GULP energy per Si atom -5580.691926 kJ/mol
# Density = 2.178254 g / cm^3
# Si number density = 21.832232 Si / 1000 Ang^3
#
#
#
# Elastic Constant Matrix: (Units=GPa)
#
#
# Indices 1 2 3 4 5 6 
#
# 1 119.2643 42.5715 34.8479 0.0000 -25.6772 0.0000
# 2 42.5715 153.7149 35.8631 0.0000 -27.7880 0.0000
# 3 34.8479 35.8631 60.7903 0.0000 -12.8538 0.0000
# 4 0.0000 0.0000 0.0000 40.1920 0.0000 -6.2368
# 5 -25.6772 -27.7880 -12.8538 0.0000 29.5056 0.0000
# 6 0.0000 0.0000 0.0000 -6.2368 0.0000 41.1942
#
#
#
# Elastic Compliance Matrix: (Units=1/GPa)
#
#
# Indices 1 2 3 4 5 6 
#
# 1 0.011601 -0.000811 -0.004624 0.000000 0.007317 0.000000
# 2 -0.000811 0.008581 -0.003346 0.000000 0.005918 0.000000
# 3 -0.004624 -0.003346 0.021542 0.000000 0.002209 0.000000
# 4 0.000000 0.000000 0.000000 0.025479 0.000000 0.003858
# 5 0.007317 0.005918 0.002209 0.000000 0.046795 0.000000
# 6 0.000000 0.000000 0.000000 0.003858 0.000000 0.024859
#
#
# Mechanical properties :
#
#
# Convention : Reuss Voigt Hill
#
# Bulk Modulus (GPa) = 41.39012 62.25939 51.82475
# Shear Modulus (GPa) = 30.40008 36.87748 33.63878
#
# Velocity S-wave (km/s) = 3.73559 4.11436 3.92954
# Velocity P-wave (km/s) = 6.13234 7.15190 6.66166
#
# Compressibility (1/GPa) = 0.02416036
#
# Stress axis : x y z
#
# Youngs Moduli (GPa) = 86.20055 116.54214 46.42117
#
# Poissons Ratio (x) = 0.09454 0.21467
# Poissons Ratio (y) = 0.06992 0.15532
# Poissons Ratio (z) = 0.39863 0.38993
#
# Static dielectric constant tensor:
#      x y z
#    x 2.213080 0.000000 -0.135290 
#    y 0.000000 1.813190 0.000000 
#    z -0.135290 0.000000 1.828840 
# 
# From -- ./inp_files/13159.got.cif
#   From: 2010.05.17/outbox.cif.g08.bks.cpg/sg5_7_cif.got.tgz:13159.got - 2010.06.03 18:56:24.
