data_PCOD9125630
_publ_section_title
;
Structure prediction by ZEFSAII (Michael W. Deem and Ramdas Pophale) SiO2 
 PCOD9125630
Probable space group: C 2
;
_chemical_formula_sum "Si O2"
_cell_formula_units_Z 24
_cell_length_a 23.853539
_cell_length_b 10.928461
_cell_length_c 10.626904
_cell_angle_alpha 90.000000
_cell_angle_beta 22.518264
_cell_angle_gamma 90.000000
_cell_volume 1060.943647
_symmetry_space_group_name_H-M "C 2"
_symmetry_group_IT_number 5
_symmetry_cell_setting 'monoclinic'
loop_
_space_group_symop_operation_xyz
x,y,z
-x,y,-z
1/2+x,1/2+y,z
1/2-x,1/2+y,-z
loop_
_atom_site_type_symbol
_atom_site_label
_atom_site_fract_x
_atom_site_fract_y
_atom_site_fract_z
Si Si1 0.075543 0.988430 0.227651
Si Si2 0.162293 0.177341 0.834150
Si Si3 0.925728 0.381683 0.272122
Si Si4 0.857595 0.741080 0.214728
Si Si5 0.896054 0.485909 0.607020
Si Si6 0.570437 0.242581 0.556014
O O1 0.000000 0.059863 0.500000
O O2 0.977575 0.872435 0.396617
O O3 0.230226 0.942615 0.960730
O O4 0.109486 0.068052 0.033363
O O5 0.257720 0.152193 0.509677
O O6 0.281439 0.252065 0.669322
O O7 0.023846 0.259751 0.086780
O O8 0.760374 0.344579 0.579480
O O9 0.937073 0.450211 0.379880
O O10 0.000000 0.449258 0.000000
O O11 0.000000 0.783321 0.000000
O O12 0.934877 0.698965 0.926206
O O13 0.897179 0.633646 0.607656
O O14 0.000000 0.436861 0.500000
#
# Coordination Sequence:
#
# PCOD9125630 Si02
#       6
#     4   4   4   4   4   4
#     4  11  24  43  65  95 139 185 233 276 347 417
#     4   9  22  40  64 101 133 173 232 284 346 409
#     4  10  21  42  68 101 136 175 231 293 347 410
#     4   9  18  40  69  96 132 175 227 288 349 404
#     4  11  25  42  66 101 137 182 234 280 347 414
#     4  10  21  43  67  95 133 184 226 283 346 413
#
# _framework density 22.621369000000001
#
# number of rings (size 3 to 8) (size 9 to 14) (size 15 to 20)
#    0.000    2.000    1.667    0.500    2.333    5.333 
#    3.000    5.833    0.000    0.000    0.000    0.000 
#    0.000    0.000    0.000    0.000    0.000    0.000 
#
# Total GULP energy -66964.684170 kJ/mol
# GULP energy per Si atom -5580.390347 kJ/mol
# Density = 2.256988 g / cm^3
# Si number density = 22.621369 Si / 1000 Ang^3
#
#
#
# Elastic Constant Matrix: (Units=GPa)
#
#
# Indices 1 2 3 4 5 6 
#
# 1 100.8257 27.7481 40.1563 0.0000 3.9424 0.0000
# 2 27.7481 75.9530 42.6273 0.0000 -1.0890 0.0000
# 3 40.1563 42.6273 108.3374 0.0000 4.0395 0.0000
# 4 0.0000 0.0000 0.0000 -342.1435 0.0000 204.1616
# 5 3.9424 -1.0890 4.0395 0.0000 44.8816 0.0000
# 6 0.0000 0.0000 0.0000 204.1616 0.0000 -98.1689
#
#
#
# Elastic Compliance Matrix: (Units=1/GPa)
#
#
# Indices 1 2 3 4 5 6 
#
# 1 0.012001 -0.002459 -0.003451 0.000000 -0.000803 0.000000
# 2 -0.002459 0.017447 -0.005997 0.000000 0.001179 0.000000
# 3 -0.003451 -0.005997 0.012907 0.000000 -0.001004 0.000000
# 4 0.000000 0.000000 0.000000 0.012128 0.000000 0.025224
# 5 -0.000803 0.001179 -0.001004 0.000000 0.022470 0.000000
# 6 0.000000 0.000000 0.000000 0.025224 0.000000 0.042271
#
#
# Mechanical properties :
#
#
# Convention : Reuss Voigt Hill
#
# Bulk Modulus (GPa) = 53.93676 56.24218 55.08947
# Shear Modulus (GPa) = 33.50790 -67.44722 -16.96966
#
# Velocity S-wave (km/s) = 3.85288 -5.46630 -2.74188
# Velocity P-wave (km/s) = 6.60968 3.86318 3.79234
#
# Compressibility (1/GPa) = 0.01854023
#
# Stress axis : x y z
#
# Youngs Moduli (GPa) = 83.32941 57.31550 77.47954
#
# Poissons Ratio (x) = 0.14095 0.26735
# Poissons Ratio (y) = 0.20492 0.46468
# Poissons Ratio (z) = 0.28753 0.34374
#
# Static dielectric constant tensor:
#      x y z
#    x 2.308390 0.000000 0.125380 
#    y 0.000000 1.864770 0.000000 
#    z 0.125380 0.000000 1.863490 
# 
# From -- ./inp_files/48028.got.cif
#   From: 2010.05.17/outbox.cif.g08.bks.cpg/sg5_25_cif.got.tgz:48028.got - 2010.06.03 18:56:24.
