data_PCOD9125616
_publ_section_title
;
Structure prediction by ZEFSAII (Michael W. Deem and Ramdas Pophale) SiO2 
 PCOD9125616
Probable space group: C 2
;
_chemical_formula_sum "Si O2"
_cell_formula_units_Z 28
_cell_length_a 15.638924
_cell_length_b 8.767545
_cell_length_c 11.478325
_cell_angle_alpha 90.000000
_cell_angle_beta 53.613771
_cell_angle_gamma 90.000000
_cell_volume 1267.006692
_symmetry_space_group_name_H-M "C 2"
_symmetry_group_IT_number 5
_symmetry_cell_setting 'monoclinic'
loop_
_space_group_symop_operation_xyz
x,y,z
-x,y,-z
1/2+x,1/2+y,z
1/2-x,1/2+y,-z
loop_
_atom_site_type_symbol
_atom_site_label
_atom_site_fract_x
_atom_site_fract_y
_atom_site_fract_z
Si Si1 0.619137 0.202250 0.368369
Si Si2 0.170518 0.867277 0.553934
Si Si3 0.136712 0.205374 0.493488
Si Si4 0.824206 0.123590 0.802158
Si Si5 0.429583 0.909387 0.725963
Si Si6 0.930964 0.854522 0.820609
Si Si7 0.586028 0.086023 0.025086
O O1 0.500000 0.252194 0.500000
O O2 0.686735 0.272813 0.418979
O O3 0.638267 0.277799 0.227733
O O4 0.607520 0.022548 0.348303
O O5 0.262846 0.814776 0.565506
O O6 0.054673 0.825201 0.695303
O O7 0.161586 0.048721 0.542335
O O8 0.132075 0.140892 0.365084
O O9 0.032861 0.304715 0.613467
O O10 0.832918 0.297836 0.835651
O O11 0.899401 0.028395 0.827564
O O12 0.707462 0.052944 0.895230
O O13 0.448400 0.011521 0.824554
O O14 0.911436 0.768276 0.955635
O O15 0.500000 0.042381 0.000000
#
# Coordination Sequence:
#
# PCOD9125616 Si02
#       7
#     4   4   4   4   4   4   4
#     4   9  19  37  63  91 132 179 225 278 345 410
#     4  11  24  40  64 104 144 182 228 299 357 419
#     4  12  26  40  70 108 144 180 237 298 364 412
#     4  12  23  44  69 100 137 183 241 289 344 430
#     4  11  25  43  70 103 139 185 240 292 352 437
#     4  10  21  42  67  94 132 185 234 282 347 426
#     4  11  26  46  70  97 140 189 233 291 363 429
#
# _framework density 22.099329999999998
#
# number of rings (size 3 to 8) (size 9 to 14) (size 15 to 20)
#    0.000    1.143    2.857    3.000   10.000    0.000 
#    0.000    0.714    0.000    0.000    0.000    0.000 
#    0.000    0.000    0.000    0.000    0.000    0.000 
#
# Total GULP energy -78082.661478 kJ/mol
# GULP energy per Si atom -5577.332963 kJ/mol
# Density = 2.204903 g / cm^3
# Si number density = 22.099330 Si / 1000 Ang^3
#
#
#
# Elastic Constant Matrix: (Units=GPa)
#
#
# Indices 1 2 3 4 5 6 
#
# 1 102.9026 23.9853 32.2837 0.0000 -17.5266 0.0000
# 2 23.9853 108.0772 23.1920 0.0000 -9.0431 0.0000
# 3 32.2837 23.1920 62.2437 0.0000 -11.6701 0.0000
# 4 0.0000 0.0000 0.0000 32.0221 0.0000 3.1890
# 5 -17.5266 -9.0431 -11.6701 0.0000 31.6237 0.0000
# 6 0.0000 0.0000 0.0000 3.1890 0.0000 38.8912
#
#
#
# Elastic Compliance Matrix: (Units=1/GPa)
#
#
# Indices 1 2 3 4 5 6 
#
# 1 0.012400 -0.001272 -0.005089 0.000000 0.004630 0.000000
# 2 -0.001272 0.010264 -0.002950 0.000000 0.001141 0.000000
# 3 -0.005089 -0.002950 0.020539 0.000000 0.003915 0.000000
# 4 0.000000 0.000000 0.000000 0.031486 0.000000 -0.002582
# 5 0.004630 0.001141 0.003915 0.000000 0.035959 0.000000
# 6 0.000000 0.000000 0.000000 -0.002582 0.000000 0.025924
#
#
# Mechanical properties :
#
#
# Convention : Reuss Voigt Hill
#
# Bulk Modulus (GPa) = 40.68589 48.01617 44.35103
# Shear Modulus (GPa) = 30.60201 33.42489 32.01345
#
# Velocity S-wave (km/s) = 3.72526 3.89329 3.81020
# Velocity P-wave (km/s) = 6.07897 6.47957 6.28246
#
# Compressibility (1/GPa) = 0.02457854
#
# Stress axis : x y z
#
# Youngs Moduli (GPa) = 80.64673 97.43168 48.68828
#
# Poissons Ratio (x) = 0.12397 0.24778
# Poissons Ratio (y) = 0.10261 0.14365
# Poissons Ratio (z) = 0.41042 0.28746
#
# Static dielectric constant tensor:
#      x y z
#    x 1.822460 0.000000 0.017540 
#    y 0.000000 1.920230 0.000000 
#    z 0.017540 0.000000 1.850160 
# 
# From -- ./inp_files/41865.got.cif
#   From: 2010.05.17/outbox.cif.g08.bks.cpg/sg5_21_cif.got.tgz:41865.got - 2010.06.03 18:56:24.
