data_PCOD9125321
_publ_section_title
;
Structure prediction by ZEFSAII (Michael W. Deem and Ramdas Pophale) SiO2 
 PCOD9125321
Probable space group: C 2
;
_chemical_formula_sum "Si O2"
_cell_formula_units_Z 28
_cell_length_a 17.330182
_cell_length_b 15.773537
_cell_length_c 5.204396
_cell_angle_alpha 90.000000
_cell_angle_beta 60.536791
_cell_angle_gamma 90.000000
_cell_volume 1238.673887
_symmetry_space_group_name_H-M "C 2"
_symmetry_group_IT_number 5
_symmetry_cell_setting 'monoclinic'
loop_
_space_group_symop_operation_xyz
x,y,z
-x,y,-z
1/2+x,1/2+y,z
1/2-x,1/2+y,-z
loop_
_atom_site_type_symbol
_atom_site_label
_atom_site_fract_x
_atom_site_fract_y
_atom_site_fract_z
Si Si1 0.412836 0.121270 0.534416
Si Si2 0.333187 0.504764 0.554506
Si Si3 0.622890 0.019870 0.903388
Si Si4 0.311023 0.400332 0.107926
Si Si5 0.735433 0.248984 0.106019
Si Si6 0.348928 0.847205 0.325510
Si Si7 0.594071 0.685530 0.484447
O O1 0.500000 0.168191 0.500000
O O2 0.418728 0.076130 0.252716
O O3 0.327618 0.180404 0.666983
O O4 0.398840 0.051613 0.779075
O O5 0.229325 0.527584 0.693983
O O6 0.354926 0.438837 0.290672
O O7 0.388591 0.591118 0.438880
O O8 0.336866 0.460833 0.828533
O O9 0.599898 0.921720 0.899153
O O10 0.205108 0.392181 0.351310
O O11 0.323486 0.303290 0.998907
O O12 0.773646 0.313302 0.254386
O O13 0.820635 0.205206 0.836424
O O14 0.401202 0.764370 0.327003
O O15 0.500000 0.687754 0.500000
#
# Coordination Sequence:
#
# PCOD9125321 Si02
#       7
#     4   4   4   4   4   4   4
#     4  12  27  44  69 103 137 179 225 279 341 407
#     4  11  21  42  72  99 134 179 227 276 337 410
#     4  11  22  44  70  98 139 175 227 275 341 403
#     4  10  21  40  71 101 127 178 232 272 340 394
#     4  11  23  45  73  97 138 181 228 285 341 405
#     4  10  23  42  70 101 136 180 228 281 341 410
#     4  11  26  43  68 105 144 181 229 281 347 413
#
# _framework density 22.604818000000002
#
# number of rings (size 3 to 8) (size 9 to 14) (size 15 to 20)
#    0.000    1.143    4.286    3.000    6.000    1.143 
#    2.571    0.714    3.143    0.000    0.000    0.000 
#    0.000    0.000    0.000    0.000    0.000    0.000 
#
# Total GULP energy -78230.234169 kJ/mol
# GULP energy per Si atom -5587.873869 kJ/mol
# Density = 2.255337 g / cm^3
# Si number density = 22.604818 Si / 1000 Ang^3
#
#
#
# Elastic Constant Matrix: (Units=GPa)
#
#
# Indices 1 2 3 4 5 6 
#
# 1 50.1333 37.6839 26.9102 0.0000 4.6197 0.0000
# 2 37.6839 134.4860 54.5112 0.0000 4.7290 0.0000
# 3 26.9102 54.5112 97.1508 0.0000 24.1345 0.0000
# 4 0.0000 0.0000 0.0000 11.5252 0.0000 27.6062
# 5 4.6197 4.7290 24.1345 0.0000 31.8453 0.0000
# 6 0.0000 0.0000 0.0000 27.6062 0.0000 23.8443
#
#
#
# Elastic Compliance Matrix: (Units=1/GPa)
#
#
# Indices 1 2 3 4 5 6 
#
# 1 0.026477 -0.005742 -0.004151 0.000000 0.000158 0.000000
# 2 -0.005742 0.011156 -0.005500 0.000000 0.003345 0.000000
# 3 -0.004151 -0.005500 0.017465 0.000000 -0.011817 0.000000
# 4 0.000000 0.000000 0.000000 -0.048932 0.000000 0.056652
# 5 0.000158 0.003345 -0.011817 0.000000 0.039838 0.000000
# 6 0.000000 0.000000 0.000000 0.056652 0.000000 -0.023652
#
#
# Mechanical properties :
#
#
# Convention : Reuss Voigt Hill
#
# Bulk Modulus (GPa) = 41.13353 57.77561 49.45457
# Shear Modulus (GPa) = 81.64209 24.28728 52.96468
#
# Velocity S-wave (km/s) = 6.01627 3.28140 4.84578
# Velocity P-wave (km/s) = 8.15457 6.32229 7.29617
#
# Compressibility (1/GPa) = 0.02431107
#
# Stress axis : x y z
#
# Youngs Moduli (GPa) = 37.76920 89.63430 57.25716
#
# Poissons Ratio (x) = 0.51466 0.23770
# Poissons Ratio (y) = 0.21686 0.31493
# Poissons Ratio (z) = 0.15679 0.49302
#
# Static dielectric constant tensor:
#      x y z
#    x 1.851840 0.000000 -0.003260 
#    y 0.000000 1.863770 0.000000 
#    z -0.003260 0.000000 1.886670 
# 
# From -- ./inp_files/8620.got.cif
#   From: 2010.05.17/outbox.cif.g08.bks.cpg/sg5_5_cif.got.tgz:8620.got - 2010.06.03 18:56:24.
