data_PCOD9125283
_publ_section_title
;
Structure prediction by ZEFSAII (Michael W. Deem and Ramdas Pophale) SiO2 
 PCOD9125283
Probable space group: C 2
;
_chemical_formula_sum "Si O2"
_cell_formula_units_Z 26
_cell_length_a 17.788605
_cell_length_b 8.939818
_cell_length_c 7.121151
_cell_angle_alpha 90.000000
_cell_angle_beta 120.100602
_cell_angle_gamma 90.000000
_cell_volume 979.738657
_symmetry_space_group_name_H-M "C 2"
_symmetry_group_IT_number 5
_symmetry_cell_setting 'monoclinic'
loop_
_space_group_symop_operation_xyz
x,y,z
-x,y,-z
1/2+x,1/2+y,z
1/2-x,1/2+y,-z
loop_
_atom_site_type_symbol
_atom_site_label
_atom_site_fract_x
_atom_site_fract_y
_atom_site_fract_z
Si Si1 0.148912 0.598930 0.589791
Si Si2 0.320307 0.757999 0.707778
Si Si3 0.738590 0.832936 0.775594
Si Si4 0.435342 0.512605 0.690304
Si Si5 0.000000 0.756405 0.000000
Si Si6 0.883748 0.904150 0.255060
Si Si7 0.644414 0.067293 0.134198
O O1 0.250497 0.648767 0.712203
O O2 0.151688 0.436439 0.693747
O O3 0.103407 0.737017 0.638179
O O4 0.127427 0.584881 0.340892
O O5 0.269847 0.829797 0.464964
O O6 0.404192 0.663491 0.749226
O O7 0.345295 0.891978 0.875198
O O8 0.773849 0.661759 0.836518
O O9 0.807782 0.901880 0.008936
O O10 0.372735 0.493778 0.435010
O O11 0.532767 0.484463 0.735510
O O12 0.430823 0.372007 0.824094
O O13 0.058884 0.648547 0.948336
#
# Coordination Sequence:
#
# PCOD9125283 Si02
#       7
#     4   4   4   4   2   4   4
#     4  10  22  40  68 104 133 185 247 301 359 443
#     4  10  24  42  71 103 137 187 260 300 351 453
#     4  10  22  41  70 103 144 184 243 312 375 426
#     4  11  25  43  70  99 146 197 242 298 379 450
#     4  12  20  42  70  88 136 196 242 284 372 446
#     4  11  24  41  70 104 147 192 235 307 390 436
#     4  10  21  40  67  98 132 190 242 305 349 443
#
# _framework density 26.537690000000001
#
# number of rings (size 3 to 8) (size 9 to 14) (size 15 to 20)
#    0.000    1.538    3.077    0.923    8.615    0.615 
#    0.000    0.000   13.538    0.000    0.000    0.000 
#    0.000    0.000    0.000    0.000    0.000    0.000 
#
# Total GULP energy -72423.730841 kJ/mol
# GULP energy per Si atom -5571.056219 kJ/mol
# Density = 2.647729 g / cm^3
# Si number density = 26.537690 Si / 1000 Ang^3
#
#
#
# Elastic Constant Matrix: (Units=GPa)
#
#
# Indices 1 2 3 4 5 6 
#
# 1 75.1793 48.1977 32.1188 0.0000 3.4118 0.0000
# 2 48.1977 140.2519 29.9163 0.0000 13.8464 0.0000
# 3 32.1188 29.9163 126.6734 0.0000 -2.3758 0.0000
# 4 0.0000 0.0000 0.0000 19.6142 0.0000 13.7169
# 5 3.4118 13.8464 -2.3758 0.0000 40.3993 0.0000
# 6 0.0000 0.0000 0.0000 13.7169 0.0000 43.0814
#
#
#
# Elastic Compliance Matrix: (Units=1/GPa)
#
#
# Indices 1 2 3 4 5 6 
#
# 1 0.018299 -0.005599 -0.003314 0.000000 0.000179 0.000000
# 2 -0.005599 0.009523 -0.000883 0.000000 -0.002843 0.000000
# 3 -0.003314 -0.000883 0.008964 0.000000 0.001110 0.000000
# 4 0.000000 0.000000 0.000000 0.065587 0.000000 -0.020883
# 5 0.000179 -0.002843 0.001110 0.000000 0.025777 0.000000
# 6 0.000000 0.000000 0.000000 -0.020883 0.000000 0.029861
#
#
# Mechanical properties :
#
#
# Convention : Reuss Voigt Hill
#
# Bulk Modulus (GPa) = 58.15964 62.50780 60.33372
# Shear Modulus (GPa) = 27.27247 36.07709 31.67478
#
# Velocity S-wave (km/s) = 3.20924 3.69109 3.45857
# Velocity P-wave (km/s) = 5.97459 6.46305 6.22361
#
# Compressibility (1/GPa) = 0.01719406
#
# Stress axis : x y z
#
# Youngs Moduli (GPa) = 54.64786 105.00721 111.55855
#
# Poissons Ratio (x) = 0.58796 0.36972
# Poissons Ratio (y) = 0.30598 0.09847
# Poissons Ratio (z) = 0.18111 0.09269
#
# Static dielectric constant tensor:
#      x y z
#    x 2.223090 0.000000 -0.082670 
#    y 0.000000 2.155170 0.000000 
#    z -0.082670 0.000000 2.162970 
# 
# From -- ./inp_files/29014.got.cif
#   From: 2010.05.17/outbox.cif.g08.bks.cpg/sg5_15_cif.got.tgz:29014.got - 2010.06.03 18:56:24.
