data_PCOD9125196
_publ_section_title
;
Structure prediction by ZEFSAII (Michael W. Deem and Ramdas Pophale) SiO2 
 PCOD9125196
Probable space group: C 2
;
_chemical_formula_sum "Si O2"
_cell_formula_units_Z 24
_cell_length_a 30.637645
_cell_length_b 8.890222
_cell_length_c 8.646770
_cell_angle_alpha 90.000000
_cell_angle_beta 150.282864
_cell_angle_gamma 90.000000
_cell_volume 1167.500200
_symmetry_space_group_name_H-M "C 2"
_symmetry_group_IT_number 5
_symmetry_cell_setting 'monoclinic'
loop_
_space_group_symop_operation_xyz
x,y,z
-x,y,-z
1/2+x,1/2+y,z
1/2-x,1/2+y,-z
loop_
_atom_site_type_symbol
_atom_site_label
_atom_site_fract_x
_atom_site_fract_y
_atom_site_fract_z
Si Si1 0.817760 0.239940 0.131990
Si Si2 0.143850 0.252259 0.113150
Si Si3 0.345612 0.083442 0.243476
Si Si4 0.809096 0.593635 0.764964
Si Si5 0.017153 0.768573 0.735812
Si Si6 0.016936 0.092949 0.231576
O O1 0.834264 0.407938 0.245649
O O2 0.882454 0.128023 0.419767
O O3 0.843885 0.234130 0.032722
O O4 0.718544 0.186386 0.852770
O O5 0.166735 0.426046 0.216147
O O6 0.214460 0.146904 0.416252
O O7 0.046970 0.203117 0.867835
O O8 0.444806 0.144115 0.560302
O O9 0.315919 0.097361 0.972387
O O10 0.885130 0.705602 0.940820
O O11 0.000000 0.796786 0.500000
O O12 0.004096 0.922918 0.785215
O O13 0.000000 0.117068 0.000000
#
# Coordination Sequence:
#
# PCOD9125196 Si02
#       6
#     4   4   4   4   4   4
#     4  11  23  40  62  88 120 157 197 242 294 350
#     4  11  23  40  62  88 120 157 197 242 294 350
#     4  10  22  40  62  90 121 155 197 242 290 349
#     4  10  22  40  62  90 121 155 197 242 290 349
#     4  10  21  40  64  88 120 158 195 240 294 348
#     4  12  25  40  60  88 120 154 199 248 294 350
#
# _framework density 20.556743000000001
#
# number of rings (size 3 to 8) (size 9 to 14) (size 15 to 20)
#    0.000    1.333    0.000    5.500    0.000   12.000 
#    0.000    1.667    0.000    0.000    0.000    0.000 
#    0.000    0.000    0.000    0.000    0.000    0.000 
#
# Total GULP energy -67148.650846 kJ/mol
# GULP energy per Si atom -5595.720904 kJ/mol
# Density = 2.050995 g / cm^3
# Si number density = 20.556743 Si / 1000 Ang^3
#
#
#
# Elastic Constant Matrix: (Units=GPa)
#
#
# Indices 1 2 3 4 5 6 
#
# 1 60.7013 11.9679 -15.3819 0.0000 17.0445 0.0000
# 2 11.9679 73.9463 -28.1019 0.0000 -4.8631 0.0000
# 3 -15.3819 -28.1019 37.1936 0.0000 5.9730 0.0000
# 4 0.0000 0.0000 0.0000 33.7670 0.0000 8.9371
# 5 17.0445 -4.8631 5.9730 0.0000 23.7856 0.0000
# 6 0.0000 0.0000 0.0000 8.9371 0.0000 25.0119
#
#
#
# Elastic Compliance Matrix: (Units=1/GPa)
#
#
# Indices 1 2 3 4 5 6 
#
# 1 0.026562 -0.000325 0.014387 0.000000 -0.022713 0.000000
# 2 -0.000325 0.018976 0.014112 0.000000 0.000569 0.000000
# 3 0.014387 0.014112 0.046569 0.000000 -0.019118 0.000000
# 4 0.000000 0.000000 0.000000 0.032708 0.000000 -0.011687
# 5 -0.022713 0.000569 -0.019118 0.000000 0.063236 0.000000
# 6 0.000000 0.000000 0.000000 -0.011687 0.000000 0.044157
#
#
# Mechanical properties :
#
#
# Convention : Reuss Voigt Hill
#
# Bulk Modulus (GPa) = 6.73611 12.08990 9.41301
# Shear Modulus (GPa) = 22.18820 30.07002 26.12911
#
# Velocity S-wave (km/s) = 3.28893 3.82878 3.56908
# Velocity P-wave (km/s) = 4.20793 5.04382 4.64472
#
# Compressibility (1/GPa) = 0.14845369
#
# Stress axis : x y z
#
# Youngs Moduli (GPa) = 37.64833 52.69718 21.47358
#
# Poissons Ratio (x) = 0.01714 -0.30894
# Poissons Ratio (y) = 0.01224 -0.30303
# Poissons Ratio (z) = -0.54164 -0.74366
#
# Static dielectric constant tensor:
#      x y z
#    x 1.717070 0.000000 -0.006790 
#    y 0.000000 1.707150 0.000000 
#    z -0.006790 0.000000 1.671020 
# 
# From -- ./inp_files/32455.got.cif
#   From: 2010.05.17/outbox.cif.g08.bks.cpg/sg5_17_cif.got.tgz:32455.got - 2010.06.03 18:56:24.
