data_PCOD9125844
_publ_section_title
;
Structure prediction by ZEFSAII (Michael W. Deem and Ramdas Pophale) SiO2 
 PCOD9125844
Probable space group: C 2
;
_chemical_formula_sum "Si O2"
_cell_formula_units_Z 24
_cell_length_a 15.302915
_cell_length_b 6.878768
_cell_length_c 18.899645
_cell_angle_alpha 90.000000
_cell_angle_beta 28.769872
_cell_angle_gamma 90.000000
_cell_volume 957.520002
_symmetry_space_group_name_H-M "C 2"
_symmetry_group_IT_number 5
_symmetry_cell_setting 'monoclinic'
loop_
_space_group_symop_operation_xyz
x,y,z
-x,y,-z
1/2+x,1/2+y,z
1/2-x,1/2+y,-z
loop_
_atom_site_type_symbol
_atom_site_label
_atom_site_fract_x
_atom_site_fract_y
_atom_site_fract_z
Si Si1 0.445063 0.866790 0.682586
Si Si2 0.511681 0.195247 0.806550
Si Si3 0.753796 0.633486 0.495823
Si Si4 0.476926 0.470713 0.596573
Si Si5 0.349752 0.536934 0.010569
Si Si6 0.905409 0.406283 0.130724
O O1 0.566645 0.739020 0.652892
O O2 0.431006 0.704019 0.632275
O O3 0.589255 0.040581 0.566898
O O4 0.256524 0.934402 0.848753
O O5 0.642084 0.223079 0.646762
O O6 0.469000 0.386238 0.881452
O O7 0.595826 0.033235 0.798086
O O8 0.318351 0.116069 0.916531
O O9 0.647335 0.452457 0.527680
O O10 0.500000 0.409035 0.500000
O O11 0.297622 0.365273 0.750732
O O12 0.476604 0.715791 0.940800
O O13 0.000000 0.522367 0.000000
#
# Coordination Sequence:
#
# PCOD9125844 Si02
#       6
#     4   4   4   4   4   4
#     4   9  21  41  68 101 133 175 234 274 342 413
#     4  11  22  44  69  99 136 180 231 275 343 411
#     4   9  21  41  70  95 135 176 226 278 341 408
#     4  10  21  44  69  98 140 179 221 290 347 397
#     4  11  24  42  69 100 134 186 231 273 338 417
#     4  12  25  43  66 102 141 178 223 292 341 400
#
# _framework density 25.064748999999999
#
# number of rings (size 3 to 8) (size 9 to 14) (size 15 to 20)
#    1.000    0.667    3.333    1.000    0.000    6.000 
#    0.000    1.667    0.000    0.000    0.000    0.000 
#    0.000    0.000    0.000    0.000    0.000    0.000 
#
# Total GULP energy -66989.353350 kJ/mol
# GULP energy per Si atom -5582.446113 kJ/mol
# Density = 2.500770 g / cm^3
# Si number density = 25.064749 Si / 1000 Ang^3
#
#
#
# Elastic Constant Matrix: (Units=GPa)
#
#
# Indices 1 2 3 4 5 6 
#
# 1 67.8699 -4.1041 33.8791 -0.0001 -9.9089 -0.0001
# 2 -4.1041 61.0723 32.0687 -0.0004 4.3126 0.0003
# 3 33.8791 32.0687 138.9022 -0.0005 -10.1780 0.0002
# 4 -0.0001 -0.0004 -0.0005 48.6429 0.0002 -9.2217
# 5 -9.9089 4.3126 -10.1780 0.0002 49.7939 0.0000
# 6 -0.0001 0.0003 0.0002 -9.2217 0.0000 28.4021
#
#
#
# Elastic Compliance Matrix: (Units=1/GPa)
#
#
# Indices 1 2 3 4 5 6 
#
# 1 0.017786 0.003680 -0.005027 0.000000 0.002193 0.000000
# 2 0.003680 0.019714 -0.005604 0.000000 -0.002121 0.000000
# 3 -0.005027 -0.005604 0.009829 0.000000 0.001494 0.000000
# 4 0.000000 0.000000 0.000000 0.021906 0.000000 0.007113
# 5 0.002193 -0.002121 0.001494 0.000000 0.021008 0.000000
# 6 0.000000 0.000000 0.000000 0.007113 0.000000 0.037518
#
#
# Mechanical properties :
#
#
# Convention : Reuss Voigt Hill
#
# Bulk Modulus (GPa) = 29.91669 43.50352 36.71011
# Shear Modulus (GPa) = 32.72113 39.10116 35.91115
#
# Velocity S-wave (km/s) = 3.61704 3.95398 3.78926
# Velocity P-wave (km/s) = 5.42270 6.18380 5.81571
#
# Compressibility (1/GPa) = 0.03342616
#
# Stress axis : x y z
#
# Youngs Moduli (GPa) = 56.22330 50.72561 101.74162
#
# Poissons Ratio (x) = -0.18667 0.51146
# Poissons Ratio (y) = -0.20691 0.57020
# Poissons Ratio (z) = 0.28264 0.28429
#
# Static dielectric constant tensor:
#      x y z
#    x 2.243360 0.000000 -0.005550 
#    y 0.000000 2.228100 0.000000 
#    z -0.005550 0.000000 1.929440 
# 
# From -- ./inp_files/61414.got.cif
#   From: 2010.05.17/outbox.cif.g08.bks.cpg/sg5_31_cif.got.tgz:61414.got - 2010.06.03 18:56:24.
