data_PCOD9125450
_publ_section_title
;
Structure prediction by ZEFSAII (Michael W. Deem and Ramdas Pophale) SiO2 
 PCOD9125450
Probable space group: C 2
;
_chemical_formula_sum "Si O2"
_cell_formula_units_Z 20
_cell_length_a 19.252389
_cell_length_b 5.378320
_cell_length_c 8.376094
_cell_angle_alpha 90.000000
_cell_angle_beta 82.054373
_cell_angle_gamma 90.000000
_cell_volume 858.980505
_symmetry_space_group_name_H-M "C 2"
_symmetry_group_IT_number 5
_symmetry_cell_setting 'monoclinic'
loop_
_space_group_symop_operation_xyz
x,y,z
-x,y,-z
1/2+x,1/2+y,z
1/2-x,1/2+y,-z
loop_
_atom_site_type_symbol
_atom_site_label
_atom_site_fract_x
_atom_site_fract_y
_atom_site_fract_z
Si Si1 0.448607 0.923550 0.899996
Si Si2 0.000106 0.834749 0.313669
Si Si3 0.874060 0.786104 0.160663
Si Si4 0.756411 0.512972 0.393871
Si Si5 0.647952 0.545625 0.144002
O O1 0.371335 0.832828 0.872842
O O2 0.487383 0.044459 0.737092
O O3 0.500000 0.762859 0.000000
O O4 0.427319 0.132035 0.034911
O O5 0.926448 0.926534 0.264194
O O6 0.000000 0.869456 0.500000
O O7 0.069165 0.963047 0.220282
O O8 0.825904 0.607599 0.281085
O O9 0.833168 0.943628 0.038500
O O10 0.762825 0.249711 0.484945
O O11 0.699731 0.485173 0.269784
#
# Coordination Sequence:
#
# PCOD9125450 Si02
#       5
#     4   4   4   4   4
#     4   9  20  39  66 101 133 184 245 297 354 442
#     4  10  21  41  67 102 145 182 242 307 370 421
#     4  10  24  43  72 101 145 190 248 295 366 444
#     4  12  31  49  73 109 156 192 245 310 377 435
#     4  11  24  42  74  97 145 191 254 288 373 440
#
# _framework density 23.283415999999999
#
# number of rings (size 3 to 8) (size 9 to 14) (size 15 to 20)
#    0.000    1.600    0.000    4.200   14.000    0.800 
#    3.600    0.000    0.000    0.000    0.000    0.000 
#    0.000    0.000    0.000    0.000    0.000    0.000 
#
# Total GULP energy -55718.154658 kJ/mol
# GULP energy per Si atom -5571.815466 kJ/mol
# Density = 2.323042 g / cm^3
# Si number density = 23.283416 Si / 1000 Ang^3
#
#
#
# Elastic Constant Matrix: (Units=GPa)
#
#
# Indices 1 2 3 4 5 6 
#
# 1 93.1791 -3.1992 24.8801 0.0000 21.9156 0.0000
# 2 -3.1992 35.3481 11.0716 0.0000 12.5396 0.0000
# 3 24.8801 11.0716 121.7702 0.0000 19.9561 0.0000
# 4 0.0000 0.0000 0.0000 13.9782 0.0000 -5.0678
# 5 21.9156 12.5396 19.9561 0.0000 53.7644 0.0000
# 6 0.0000 0.0000 0.0000 -5.0678 0.0000 22.1823
#
#
#
# Elastic Compliance Matrix: (Units=1/GPa)
#
#
# Indices 1 2 3 4 5 6 
#
# 1 0.012638 0.003646 -0.002055 0.000000 -0.005239 0.000000
# 2 0.003646 0.032240 -0.002343 0.000000 -0.008136 0.000000
# 3 -0.002055 -0.002343 0.009176 0.000000 -0.002022 0.000000
# 4 0.000000 0.000000 0.000000 0.078000 0.000000 0.017820
# 5 -0.005239 -0.008136 -0.002022 0.000000 0.023383 0.000000
# 6 0.000000 0.000000 0.000000 0.017820 0.000000 0.049152
#
#
# Mechanical properties :
#
#
# Convention : Reuss Voigt Hill
#
# Bulk Modulus (GPa) = 19.02917 35.08914 27.05915
# Shear Modulus (GPa) = 22.36022 32.48799 27.42410
#
# Velocity S-wave (km/s) = 3.10231 3.73946 3.43569
# Velocity P-wave (km/s) = 4.58509 5.80930 5.23311
#
# Compressibility (1/GPa) = 0.05255090
#
# Stress axis : x y z
#
# Youngs Moduli (GPa) = 79.12513 31.01723 108.97424
#
# Poissons Ratio (x) = -0.11309 0.22396
# Poissons Ratio (y) = -0.28850 0.25532
# Poissons Ratio (z) = 0.16261 0.07267
#
# Static dielectric constant tensor:
#      x y z
#    x 1.988760 0.000000 0.087660 
#    y 0.000000 2.260060 0.000000 
#    z 0.087660 0.000000 1.870370 
# 
# From -- ./inp_files/25942.got.cif
#   From: 2010.05.17/outbox.cif.g08.bks.cpg/sg5_13_cif.got.tgz:25942.got - 2010.06.03 18:56:24.
