data_PCOD9125973
_publ_section_title
;
Structure prediction by ZEFSAII (Michael W. Deem and Ramdas Pophale) SiO2 
 PCOD9125973
Probable space group: C 2
;
_chemical_formula_sum "Si O2"
_cell_formula_units_Z 30
_cell_length_a 9.867120
_cell_length_b 8.074749
_cell_length_c 17.827344
_cell_angle_alpha 90.000000
_cell_angle_beta 65.774309
_cell_angle_gamma 90.000000
_cell_volume 1295.300551
_symmetry_space_group_name_H-M "C 2"
_symmetry_group_IT_number 5
_symmetry_cell_setting 'monoclinic'
loop_
_space_group_symop_operation_xyz
x,y,z
-x,y,-z
1/2+x,1/2+y,z
1/2-x,1/2+y,-z
loop_
_atom_site_type_symbol
_atom_site_label
_atom_site_fract_x
_atom_site_fract_y
_atom_site_fract_z
Si Si1 0.229216 0.337470 0.160828
Si Si2 0.500000 0.202835 0.500000
Si Si3 0.856695 0.392266 0.986880
Si Si4 0.954982 0.181412 0.312942
Si Si5 0.894142 0.539225 0.383428
Si Si6 0.857851 0.951439 0.648153
Si Si7 0.291347 0.159589 0.750084
Si Si8 0.447127 0.270661 0.932195
O O1 0.176776 0.311499 0.086678
O O2 0.104861 0.245617 0.237958
O O3 0.232961 0.537174 0.174640
O O4 0.394047 0.272400 0.144794
O O5 0.402476 0.318029 0.575640
O O6 0.397818 0.093777 0.468336
O O7 0.895683 0.583332 0.960734
O O8 0.697962 0.366634 0.064703
O O9 0.000000 0.326065 0.000000
O O10 0.902543 0.342810 0.369304
O O11 0.836921 0.114887 0.280032
O O12 0.993461 0.037588 0.360398
O O13 0.752090 0.582607 0.365307
O O14 0.042923 0.612576 0.313048
O O15 0.788861 0.858892 0.737485
O O16 0.500000 0.349060 0.000000
#
# Coordination Sequence:
#
# PCOD9125973 Si02
#       8
#     4   2   4   4   4   4   4   4
#     4  10  22  39  60  87 121 161 199 248 313 363
#     4  10  22  36  60  90 120 160 200 246 310 360
#     4  10  22  40  60  85 118 153 200 252 302 363
#     4  10  22  39  60  87 121 160 206 253 300 360
#     4   9  21  40  58  84 121 156 199 248 297 358
#     4  10  22  39  61  90 122 158 206 253 297 358
#     4   9  21  39  58  86 121 158 200 246 298 360
#     4   9  21  39  58  84 116 151 195 246 300 362
#
# _framework density 23.160648999999999
#
# number of rings (size 3 to 8) (size 9 to 14) (size 15 to 20)
#    0.000    2.400    0.000    0.000    0.000   19.200 
#    0.000    0.000    0.000    0.000    0.000    0.000 
#    0.000    0.000    0.000    0.000    0.000    0.000 
#
# Total GULP energy -83612.375670 kJ/mol
# GULP energy per Si atom -5574.158378 kJ/mol
# Density = 2.310793 g / cm^3
# Si number density = 23.160649 Si / 1000 Ang^3
#
#
#
# Elastic Constant Matrix: (Units=GPa)
#
#
# Indices 1 2 3 4 5 6 
#
# 1 159.2674 19.5186 25.7098 0.0000 5.3699 0.0000
# 2 19.5186 28.9539 17.0365 0.0000 2.6228 0.0000
# 3 25.7098 17.0365 49.0301 0.0000 5.5868 0.0000
# 4 0.0000 0.0000 0.0000 19.9104 0.0000 -1.1882
# 5 5.3699 2.6228 5.5868 0.0000 33.9966 0.0000
# 6 0.0000 0.0000 0.0000 -1.1882 0.0000 31.2873
#
#
#
# Elastic Compliance Matrix: (Units=1/GPa)
#
#
# Indices 1 2 3 4 5 6 
#
# 1 0.007103 -0.003251 -0.002543 0.000000 -0.000453 0.000000
# 2 -0.003251 0.044928 -0.013829 0.000000 -0.000680 0.000000
# 3 -0.002543 -0.013829 0.026870 0.000000 -0.002947 0.000000
# 4 0.000000 0.000000 0.000000 0.050339 0.000000 0.001912
# 5 -0.000453 -0.000680 -0.002947 0.000000 0.030023 0.000000
# 6 0.000000 0.000000 0.000000 0.001912 0.000000 0.032034
#
#
# Mechanical properties :
#
#
# Convention : Reuss Voigt Hill
#
# Bulk Modulus (GPa) = 25.21767 40.19791 32.70779
# Shear Modulus (GPa) = 20.51181 28.70463 24.60822
#
# Velocity S-wave (km/s) = 2.97919 3.52429 3.26314
# Velocity P-wave (km/s) = 4.76926 5.82706 5.32449
#
# Compressibility (1/GPa) = 0.03965473
#
# Stress axis : x y z
#
# Youngs Moduli (GPa) = 140.78594 22.25797 37.21582
#
# Poissons Ratio (x) = 0.07235 0.09465
# Poissons Ratio (y) = 0.45766 0.51466
# Poissons Ratio (z) = 0.35808 0.30781
#
# Static dielectric constant tensor:
#      x y z
#    x 1.949940 0.000000 -0.036550 
#    y 0.000000 1.877890 0.000000 
#    z -0.036550 0.000000 1.960540 
# 
# From -- ./inp_files/64321.got.cif
#   From: 2010.05.17/outbox.cif.g08.bks.cpg/sg5_33_cif.got.tgz:64321.got - 2010.06.03 18:56:24.
