data_PCOD9125146
_publ_section_title
;
Structure prediction by ZEFSAII (Michael W. Deem and Ramdas Pophale) SiO2 
 PCOD9125146
Probable space group: C 2
;
_chemical_formula_sum "Si O2"
_cell_formula_units_Z 20
_cell_length_a 14.663654
_cell_length_b 8.280070
_cell_length_c 12.536964
_cell_angle_alpha 90.000000
_cell_angle_beta 151.037706
_cell_angle_gamma 90.000000
_cell_volume 737.095588
_symmetry_space_group_name_H-M "C 2"
_symmetry_group_IT_number 5
_symmetry_cell_setting 'monoclinic'
loop_
_space_group_symop_operation_xyz
x,y,z
-x,y,-z
1/2+x,1/2+y,z
1/2-x,1/2+y,-z
loop_
_atom_site_type_symbol
_atom_site_label
_atom_site_fract_x
_atom_site_fract_y
_atom_site_fract_z
Si Si1 0.325486 0.188840 0.754936
Si Si2 0.828174 0.389628 0.112304
Si Si3 0.028393 0.049934 0.692431
Si Si4 0.676595 0.089712 0.467313
Si Si5 0.712318 0.555629 0.203626
O O1 0.384062 0.205589 0.690857
O O2 0.281621 0.368756 0.748513
O O3 0.141655 0.074304 0.566487
O O4 0.500000 0.123502 0.000000
O O5 0.845614 0.212528 0.179485
O O6 0.773018 0.524773 0.144776
O O7 0.042648 0.437303 0.306125
O O8 0.680723 0.409699 0.865167
O O9 0.893901 0.056283 0.660042
O O10 0.666794 0.142418 0.580201
O O11 0.500000 0.616322 0.000000
#
# Coordination Sequence:
#
# PCOD9125146 Si02
#       5
#     4   4   4   4   4
#     4   9  21  40  66 100 136 179 235 290 333 407
#     4  12  24  42  74 105 141 190 231 290 356 417
#     4  10  25  41  68 111 141 178 240 288 348 419
#     4  10  21  40  62 102 139 171 234 293 336 402
#     4  11  20  40  71 100 133 184 243 280 341 428
#
# _framework density 27.133521999999999
#
# number of rings (size 3 to 8) (size 9 to 14) (size 15 to 20)
#    1.200    0.400    4.000    0.600    5.600    1.600 
#    0.000    0.000    8.800    2.400    0.000    0.000 
#    0.000    0.000    0.000    0.000    0.000    0.000 
#
# Total GULP energy -55819.453536 kJ/mol
# GULP energy per Si atom -5581.945354 kJ/mol
# Density = 2.707176 g / cm^3
# Si number density = 27.133522 Si / 1000 Ang^3
#
#
#
# Elastic Constant Matrix: (Units=GPa)
#
#
# Indices 1 2 3 4 5 6 
#
# 1 74.0168 1.3033 19.6970 0.0000 -3.9862 0.0000
# 2 1.3033 59.7839 31.5875 0.0000 0.1132 0.0000
# 3 19.6970 31.5875 261.4510 0.0000 1.0835 0.0000
# 4 0.0000 0.0000 0.0000 34.6906 0.0000 -0.6411
# 5 -3.9862 0.1132 1.0835 0.0000 47.2386 0.0000
# 6 0.0000 0.0000 0.0000 -0.6411 0.0000 28.5789
#
#
#
# Elastic Compliance Matrix: (Units=1/GPa)
#
#
# Indices 1 2 3 4 5 6 
#
# 1 0.013858 0.000267 -0.001081 0.000000 0.001194 0.000000
# 2 0.000267 0.017873 -0.002180 0.000000 0.000030 0.000000
# 3 -0.001081 -0.002180 0.004170 0.000000 -0.000182 0.000000
# 4 0.000000 0.000000 0.000000 0.028838 0.000000 0.000647
# 5 0.001194 0.000030 -0.000182 0.000000 0.021274 0.000000
# 6 0.000000 0.000000 0.000000 0.000647 0.000000 0.035005
#
#
# Mechanical properties :
#
#
# Convention : Reuss Voigt Hill
#
# Bulk Modulus (GPa) = 33.43022 55.60304 44.51663
# Shear Modulus (GPa) = 36.50253 44.94590 40.72421
#
# Velocity S-wave (km/s) = 3.67180 4.07439 3.87832
# Velocity P-wave (km/s) = 5.50668 6.53231 6.04130
#
# Compressibility (1/GPa) = 0.02991306
#
# Stress axis : x y z
#
# Youngs Moduli (GPa) = 72.16183 55.95153 239.78867
#
# Poissons Ratio (x) = -0.01493 0.25926
# Poissons Ratio (y) = -0.01926 0.52263
# Poissons Ratio (z) = 0.07802 0.12195
#
# Static dielectric constant tensor:
#      x y z
#    x 2.218420 0.000000 -0.066860 
#    y 0.000000 2.108180 0.000000 
#    z -0.066860 0.000000 2.118780 
# 
# From -- ./inp_files/42591.got.cif
#   From: 2010.05.17/outbox.cif.g08.bks.cpg/sg5_22_cif.got.tgz:42591.got - 2010.06.03 18:56:24.
