data_PCOD9125611
_publ_section_title
;
Structure prediction by ZEFSAII (Michael W. Deem and Ramdas Pophale) SiO2 
 PCOD9125611
Probable space group: C 2
;
_chemical_formula_sum "Si O2"
_cell_formula_units_Z 20
_cell_length_a 11.335484
_cell_length_b 14.486347
_cell_length_c 7.772811
_cell_angle_alpha 90.000000
_cell_angle_beta 133.146259
_cell_angle_gamma 90.000000
_cell_volume 931.253816
_symmetry_space_group_name_H-M "C 2"
_symmetry_group_IT_number 5
_symmetry_cell_setting 'monoclinic'
loop_
_space_group_symop_operation_xyz
x,y,z
-x,y,-z
1/2+x,1/2+y,z
1/2-x,1/2+y,-z
loop_
_atom_site_type_symbol
_atom_site_label
_atom_site_fract_x
_atom_site_fract_y
_atom_site_fract_z
Si Si1 0.000000 0.404740 0.000000
Si Si2 0.448581 0.667682 0.153036
Si Si3 0.705563 0.017925 0.938265
Si Si4 0.313675 0.827303 0.246037
Si Si5 0.740296 0.768402 0.459301
Si Si6 0.500000 0.159046 0.500000
O O1 0.878273 0.340532 0.762188
O O2 0.108870 0.473160 0.997500
O O3 0.333646 0.751487 0.112058
O O4 0.622291 0.686263 0.406096
O O5 0.500000 0.665586 0.000000
O O6 0.366798 0.574808 0.132351
O O7 0.743211 0.926585 0.869706
O O8 0.596212 0.091013 0.723925
O O9 0.500000 0.838647 0.500000
O O10 0.204327 0.805280 0.302153
O O11 0.875477 0.724965 0.475321
#
# Coordination Sequence:
#
# PCOD9125611 Si02
#       6
#     2   4   4   4   4   2
#     4  12  22  44  66  88 132 176 212 268 326 382
#     4  11  21  43  67  92 127 176 209 267 324 382
#     4  12  23  40  68  96 126 174 220 263 321 384
#     4  10  21  42  67  91 130 175 208 268 328 375
#     4  11  22  46  65  91 133 173 212 268 331 373
#     4  12  24  40  66 100 126 172 220 270 310 388
#
# _framework density 21.476421999999999
#
# number of rings (size 3 to 8) (size 9 to 14) (size 15 to 20)
#    0.000    0.800    8.000    0.000    2.800    0.000 
#    3.600    0.000    0.000    0.000    0.000    0.000 
#    0.000    0.000    0.000    0.000    0.000    0.000 
#
# Total GULP energy -55734.014142 kJ/mol
# GULP energy per Si atom -5573.401414 kJ/mol
# Density = 2.142754 g / cm^3
# Si number density = 21.476422 Si / 1000 Ang^3
#
#
#
# Elastic Constant Matrix: (Units=GPa)
#
#
# Indices 1 2 3 4 5 6 
#
# 1 180.1049 120.0077 50.8693 0.0000 -13.4829 0.0000
# 2 120.0077 166.1077 37.8223 0.0000 -8.1691 0.0000
# 3 50.8693 37.8223 30.3395 0.0000 -13.7187 0.0000
# 4 0.0000 0.0000 0.0000 6.6590 0.0000 0.5776
# 5 -13.4829 -8.1691 -13.7187 0.0000 28.5604 0.0000
# 6 0.0000 0.0000 0.0000 0.5776 0.0000 49.1220
#
#
#
# Elastic Compliance Matrix: (Units=1/GPa)
#
#
# Indices 1 2 3 4 5 6 
#
# 1 0.015013 -0.006868 -0.018258 0.000000 -0.003647 0.000000
# 2 -0.006868 0.011809 -0.004017 0.000000 -0.001794 0.000000
# 3 -0.018258 -0.004017 0.081967 0.000000 0.029604 0.000000
# 4 0.000000 0.000000 0.000000 0.150326 0.000000 -0.001768
# 5 -0.003647 -0.001794 0.029604 0.000000 0.046998 0.000000
# 6 0.000000 0.000000 0.000000 -0.001768 0.000000 0.020378
#
#
# Mechanical properties :
#
#
# Convention : Reuss Voigt Hill
#
# Bulk Modulus (GPa) = 19.80136 88.21674 54.00905
# Shear Modulus (GPa) = 12.44987 28.05847 20.25417
#
# Velocity S-wave (km/s) = 2.41031 3.61844 3.07431
# Velocity P-wave (km/s) = 4.12143 7.65655 6.14853
#
# Compressibility (1/GPa) = 0.05050159
#
# Stress axis : x y z
#
# Youngs Moduli (GPa) = 66.61087 84.68452 12.20008
#
# Poissons Ratio (x) = 0.58162 0.22275
# Poissons Ratio (y) = 0.45749 0.04900
# Poissons Ratio (z) = 1.21620 0.34015
#
# Static dielectric constant tensor:
#      x y z
#    x 1.893210 0.000000 -0.068140 
#    y 0.000000 1.776810 0.000000 
#    z -0.068140 0.000000 1.885420 
# 
# From -- ./inp_files/19235.got.cif
#   From: 2010.05.17/outbox.cif.g08.bks.cpg/sg5_10_cif.got.tgz:19235.got - 2010.06.03 18:56:24.
