data_PCOD9125847
_publ_section_title
;
Structure prediction by ZEFSAII (Michael W. Deem and Ramdas Pophale) SiO2 
 PCOD9125847
Probable space group: C 2
;
_chemical_formula_sum "Si O2"
_cell_formula_units_Z 18
_cell_length_a 10.626220
_cell_length_b 9.656527
_cell_length_c 11.463497
_cell_angle_alpha 90.000000
_cell_angle_beta 141.259815
_cell_angle_gamma 90.000000
_cell_volume 736.114563
_symmetry_space_group_name_H-M "C 2"
_symmetry_group_IT_number 5
_symmetry_cell_setting 'monoclinic'
loop_
_space_group_symop_operation_xyz
x,y,z
-x,y,-z
1/2+x,1/2+y,z
1/2-x,1/2+y,-z
loop_
_atom_site_type_symbol
_atom_site_label
_atom_site_fract_x
_atom_site_fract_y
_atom_site_fract_z
Si Si1 0.730214 0.950200 0.430128
Si Si2 0.313967 0.367270 0.249738
Si Si3 0.322855 0.586965 0.722941
Si Si4 0.500000 0.350046 0.000000
Si Si5 0.646817 0.778228 0.894890
O O1 0.749397 0.976154 0.304193
O O2 0.537218 0.852111 0.304849
O O3 0.951922 0.884988 0.610895
O O4 0.716997 0.062972 0.522209
O O5 0.272588 0.216248 0.277766
O O6 0.188952 0.366245 0.041603
O O7 0.552809 0.633019 0.864609
O O8 0.349049 0.449201 0.817198
O O9 0.646876 0.265139 0.023727
#
# Coordination Sequence:
#
# PCOD9125847 Si02
#       5
#     4   4   4   2   4
#     4  10  22  40  72 101 133 173 227 278 338 396
#     4  10  21  44  70 101 136 173 230 279 332 411
#     4  11  22  46  71 101 134 182 222 281 347 392
#     4  12  24  42  74  96 140 182 226 276 340 398
#     4  11  24  44  69 105 135 177 235 275 330 419
#
# _framework density 24.452714
#
# number of rings (size 3 to 8) (size 9 to 14) (size 15 to 20)
#    0.000    1.333    4.444    2.000    0.000    8.000 
#    0.000   15.556    0.000    0.000    0.000    0.000 
#    0.000    0.000    0.000    0.000    0.000    0.000 
#
# Total GULP energy -50295.359456 kJ/mol
# GULP energy per Si atom -5588.373273 kJ/mol
# Density = 2.439706 g / cm^3
# Si number density = 24.452714 Si / 1000 Ang^3
#
#
#
# Elastic Constant Matrix: (Units=GPa)
#
#
# Indices 1 2 3 4 5 6 
#
# 1 111.6461 18.1647 17.3612 0.0000 15.0077 0.0000
# 2 18.1647 31.0350 10.6010 0.0000 -0.2628 0.0000
# 3 17.3612 10.6010 105.7676 0.0000 -6.0410 0.0000
# 4 0.0000 0.0000 0.0000 38.0555 0.0000 0.2288
# 5 15.0077 -0.2628 -6.0410 0.0000 37.0615 0.0000
# 6 0.0000 0.0000 0.0000 0.2288 0.0000 37.6117
#
#
#
# Elastic Compliance Matrix: (Units=1/GPa)
#
#
# Indices 1 2 3 4 5 6 
#
# 1 0.010754 -0.005840 -0.001444 0.000000 -0.004632 0.000000
# 2 -0.005840 0.036539 -0.002578 0.000000 0.002204 0.000000
# 3 -0.001444 -0.002578 0.010076 0.000000 0.002209 0.000000
# 4 0.000000 0.000000 0.000000 0.026278 0.000000 -0.000160
# 5 -0.004632 0.002204 0.002209 0.000000 0.029233 0.000000
# 6 0.000000 0.000000 0.000000 -0.000160 0.000000 0.026588
#
#
# Mechanical properties :
#
#
# Convention : Reuss Voigt Hill
#
# Bulk Modulus (GPa) = 26.56409 37.85585 32.20997
# Shear Modulus (GPa) = 29.11321 36.03387 32.57354
#
# Velocity S-wave (km/s) = 3.45424 3.84293 3.65376
# Velocity P-wave (km/s) = 5.17649 5.93344 5.56784
#
# Compressibility (1/GPa) = 0.03764481
#
# Stress axis : x y z
#
# Youngs Moduli (GPa) = 92.98604 27.36787 99.24255
#
# Poissons Ratio (x) = 0.15984 0.14335
# Poissons Ratio (y) = 0.54307 0.25582
# Poissons Ratio (z) = 0.13431 0.07055
#
# Static dielectric constant tensor:
#      x y z
#    x 1.969410 0.000000 -0.040950 
#    y 0.000000 1.934270 0.000000 
#    z -0.040950 0.000000 1.942920 
# 
# From -- ./inp_files/38626.got.cif
#   From: 2010.05.17/outbox.cif.g08.bks.cpg/sg5_20_cif.got.tgz:38626.got - 2010.06.03 18:56:24.
