data_PCOD9125179
_publ_section_title
;
Structure prediction by ZEFSAII (Michael W. Deem and Ramdas Pophale) SiO2 
 PCOD9125179
Probable space group: C 2
;
_chemical_formula_sum "Si O2"
_cell_formula_units_Z 28
_cell_length_a 16.893401
_cell_length_b 5.463259
_cell_length_c 13.986981
_cell_angle_alpha 90.000000
_cell_angle_beta 59.800189
_cell_angle_gamma 90.000000
_cell_volume 1115.695165
_symmetry_space_group_name_H-M "C 2"
_symmetry_group_IT_number 5
_symmetry_cell_setting 'monoclinic'
loop_
_space_group_symop_operation_xyz
x,y,z
-x,y,-z
1/2+x,1/2+y,z
1/2-x,1/2+y,-z
loop_
_atom_site_type_symbol
_atom_site_label
_atom_site_fract_x
_atom_site_fract_y
_atom_site_fract_z
Si Si1 0.329865 0.128980 0.087802
Si Si2 0.226120 0.238326 0.732683
Si Si3 0.642666 0.778196 0.485597
Si Si4 0.041589 0.437057 0.143447
Si Si5 0.146996 0.371491 0.259750
Si Si6 0.334192 0.291004 0.472155
Si Si7 0.443932 0.436790 0.145639
O O1 0.226900 0.223502 0.156227
O O2 0.404671 0.340107 0.066641
O O3 0.329508 0.941928 0.176968
O O4 0.365325 0.999361 0.971689
O O5 0.277481 0.313283 0.606451
O O6 0.305176 0.134294 0.753140
O O7 0.153800 0.026140 0.752725
O O8 0.628918 0.779811 0.379375
O O9 0.606303 0.536763 0.560714
O O10 0.751637 0.778396 0.446722
O O11 0.612543 0.037226 0.548626
O O12 0.063379 0.382557 0.239625
O O13 0.984981 0.692796 0.169359
O O14 0.001633 0.187255 0.121172
#
# Coordination Sequence:
#
# PCOD9125179 Si02
#       7
#     4   4   4   4   4   4   4
#     4  11  24  40  63  84 122 157 208 245 291 349
#     4  10  21  40  63  91 117 156 201 251 293 348
#     4   9  17  33  55  90 121 148 186 245 305 352
#     4  12  28  39  62  88 125 162 201 246 303 353
#     4  10  24  39  62  93 126 154 194 253 310 353
#     4   9  17  31  59  89 117 148 194 244 296 348
#     4  11  26  43  60  86 118 168 207 242 287 358
#
# _framework density 25.096463
#
# number of rings (size 3 to 8) (size 9 to 14) (size 15 to 20)
#    0.000    1.714    2.857    0.429   10.000    0.000 
#    0.000    0.000    0.000    0.857    3.714    0.000 
#    0.000    0.000    0.000    0.000    0.000    0.000 
#
# Total GULP energy -78177.554448 kJ/mol
# GULP energy per Si atom -5584.111032 kJ/mol
# Density = 2.503934 g / cm^3
# Si number density = 25.096463 Si / 1000 Ang^3
#
#
#
# Elastic Constant Matrix: (Units=GPa)
#
#
# Indices 1 2 3 4 5 6 
#
# 1 66.0929 49.5546 41.2762 0.0002 21.8988 0.0033
# 2 49.5546 197.2727 30.8009 0.0011 10.7450 0.0060
# 3 41.2762 30.8009 79.4335 -0.0001 16.6416 -0.0002
# 4 0.0002 0.0011 -0.0001 35.2648 -0.0002 -6.5490
# 5 21.8988 10.7450 16.6416 -0.0002 27.8050 0.0002
# 6 0.0033 0.0060 -0.0002 -6.5490 0.0002 15.0805
#
#
#
# Elastic Compliance Matrix: (Units=1/GPa)
#
#
# Indices 1 2 3 4 5 6 
#
# 1 0.031108 -0.005260 -0.010768 -0.000001 -0.016022 -0.000005
# 2 -0.005260 0.006307 -0.000080 0.000000 0.001753 -0.000002
# 3 -0.010768 -0.000080 0.018788 0.000001 -0.002733 0.000003
# 4 -0.000001 0.000000 0.000001 0.030844 0.000001 0.013395
# 5 -0.016022 0.001753 -0.002733 0.000001 0.049542 0.000003
# 6 -0.000005 -0.000002 0.000003 0.013395 0.000003 0.072128
#
#
# Mechanical properties :
#
#
# Convention : Reuss Voigt Hill
#
# Bulk Modulus (GPa) = 41.68870 65.11807 53.40338
# Shear Modulus (GPa) = 20.08597 30.37455 25.23026
#
# Velocity S-wave (km/s) = 2.83212 3.48273 3.17414
# Velocity P-wave (km/s) = 5.22895 6.49430 5.89567
#
# Compressibility (1/GPa) = 0.02398732
#
# Stress axis : x y z
#
# Youngs Moduli (GPa) = 32.14615 158.54286 53.22505
#
# Poissons Ratio (x) = 0.83398 0.57314
# Poissons Ratio (y) = 0.16910 0.00424
# Poissons Ratio (z) = 0.34616 0.01263
#
# Static dielectric constant tensor:
#      x y z
#    x 1.955080 0.000000 0.039690 
#    y 0.000000 2.120600 0.000000 
#    z 0.039690 0.000000 2.153580 
# 
# From -- ./inp_files/55278.got.cif
#   From: 2010.05.17/outbox.cif.g08.bks.cpg/sg5_28_cif.got.tgz:55278.got - 2010.06.03 18:56:24.
