data_PCOD9125681
_publ_section_title
;
Structure prediction by ZEFSAII (Michael W. Deem and Ramdas Pophale) SiO2 
 PCOD9125681
Probable space group: C 2
;
_chemical_formula_sum "Si O2"
_cell_formula_units_Z 26
_cell_length_a 15.260177
_cell_length_b 11.289402
_cell_length_c 6.237130
_cell_angle_alpha 90.000000
_cell_angle_beta 70.155394
_cell_angle_gamma 90.000000
_cell_volume 1010.713396
_symmetry_space_group_name_H-M "C 2"
_symmetry_group_IT_number 5
_symmetry_cell_setting 'monoclinic'
loop_
_space_group_symop_operation_xyz
x,y,z
-x,y,-z
1/2+x,1/2+y,z
1/2-x,1/2+y,-z
loop_
_atom_site_type_symbol
_atom_site_label
_atom_site_fract_x
_atom_site_fract_y
_atom_site_fract_z
Si Si1 0.152600 0.976420 0.406320
Si Si2 0.171029 0.532215 0.002963
Si Si3 0.000000 0.763308 0.000000
Si Si4 0.809416 0.770564 0.226806
Si Si5 0.871438 0.281767 0.932502
Si Si6 0.000000 0.173297 0.500000
Si Si7 0.500000 0.275114 0.500000
Si Si8 0.259476 0.619579 0.330143
O O1 0.223136 0.999395 0.154628
O O2 0.090061 0.862292 0.427368
O O3 0.084749 0.087835 0.484257
O O4 0.215648 0.998251 0.564460
O O5 0.143706 0.644300 0.886425
O O6 0.116119 0.414442 0.995471
O O7 0.177578 0.579047 0.239111
O O8 0.903877 0.843383 0.100640
O O9 0.000514 0.718821 0.257714
O O10 0.719527 0.791542 0.151971
O O11 0.770364 0.726689 0.487444
O O12 0.962727 0.248248 0.727242
O O13 0.840886 0.180597 0.123235
#
# Coordination Sequence:
#
# PCOD9125681 Si02
#       8
#     4   4   2   4   4   2   2   4
#     4  10  22  42  66 100 136 176 232 298 367 420
#     4  10  22  42  65  96 134 187 234 289 359 436
#     4  12  28  46  70 106 142 188 246 302 352 434
#     4  10  24  45  64  98 133 185 235 298 363 424
#     4  11  23  41  69  98 139 181 239 293 363 435
#     4  11  20  44  59 102 136 168 231 300 357 422
#     4  11  28  40  73 110 136 180 241 296 361 430
#     4  10  21  42  71  89 137 187 227 301 363 430
#
# _framework density 25.724405999999998
#
# number of rings (size 3 to 8) (size 9 to 14) (size 15 to 20)
#    0.000    1.538    4.615    0.923   10.769    1.846 
#    2.769    0.000    0.000    0.000    0.000    0.000 
#    0.000    0.000    0.000    0.000    0.000    0.000 
#
# Total GULP energy -72518.309924 kJ/mol
# GULP energy per Si atom -5578.331533 kJ/mol
# Density = 2.566586 g / cm^3
# Si number density = 25.724406 Si / 1000 Ang^3
#
#
#
# Elastic Constant Matrix: (Units=GPa)
#
#
# Indices 1 2 3 4 5 6 
#
# 1 83.6304 1.8473 31.5464 0.0000 8.1482 0.0000
# 2 1.8473 71.5917 13.3609 0.0000 1.6527 0.0000
# 3 31.5464 13.3609 145.0170 0.0000 -12.8046 0.0000
# 4 0.0000 0.0000 0.0000 30.4401 0.0000 2.6602
# 5 8.1482 1.6527 -12.8046 0.0000 51.4361 0.0000
# 6 0.0000 0.0000 0.0000 2.6602 0.0000 32.9130
#
#
#
# Elastic Compliance Matrix: (Units=1/GPa)
#
#
# Indices 1 2 3 4 5 6 
#
# 1 0.013450 0.000321 -0.003215 0.000000 -0.002941 0.000000
# 2 0.000321 0.014252 -0.001460 0.000000 -0.000872 0.000000
# 3 -0.003215 -0.001460 0.007954 0.000000 0.002536 0.000000
# 4 0.000000 0.000000 0.000000 0.033085 0.000000 -0.002674
# 5 -0.002941 -0.000872 0.002536 0.000000 0.020567 0.000000
# 6 0.000000 0.000000 0.000000 -0.002674 0.000000 0.030599
#
#
# Mechanical properties :
#
#
# Convention : Reuss Voigt Hill
#
# Bulk Modulus (GPa) = 37.10935 43.74982 40.42959
# Shear Modulus (GPa) = 36.33785 39.85681 38.09733
#
# Velocity S-wave (km/s) = 3.76251 3.94048 3.85253
# Velocity P-wave (km/s) = 5.77342 6.14388 5.96153
#
# Compressibility (1/GPa) = 0.02694739
#
# Stress axis : x y z
#
# Youngs Moduli (GPa) = 74.35155 70.16351 125.72955
#
# Poissons Ratio (x) = -0.02251 0.40423
# Poissons Ratio (y) = -0.02386 0.18356
# Poissons Ratio (z) = 0.23904 0.10243
#
# Static dielectric constant tensor:
#      x y z
#    x 2.241350 0.000000 0.024490 
#    y 0.000000 2.111440 0.000000 
#    z 0.024490 0.000000 2.274180 
# 
# From -- ./inp_files/8507.got.cif
#   From: 2010.05.17/outbox.cif.g08.bks.cpg/sg5_5_cif.got.tgz:8507.got - 2010.06.03 18:56:24.
