data_PCOD9125583
_publ_section_title
;
Structure prediction by ZEFSAII (Michael W. Deem and Ramdas Pophale) SiO2 
 PCOD9125583
Probable space group: C 2
;
_chemical_formula_sum "Si O2"
_cell_formula_units_Z 24
_cell_length_a 12.883211
_cell_length_b 12.015850
_cell_length_c 18.790601
_cell_angle_alpha 90.000000
_cell_angle_beta 157.133026
_cell_angle_gamma 90.000000
_cell_volume 1130.353161
_symmetry_space_group_name_H-M "C 2"
_symmetry_group_IT_number 5
_symmetry_cell_setting 'monoclinic'
loop_
_space_group_symop_operation_xyz
x,y,z
-x,y,-z
1/2+x,1/2+y,z
1/2-x,1/2+y,-z
loop_
_atom_site_type_symbol
_atom_site_label
_atom_site_fract_x
_atom_site_fract_y
_atom_site_fract_z
Si Si1 0.500000 0.182560 0.500000
Si Si2 0.023685 0.798443 0.752655
Si Si3 0.039982 0.168257 0.884929
Si Si4 0.663210 0.112694 0.456461
Si Si5 0.219996 0.963012 0.192352
Si Si6 0.798869 0.052635 0.158495
Si Si7 0.500000 0.832073 0.500000
O O1 0.616124 0.104448 0.511425
O O2 0.772445 0.238988 0.696760
O O3 0.959897 0.731553 0.640762
O O4 0.754993 0.774327 0.626847
O O5 0.091318 0.927517 0.786010
O O6 0.265979 0.741347 0.945897
O O7 0.179333 0.122082 0.901387
O O8 0.936170 0.064098 0.866598
O O9 0.466879 0.017134 0.303432
O O10 0.978591 0.102224 0.646467
O O11 0.356796 0.892129 0.341369
O O12 0.000000 0.909936 0.000000
O O13 0.500000 0.051794 0.000000
#
# Coordination Sequence:
#
# PCOD9125583 Si02
#       7
#     2   4   4   4   4   4   2
#     4   8  19  38  68  83 126 166 223 270 318 381
#     4  12  25  41  72  95 130 179 219 270 342 394
#     4  10  21  42  65  97 130 170 220 276 332 397
#     4  10  21  42  65  97 130 170 220 276 332 397
#     4  11  19  42  73  93 127 178 231 277 318 400
#     4  11  25  44  65  96 136 170 216 284 341 385
#     4  12  25  46  66  99 138 172 227 286 326 391
#
# _framework density 21.232303000000002
#
# number of rings (size 3 to 8) (size 9 to 14) (size 15 to 20)
#    0.000    1.333    5.000    2.000    7.000    0.000 
#    6.000    3.333    0.000    0.000    0.000    0.000 
#    0.000    0.000    0.000    0.000    0.000    0.000 
#
# Total GULP energy -66842.048387 kJ/mol
# GULP energy per Si atom -5570.170699 kJ/mol
# Density = 2.118398 g / cm^3
# Si number density = 21.232303 Si / 1000 Ang^3
#
#
#
# Elastic Constant Matrix: (Units=GPa)
#
#
# Indices 1 2 3 4 5 6 
#
# 1 60.1918 0.3230 26.7831 -0.0029 22.0443 -0.0003
# 2 0.3230 32.9839 23.7067 0.0160 -7.4825 0.0068
# 3 26.7831 23.7067 182.8159 0.0289 10.4544 0.0123
# 4 -0.0029 0.0160 0.0289 21.7330 0.0112 5.4803
# 5 22.0443 -7.4825 10.4544 0.0112 38.2272 0.0016
# 6 -0.0003 0.0068 0.0123 5.4803 0.0016 17.6719
#
#
#
# Elastic Compliance Matrix: (Units=1/GPa)
#
#
# Indices 1 2 3 4 5 6 
#
# 1 0.022229 -0.001332 -0.002373 0.000014 -0.012431 -0.000001
# 2 -0.001332 0.036007 -0.004999 -0.000024 0.009183 -0.000004
# 3 -0.002373 -0.004999 0.006546 -0.000004 -0.001400 -0.000001
# 4 0.000014 -0.000024 -0.000004 0.049917 -0.000025 -0.015480
# 5 -0.012431 0.009183 -0.001400 -0.000025 0.035508 0.000002
# 6 -0.000001 -0.000004 -0.000001 -0.015480 0.000002 0.061388
#
#
# Mechanical properties :
#
#
# Convention : Reuss Voigt Hill
#
# Bulk Modulus (GPa) = 21.10870 41.95746 31.53308
# Shear Modulus (GPa) = 20.42529 30.53833 25.48181
#
# Velocity S-wave (km/s) = 3.10496 3.79660 3.46807
# Velocity P-wave (km/s) = 4.77679 6.24684 5.56061
#
# Compressibility (1/GPa) = 0.04737382
#
# Stress axis : x y z
#
# Youngs Moduli (GPa) = 44.98599 27.77219 152.76499
#
# Poissons Ratio (x) = 0.03699 0.36252
# Poissons Ratio (y) = 0.05992 0.76371
# Poissons Ratio (z) = 0.10676 0.13884
#
# Static dielectric constant tensor:
#      x y z
#    x 1.835020 0.000000 -0.017100 
#    y 0.000000 1.784950 -0.000020 
#    z -0.017100 -0.000020 1.851190 
# 
# From -- ./inp_files/66095.got.cif
#   From: 2010.05.17/outbox.cif.g08.bks.cpg/sg5_34_cif.got.tgz:66095.got - 2010.06.03 18:56:24.
