data_PCOD9125599
_publ_section_title
;
Structure prediction by ZEFSAII (Michael W. Deem and Ramdas Pophale) SiO2 
 PCOD9125599
Probable space group: C 2
;
_chemical_formula_sum "Si O2"
_cell_formula_units_Z 32
_cell_length_a 5.228238
_cell_length_b 17.904938
_cell_length_c 21.025803
_cell_angle_alpha 90.000000
_cell_angle_beta 49.992410
_cell_angle_gamma 90.000000
_cell_volume 1507.601106
_symmetry_space_group_name_H-M "C 2"
_symmetry_group_IT_number 5
_symmetry_cell_setting 'monoclinic'
loop_
_space_group_symop_operation_xyz
x,y,z
-x,y,-z
1/2+x,1/2+y,z
1/2-x,1/2+y,-z
loop_
_atom_site_type_symbol
_atom_site_label
_atom_site_fract_x
_atom_site_fract_y
_atom_site_fract_z
Si Si1 0.881322 0.936050 0.241128
Si Si2 0.604542 0.565077 0.555130
Si Si3 0.810926 0.170120 0.699638
Si Si4 0.911275 0.110763 0.213851
Si Si5 0.175749 0.910482 0.598165
Si Si6 0.149571 0.333961 0.912487
Si Si7 0.402306 0.812541 0.292756
Si Si8 0.230592 0.246111 0.125969
O O1 0.798902 0.924274 0.329506
O O2 0.584201 0.891389 0.254443
O O3 0.203838 0.892048 0.162101
O O4 0.905223 0.021605 0.216584
O O5 0.500000 0.561656 0.500000
O O6 0.442716 0.636044 0.613708
O O7 0.496222 0.486552 0.603440
O O8 0.000000 0.569855 0.500000
O O9 0.430759 0.141752 0.762686
O O10 0.027798 0.132973 0.721839
O O11 0.886819 0.257925 0.694973
O O12 0.206228 0.156596 0.131022
O O13 0.500000 0.905196 0.500000
O O14 0.959002 0.835436 0.625075
O O15 0.446679 0.279748 0.890448
O O16 0.867399 0.283664 0.924217
O O17 0.000000 0.370802 0.000000
O O18 0.425887 0.771191 0.221812
#
# Coordination Sequence:
#
# PCOD9125599 Si02
#       8
#     4   4   4   4   4   4   4   4
#     4  11  23  42  67 100 136 176 226 279 344 405
#     4  11  24  42  60  86 126 175 227 285 343 398
#     4  11  23  41  64  89 127 172 232 276 337 397
#     4  11  22  39  69  97 125 175 223 276 333 403
#     4  11  24  40  66  96 133 182 230 285 338 407
#     4  11  23  43  70 101 138 177 216 275 343 412
#     4  10  23  40  65  94 131 176 227 279 338 407
#     4  10  21  42  66  97 132 173 224 267 335 407
#
# _framework density 21.225774999999999
#
# number of rings (size 3 to 8) (size 9 to 14) (size 15 to 20)
#    0.000    1.250    2.500    4.125    7.000    0.000 
#    2.250    1.250    0.000    0.000    0.000    0.000 
#    0.000    0.000    0.000    0.000    0.000    0.000 
#
# Total GULP energy -89247.135353 kJ/mol
# GULP energy per Si atom -5577.945960 kJ/mol
# Density = 2.117746 g / cm^3
# Si number density = 21.225775 Si / 1000 Ang^3
#
#
#
# Elastic Constant Matrix: (Units=GPa)
#
#
# Indices 1 2 3 4 5 6 
#
# 1 91.9430 41.9037 15.9747 0.0000 6.6251 0.0000
# 2 41.9037 137.1283 28.3471 0.0000 -4.7040 0.0000
# 3 15.9747 28.3471 92.1639 0.0000 10.1412 0.0000
# 4 0.0000 0.0000 0.0000 18.5370 0.0000 4.6477
# 5 6.6251 -4.7040 10.1412 0.0000 35.7561 0.0000
# 6 0.0000 0.0000 0.0000 4.6477 0.0000 30.9359
#
#
#
# Elastic Compliance Matrix: (Units=1/GPa)
#
#
# Indices 1 2 3 4 5 6 
#
# 1 0.012981 -0.003904 -0.000751 0.000000 -0.002706 0.000000
# 2 -0.003904 0.009071 -0.002399 0.000000 0.002597 0.000000
# 3 -0.000751 -0.002399 0.012116 0.000000 -0.003613 0.000000
# 4 0.000000 0.000000 0.000000 0.056058 0.000000 -0.008422
# 5 -0.002706 0.002597 -0.003613 0.000000 0.029835 0.000000
# 6 0.000000 0.000000 0.000000 -0.008422 0.000000 0.033590
#
#
# Mechanical properties :
#
#
# Convention : Reuss Voigt Hill
#
# Bulk Modulus (GPa) = 49.85459 54.85403 52.35431
# Shear Modulus (GPa) = 28.66218 32.71310 30.68764
#
# Velocity S-wave (km/s) = 3.67869 3.93007 3.80646
# Velocity P-wave (km/s) = 6.44845 6.81859 6.63610
#
# Compressibility (1/GPa) = 0.02005833
#
# Stress axis : x y z
#
# Youngs Moduli (GPa) = 77.03422 110.24750 82.53663
#
# Poissons Ratio (x) = 0.43044 0.06202
# Poissons Ratio (y) = 0.30076 0.19800
# Poissons Ratio (z) = 0.05789 0.26447
#
# Static dielectric constant tensor:
#      x y z
#    x 1.823120 0.000000 -0.036380 
#    y 0.000000 1.801490 0.000000 
#    z -0.036380 0.000000 1.812440 
# 
# From -- ./inp_files/64113.got.cif
#   From: 2010.05.17/outbox.cif.g08.bks.cpg/sg5_33_cif.got.tgz:64113.got - 2010.06.03 18:56:24.
