data_PCOD9125710
_publ_section_title
;
Structure prediction by ZEFSAII (Michael W. Deem and Ramdas Pophale) SiO2 
 PCOD9125710
Probable space group: C 2
;
_chemical_formula_sum "Si O2"
_cell_formula_units_Z 26
_cell_length_a 12.011173
_cell_length_b 8.989683
_cell_length_c 29.773965
_cell_angle_alpha 90.000000
_cell_angle_beta 25.717524
_cell_angle_gamma 90.000000
_cell_volume 1395.053342
_symmetry_space_group_name_H-M "C 2"
_symmetry_group_IT_number 5
_symmetry_cell_setting 'monoclinic'
loop_
_space_group_symop_operation_xyz
x,y,z
-x,y,-z
1/2+x,1/2+y,z
1/2-x,1/2+y,-z
loop_
_atom_site_type_symbol
_atom_site_label
_atom_site_fract_x
_atom_site_fract_y
_atom_site_fract_z
Si Si1 0.437973 0.865090 0.875755
Si Si2 0.798374 0.790394 0.308724
Si Si3 0.037003 0.986083 0.291769
Si Si4 0.276090 0.306520 0.215696
Si Si5 0.717328 0.653070 0.996474
Si Si6 0.190721 0.528268 0.166150
Si Si7 0.500000 0.873819 0.500000
O O1 0.340562 0.712483 0.932543
O O2 0.320268 0.912956 0.871110
O O3 0.744747 0.886741 0.763395
O O4 0.345996 0.991718 0.944544
O O5 0.715369 0.838450 0.289538
O O6 0.578273 0.783828 0.426839
O O7 0.944462 0.633881 0.252420
O O8 0.992339 0.912091 0.259319
O O9 0.126648 0.155056 0.257444
O O10 0.756901 0.968652 0.415911
O O11 0.209113 0.436600 0.205587
O O12 0.576764 0.261995 0.101584
O O13 0.441740 0.632583 0.073411
#
# Coordination Sequence:
#
# PCOD9125710 Si02
#       7
#     4   4   4   4   4   4   2
#     4  11  22  38  63  90 129 165 208 250 303 375
#     4  10  21  43  64  85 124 162 207 263 312 368
#     4   9  20  42  62  86 121 164 203 259 310 360
#     4  11  24  38  61  97 126 160 209 253 310 374
#     4  11  21  36  60  91 126 173 192 243 308 359
#     4  12  23  39  64  95 130 163 208 256 304 373
#     4   8  20  44  68  84 118 168 210 262 322 366
#
# _framework density 18.637281000000002
#
# number of rings (size 3 to 8) (size 9 to 14) (size 15 to 20)
#    0.923    0.615    6.154    0.462    0.000    1.231 
#    2.769    3.846    0.000    0.000    0.000    0.000 
#    0.000    0.000    0.000    0.000    0.000    0.000 
#
# Total GULP energy -72393.480622 kJ/mol
# GULP energy per Si atom -5568.729279 kJ/mol
# Density = 1.859486 g / cm^3
# Si number density = 18.637281 Si / 1000 Ang^3
#
#
#
# Elastic Constant Matrix: (Units=GPa)
#
#
# Indices 1 2 3 4 5 6 
#
# 1 118.7144 44.9308 35.2735 0.0036 29.9569 0.0000
# 2 44.9308 27.2625 19.2484 0.0032 11.3446 0.0008
# 3 35.2735 19.2484 112.6155 0.0037 3.9574 0.0020
# 4 0.0036 0.0032 0.0037 19.7436 0.0008 4.1276
# 5 29.9569 11.3446 3.9574 0.0008 25.7186 0.0005
# 6 0.0000 0.0008 0.0020 4.1276 0.0005 37.3023
#
#
#
# Elastic Compliance Matrix: (Units=1/GPa)
#
#
# Indices 1 2 3 4 5 6 
#
# 1 0.026114 -0.036015 -0.001521 0.000002 -0.014297 0.000001
# 2 -0.036015 0.100890 -0.005906 -0.000009 -0.001644 -0.000001
# 3 -0.001521 -0.005906 0.010267 -0.000001 0.002797 0.000000
# 4 0.000002 -0.000009 -0.000001 0.051849 0.000000 -0.005737
# 5 -0.014297 -0.001644 0.002797 0.000000 0.055831 -0.000001
# 6 0.000001 -0.000001 0.000000 -0.005737 -0.000001 0.027443
#
#
# Mechanical properties :
#
#
# Convention : Reuss Voigt Hill
#
# Bulk Modulus (GPa) = 19.84623 50.83307 35.33965
# Shear Modulus (GPa) = 13.29525 27.16222 20.22873
#
# Velocity S-wave (km/s) = 2.67379 3.82175 3.29810
# Velocity P-wave (km/s) = 4.49489 6.84167 5.78846
#
# Compressibility (1/GPa) = 0.05038740
#
# Stress axis : x y z
#
# Youngs Moduli (GPa) = 38.29316 9.91179 97.39519
#
# Poissons Ratio (x) = 0.35697 0.14818
# Poissons Ratio (y) = 1.37912 0.57520
# Poissons Ratio (z) = 0.05826 0.05854
#
# Static dielectric constant tensor:
#      x y z
#    x 1.655000 0.000000 -0.007200 
#    y 0.000000 1.651120 0.000000 
#    z -0.007200 0.000000 1.679840 
# 
# From -- ./inp_files/71660.got.cif
#   From: 2010.05.17/outbox.cif.g08.bks.cpg/sg5_36_cif.got.tgz:71660.got - 2010.06.03 18:56:24.
