data_PCOD9125883
_publ_section_title
;
Structure prediction by ZEFSAII (Michael W. Deem and Ramdas Pophale) SiO2 
 PCOD9125883
Probable space group: C 2
;
_chemical_formula_sum "Si O2"
_cell_formula_units_Z 14
_cell_length_a 7.824824
_cell_length_b 19.197317
_cell_length_c 5.215015
_cell_angle_alpha 90.000000
_cell_angle_beta 39.055801
_cell_angle_gamma 90.000000
_cell_volume 493.587642
_symmetry_space_group_name_H-M "C 2"
_symmetry_group_IT_number 5
_symmetry_cell_setting 'monoclinic'
loop_
_space_group_symop_operation_xyz
x,y,z
-x,y,-z
1/2+x,1/2+y,z
1/2-x,1/2+y,-z
loop_
_atom_site_type_symbol
_atom_site_label
_atom_site_fract_x
_atom_site_fract_y
_atom_site_fract_z
Si Si1 0.797688 0.711830 0.037873
Si Si2 0.700277 0.492919 0.982551
Si Si3 0.500000 0.081600 0.000000
Si Si4 0.330084 0.850013 0.957795
O O1 0.500000 0.691392 0.500000
O O2 0.970195 0.640502 0.809721
O O3 0.747499 0.770336 0.886301
O O4 0.000000 0.751131 0.000000
O O5 0.628337 0.412084 0.116846
O O6 0.000000 0.492454 0.500000
O O7 0.500000 0.523791 0.000000
O O8 0.764696 0.530816 0.177482
O O9 0.500000 0.839761 0.500000
O O10 0.500000 0.876675 0.000000
#
# Coordination Sequence:
#
# PCOD9125883 Si02
#       4
#     4   4   2   4
#     4   9  21  40  64  95 136 173 230 276 350 403
#     4  11  25  42  69 101 136 182 234 286 350 416
#     4  10  24  44  68  98 142 176 232 286 356 410
#     4  10  21  45  70 103 136 186 235 290 347 419
#
# _framework density 28.363755999999999
#
# number of rings (size 3 to 8) (size 9 to 14) (size 15 to 20)
#    0.857    1.143    1.429    0.857    4.000    1.143 
#    5.143   14.286    0.000    0.000    0.000    0.000 
#    0.000    0.000    0.000    0.000    0.000    0.000 
#
# Total GULP energy -38971.098683 kJ/mol
# GULP energy per Si atom -5567.299812 kJ/mol
# Density = 2.829920 g / cm^3
# Si number density = 28.363756 Si / 1000 Ang^3
#
#
#
# Elastic Constant Matrix: (Units=GPa)
#
#
# Indices 1 2 3 4 5 6 
#
# 1 235.9938 54.8747 46.5106 0.0000 -16.2371 0.0000
# 2 54.8747 223.4224 -30.1821 0.0000 -5.9930 0.0000
# 3 46.5106 -30.1821 137.6538 0.0000 -1.4216 0.0000
# 4 0.0000 0.0000 0.0000 -7.2691 0.0000 -6.3688
# 5 -16.2371 -5.9930 -1.4216 0.0000 53.3140 0.0000
# 6 0.0000 0.0000 0.0000 -6.3688 0.0000 56.8947
#
#
#
# Elastic Compliance Matrix: (Units=1/GPa)
#
#
# Indices 1 2 3 4 5 6 
#
# 1 0.005073 -0.001484 -0.002026 0.000000 0.001324 0.000000
# 2 -0.001484 0.005063 0.001613 0.000000 0.000160 0.000000
# 3 -0.002026 0.001613 0.008301 0.000000 -0.000214 0.000000
# 4 0.000000 0.000000 0.000000 -0.125281 0.000000 -0.014024
# 5 0.001324 0.000160 -0.000214 0.000000 0.019172 0.000000
# 6 0.000000 0.000000 0.000000 -0.014024 0.000000 0.016006
#
#
# Mechanical properties :
#
#
# Convention : Reuss Voigt Hill
#
# Bulk Modulus (GPa) = 68.29433 82.16405 75.22919
# Shear Modulus (GPa) = -79.37470 55.64571 -11.86449
#
# Velocity S-wave (km/s) = -5.29578 4.43409 -2.04745
# Velocity P-wave (km/s) = 3.64190 7.43275 4.58161
#
# Compressibility (1/GPa) = 0.01464250
#
# Stress axis : x y z
#
# Youngs Moduli (GPa) = 197.12862 197.52936 120.47413
#
# Poissons Ratio (x) = 0.29315 0.24405
# Poissons Ratio (y) = 0.29255 -0.19434
# Poissons Ratio (z) = 0.39933 -0.31864
#
# Static dielectric constant tensor:
#      x y z
#    x 2.230070 0.000000 -0.141750 
#    y 0.000000 2.201100 0.000000 
#    z -0.141750 0.000000 2.763710 
# 
# From -- ./inp_files/519.got.cif
#   From: 2010.05.17/outbox.cif.g08.bks.cpg/sg5_1_cif.got.tgz:519.got - 2010.06.03 18:56:24.
