data_PCOD9125287
_publ_section_title
;
Structure prediction by ZEFSAII (Michael W. Deem and Ramdas Pophale) SiO2 
 PCOD9125287
Probable space group: C 2
;
_chemical_formula_sum "Si O2"
_cell_formula_units_Z 26
_cell_length_a 8.658664
_cell_length_b 15.953957
_cell_length_c 7.445051
_cell_angle_alpha 90.000000
_cell_angle_beta 100.422141
_cell_angle_gamma 90.000000
_cell_volume 1011.491108
_symmetry_space_group_name_H-M "C 2"
_symmetry_group_IT_number 5
_symmetry_cell_setting 'monoclinic'
loop_
_space_group_symop_operation_xyz
x,y,z
-x,y,-z
1/2+x,1/2+y,z
1/2-x,1/2+y,-z
loop_
_atom_site_type_symbol
_atom_site_label
_atom_site_fract_x
_atom_site_fract_y
_atom_site_fract_z
Si Si1 0.323430 0.456050 0.504005
Si Si2 0.627967 0.814032 0.659476
Si Si3 0.195676 0.652342 0.211334
Si Si4 0.500000 0.173358 0.500000
Si Si5 0.532934 0.587499 0.201062
Si Si6 0.272302 0.227745 0.155232
Si Si7 0.623183 0.901120 0.141994
O O1 0.500000 0.424577 0.500000
O O2 0.215580 0.392851 0.593262
O O3 0.358867 0.535041 0.641351
O O4 0.228610 0.455427 0.296193
O O5 0.500000 0.773797 0.500000
O O6 0.759947 0.747731 0.728742
O O7 0.513317 0.848550 0.787439
O O8 0.086622 0.623818 0.355051
O O9 0.364228 0.606837 0.248587
O O10 0.157890 0.669849 0.991583
O O11 0.377441 0.226304 0.355814
O O12 0.617203 0.675026 0.172944
O O13 0.500000 0.544319 0.000000
O O14 0.235787 0.324494 0.098285
O O15 0.500000 0.956942 0.000000
#
# Coordination Sequence:
#
# PCOD9125287 Si02
#       7
#     4   4   4   2   4   4   4
#     4  11  27  43  69 114 151 203 253 316 394 456
#     4  10  21  40  68 104 148 194 247 305 383 459
#     4  11  23  44  76 111 151 197 260 317 390 453
#     4  12  26  36  68 114 158 188 240 330 382 454
#     4  10  24  50  78 105 148 204 262 315 390 474
#     4  11  23  46  76 114 147 201 263 324 383 454
#     4  11  21  45  73 108 152 203 256 316 384 468
#
# _framework density 25.704623999999999
#
# number of rings (size 3 to 8) (size 9 to 14) (size 15 to 20)
#    0.000    1.231    3.077    2.769    6.462    1.231 
#    4.154    0.000    0.000    0.000    0.000    0.000 
#    0.000    0.000    0.000    0.000    0.000    0.000 
#
# Total GULP energy -72545.879520 kJ/mol
# GULP energy per Si atom -5580.452271 kJ/mol
# Density = 2.564612 g / cm^3
# Si number density = 25.704624 Si / 1000 Ang^3
#
#
#
# Elastic Constant Matrix: (Units=GPa)
#
#
# Indices 1 2 3 4 5 6 
#
# 1 116.6383 27.5838 53.2182 0.0000 -9.0672 0.0000
# 2 27.5838 96.1357 38.5682 0.0000 4.4832 0.0000
# 3 53.2182 38.5682 178.7059 0.0000 40.0503 0.0000
# 4 0.0000 0.0000 0.0000 12.4158 0.0000 2.2252
# 5 -9.0672 4.4832 40.0503 0.0000 71.3204 0.0000
# 6 0.0000 0.0000 0.0000 2.2252 0.0000 6.7085
#
#
#
# Elastic Compliance Matrix: (Units=1/GPa)
#
#
# Indices 1 2 3 4 5 6 
#
# 1 0.010959 -0.001840 -0.003666 0.000000 0.003567 0.000000
# 2 -0.001840 0.011733 -0.002021 0.000000 0.000163 0.000000
# 3 -0.003666 -0.002021 0.008236 0.000000 -0.004964 0.000000
# 4 0.000000 0.000000 0.000000 0.085633 0.000000 -0.028404
# 5 0.003567 0.000163 -0.004964 0.000000 0.017252 0.000000
# 6 0.000000 0.000000 0.000000 -0.028404 0.000000 0.158486
#
#
# Mechanical properties :
#
#
# Convention : Reuss Voigt Hill
#
# Bulk Modulus (GPa) = 62.99488 70.02448 66.50968
# Shear Modulus (GPa) = 15.99263 36.22957 26.11110
#
# Velocity S-wave (km/s) = 2.49704 3.75835 3.19064
# Velocity P-wave (km/s) = 5.73359 6.79225 6.28525
#
# Compressibility (1/GPa) = 0.01587431
#
# Stress axis : x y z
#
# Youngs Moduli (GPa) = 91.25270 85.22944 121.41637
#
# Poissons Ratio (x) = 0.15682 0.44509
# Poissons Ratio (y) = 0.16790 0.24537
# Poissons Ratio (z) = 0.33452 0.17224
#
# Static dielectric constant tensor:
#      x y z
#    x 2.049470 0.000000 0.039220 
#    y 0.000000 2.009820 0.000000 
#    z 0.039220 0.000000 2.311060 
# 
# From -- ./inp_files/16171.got.cif
#   From: 2010.05.17/outbox.cif.g08.bks.cpg/sg5_9_cif.got.tgz:16171.got - 2010.06.03 18:56:24.
