data_PCOD9125204
_publ_section_title
;
Structure prediction by ZEFSAII (Michael W. Deem and Ramdas Pophale) SiO2 
 PCOD9125204
Probable space group: C 2
;
_chemical_formula_sum "Si O2"
_cell_formula_units_Z 32
_cell_length_a 15.696178
_cell_length_b 8.813738
_cell_length_c 11.829172
_cell_angle_alpha 90.000000
_cell_angle_beta 83.762908
_cell_angle_gamma 90.000000
_cell_volume 1626.784782
_symmetry_space_group_name_H-M "C 2"
_symmetry_group_IT_number 5
_symmetry_cell_setting 'monoclinic'
loop_
_space_group_symop_operation_xyz
x,y,z
-x,y,-z
1/2+x,1/2+y,z
1/2-x,1/2+y,-z
loop_
_atom_site_type_symbol
_atom_site_label
_atom_site_fract_x
_atom_site_fract_y
_atom_site_fract_z
Si Si1 0.413308 0.845450 0.076185
Si Si2 0.852583 0.036018 0.707382
Si Si3 0.397356 0.792855 0.530110
Si Si4 0.457218 0.281031 0.811158
Si Si5 0.605464 0.205545 0.928880
Si Si6 0.697887 0.802308 0.694982
Si Si7 0.800311 0.280412 0.889066
Si Si8 0.338926 0.043248 0.719521
O O1 0.381539 0.798489 0.204897
O O2 0.417995 0.028203 0.072543
O O3 0.500000 0.790233 0.000000
O O4 0.336236 0.791133 0.008409
O O5 0.923142 0.916386 0.739188
O O6 0.761764 0.946440 0.708304
O O7 0.875453 0.131706 0.592822
O O8 0.850664 0.160181 0.806627
O O9 0.500000 0.804630 0.500000
O O10 0.345321 0.805873 0.421214
O O11 0.364205 0.927842 0.616640
O O12 0.556245 0.282063 0.830859
O O13 0.422696 0.133417 0.750696
O O14 0.417369 0.273116 0.944210
O O15 0.704564 0.225671 0.901044
O O16 0.763371 0.660388 0.698677
O O17 0.808587 0.443136 0.829612
#
# Coordination Sequence:
#
# PCOD9125204 Si02
#       8
#     4   4   4   4   4   4   4   4
#     4  12  24  40  66  97 136 175 219 273 328 407
#     4  10  23  43  65  95 132 170 221 274 322 396
#     4  11  26  42  68  96 130 171 227 284 328 386
#     4  10  21  40  64  91 134 169 214 262 328 392
#     4  11  21  36  63  97 133 170 211 266 324 410
#     4  11  24  43  67  93 131 182 219 272 333 389
#     4  11  22  38  62  96 130 165 215 261 334 386
#     4  10  22  43  67  90 130 173 221 267 327 404
#
# _framework density 19.670703
#
# number of rings (size 3 to 8) (size 9 to 14) (size 15 to 20)
#    0.000    1.250    3.750    2.250    5.250    1.000 
#    2.250    2.500    0.000    0.000    0.000    0.000 
#    0.000    0.000    0.000    0.000    0.000    0.000 
#
# Total GULP energy -89312.879619 kJ/mol
# GULP energy per Si atom -5582.054976 kJ/mol
# Density = 1.962593 g / cm^3
# Si number density = 19.670703 Si / 1000 Ang^3
#
#
#
# Elastic Constant Matrix: (Units=GPa)
#
#
# Indices 1 2 3 4 5 6 
#
# 1 88.2379 19.3221 33.3385 0.0000 7.0388 0.0000
# 2 19.3221 75.8199 35.2459 0.0000 7.6015 0.0000
# 3 33.3385 35.2459 128.3816 0.0000 20.5149 0.0000
# 4 0.0000 0.0000 0.0000 1.8139 0.0000 10.0544
# 5 7.0388 7.6015 20.5149 0.0000 40.6587 0.0000
# 6 0.0000 0.0000 0.0000 10.0544 0.0000 3.4288
#
#
#
# Elastic Compliance Matrix: (Units=1/GPa)
#
#
# Indices 1 2 3 4 5 6 
#
# 1 0.012826 -0.001958 -0.002716 0.000000 -0.000484 0.000000
# 2 -0.001958 0.015441 -0.003615 0.000000 -0.000724 0.000000
# 3 -0.002716 -0.003615 0.010120 0.000000 -0.003960 0.000000
# 4 0.000000 0.000000 0.000000 -0.036142 0.000000 0.105980
# 5 -0.000484 -0.000724 -0.003960 0.000000 0.026812 0.000000
# 6 0.000000 0.000000 0.000000 0.105980 0.000000 -0.019120
#
#
# Mechanical properties :
#
#
# Convention : Reuss Voigt Hill
#
# Bulk Modulus (GPa) = 45.85070 52.02804 48.93937
# Shear Modulus (GPa) = 147.99295 22.81581 85.40438
#
# Velocity S-wave (km/s) = 8.68323 3.40941 6.59631
# Velocity P-wave (km/s) = 11.13064 6.48118 9.10760
#
# Compressibility (1/GPa) = 0.02180992
#
# Stress axis : x y z
#
# Youngs Moduli (GPa) = 77.96382 64.76188 98.81520
#
# Poissons Ratio (x) = 0.12678 0.26838
# Poissons Ratio (y) = 0.15262 0.35724
# Poissons Ratio (z) = 0.21175 0.23413
#
# Static dielectric constant tensor:
#      x y z
#    x 1.714410 0.000000 -0.026280 
#    y 0.000000 1.704510 0.000000 
#    z -0.026280 0.000000 1.666120 
# 
# From -- ./inp_files/41963.got.cif
#   From: 2010.05.17/outbox.cif.g08.bks.cpg/sg5_21_cif.got.tgz:41963.got - 2010.06.03 18:56:24.
