data_PCOD9125105
_publ_section_title
;
Structure prediction by ZEFSAII (Michael W. Deem and Ramdas Pophale) SiO2 
 PCOD9125105
Probable space group: C 2
;
_chemical_formula_sum "Si O2"
_cell_formula_units_Z 30
_cell_length_a 19.358956
_cell_length_b 8.015930
_cell_length_c 18.346149
_cell_angle_alpha 90.000000
_cell_angle_beta 25.953891
_cell_angle_gamma 90.000000
_cell_volume 1245.963765
_symmetry_space_group_name_H-M "C 2"
_symmetry_group_IT_number 5
_symmetry_cell_setting 'monoclinic'
loop_
_space_group_symop_operation_xyz
x,y,z
-x,y,-z
1/2+x,1/2+y,z
1/2-x,1/2+y,-z
loop_
_atom_site_type_symbol
_atom_site_label
_atom_site_fract_x
_atom_site_fract_y
_atom_site_fract_z
Si Si1 0.327548 0.086950 0.637513
Si Si2 0.900340 0.629135 0.001879
Si Si3 0.136645 0.944054 0.326975
Si Si4 0.859655 0.217025 0.870776
Si Si5 0.921648 0.857737 0.784185
Si Si6 0.351337 0.903731 0.467910
Si Si7 0.144386 0.605694 0.663371
Si Si8 0.000000 0.927939 0.000000
O O1 0.500000 0.017228 0.500000
O O2 0.332372 0.280211 0.654625
O O3 0.329028 0.040359 0.551060
O O4 0.165656 0.020475 0.827714
O O5 0.801629 0.537915 0.157923
O O6 0.768173 0.673817 0.068889
O O7 0.038084 0.533258 0.828640
O O8 0.972307 0.802663 0.959399
O O9 0.068975 0.890808 0.311303
O O10 0.000000 0.042821 0.500000
O O11 0.975787 0.350045 0.723792
O O12 0.936389 0.035875 0.812174
O O13 0.758741 0.292814 0.032042
O O14 0.031174 0.716787 0.717111
O O15 0.278480 0.968296 0.461021
O O16 0.272007 0.734751 0.570961
#
# Coordination Sequence:
#
# PCOD9125105 Si02
#       8
#     4   4   4   4   4   4   4   2
#     4  11  25  45  70 100 136 183 235 286 346 419
#     4  10  23  43  63  95 133 176 225 279 344 408
#     4  10  22  42  68 101 132 179 232 281 343 416
#     4  10  21  39  70  96 133 175 223 285 342 410
#     4  10  21  40  66 101 132 175 222 280 346 414
#     4  12  23  43  65 101 131 181 224 286 347 408
#     4  11  23  42  64  98 139 170 228 283 348 413
#     4  12  24  44  66  96 140 184 228 284 346 420
#
# _framework density 24.077748
#
# number of rings (size 3 to 8) (size 9 to 14) (size 15 to 20)
#    0.000    1.333    1.333    5.600    0.000    5.333 
#    9.600    0.000    0.000    0.000    0.000    0.000 
#    0.000    0.000    0.000    0.000    0.000    0.000 
#
# Total GULP energy -83816.209923 kJ/mol
# GULP energy per Si atom -5587.747328 kJ/mol
# Density = 2.402295 g / cm^3
# Si number density = 24.077748 Si / 1000 Ang^3
#
#
#
# Elastic Constant Matrix: (Units=GPa)
#
#
# Indices 1 2 3 4 5 6 
#
# 1 33.8790 -1.0704 23.6786 -0.0001 10.1413 0.0000
# 2 -1.0704 69.6713 34.6867 -0.0002 6.9989 0.0001
# 3 23.6786 34.6867 198.5948 -0.0002 18.8944 0.0001
# 4 -0.0001 -0.0002 -0.0002 32.5689 0.0001 -2.3568
# 5 10.1413 6.9989 18.8944 0.0001 38.9819 0.0000
# 6 0.0000 0.0001 0.0001 -2.3568 0.0000 28.5013
#
#
#
# Elastic Compliance Matrix: (Units=1/GPa)
#
#
# Indices 1 2 3 4 5 6 
#
# 1 0.034704 0.003287 -0.003980 0.000000 -0.007689 0.000000
# 2 0.003287 0.016123 -0.002989 0.000000 -0.002301 0.000000
# 3 -0.003980 -0.002989 0.006167 0.000000 -0.001417 0.000000
# 4 0.000000 0.000000 0.000000 0.030889 0.000000 0.002554
# 5 -0.007689 -0.002301 -0.001417 0.000000 0.028753 0.000000
# 6 0.000000 0.000000 0.000000 0.002554 0.000000 0.035297
#
#
# Mechanical properties :
#
#
# Convention : Reuss Voigt Hill
#
# Bulk Modulus (GPa) = 20.14916 46.30388 33.22652
# Shear Modulus (GPa) = 28.43474 36.33378 32.38426
#
# Velocity S-wave (km/s) = 3.44023 3.88882 3.67139
# Velocity P-wave (km/s) = 4.91597 6.27986 5.63930
#
# Compressibility (1/GPa) = 0.04962987
#
# Stress axis : x y z
#
# Youngs Moduli (GPa) = 28.81482 62.02353 162.15772
#
# Poissons Ratio (x) = -0.20389 0.64546
# Poissons Ratio (y) = -0.09472 0.48470
# Poissons Ratio (z) = 0.11470 0.18539
#
# Static dielectric constant tensor:
#      x y z
#    x 1.990430 0.000000 -0.031680 
#    y 0.000000 1.927740 0.000000 
#    z -0.031680 0.000000 2.007750 
# 
# From -- ./inp_files/67361.got.cif
#   From: 2010.05.17/outbox.cif.g08.bks.cpg/sg5_34_cif.got.tgz:67361.got - 2010.06.03 18:56:24.
