data_PCOD9125539
_publ_section_title
;
Structure prediction by ZEFSAII (Michael W. Deem and Ramdas Pophale) SiO2 
 PCOD9125539
Probable space group: C 2
;
_chemical_formula_sum "Si O2"
_cell_formula_units_Z 24
_cell_length_a 11.831514
_cell_length_b 8.497910
_cell_length_c 23.560015
_cell_angle_alpha 90.000000
_cell_angle_beta 152.499867
_cell_angle_gamma 90.000000
_cell_volume 1093.794029
_symmetry_space_group_name_H-M "C 2"
_symmetry_group_IT_number 5
_symmetry_cell_setting 'monoclinic'
loop_
_space_group_symop_operation_xyz
x,y,z
-x,y,-z
1/2+x,1/2+y,z
1/2-x,1/2+y,-z
loop_
_atom_site_type_symbol
_atom_site_label
_atom_site_fract_x
_atom_site_fract_y
_atom_site_fract_z
Si Si1 0.703400 0.200100 0.702031
Si Si2 0.150219 0.683846 0.902822
Si Si3 0.500000 0.481775 0.000000
Si Si4 0.735504 0.369426 0.215500
Si Si5 0.426972 0.925162 0.883099
Si Si6 0.000000 0.609970 0.500000
Si Si7 0.023454 0.106491 0.750475
O O1 0.667131 0.038965 0.721125
O O2 0.726966 0.352074 0.750833
O O3 0.517776 0.207767 0.566465
O O4 0.963611 0.182874 0.784526
O O5 0.247695 0.580549 0.894022
O O6 0.077562 0.561915 0.919737
O O7 0.914154 0.795965 0.798048
O O8 0.389647 0.785987 0.021859
O O9 0.458596 0.391415 0.922803
O O10 0.920977 0.242712 0.271157
O O11 0.258869 0.996496 0.857448
O O12 0.263444 0.525734 0.618629
#
# Coordination Sequence:
#
# PCOD9125539 Si02
#       7
#     4   4   2   4   4   2   4
#     4  10  21  42  61  88 120 158 203 263 288 369
#     4  11  23  37  57  94 122 166 193 238 292 387
#     4  12  22  34  58  88 122 156 194 238 288 370
#     4  11  23  38  61  86 127 157 202 239 310 353
#     4  11  20  41  62  87 129 159 200 241 310 351
#     4   8  22  42  64  88 116 156 222 242 324 336
#     4   9  23  40  62  87 118 164 199 263 296 359
#
# _framework density 21.941973000000001
#
# number of rings (size 3 to 8) (size 9 to 14) (size 15 to 20)
#    1.000    0.667    3.333    1.000    2.333    1.333 
#    0.000    0.000    0.000    3.000    0.000    0.000 
#    0.000    0.000    0.000    0.000    0.000    0.000 
#
# Total GULP energy -66861.661845 kJ/mol
# GULP energy per Si atom -5571.805154 kJ/mol
# Density = 2.189203 g / cm^3
# Si number density = 21.941973 Si / 1000 Ang^3
#
#
#
# Elastic Constant Matrix: (Units=GPa)
#
#
# Indices 1 2 3 4 5 6 
#
# 1 80.0342 15.9142 13.4889 0.0000 13.8135 0.0000
# 2 15.9142 65.7953 23.5048 -0.0001 3.9933 -0.0001
# 3 13.4889 23.5048 77.4994 -0.0002 1.7689 0.0001
# 4 0.0000 -0.0001 -0.0002 18.7816 0.0001 -0.1723
# 5 13.8135 3.9933 1.7689 0.0001 39.3227 0.0000
# 6 0.0000 -0.0001 0.0001 -0.1723 0.0000 18.4151
#
#
#
# Elastic Compliance Matrix: (Units=1/GPa)
#
#
# Indices 1 2 3 4 5 6 
#
# 1 0.014064 -0.002563 -0.001565 0.000000 -0.004610 0.000000
# 2 -0.002563 0.017601 -0.004877 0.000000 -0.000668 0.000000
# 3 -0.001565 -0.004877 0.014646 0.000000 0.000386 0.000000
# 4 0.000000 0.000000 0.000000 0.053248 0.000000 0.000498
# 5 -0.004610 -0.000668 0.000386 0.000000 0.027100 0.000000
# 6 0.000000 0.000000 0.000000 0.000498 0.000000 0.054308
#
#
# Mechanical properties :
#
#
# Convention : Reuss Voigt Hill
#
# Bulk Modulus (GPa) = 35.33444 36.57162 35.95303
# Shear Modulus (GPa) = 23.99103 26.66528 25.32816
#
# Velocity S-wave (km/s) = 3.31022 3.48985 3.40122
# Velocity P-wave (km/s) = 5.54515 5.73954 5.64318
#
# Compressibility (1/GPa) = 0.02830100
#
# Stress axis : x y z
#
# Youngs Moduli (GPa) = 71.10529 56.81398 68.27746
#
# Poissons Ratio (x) = 0.14559 0.10688
# Poissons Ratio (y) = 0.18222 0.33299
# Poissons Ratio (z) = 0.11131 0.27708
#
# Static dielectric constant tensor:
#      x y z
#    x 1.815320 0.000000 0.008820 
#    y 0.000000 1.859380 0.000000 
#    z 0.008820 0.000000 1.814490 
# 
# From -- ./inp_files/48374.got.cif
#   From: 2010.05.17/outbox.cif.g08.bks.cpg/sg5_25_cif.got.tgz:48374.got - 2010.06.03 18:56:24.
