data_PCOD9125261
_publ_section_title
;
Structure prediction by ZEFSAII (Michael W. Deem and Ramdas Pophale) SiO2 
 PCOD9125261
Probable space group: C 2
;
_chemical_formula_sum "Si O2"
_cell_formula_units_Z 20
_cell_length_a 9.360107
_cell_length_b 23.680038
_cell_length_c 8.003214
_cell_angle_alpha 90.000000
_cell_angle_beta 148.274119
_cell_angle_gamma 90.000000
_cell_volume 932.812597
_symmetry_space_group_name_H-M "C 2"
_symmetry_group_IT_number 5
_symmetry_cell_setting 'monoclinic'
loop_
_space_group_symop_operation_xyz
x,y,z
-x,y,-z
1/2+x,1/2+y,z
1/2-x,1/2+y,-z
loop_
_atom_site_type_symbol
_atom_site_label
_atom_site_fract_x
_atom_site_fract_y
_atom_site_fract_z
Si Si1 0.252393 0.820110 0.876697
Si Si2 0.957388 0.053241 0.657017
Si Si3 0.232422 0.725496 0.124576
Si Si4 0.258834 0.441327 0.133104
Si Si5 0.941049 0.619470 0.251756
O O1 0.263449 0.881300 0.981672
O O2 0.000000 0.809997 0.500000
O O3 0.500000 0.826251 0.000000
O O4 0.304163 0.767762 0.048001
O O5 0.649957 0.070276 0.398224
O O6 0.000000 0.061821 0.500000
O O7 0.106842 0.992919 0.835802
O O8 0.137707 0.096248 0.939748
O O9 0.500000 0.711243 0.500000
O O10 0.072279 0.671884 0.887678
O O11 0.000000 0.756204 0.000000
O O12 0.500000 0.428336 0.500000
O O13 0.000000 0.455776 0.000000
O O14 0.000000 0.636228 0.500000
#
# Coordination Sequence:
#
# PCOD9125261 Si02
#       5
#     4   4   4   4   4
#     4  10  21  40  66  94 125 164 207 253 306 370
#     4  11  21  39  64  89 119 160 208 254 300 363
#     4  12  25  42  63  90 125 166 210 259 312 368
#     4   9  18  35  63  94 123 160 206 250 302 370
#     4  12  25  40  59  87 123 164 206 256 311 363
#
# _framework density 21.440535000000001
#
# number of rings (size 3 to 8) (size 9 to 14) (size 15 to 20)
#    0.000    1.200    0.000    8.400    0.000    1.600 
#    0.000    3.000    0.000    0.000    0.000    0.000 
#    0.000    0.000    0.000    0.000    0.000    0.000 
#
# Total GULP energy -55696.592880 kJ/mol
# GULP energy per Si atom -5569.659288 kJ/mol
# Density = 2.139174 g / cm^3
# Si number density = 21.440535 Si / 1000 Ang^3
#
#
#
# Elastic Constant Matrix: (Units=GPa)
#
#
# Indices 1 2 3 4 5 6 
#
# 1 50.1259 18.7554 24.6982 0.0000 -8.4960 0.0000
# 2 18.7554 97.1233 9.2934 0.0000 -6.8817 0.0000
# 3 24.6982 9.2934 114.7835 0.0000 1.3673 0.0000
# 4 0.0000 0.0000 0.0000 19.6360 0.0000 6.2616
# 5 -8.4960 -6.8817 1.3673 0.0000 38.3592 0.0000
# 6 0.0000 0.0000 0.0000 6.2616 0.0000 13.9070
#
#
#
# Elastic Compliance Matrix: (Units=1/GPa)
#
#
# Indices 1 2 3 4 5 6 
#
# 1 0.024764 -0.003946 -0.005068 0.000000 0.004958 0.000000
# 2 -0.003946 0.011144 -0.000067 0.000000 0.001128 0.000000
# 3 -0.005068 -0.000067 0.009826 0.000000 -0.001485 0.000000
# 4 0.000000 0.000000 0.000000 0.059465 0.000000 -0.026774
# 5 0.004958 0.001128 -0.001485 0.000000 0.027423 0.000000
# 6 0.000000 0.000000 0.000000 -0.026774 0.000000 0.083961
#
#
# Mechanical properties :
#
#
# Convention : Reuss Voigt Hill
#
# Bulk Modulus (GPa) = 36.26799 40.83630 38.55214
# Shear Modulus (GPa) = 20.49733 28.33283 24.41508
#
# Velocity S-wave (km/s) = 3.09529 3.63913 3.37818
# Velocity P-wave (km/s) = 5.45223 6.06180 5.76507
#
# Compressibility (1/GPa) = 0.02757253
#
# Stress axis : x y z
#
# Youngs Moduli (GPa) = 40.38186 89.73068 101.77458
#
# Poissons Ratio (x) = 0.35407 0.51580
# Poissons Ratio (y) = 0.15934 0.00679
# Poissons Ratio (z) = 0.20466 0.00598
#
# Static dielectric constant tensor:
#      x y z
#    x 1.845190 0.000000 -0.012500 
#    y 0.000000 1.910960 0.000000 
#    z -0.012500 0.000000 1.719110 
# 
# From -- ./inp_files/3202.got.cif
#   From: 2010.05.17/outbox.cif.g08.bks.cpg/sg5_2_cif.got.tgz:3202.got - 2010.06.03 18:56:24.
