data_PCOD9125447
_publ_section_title
;
Structure prediction by ZEFSAII (Michael W. Deem and Ramdas Pophale) SiO2 
 PCOD9125447
Probable space group: C 2
;
_chemical_formula_sum "Si O2"
_cell_formula_units_Z 26
_cell_length_a 18.795991
_cell_length_b 5.089420
_cell_length_c 12.735544
_cell_angle_alpha 90.000000
_cell_angle_beta 58.872802
_cell_angle_gamma 90.000000
_cell_volume 1042.883610
_symmetry_space_group_name_H-M "C 2"
_symmetry_group_IT_number 5
_symmetry_cell_setting 'monoclinic'
loop_
_space_group_symop_operation_xyz
x,y,z
-x,y,-z
1/2+x,1/2+y,z
1/2-x,1/2+y,-z
loop_
_atom_site_type_symbol
_atom_site_label
_atom_site_fract_x
_atom_site_fract_y
_atom_site_fract_z
Si Si1 0.549391 0.311600 0.754084
Si Si2 0.103903 0.472002 0.157805
Si Si3 0.835282 0.491811 0.113808
Si Si4 0.816969 0.413215 0.349377
Si Si5 0.000000 0.854846 0.000000
Si Si6 0.643930 0.495364 0.259998
Si Si7 0.627175 0.535579 0.512436
O O1 0.487000 0.068626 0.806270
O O2 0.643955 0.204624 0.694199
O O3 0.513097 0.488644 0.876735
O O4 0.553356 0.399168 0.631550
O O5 0.098862 0.207485 0.224558
O O6 0.139293 0.711000 0.205002
O O7 0.156113 0.403681 0.013297
O O8 0.836814 0.303601 0.216367
O O9 0.740607 0.590976 0.192861
O O10 0.914944 0.685156 0.060480
O O11 0.718978 0.402912 0.441764
O O12 0.857748 0.284658 0.421229
O O13 0.609025 0.531660 0.403709
#
# Coordination Sequence:
#
# PCOD9125447 Si02
#       7
#     4   4   4   4   2   4   4
#     4  10  22  42  65  95 136 172 224 285 334 408
#     4  11  25  47  67 102 136 186 233 277 339 405
#     4   9  20  43  72  98 137 175 230 287 339 404
#     4  10  21  41  66  99 132 174 230 284 353 399
#     4   8  18  42  66  98 128 168 224 278 354 380
#     4  11  26  44  70  99 139 187 230 274 338 417
#     4  11  23  40  67 101 134 181 227 288 347 414
#
# _framework density 24.930876000000001
#
# number of rings (size 3 to 8) (size 9 to 14) (size 15 to 20)
#    0.000    1.846    1.538    0.923    4.308    0.615 
#    8.308    0.769    0.000    0.000    0.000    0.000 
#    0.000    0.000    0.000    0.000    0.000    0.000 
#
# Total GULP energy -72407.035743 kJ/mol
# GULP energy per Si atom -5569.771980 kJ/mol
# Density = 2.487413 g / cm^3
# Si number density = 24.930876 Si / 1000 Ang^3
#
#
#
# Elastic Constant Matrix: (Units=GPa)
#
#
# Indices 1 2 3 4 5 6 
#
# 1 77.5784 14.5354 37.2015 0.0000 -3.1003 -0.0001
# 2 14.5354 59.7014 60.5332 0.0016 4.7585 0.0009
# 3 37.2015 60.5332 330.1646 -0.0003 26.4144 0.0001
# 4 0.0000 0.0016 -0.0003 16.8785 0.0003 -4.9461
# 5 -3.1003 4.7585 26.4144 0.0003 52.7146 0.0011
# 6 -0.0001 0.0009 0.0001 -4.9461 0.0011 34.4540
#
#
#
# Elastic Compliance Matrix: (Units=1/GPa)
#
#
# Indices 1 2 3 4 5 6 
#
# 1 0.013999 -0.002219 -0.001305 0.000000 0.001677 0.000000
# 2 -0.002219 0.020927 -0.003568 -0.000002 -0.000232 -0.000001
# 3 -0.001305 -0.003568 0.003969 0.000000 -0.001744 0.000000
# 4 0.000000 -0.000002 0.000000 0.061849 -0.000001 0.008879
# 5 0.001677 -0.000232 -0.001744 -0.000001 0.019963 -0.000001
# 6 0.000000 -0.000001 0.000000 0.008879 -0.000001 0.030299
#
#
# Mechanical properties :
#
#
# Convention : Reuss Voigt Hill
#
# Bulk Modulus (GPa) = 40.46791 76.88718 58.67754
# Shear Modulus (GPa) = 28.83065 44.48771 36.65918
#
# Velocity S-wave (km/s) = 3.40431 4.22885 3.83878
# Velocity P-wave (km/s) = 5.63203 7.39941 6.57537
#
# Compressibility (1/GPa) = 0.02471094
#
# Stress axis : x y z
#
# Youngs Moduli (GPa) = 71.43568 47.78590 251.92122
#
# Poissons Ratio (x) = 0.10604 0.32867
# Poissons Ratio (y) = 0.15852 0.89890
# Poissons Ratio (z) = 0.09320 0.17051
#
# Static dielectric constant tensor:
#      x y z
#    x 2.049600 0.000000 0.134520 
#    y 0.000000 2.073940 0.000000 
#    z 0.134520 0.000000 2.061270 
# 
# From -- ./inp_files/45400.got.cif
#   From: 2010.05.17/outbox.cif.g08.bks.cpg/sg5_23_cif.got.tgz:45400.got - 2010.06.03 18:56:24.
