data_PCOD9125212
_publ_section_title
;
Structure prediction by ZEFSAII (Michael W. Deem and Ramdas Pophale) SiO2 
 PCOD9125212
Probable space group: C 2
;
_chemical_formula_sum "Si O2"
_cell_formula_units_Z 32
_cell_length_a 22.956484
_cell_length_b 7.823831
_cell_length_c 12.843839
_cell_angle_alpha 90.000000
_cell_angle_beta 42.419250
_cell_angle_gamma 90.000000
_cell_volume 1556.087896
_symmetry_space_group_name_H-M "C 2"
_symmetry_group_IT_number 5
_symmetry_cell_setting 'monoclinic'
loop_
_space_group_symop_operation_xyz
x,y,z
-x,y,-z
1/2+x,1/2+y,z
1/2-x,1/2+y,-z
loop_
_atom_site_type_symbol
_atom_site_label
_atom_site_fract_x
_atom_site_fract_y
_atom_site_fract_z
Si Si1 0.322350 0.937090 0.995185
Si Si2 0.498788 0.347566 0.717965
Si Si3 0.932332 0.549432 0.661164
Si Si4 0.296055 0.370575 0.555570
Si Si5 0.571270 0.158329 0.984799
Si Si6 0.271280 0.256297 0.351678
Si Si7 0.772200 0.551360 0.729795
Si Si8 0.828505 0.049313 0.949103
O O1 0.311538 0.736673 0.016525
O O2 0.390047 0.950410 0.811188
O O3 0.366932 0.028083 0.033454
O O4 0.232880 0.017183 0.069554
O O5 0.475323 0.212094 0.658937
O O6 0.599692 0.384752 0.573866
O O7 0.427054 0.497255 0.801594
O O8 0.477085 0.263038 0.859509
O O9 0.855585 0.599200 0.686482
O O10 0.000000 0.452010 0.500000
O O11 0.276267 0.305937 0.465470
O O12 0.259886 0.561235 0.619400
O O13 0.255877 0.224505 0.684510
O O14 0.634069 0.265993 0.826503
O O15 0.500000 0.079873 0.000000
O O16 0.212768 0.398891 0.372511
O O17 0.710480 0.455553 0.897579
#
# Coordination Sequence:
#
# PCOD9125212 Si02
#       8
#     4   4   4   4   4   4   4   4
#     4  10  23  39  68  98 131 173 225 273 333 398
#     4  11  23  43  69  95 134 172 225 280 332 390
#     4  10  21  40  64  94 132 175 213 277 342 389
#     4  12  25  44  68 102 137 176 226 280 338 406
#     4  11  22  43  69  94 130 180 225 269 334 397
#     4  12  25  42  69 100 135 183 225 273 342 406
#     4  11  23  43  69  92 136 183 220 273 341 398
#     4  11  22  44  67  98 132 173 226 279 326 401
#
# _framework density 20.564388999999998
#
# number of rings (size 3 to 8) (size 9 to 14) (size 15 to 20)
#    0.000    1.000    5.000    3.000    1.750    1.000 
#    2.250    1.250    0.000    0.000    0.000    0.000 
#    0.000    0.000    0.000    0.000    0.000    0.000 
#
# Total GULP energy -89180.344493 kJ/mol
# GULP energy per Si atom -5573.771531 kJ/mol
# Density = 2.051758 g / cm^3
# Si number density = 20.564389 Si / 1000 Ang^3
#
#
#
# Elastic Constant Matrix: (Units=GPa)
#
#
# Indices 1 2 3 4 5 6 
#
# 1 132.6929 28.5313 29.1398 0.0000 18.7444 0.0000
# 2 28.5313 58.2570 0.1267 0.0001 0.9075 0.0002
# 3 29.1398 0.1267 81.0941 0.0001 -0.3747 0.0000
# 4 0.0000 0.0001 0.0001 14.1146 0.0000 -2.2839
# 5 18.7444 0.9075 -0.3747 0.0000 28.8819 -0.0001
# 6 0.0000 0.0002 0.0000 -2.2839 -0.0001 16.9957
#
#
#
# Elastic Compliance Matrix: (Units=1/GPa)
#
#
# Indices 1 2 3 4 5 6 
#
# 1 0.010361 -0.004963 -0.003746 0.000000 -0.006617 0.000000
# 2 -0.004963 0.019551 0.001765 0.000000 0.002630 0.000000
# 3 -0.003746 0.001765 0.013686 0.000000 0.002553 0.000000
# 4 0.000000 0.000000 0.000000 0.072423 0.000000 0.009732
# 5 -0.006617 0.002630 0.002553 0.000000 0.038869 0.000000
# 6 0.000000 0.000000 0.000000 0.009732 0.000000 0.060146
#
#
# Mechanical properties :
#
#
# Convention : Reuss Voigt Hill
#
# Bulk Modulus (GPa) = 33.65791 43.07107 38.36449
# Shear Modulus (GPa) = 20.93566 26.28151 23.60859
#
# Velocity S-wave (km/s) = 3.19416 3.57881 3.39194
# Velocity P-wave (km/s) = 5.47779 6.16985 5.83409
#
# Compressibility (1/GPa) = 0.02971070
#
# Stress axis : x y z
#
# Youngs Moduli (GPa) = 96.51999 51.14805 73.06552
#
# Poissons Ratio (x) = 0.25384 0.27368
# Poissons Ratio (y) = 0.47902 -0.12896
# Poissons Ratio (z) = 0.36154 -0.09027
#
# Static dielectric constant tensor:
#      x y z
#    x 1.731730 0.000000 0.034020 
#    y 0.000000 1.786350 0.000000 
#    z 0.034020 0.000000 2.079440 
# 
# From -- ./inp_files/46136.got.cif
#   From: 2010.05.17/outbox.cif.g08.bks.cpg/sg5_24_cif.got.tgz:46136.got - 2010.06.03 18:56:24.
