data_PCOD9125962
_publ_section_title
;
Structure prediction by ZEFSAII (Michael W. Deem and Ramdas Pophale) SiO2 
 PCOD9125962
Probable space group: C 2
;
_chemical_formula_sum "Si O2"
_cell_formula_units_Z 18
_cell_length_a 11.911260
_cell_length_b 7.035924
_cell_length_c 14.599941
_cell_angle_alpha 90.000000
_cell_angle_beta 40.454611
_cell_angle_gamma 90.000000
_cell_volume 793.909896
_symmetry_space_group_name_H-M "C 2"
_symmetry_group_IT_number 5
_symmetry_cell_setting 'monoclinic'
loop_
_space_group_symop_operation_xyz
x,y,z
-x,y,-z
1/2+x,1/2+y,z
1/2-x,1/2+y,-z
loop_
_atom_site_type_symbol
_atom_site_label
_atom_site_fract_x
_atom_site_fract_y
_atom_site_fract_z
Si Si1 0.686401 0.905740 0.854081
Si Si2 0.500000 0.530494 0.000000
Si Si3 0.661003 0.870887 0.672545
Si Si4 0.484746 0.492208 0.810489
Si Si5 0.642121 0.009519 0.485002
O O1 0.713407 0.973814 0.733394
O O2 0.835571 0.948478 0.832298
O O3 0.500000 0.983274 0.000000
O O4 0.657059 0.675452 0.876366
O O5 0.544460 0.427779 0.066993
O O6 0.508935 0.722690 0.795270
O O7 0.606370 0.970222 0.613218
O O8 0.821819 0.733618 0.548645
O O9 0.671192 0.422253 0.658608
O O10 0.500000 0.947318 0.500000
#
# Coordination Sequence:
#
# PCOD9125962 Si02
#       5
#     4   2   4   4   4
#     4   9  18  37  59  80 112 147 183 232 281 324
#     4   8  18  38  56  82 112 138 192 230 272 342
#     4   9  22  37  58  84 115 144 190 226 276 334
#     4   9  20  36  60  81 112 147 185 231 276 328
#     4  10  22  36  56  84 114 148 185 227 275 330
#
# _framework density 22.672599999999999
#
# number of rings (size 3 to 8) (size 9 to 14) (size 15 to 20)
#    2.000    0.889    0.000    0.000    3.111    3.556 
#    0.000    2.222    0.000    0.000    0.000    0.000 
#    0.000    0.000    0.000    0.000    0.000    0.000 
#
# Total GULP energy -50125.815824 kJ/mol
# GULP energy per Si atom -5569.535092 kJ/mol
# Density = 2.262100 g / cm^3
# Si number density = 22.672600 Si / 1000 Ang^3
#
#
#
# Elastic Constant Matrix: (Units=GPa)
#
#
# Indices 1 2 3 4 5 6 
#
# 1 281.5953 26.7493 104.4666 0.0000 38.0842 0.0000
# 2 26.7493 18.7907 13.9414 0.0000 8.9860 0.0000
# 3 104.4666 13.9414 113.3596 0.0000 50.4356 0.0000
# 4 0.0000 0.0000 0.0000 15.8403 0.0000 6.6171
# 5 38.0842 8.9860 50.4356 0.0000 57.1508 0.0000
# 6 0.0000 0.0000 0.0000 6.6171 0.0000 23.8766
#
#
#
# Elastic Compliance Matrix: (Units=1/GPa)
#
#
# Indices 1 2 3 4 5 6 
#
# 1 0.005859 -0.005067 -0.005587 0.000000 0.001823 0.000000
# 2 -0.005067 0.063718 -0.000349 0.000000 -0.006334 0.000000
# 3 -0.005587 -0.000349 0.020305 0.000000 -0.014141 0.000000
# 4 0.000000 0.000000 0.000000 0.071396 0.000000 -0.019787
# 5 0.001823 -0.006334 -0.014141 0.000000 0.029758 0.000000
# 6 0.000000 0.000000 0.000000 -0.019787 0.000000 0.047366
#
#
# Mechanical properties :
#
#
# Convention : Reuss Voigt Hill
#
# Bulk Modulus (GPa) = 14.73262 78.22892 46.48077
# Shear Modulus (GPa) = 17.66585 37.27942 27.47263
#
# Velocity S-wave (km/s) = 2.79439 4.05933 3.48474
# Velocity P-wave (km/s) = 4.11383 7.51994 6.06107
#
# Compressibility (1/GPa) = 0.06787657
#
# Stress axis : x y z
#
# Youngs Moduli (GPa) = 170.68947 15.69404 49.24980
#
# Poissons Ratio (x) = 0.07952 0.27516
# Poissons Ratio (y) = 0.86482 0.01718
# Poissons Ratio (z) = 0.95364 0.00548
#
# Static dielectric constant tensor:
#      x y z
#    x 1.827160 0.000000 0.013060 
#    y 0.000000 1.954160 0.000000 
#    z 0.013060 0.000000 1.886510 
# 
# From -- ./inp_files/35131.got.cif
#   From: 2010.05.17/outbox.cif.g08.bks.cpg/sg5_18_cif.got.tgz:35131.got - 2010.06.03 18:56:24.
