data_PCOD9125758
_publ_section_title
;
Structure prediction by ZEFSAII (Michael W. Deem and Ramdas Pophale) SiO2 
 PCOD9125758
Probable space group: C 2
;
_chemical_formula_sum "Si O2"
_cell_formula_units_Z 28
_cell_length_a 7.052396
_cell_length_b 9.422057
_cell_length_c 21.696176
_cell_angle_alpha 90.000000
_cell_angle_beta 130.677929
_cell_angle_gamma 90.000000
_cell_volume 1093.340964
_symmetry_space_group_name_H-M "C 2"
_symmetry_group_IT_number 5
_symmetry_cell_setting 'monoclinic'
loop_
_space_group_symop_operation_xyz
x,y,z
-x,y,-z
1/2+x,1/2+y,z
1/2-x,1/2+y,-z
loop_
_atom_site_type_symbol
_atom_site_label
_atom_site_fract_x
_atom_site_fract_y
_atom_site_fract_z
Si Si1 0.779495 0.917370 0.684636
Si Si2 0.997746 0.120236 0.817435
Si Si3 0.673149 0.629085 0.616030
Si Si4 0.673014 0.912891 0.262815
Si Si5 0.269859 0.767154 0.022623
Si Si6 0.059370 0.557862 0.896747
Si Si7 0.386837 0.124688 0.537000
O O1 0.693851 0.754231 0.670048
O O2 0.052092 0.928413 0.709847
O O3 0.578433 0.002479 0.599815
O O4 0.834953 0.985627 0.763224
O O5 0.029847 0.181382 0.893048
O O6 0.278609 0.090056 0.856840
O O7 0.891846 0.248476 0.753533
O O8 0.808201 0.488848 0.668016
O O9 0.809574 0.696884 0.585113
O O10 0.391182 0.582257 0.543149
O O11 0.469220 0.994319 0.177279
O O12 0.341404 0.931180 0.038836
O O13 0.000000 0.759176 0.000000
O O14 0.221379 0.695564 0.946621
O O15 0.500000 0.198389 0.500000
#
# Coordination Sequence:
#
# PCOD9125758 Si02
#       7
#     4   4   4   4   4   4   4
#     4  11  23  43  67 100 134 174 234 282 342 416
#     4   9  20  39  66  94 138 181 220 283 347 400
#     4  11  26  44  70 102 132 182 236 279 352 416
#     4  10  21  43  68  96 138 180 227 288 343 410
#     4   9  18  37  59  92 133 176 229 280 341 403
#     4   9  19  36  63  94 132 180 225 282 340 406
#     4  11  25  46  66 100 138 177 223 292 346 412
#
# _framework density 25.609580000000001
#
# number of rings (size 3 to 8) (size 9 to 14) (size 15 to 20)
#    0.000    2.000    1.429    0.857    2.000    4.571 
#    5.143   17.857    0.000    0.000    0.000    0.000 
#    0.000    0.000    0.000    0.000    0.000    0.000 
#
# Total GULP energy -78283.451128 kJ/mol
# GULP energy per Si atom -5591.675081 kJ/mol
# Density = 2.555129 g / cm^3
# Si number density = 25.609580 Si / 1000 Ang^3
#
#
#
# Elastic Constant Matrix: (Units=GPa)
#
#
# Indices 1 2 3 4 5 6 
#
# 1 109.5972 11.2141 29.3005 0.0000 6.8393 0.0000
# 2 11.2141 69.2724 66.6571 0.0000 9.8188 0.0000
# 3 29.3005 66.6571 129.1102 0.0000 23.0616 0.0000
# 4 0.0000 0.0000 0.0000 21.2857 0.0000 -0.3301
# 5 6.8393 9.8188 23.0616 0.0000 45.6094 0.0000
# 6 0.0000 0.0000 0.0000 -0.3301 0.0000 20.5960
#
#
#
# Elastic Compliance Matrix: (Units=1/GPa)
#
#
# Indices 1 2 3 4 5 6 
#
# 1 0.009760 0.001076 -0.002713 0.000000 -0.000324 0.000000
# 2 0.001076 0.028893 -0.015413 0.000000 0.001412 0.000000
# 3 -0.002713 -0.015413 0.017207 0.000000 -0.004976 0.000000
# 4 0.000000 0.000000 0.000000 0.046991 0.000000 0.000753
# 5 -0.000324 0.001412 -0.004976 0.000000 0.024186 0.000000
# 6 0.000000 0.000000 0.000000 0.000753 0.000000 0.048565
#
#
# Mechanical properties :
#
#
# Convention : Reuss Voigt Hill
#
# Bulk Modulus (GPa) = 45.95549 58.03592 51.99570
# Shear Modulus (GPa) = 23.04628 30.88542 26.96585
#
# Velocity S-wave (km/s) = 3.00310 3.47653 3.24845
# Velocity P-wave (km/s) = 5.47800 6.23105 5.86662
#
# Compressibility (1/GPa) = 0.02176019
#
# Stress axis : x y z
#
# Youngs Moduli (GPa) = 102.46293 34.61082 58.11516
#
# Poissons Ratio (x) = -0.03725 0.15765
# Poissons Ratio (y) = -0.11027 0.89574
# Poissons Ratio (z) = 0.27795 0.53346
#
# Static dielectric constant tensor:
#      x y z
#    x 2.051500 0.000000 -0.035190 
#    y 0.000000 1.954760 0.000000 
#    z -0.035190 0.000000 1.994650 
# 
# From -- ./inp_files/70117.got.cif
#   From: 2010.05.17/outbox.cif.g08.bks.cpg/sg5_36_cif.got.tgz:70117.got - 2010.06.03 18:56:24.
