data_PCOD9125006
_publ_section_title
;
Structure prediction by ZEFSAII (Michael W. Deem and Ramdas Pophale) SiO2 
 PCOD9125006
Probable space group: C 2
;
_chemical_formula_sum "Si O2"
_cell_formula_units_Z 32
_cell_length_a 26.892751
_cell_length_b 14.262950
_cell_length_c 9.534986
_cell_angle_alpha 90.000000
_cell_angle_beta 27.758226
_cell_angle_gamma 90.000000
_cell_volume 1703.372599
_symmetry_space_group_name_H-M "C 2"
_symmetry_group_IT_number 5
_symmetry_cell_setting 'monoclinic'
loop_
_space_group_symop_operation_xyz
x,y,z
-x,y,-z
1/2+x,1/2+y,z
1/2-x,1/2+y,-z
loop_
_atom_site_type_symbol
_atom_site_label
_atom_site_fract_x
_atom_site_fract_y
_atom_site_fract_z
Si Si1 0.503745 0.503150 0.821216
Si Si2 0.318315 0.863806 0.733107
Si Si3 0.680257 0.367727 0.814951
Si Si4 0.514967 0.210550 0.132470
Si Si5 0.671476 0.351638 0.356598
Si Si6 0.330519 0.863549 0.198022
Si Si7 0.500426 0.014076 0.330182
Si Si8 0.993002 0.221451 0.185963
O O1 0.605364 0.447616 0.508146
O O2 0.510230 0.612257 0.771935
O O3 0.500000 0.491594 0.000000
O O4 0.399454 0.452182 0.021795
O O5 0.216793 0.869529 0.883958
O O6 0.393902 0.955762 0.552452
O O7 0.392575 0.779081 0.494344
O O8 0.269377 0.844806 0.006952
O O9 0.790736 0.380413 0.454573
O O10 0.618410 0.272816 0.920138
O O11 0.413973 0.269181 0.441965
O O12 0.513338 0.109907 0.211262
O O13 0.500000 0.204758 0.000000
O O14 0.722418 0.351246 0.382565
O O15 0.400731 0.947255 0.959752
O O16 0.402697 0.771399 0.012539
O O17 0.500000 0.028716 0.500000
O O18 0.000000 0.230864 0.000000
#
# Coordination Sequence:
#
# PCOD9125006 Si02
#       8
#     4   4   4   4   4   4   4   4
#     4  10  21  39  64  92 121 158 207 254 300 363
#     4  11  25  41  62  92 127 164 205 255 313 368
#     4  11  22  41  65  92 124 165 208 250 310 366
#     4  11  25  41  64  97 127 161 213 260 308 375
#     4  11  22  43  63  87 128 165 202 252 313 370
#     4  11  21  41  64  85 124 165 204 252 308 365
#     4  11  26  42  62  93 128 165 211 261 313 368
#     4  10  22  38  62  94 121 153 208 256 301 363
#
# _framework density 18.786259999999999
#
# number of rings (size 3 to 8) (size 9 to 14) (size 15 to 20)
#    0.000    1.250    5.000    0.750    3.500    5.500 
#    0.000    1.250    0.000    0.000    0.000    0.000 
#    0.000    0.000    0.000    0.000    0.000    0.000 
#
# Total GULP energy -89329.771793 kJ/mol
# GULP energy per Si atom -5583.110737 kJ/mol
# Density = 1.874350 g / cm^3
# Si number density = 18.786260 Si / 1000 Ang^3
#
#
#
# Elastic Constant Matrix: (Units=GPa)
#
#
# Indices 1 2 3 4 5 6 
#
# 1 55.6454 48.4958 -5.0271 0.0000 -11.8213 0.0000
# 2 48.4958 160.9814 53.4581 0.0000 -4.7933 0.0000
# 3 -5.0271 53.4581 79.7568 0.0000 -0.9203 0.0000
# 4 0.0000 0.0000 0.0000 9.1227 0.0000 8.2217
# 5 -11.8213 -4.7933 -0.9203 0.0000 35.9638 0.0000
# 6 0.0000 0.0000 0.0000 8.2217 0.0000 17.9252
#
#
#
# Elastic Compliance Matrix: (Units=1/GPa)
#
#
# Indices 1 2 3 4 5 6 
#
# 1 0.032301 -0.013081 0.010909 0.000000 0.009153 0.000000
# 2 -0.013081 0.013319 -0.009784 0.000000 -0.002775 0.000000
# 3 0.010909 -0.009784 0.019816 0.000000 0.002789 0.000000
# 4 0.000000 0.000000 0.000000 0.186858 0.000000 -0.085706
# 5 0.009153 -0.002775 0.002789 0.000000 0.030516 0.000000
# 6 0.000000 0.000000 0.000000 -0.085706 0.000000 0.095098
#
#
# Mechanical properties :
#
#
# Convention : Reuss Voigt Hill
#
# Bulk Modulus (GPa) = 24.08190 54.47080 39.27635
# Shear Modulus (GPa) = 12.02905 25.89946 18.96425
#
# Velocity S-wave (km/s) = 2.53318 3.71703 3.18067
# Velocity P-wave (km/s) = 4.62631 6.89055 5.86866
#
# Compressibility (1/GPa) = 0.04152496
#
# Stress axis : x y z
#
# Youngs Moduli (GPa) = 30.95854 75.08155 50.46544
#
# Poissons Ratio (x) = 0.98214 -0.55054
# Poissons Ratio (y) = 0.40497 0.49374
# Poissons Ratio (z) = -0.33774 0.73457
#
# Static dielectric constant tensor:
#      x y z
#    x 1.644080 0.000000 -0.001790 
#    y 0.000000 1.618500 0.000000 
#    z -0.001790 0.000000 1.619500 
# 
# From -- ./inp_files/31042.got.cif
#   From: 2010.05.17/outbox.cif.g08.bks.cpg/sg5_16_cif.got.tgz:31042.got - 2010.06.03 18:56:24.
