data_PCOD9125915
_publ_section_title
;
Structure prediction by ZEFSAII (Michael W. Deem and Ramdas Pophale) SiO2 
 PCOD9125915
Probable space group: C 2
;
_chemical_formula_sum "Si O2"
_cell_formula_units_Z 14
_cell_length_a 8.945804
_cell_length_b 11.826896
_cell_length_c 8.793520
_cell_angle_alpha 90.000000
_cell_angle_beta 144.900253
_cell_angle_gamma 90.000000
_cell_volume 534.960844
_symmetry_space_group_name_H-M "C 2"
_symmetry_group_IT_number 5
_symmetry_cell_setting 'monoclinic'
loop_
_space_group_symop_operation_xyz
x,y,z
-x,y,-z
1/2+x,1/2+y,z
1/2-x,1/2+y,-z
loop_
_atom_site_type_symbol
_atom_site_label
_atom_site_fract_x
_atom_site_fract_y
_atom_site_fract_z
Si Si1 0.386263 0.301990 0.201207
Si Si2 0.939690 0.563997 0.607247
Si Si3 0.055946 0.233993 0.376516
Si Si4 0.000000 0.469707 0.000000
O O1 0.376716 0.175086 0.257111
O O2 0.689493 0.315182 0.416797
O O3 0.252950 0.390022 0.200738
O O4 0.194154 0.295172 0.898275
O O5 0.000000 0.497820 0.500000
O O6 0.650952 0.619585 0.371633
O O7 0.989911 0.529407 0.826115
O O8 0.000000 0.199450 0.500000
#
# Coordination Sequence:
#
# PCOD9125915 Si02
#       4
#     4   4   4   2
#     4  10  24  44  74 110 156 195 247 319 372 441
#     4  10  24  47  77 116 149 200 255 310 377 455
#     4  10  21  46  79 107 153 201 244 314 380 438
#     4  12  24  48  80 116 148 206 250 314 378 452
#
# _framework density 26.17014
#
# number of rings (size 3 to 8) (size 9 to 14) (size 15 to 20)
#    1.714    0.000    0.000    4.286    0.000    1.143 
#   15.429    2.857    6.286    0.000    0.000    0.000 
#    0.000    0.000    0.000    0.000    0.000    0.000 
#
# Total GULP energy -39055.678992 kJ/mol
# GULP energy per Si atom -5579.382713 kJ/mol
# Density = 2.611058 g / cm^3
# Si number density = 26.170140 Si / 1000 Ang^3
#
#
#
# Elastic Constant Matrix: (Units=GPa)
#
#
# Indices 1 2 3 4 5 6 
#
# 1 201.5501 45.8784 64.6003 0.0006 -51.9715 0.0004
# 2 45.8784 63.1568 10.9035 0.0001 -22.0089 0.0000
# 3 64.6003 10.9035 160.3133 0.0008 -11.2280 0.0007
# 4 0.0006 0.0001 0.0008 5.9904 0.0005 18.6922
# 5 -51.9715 -22.0089 -11.2280 0.0005 59.1789 0.0005
# 6 0.0004 0.0000 0.0007 18.6922 0.0005 36.3966
#
#
#
# Elastic Compliance Matrix: (Units=1/GPa)
#
#
# Indices 1 2 3 4 5 6 
#
# 1 0.007922 -0.003509 -0.002592 0.000001 0.005160 0.000000
# 2 -0.003509 0.019841 0.000370 0.000000 0.004368 0.000000
# 3 -0.002592 0.000370 0.007203 0.000001 -0.000772 0.000000
# 4 0.000001 0.000000 0.000001 -0.277057 0.000002 0.142288
# 5 0.005160 0.004368 -0.000772 0.000002 0.022907 -0.000001
# 6 0.000000 0.000000 0.000000 0.142288 -0.000001 -0.045600
#
#
# Mechanical properties :
#
#
# Convention : Reuss Voigt Hill
#
# Bulk Modulus (GPa) = 42.54543 74.19830 58.37186
# Shear Modulus (GPa) = -20.36754 40.55570 10.09408
#
# Velocity S-wave (km/s) = -2.79278 3.94089 1.96608
# Velocity P-wave (km/s) = 2.42755 7.00866 5.24473
#
# Compressibility (1/GPa) = 0.02350428
#
# Stress axis : x y z
#
# Youngs Moduli (GPa) = 126.23671 50.40192 138.83035
#
# Poissons Ratio (x) = 0.17685 0.35986
# Poissons Ratio (y) = 0.44293 -0.05142
# Poissons Ratio (z) = 0.32721 -0.01867
#
# Static dielectric constant tensor:
#      x y z
#    x 2.037280 0.000000 -0.039530 
#    y 0.000000 2.218420 0.000000 
#    z -0.039530 0.000000 2.136650 
# 
# From -- ./inp_files/14495.got.cif
#   From: 2010.05.17/outbox.cif.g08.bks.cpg/sg5_8_cif.got.tgz:14495.got - 2010.06.03 18:56:24.
