data_PCOD9125397
_publ_section_title
;
Structure prediction by ZEFSAII (Michael W. Deem and Ramdas Pophale) SiO2 
 PCOD9125397
Probable space group: C 2
;
_chemical_formula_sum "Si O2"
_cell_formula_units_Z 24
_cell_length_a 28.610615
_cell_length_b 5.196654
_cell_length_c 15.455716
_cell_angle_alpha 90.000000
_cell_angle_beta 155.984070
_cell_angle_gamma 90.000000
_cell_volume 935.243128
_symmetry_space_group_name_H-M "C 2"
_symmetry_group_IT_number 5
_symmetry_cell_setting 'monoclinic'
loop_
_space_group_symop_operation_xyz
x,y,z
-x,y,-z
1/2+x,1/2+y,z
1/2-x,1/2+y,-z
loop_
_atom_site_type_symbol
_atom_site_label
_atom_site_fract_x
_atom_site_fract_y
_atom_site_fract_z
Si Si1 0.692009 0.701340 0.298440
Si Si2 0.845937 0.204167 0.577839
Si Si3 0.860036 0.849466 0.127579
Si Si4 0.290677 0.714233 0.860109
Si Si5 0.643958 0.597062 0.708607
Si Si6 0.450494 0.924715 0.587950
O O1 0.744305 0.415231 0.395410
O O2 0.618525 0.734421 0.261551
O O3 0.644050 0.726850 0.120660
O O4 0.793060 0.919636 0.473676
O O5 0.932843 0.285522 0.649704
O O6 0.887334 0.883256 0.274915
O O7 0.949608 0.634603 0.246020
O O8 0.723912 0.784182 0.899483
O O9 0.856665 0.078277 0.050602
O O10 0.237487 0.985056 0.799155
O O11 0.172751 0.559017 0.640129
O O12 0.545304 0.726078 0.485149
#
# Coordination Sequence:
#
# PCOD9125397 Si02
#       6
#     4   4   4   4   4   4
#     4   9  17  33  65 102 136 180 231 299 362 436
#     4   9  17  34  63 105 134 174 244 296 353 439
#     4  11  24  43  65  99 143 188 236 309 360 433
#     4  10  21  41  64  99 140 182 236 295 371 430
#     4  11  22  44  64  95 140 185 241 293 371 434
#     4  10  23  41  67 101 135 187 248 296 358 445
#
# _framework density 25.66178
#
# number of rings (size 3 to 8) (size 9 to 14) (size 15 to 20)
#    0.000    2.000    3.333    0.000    0.000    2.000 
#    3.000    0.000    0.000    1.000   13.000    0.000 
#    0.000    0.000    0.000    0.000    0.000    0.000 
#
# Total GULP energy -67089.773622 kJ/mol
# GULP energy per Si atom -5590.814469 kJ/mol
# Density = 2.560337 g / cm^3
# Si number density = 25.661780 Si / 1000 Ang^3
#
#
#
# Elastic Constant Matrix: (Units=GPa)
#
#
# Indices 1 2 3 4 5 6 
#
# 1 146.9240 4.5840 48.3822 0.0000 -27.3445 0.0000
# 2 4.5840 69.9148 15.1029 0.0000 -2.2903 0.0000
# 3 48.3822 15.1029 142.5583 0.0000 -26.5207 0.0000
# 4 0.0000 0.0000 0.0000 43.8161 0.0000 1.2771
# 5 -27.3445 -2.2903 -26.5207 0.0000 52.1957 0.0000
# 6 0.0000 0.0000 0.0000 1.2771 0.0000 47.1841
#
#
#
# Elastic Compliance Matrix: (Units=1/GPa)
#
#
# Indices 1 2 3 4 5 6 
#
# 1 0.008105 0.000040 -0.002170 0.000000 0.003145 0.000000
# 2 0.000040 0.014640 -0.001592 0.000000 -0.000145 0.000000
# 3 -0.002170 -0.001592 0.008499 0.000000 0.003112 0.000000
# 4 0.000000 0.000000 0.000000 0.022841 0.000000 -0.000618
# 5 0.003145 -0.000145 0.003112 0.000000 0.022381 0.000000
# 6 0.000000 0.000000 0.000000 -0.000618 0.000000 0.021210
#
#
# Mechanical properties :
#
#
# Convention : Reuss Voigt Hill
#
# Bulk Modulus (GPa) = 42.01548 55.05947 48.53747
# Shear Modulus (GPa) = 44.22787 48.06103 46.14445
#
# Velocity S-wave (km/s) = 4.15600 4.33236 4.24509
# Velocity P-wave (km/s) = 6.27998 6.82115 6.55615
#
# Compressibility (1/GPa) = 0.02380075
#
# Stress axis : x y z
#
# Youngs Moduli (GPa) = 123.38239 68.30810 117.66706
#
# Poissons Ratio (x) = -0.00276 0.25532
# Poissons Ratio (y) = -0.00498 0.18728
# Poissons Ratio (z) = 0.26772 0.10872
#
# Static dielectric constant tensor:
#      x y z
#    x 2.065900 0.000000 0.015550 
#    y 0.000000 2.142020 0.000000 
#    z 0.015550 0.000000 2.033880 
# 
# From -- ./inp_files/58334.got.cif
#   From: 2010.05.17/outbox.cif.g08.bks.cpg/sg5_30_cif.got.tgz:58334.got - 2010.06.03 18:56:24.
