data_PCOD9125365
_publ_section_title
;
Structure prediction by ZEFSAII (Michael W. Deem and Ramdas Pophale) SiO2 
 PCOD9125365
Probable space group: C 2
;
_chemical_formula_sum "Si O2"
_cell_formula_units_Z 28
_cell_length_a 7.512220
_cell_length_b 11.686368
_cell_length_c 15.688684
_cell_angle_alpha 90.000000
_cell_angle_beta 55.037434
_cell_angle_gamma 90.000000
_cell_volume 1128.749142
_symmetry_space_group_name_H-M "C 2"
_symmetry_group_IT_number 5
_symmetry_cell_setting 'monoclinic'
loop_
_space_group_symop_operation_xyz
x,y,z
-x,y,-z
1/2+x,1/2+y,z
1/2-x,1/2+y,-z
loop_
_atom_site_type_symbol
_atom_site_label
_atom_site_fract_x
_atom_site_fract_y
_atom_site_fract_z
Si Si1 0.258486 0.731390 0.935676
Si Si2 0.327323 0.720086 0.468305
Si Si3 0.721827 0.484837 0.992572
Si Si4 0.986602 0.787637 0.691501
Si Si5 0.143247 0.337964 0.272593
Si Si6 0.936067 0.572285 0.774459
Si Si7 0.923358 0.009696 0.615592
O O1 0.288726 0.848745 0.988112
O O2 0.342968 0.771070 0.819796
O O3 0.325629 0.598342 0.936230
O O4 0.000000 0.722482 0.000000
O O5 0.500000 0.726683 0.500000
O O6 0.096858 0.739137 0.574359
O O7 0.410873 0.814272 0.379744
O O8 0.385659 0.598249 0.411025
O O9 0.905259 0.538328 0.880234
O O10 0.500000 0.472479 0.000000
O O11 0.168703 0.805747 0.713660
O O12 0.835541 0.692736 0.774899
O O13 0.895554 0.908050 0.689124
O O14 0.169994 0.470561 0.247926
O O15 0.190249 0.571165 0.679295
O O16 0.000000 0.973685 0.500000
#
# Coordination Sequence:
#
# PCOD9125365 Si02
#       7
#     4   4   4   4   4   4   4
#     4  10  22  43  67  93 128 166 219 272 331 389
#     4   9  18  37  61  84 127 168 203 252 303 369
#     4  10  24  45  66  93 131 168 216 281 326 389
#     4  11  22  41  64  92 132 171 211 260 315 381
#     4  10  21  41  63  87 129 172 207 259 320 379
#     4  11  22  42  63  94 129 163 217 266 317 383
#     4  11  21  41  64  92 135 171 212 262 312 377
#
# _framework density 24.806222000000002
#
# number of rings (size 3 to 8) (size 9 to 14) (size 15 to 20)
#    0.000    1.714    4.286    1.714    0.000    2.857 
#   15.429    0.000    0.000    0.000    0.000    0.000 
#    0.000    0.000    0.000    0.000    0.000    0.000 
#
# Total GULP energy -78094.511629 kJ/mol
# GULP energy per Si atom -5578.179402 kJ/mol
# Density = 2.474976 g / cm^3
# Si number density = 24.806222 Si / 1000 Ang^3
#
#
#
# Elastic Constant Matrix: (Units=GPa)
#
#
# Indices 1 2 3 4 5 6 
#
# 1 38.6093 21.0162 12.2423 -0.0001 4.6306 0.0000
# 2 21.0162 160.9547 18.5887 0.0000 33.8229 0.0000
# 3 12.2423 18.5887 51.1984 0.0000 -7.4835 0.0000
# 4 -0.0001 0.0000 0.0000 45.3194 0.0000 3.4413
# 5 4.6306 33.8229 -7.4835 0.0000 23.1593 0.0000
# 6 0.0000 0.0000 0.0000 3.4413 0.0000 26.8138
#
#
#
# Elastic Compliance Matrix: (Units=1/GPa)
#
#
# Indices 1 2 3 4 5 6 
#
# 1 0.029907 -0.001896 -0.007276 0.000000 -0.005562 0.000000
# 2 -0.001896 0.010793 -0.005997 0.000000 -0.017321 0.000000
# 3 -0.007276 -0.005997 0.026178 0.000000 0.018672 0.000000
# 4 0.000000 0.000000 0.000000 0.022283 0.000000 -0.002860
# 5 -0.005562 -0.017321 0.018672 0.000000 0.075622 0.000000
# 6 0.000000 0.000000 0.000000 -0.002860 0.000000 0.037661
#
#
# Mechanical properties :
#
#
# Convention : Reuss Voigt Hill
#
# Bulk Modulus (GPa) = 27.36702 39.38409 33.37555
# Shear Modulus (GPa) = 20.41141 32.31953 26.36547
#
# Velocity S-wave (km/s) = 2.87162 3.61346 3.26369
# Velocity P-wave (km/s) = 4.69587 5.77240 5.26174
#
# Compressibility (1/GPa) = 0.03654034
#
# Stress axis : x y z
#
# Youngs Moduli (GPa) = 33.43750 92.65272 38.19965
#
# Poissons Ratio (x) = 0.17566 0.27793
# Poissons Ratio (y) = 0.06340 0.22909
# Poissons Ratio (z) = 0.24328 0.55565
#
# Static dielectric constant tensor:
#      x y z
#    x 1.972490 0.000000 -0.021530 
#    y 0.000000 2.085280 0.000000 
#    z -0.021530 0.000000 2.085730 
# 
# From -- ./inp_files/50414.got.cif
#   From: 2010.05.17/outbox.cif.g08.bks.cpg/sg5_26_cif.got.tgz:50414.got - 2010.06.03 18:56:24.
