data_PCOD9125164
_publ_section_title
;
Structure prediction by ZEFSAII (Michael W. Deem and Ramdas Pophale) SiO2 
 PCOD9125164
Probable space group: C 2
;
_chemical_formula_sum "Si O2"
_cell_formula_units_Z 28
_cell_length_a 21.532570
_cell_length_b 7.454148
_cell_length_c 12.774846
_cell_angle_alpha 90.000000
_cell_angle_beta 32.107665
_cell_angle_gamma 90.000000
_cell_volume 1089.839506
_symmetry_space_group_name_H-M "C 2"
_symmetry_group_IT_number 5
_symmetry_cell_setting 'monoclinic'
loop_
_space_group_symop_operation_xyz
x,y,z
-x,y,-z
1/2+x,1/2+y,z
1/2-x,1/2+y,-z
loop_
_atom_site_type_symbol
_atom_site_label
_atom_site_fract_x
_atom_site_fract_y
_atom_site_fract_z
Si Si1 0.874672 0.919340 0.921441
Si Si2 0.000000 0.228566 0.500000
Si Si3 0.450423 0.834408 0.796984
Si Si4 0.500000 0.624634 0.000000
Si Si5 0.597271 0.328848 0.706198
Si Si6 0.703285 0.430404 0.193275
Si Si7 0.259009 0.618985 0.261107
Si Si8 0.341149 0.968821 0.378901
O O1 0.820347 0.858735 0.890500
O O2 0.994264 0.813209 0.770042
O O3 0.906140 0.129402 0.860063
O O4 0.791325 0.946115 0.141463
O O5 0.990041 0.349804 0.619052
O O6 0.886418 0.093272 0.655067
O O7 0.554738 0.843704 0.732563
O O8 0.343554 0.963052 0.984949
O O9 0.449074 0.488182 0.157586
O O10 0.382925 0.709355 0.120383
O O11 0.726968 0.389258 0.489342
O O12 0.612509 0.143416 0.746086
O O13 0.689779 0.268242 0.294833
O O14 0.197799 0.547682 0.452104
#
# Coordination Sequence:
#
# PCOD9125164 Si02
#       8
#     4   2   4   2   4   4   4   4
#     4   9  20  41  64  87 135 170 217 277 328 405
#     4  10  24  44  66  94 144 180 222 284 340 404
#     4  10  23  42  62  97 128 178 219 279 337 400
#     4   8  18  42  64  90 136 174 212 284 336 400
#     4  10  21  40  62  93 125 173 218 273 344 397
#     4  10  22  42  66  99 131 181 220 274 337 408
#     4   9  20  38  65  96 125 174 222 267 340 399
#     4  11  23  39  65  95 128 171 222 282 336 412
#
# _framework density 25.691856999999999
#
# number of rings (size 3 to 8) (size 9 to 14) (size 15 to 20)
#    0.000    2.286    0.000    0.857    6.000    4.571 
#    5.143    1.429    0.000    0.000    0.000    0.000 
#    0.000    0.000    0.000    0.000    0.000    0.000 
#
# Total GULP energy -78225.859966 kJ/mol
# GULP energy per Si atom -5587.561426 kJ/mol
# Density = 2.563338 g / cm^3
# Si number density = 25.691857 Si / 1000 Ang^3
#
#
#
# Elastic Constant Matrix: (Units=GPa)
#
#
# Indices 1 2 3 4 5 6 
#
# 1 68.4397 12.1149 19.9516 -0.0001 -24.1198 0.0000
# 2 12.1149 71.9237 40.5503 -0.0002 -15.1854 0.0000
# 3 19.9516 40.5503 130.6794 -0.0004 -4.6046 0.0001
# 4 -0.0001 -0.0002 -0.0004 36.6932 0.0001 -12.1648
# 5 -24.1198 -15.1854 -4.6046 0.0001 52.4959 0.0001
# 6 0.0000 0.0000 0.0001 -12.1648 0.0001 42.4062
#
#
#
# Elastic Compliance Matrix: (Units=1/GPa)
#
#
# Indices 1 2 3 4 5 6 
#
# 1 0.018210 0.000076 -0.002516 0.000000 0.008168 0.000000
# 2 0.000076 0.017946 -0.005413 0.000000 0.004751 0.000000
# 3 -0.002516 -0.005413 0.009650 0.000000 -0.001875 0.000000
# 4 0.000000 0.000000 0.000000 0.030117 0.000000 0.008640
# 5 0.008168 0.004751 -0.001875 0.000000 0.024012 0.000000
# 6 0.000000 0.000000 0.000000 0.008640 0.000000 0.026060
#
#
# Mechanical properties :
#
#
# Convention : Reuss Voigt Hill
#
# Bulk Modulus (GPa) = 33.22293 46.25295 39.73794
# Shear Modulus (GPa) = 32.95245 39.54748 36.24997
#
# Velocity S-wave (km/s) = 3.58523 3.92765 3.76034
# Velocity P-wave (km/s) = 5.48615 6.21374 5.86125
#
# Compressibility (1/GPa) = 0.03009969
#
# Stress axis : x y z
#
# Youngs Moduli (GPa) = 54.91474 55.72372 103.62745
#
# Poissons Ratio (x) = -0.00422 0.26072
# Poissons Ratio (y) = -0.00416 0.56091
# Poissons Ratio (z) = 0.13816 0.30162
#
# Static dielectric constant tensor:
#      x y z
#    x 2.074300 0.000000 0.030800 
#    y 0.000000 2.083260 0.000000 
#    z 0.030800 0.000000 2.144680 
# 
# From -- ./inp_files/41788.got.cif
#   From: 2010.05.17/outbox.cif.g08.bks.cpg/sg5_21_cif.got.tgz:41788.got - 2010.06.03 18:56:24.
