data_PCOD9125374
_publ_section_title
;
Structure prediction by ZEFSAII (Michael W. Deem and Ramdas Pophale) SiO2 
 PCOD9125374
Probable space group: C 2
;
_chemical_formula_sum "Si O2"
_cell_formula_units_Z 32
_cell_length_a 14.439735
_cell_length_b 13.700177
_cell_length_c 21.041686
_cell_angle_alpha 90.000000
_cell_angle_beta 159.916116
_cell_angle_gamma 90.000000
_cell_volume 1429.422391
_symmetry_space_group_name_H-M "C 2"
_symmetry_group_IT_number 5
_symmetry_cell_setting 'monoclinic'
loop_
_space_group_symop_operation_xyz
x,y,z
-x,y,-z
1/2+x,1/2+y,z
1/2-x,1/2+y,-z
loop_
_atom_site_type_symbol
_atom_site_label
_atom_site_fract_x
_atom_site_fract_y
_atom_site_fract_z
Si Si1 0.520244 0.246470 0.754459
Si Si2 0.012265 0.330984 0.871059
Si Si3 0.814301 0.052094 0.566616
Si Si4 0.595846 0.876168 0.339879
Si Si5 0.129330 0.509240 0.019589
Si Si6 0.931038 0.715031 0.354862
Si Si7 0.705161 0.121762 0.294389
Si Si8 0.452642 0.747966 0.349801
O O1 0.663013 0.230177 0.779157
O O2 0.425612 0.144788 0.722878
O O3 0.232153 0.295831 0.555253
O O4 0.694717 0.293260 0.921730
O O5 0.998074 0.382999 0.793789
O O6 0.801686 0.243162 0.745892
O O7 0.974011 0.408684 0.903419
O O8 0.573855 0.109097 0.448691
O O9 0.051331 0.005304 0.762903
O O10 0.963826 0.144157 0.628448
O O11 0.703472 0.971980 0.445521
O O12 0.376432 0.820894 0.243712
O O13 0.840900 0.798309 0.490741
O O14 0.000000 0.550312 0.000000
O O15 0.027069 0.572709 0.895819
O O16 0.782806 0.216756 0.301438
O O17 0.000000 0.073827 0.500000
#
# Coordination Sequence:
#
# PCOD9125374 Si02
#       8
#     4   4   4   4   4   4   4   4
#     4   9  20  37  61  86 128 165 212 260 332 394
#     4  12  24  37  66 100 128 173 228 273 331 398
#     4  10  21  41  63  95 132 181 214 273 345 398
#     4  10  22  39  65  91 131 173 223 265 329 404
#     4  12  23  34  64  96 131 161 225 278 329 396
#     4  10  23  41  63  91 141 179 210 279 342 395
#     4  10  22  37  64  94 120 160 209 273 335 383
#     4   9  20  41  64  88 131 170 209 277 341 388
#
# _framework density 22.386665000000001
#
# number of rings (size 3 to 8) (size 9 to 14) (size 15 to 20)
#    0.000    2.000    1.250    3.750    8.750    0.000 
#    0.000    0.000    2.750   10.500    0.000    0.000 
#    0.000    0.000    0.000    0.000    0.000    0.000 
#
# Total GULP energy -89095.302625 kJ/mol
# GULP energy per Si atom -5568.456414 kJ/mol
# Density = 2.233571 g / cm^3
# Si number density = 22.386665 Si / 1000 Ang^3
#
#
#
# Elastic Constant Matrix: (Units=GPa)
#
#
# Indices 1 2 3 4 5 6 
#
# 1 80.7931 35.3594 37.6673 -0.0330 -18.5935 -0.0251
# 2 35.3594 70.4138 31.4910 -0.0136 -15.0842 0.0317
# 3 37.6673 31.4910 104.6874 -0.0862 -29.8137 0.0140
# 4 -0.0330 -0.0136 -0.0862 34.6119 0.0071 -11.9505
# 5 -18.5935 -15.0842 -29.8137 0.0071 33.9345 0.0056
# 6 -0.0251 0.0317 0.0140 -11.9505 0.0056 31.7906
#
#
#
# Elastic Compliance Matrix: (Units=1/GPa)
#
#
# Indices 1 2 3 4 5 6 
#
# 1 0.017678 -0.006581 -0.003275 0.000015 0.003884 0.000027
# 2 -0.006581 0.019265 -0.002688 -0.000016 0.002596 -0.000030
# 3 -0.003275 -0.002688 0.014254 0.000031 0.009534 0.000004
# 4 0.000015 -0.000016 0.000031 0.033201 0.000019 0.012481
# 5 0.003884 0.002596 0.009534 0.000019 0.041127 -0.000004
# 6 0.000027 -0.000030 0.000004 0.012481 -0.000004 0.036147
#
#
# Mechanical properties :
#
#
# Convention : Reuss Voigt Hill
#
# Bulk Modulus (GPa) = 38.29987 51.65886 44.97937
# Shear Modulus (GPa) = 25.58028 30.15919 27.86973
#
# Velocity S-wave (km/s) = 3.38399 3.67440 3.53218
# Velocity P-wave (km/s) = 5.69333 6.41307 6.06388
#
# Compressibility (1/GPa) = 0.02610975
#
# Stress axis : x y z
#
# Youngs Moduli (GPa) = 56.56728 51.90864 70.15366
#
# Poissons Ratio (x) = 0.34159 0.22976
# Poissons Ratio (y) = 0.37225 0.18856
# Poissons Ratio (z) = 0.18527 0.13952
#
# Static dielectric constant tensor:
#      x y z
#    x 1.861150 -0.000040 0.010650 
#    y -0.000040 2.008100 -0.000090 
#    z 0.010650 -0.000090 1.902690 
# 
# From -- ./inp_files/66258.got.cif
#   From: 2010.05.17/outbox.cif.g08.bks.cpg/sg5_34_cif.got.tgz:66258.got - 2010.06.03 18:56:24.
