data_PCOD9125003
_publ_section_title
;
Structure prediction by ZEFSAII (Michael W. Deem and Ramdas Pophale) SiO2 
 PCOD9125003
Probable space group: C 2
;
_chemical_formula_sum "Si O2"
_cell_formula_units_Z 22
_cell_length_a 9.548078
_cell_length_b 11.530126
_cell_length_c 11.521876
_cell_angle_alpha 90.000000
_cell_angle_beta 118.738702
_cell_angle_gamma 90.000000
_cell_volume 1112.203968
_symmetry_space_group_name_H-M "C 2"
_symmetry_group_IT_number 5
_symmetry_cell_setting 'monoclinic'
loop_
_space_group_symop_operation_xyz
x,y,z
-x,y,-z
1/2+x,1/2+y,z
1/2-x,1/2+y,-z
loop_
_atom_site_type_symbol
_atom_site_label
_atom_site_fract_x
_atom_site_fract_y
_atom_site_fract_z
Si Si1 0.593152 0.482500 0.357305
Si Si2 0.782407 0.045472 0.340233
Si Si3 0.413223 0.984936 0.172132
Si Si4 0.368240 0.630207 0.857469
Si Si5 0.844931 0.313150 0.356003
Si Si6 0.000000 0.355832 0.000000
O O1 0.408174 0.468298 0.317931
O O2 0.675065 0.530249 0.507087
O O3 0.609961 0.574848 0.259822
O O4 0.690470 0.369267 0.356806
O O5 0.817322 0.178409 0.320956
O O6 0.599156 0.015982 0.249244
O O7 0.374723 0.886878 0.251944
O O8 0.302659 0.093205 0.160771
O O9 0.385874 0.933443 0.033497
O O10 0.403904 0.766935 0.878432
O O11 0.500000 0.579303 0.000000
O O12 0.000000 0.326066 0.500000
#
# Coordination Sequence:
#
# PCOD9125003 Si02
#       6
#     4   4   4   4   4   2
#     4  10  21  39  64  91 127 159 204 255 305 367
#     4  11  23  38  66  94 123 161 207 262 300 365
#     4  11  24  41  64  92 120 167 211 250 308 371
#     4   9  23  43  61  88 127 163 200 258 304 362
#     4  11  21  39  62  89 129 163 195 255 318 355
#     4  10  24  40  66  86 128 164 204 260 300 364
#
# _framework density 19.780543999999999
#
# number of rings (size 3 to 8) (size 9 to 14) (size 15 to 20)
#    0.545    1.091    3.636    1.091    2.545    1.455 
#    3.273    5.455    0.000    0.000    0.000    0.000 
#    0.000    0.000    0.000    0.000    0.000    0.000 
#
# Total GULP energy -61402.857421 kJ/mol
# GULP energy per Si atom -5582.077947 kJ/mol
# Density = 1.973552 g / cm^3
# Si number density = 19.780544 Si / 1000 Ang^3
#
#
#
# Elastic Constant Matrix: (Units=GPa)
#
#
# Indices 1 2 3 4 5 6 
#
# 1 152.9987 26.1512 31.4319 0.0000 6.3708 0.0000
# 2 26.1512 40.7146 -3.3951 0.0000 -2.7732 0.0000
# 3 31.4319 -3.3951 51.3295 0.0000 -4.3140 0.0000
# 4 0.0000 0.0000 0.0000 24.4954 0.0000 1.9625
# 5 6.3708 -2.7732 -4.3140 0.0000 34.5298 0.0000
# 6 0.0000 0.0000 0.0000 1.9625 0.0000 22.5333
#
#
#
# Elastic Compliance Matrix: (Units=1/GPa)
#
#
# Indices 1 2 3 4 5 6 
#
# 1 0.009057 -0.006540 -0.006229 0.000000 -0.002974 0.000000
# 2 -0.006540 0.029587 0.006329 0.000000 0.004374 0.000000
# 3 -0.006229 0.006329 0.024107 0.000000 0.004669 0.000000
# 4 0.000000 0.000000 0.000000 0.041111 0.000000 -0.003580
# 5 -0.002974 0.004374 0.004669 0.000000 0.030444 0.000000
# 6 0.000000 0.000000 0.000000 -0.003580 0.000000 0.044691
#
#
# Mechanical properties :
#
#
# Convention : Reuss Voigt Hill
#
# Bulk Modulus (GPa) = 20.05079 39.26873 29.65976
# Shear Modulus (GPa) = 23.98081 29.03536 26.50808
#
# Velocity S-wave (km/s) = 3.48565 3.83544 3.66472
# Velocity P-wave (km/s) = 5.13403 6.28565 5.73880
#
# Compressibility (1/GPa) = 0.04987334
#
# Stress axis : x y z
#
# Youngs Moduli (GPa) = 110.40866 33.79832 41.48125
#
# Poissons Ratio (x) = 0.22103 0.25838
# Poissons Ratio (y) = 0.72202 -0.26254
# Poissons Ratio (z) = 0.68771 -0.21391
#
# Static dielectric constant tensor:
#      x y z
#    x 1.687170 0.000000 0.002710 
#    y 0.000000 1.666170 0.000000 
#    z 0.002710 0.000000 1.702560 
# 
# From -- ./inp_files/35171.got.cif
#   From: 2010.05.17/outbox.cif.g08.bks.cpg/sg5_18_cif.got.tgz:35171.got - 2010.06.03 18:56:24.
