data_PCOD9125978
_publ_section_title
;
Structure prediction by ZEFSAII (Michael W. Deem and Ramdas Pophale) SiO2 
 PCOD9125978
Probable space group: C 2
;
_chemical_formula_sum "Si O2"
_cell_formula_units_Z 30
_cell_length_a 14.102943
_cell_length_b 5.895332
_cell_length_c 18.463738
_cell_angle_alpha 90.000000
_cell_angle_beta 49.574252
_cell_angle_gamma 90.000000
_cell_volume 1168.592854
_symmetry_space_group_name_H-M "C 2"
_symmetry_group_IT_number 5
_symmetry_cell_setting 'monoclinic'
loop_
_space_group_symop_operation_xyz
x,y,z
-x,y,-z
1/2+x,1/2+y,z
1/2-x,1/2+y,-z
loop_
_atom_site_type_symbol
_atom_site_label
_atom_site_fract_x
_atom_site_fract_y
_atom_site_fract_z
Si Si1 0.940101 0.455020 0.288284
Si Si2 0.811904 0.678969 0.837321
Si Si3 0.760140 0.831729 0.402247
Si Si4 0.251158 0.155821 0.698825
Si Si5 0.601627 0.428867 0.014050
Si Si6 0.937616 0.140328 0.407871
Si Si7 0.397627 0.923377 0.986497
Si Si8 0.500000 0.302779 0.500000
O O1 0.828030 0.592478 0.381151
O O2 0.866251 0.314117 0.263976
O O3 0.006641 0.290597 0.314128
O O4 0.043189 0.642909 0.221339
O O5 0.786616 0.688616 0.763943
O O6 0.735578 0.468262 0.909880
O O7 0.739417 0.888275 0.910343
O O8 0.624433 0.802062 0.502130
O O9 0.775825 0.894844 0.309986
O O10 0.834566 0.019374 0.409618
O O11 0.365724 0.192666 0.584696
O O12 0.582485 0.676260 0.062279
O O13 0.597558 0.176020 0.048705
O O14 0.500000 0.428013 0.000000
O O15 0.995517 0.950654 0.428933
O O16 0.500000 0.923133 0.000000
#
# Coordination Sequence:
#
# PCOD9125978 Si02
#       8
#     4   4   4   4   4   4   4   2
#     4  11  24  40  58  86 119 163 205 270 328 373
#     4  10  22  36  61  92 126 159 212 261 329 385
#     4  11  21  40  56  74 113 154 205 260 311 376
#     4  11  26  39  56  88 120 164 213 264 325 380
#     4   8  16  34  62  98 124 161 207 251 307 389
#     4  11  22  37  58  77 107 155 207 261 314 370
#     4   8  16  34  62  97 124 161 207 251 307 390
#     4  12  24  40  58  82 114 158 218 266 314 384
#
# _framework density 25.671901999999999
#
# number of rings (size 3 to 8) (size 9 to 14) (size 15 to 20)
#    0.800    1.067    2.667    1.600    3.733    4.267 
#    0.000    0.000    0.000    0.000   27.733    0.000 
#    0.000    0.000    0.000    0.000    0.000    0.000 
#
# Total GULP energy -83644.578338 kJ/mol
# GULP energy per Si atom -5576.305223 kJ/mol
# Density = 2.561347 g / cm^3
# Si number density = 25.671902 Si / 1000 Ang^3
#
#
#
# Elastic Constant Matrix: (Units=GPa)
#
#
# Indices 1 2 3 4 5 6 
#
# 1 91.9350 20.9681 29.0392 -0.0003 1.7981 0.0005
# 2 20.9681 134.3570 22.8192 -0.0008 11.9987 0.0014
# 3 29.0392 22.8192 78.9492 0.0000 2.2159 -0.0001
# 4 -0.0003 -0.0008 0.0000 9.4744 0.0000 5.0072
# 5 1.7981 11.9987 2.2159 0.0000 36.0419 0.0001
# 6 0.0005 0.0014 -0.0001 5.0072 0.0001 -8.1268
#
#
#
# Elastic Compliance Matrix: (Units=1/GPa)
#
#
# Indices 1 2 3 4 5 6 
#
# 1 0.012498 -0.001234 -0.004241 0.000000 0.000048 0.000001
# 2 -0.001234 0.008175 -0.001837 0.000000 -0.002547 0.000001
# 3 -0.004241 -0.001837 0.014760 0.000000 -0.000084 -0.000001
# 4 0.000000 0.000000 0.000000 0.079621 0.000000 0.049058
# 5 0.000048 -0.002547 -0.000084 0.000000 0.028596 0.000000
# 6 0.000001 0.000001 -0.000001 0.049058 0.000000 -0.092823
#
#
# Mechanical properties :
#
#
# Convention : Reuss Voigt Hill
#
# Bulk Modulus (GPa) = 48.06269 50.09933 49.08101
# Shear Modulus (GPa) = 69.07243 22.97220 46.02232
#
# Velocity S-wave (km/s) = 5.19271 2.99463 4.23864
# Velocity P-wave (km/s) = 7.39695 5.61379 6.56619
#
# Compressibility (1/GPa) = 0.02080616
#
# Stress axis : x y z
#
# Youngs Moduli (GPa) = 80.01560 122.32402 67.75113
#
# Poissons Ratio (x) = 0.15099 0.28736
# Poissons Ratio (y) = 0.09877 0.12448
# Poissons Ratio (z) = 0.33938 0.22475
#
# Static dielectric constant tensor:
#      x y z
#    x 2.167270 0.000000 0.061840 
#    y 0.000000 2.114490 0.000000 
#    z 0.061840 0.000000 2.088240 
# 
# From -- ./inp_files/68551.got.cif
#   From: 2010.05.17/outbox.cif.g08.bks.cpg/sg5_35_cif.got.tgz:68551.got - 2010.06.03 18:56:24.
