data_PCOD9125403
_publ_section_title
;
Structure prediction by ZEFSAII (Michael W. Deem and Ramdas Pophale) SiO2 
 PCOD9125403
Probable space group: C 2
;
_chemical_formula_sum "Si O2"
_cell_formula_units_Z 24
_cell_length_a 8.475512
_cell_length_b 8.888739
_cell_length_c 14.218224
_cell_angle_alpha 90.000000
_cell_angle_beta 91.107700
_cell_angle_gamma 90.000000
_cell_volume 1070.952680
_symmetry_space_group_name_H-M "C 2"
_symmetry_group_IT_number 5
_symmetry_cell_setting 'monoclinic'
loop_
_space_group_symop_operation_xyz
x,y,z
-x,y,-z
1/2+x,1/2+y,z
1/2-x,1/2+y,-z
loop_
_atom_site_type_symbol
_atom_site_label
_atom_site_fract_x
_atom_site_fract_y
_atom_site_fract_z
Si Si1 0.004958 0.360230 0.230143
Si Si2 0.829646 0.281114 0.945164
Si Si3 0.334634 0.348922 0.554962
Si Si4 0.311699 0.006337 0.614640
Si Si5 0.495004 0.508178 0.721905
Si Si6 0.806626 0.940401 0.886683
O O1 0.132566 0.378399 0.147206
O O2 0.040227 0.464909 0.319312
O O3 0.013543 0.186984 0.262776
O O4 0.837648 0.389744 0.180661
O O5 0.784206 0.114268 0.913712
O O6 0.706169 0.347910 0.017541
O O7 0.000000 0.270786 0.000000
O O8 0.500000 0.346580 0.500000
O O9 0.301517 0.181094 0.588906
O O10 0.205460 0.411884 0.481187
O O11 0.365394 0.455763 0.644333
O O12 0.161548 0.967393 0.678245
O O13 0.459439 0.431494 0.821892
#
# Coordination Sequence:
#
# PCOD9125403 Si02
#       6
#     4   4   4   4   4   4
#     4  10  22  40  62  90 125 160 201 252 302 356
#     4   9  21  40  60  89 124 159 203 251 301 359
#     4  10  23  39  61  92 123 161 205 248 301 360
#     4  11  23  41  64  91 123 160 204 251 302 361
#     4  10  22  41  62  89 125 160 202 250 300 357
#     4  10  21  41  65  89 122 162 201 250 306 357
#
# _framework density 22.409955
#
# number of rings (size 3 to 8) (size 9 to 14) (size 15 to 20)
#    0.000    2.000    0.000    2.000    0.000   13.333 
#    0.000   10.833    0.000    0.000    0.000    0.000 
#    0.000    0.000    0.000    0.000    0.000    0.000 
#
# Total GULP energy -67113.242171 kJ/mol
# GULP energy per Si atom -5592.770181 kJ/mol
# Density = 2.235895 g / cm^3
# Si number density = 22.409955 Si / 1000 Ang^3
#
#
#
# Elastic Constant Matrix: (Units=GPa)
#
#
# Indices 1 2 3 4 5 6 
#
# 1 39.3341 10.0800 29.1339 0.0000 -6.0279 0.0000
# 2 10.0800 73.8008 41.7811 0.0000 15.2525 0.0000
# 3 29.1339 41.7811 120.7895 0.0000 0.1127 0.0000
# 4 0.0000 0.0000 0.0000 54.3991 0.0000 4.5058
# 5 -6.0279 15.2525 0.1127 0.0000 49.5765 0.0000
# 6 0.0000 0.0000 0.0000 4.5058 0.0000 23.5512
#
#
#
# Elastic Compliance Matrix: (Units=1/GPa)
#
#
# Indices 1 2 3 4 5 6 
#
# 1 0.031742 -0.001080 -0.007286 0.000000 0.004208 0.000000
# 2 -0.001080 0.018325 -0.006073 0.000000 -0.005755 0.000000
# 3 -0.007286 -0.006073 0.012136 0.000000 0.000955 0.000000
# 4 0.000000 0.000000 0.000000 0.018679 0.000000 -0.003574
# 5 0.004208 -0.005755 0.000955 0.000000 0.022451 0.000000
# 6 0.000000 0.000000 0.000000 -0.003574 0.000000 0.043144
#
#
# Mechanical properties :
#
#
# Convention : Reuss Voigt Hill
#
# Bulk Modulus (GPa) = 30.00807 43.99051 36.99929
# Shear Modulus (GPa) = 26.81497 35.70065 31.25781
#
# Velocity S-wave (km/s) = 3.46289 3.99566 3.73878
# Velocity P-wave (km/s) = 5.42295 6.39997 5.93161
#
# Compressibility (1/GPa) = 0.03332437
#
# Stress axis : x y z
#
# Youngs Moduli (GPa) = 31.50429 54.57041 82.39984
#
# Poissons Ratio (x) = 0.05894 0.60039
# Poissons Ratio (y) = 0.03403 0.50039
# Poissons Ratio (z) = 0.22955 0.33139
#
# Static dielectric constant tensor:
#      x y z
#    x 1.851300 0.000000 -0.029370 
#    y 0.000000 1.757920 0.000000 
#    z -0.029370 0.000000 1.839180 
# 
# From -- ./inp_files/49876.got.cif
#   From: 2010.05.17/outbox.cif.g08.bks.cpg/sg5_25_cif.got.tgz:49876.got - 2010.06.03 18:56:24.
