data_PCOD9125044
_publ_section_title
;
Structure prediction by ZEFSAII (Michael W. Deem and Ramdas Pophale) SiO2 
 PCOD9125044
Probable space group: C 2
;
_chemical_formula_sum "Si O2"
_cell_formula_units_Z 24
_cell_length_a 15.954269
_cell_length_b 9.153798
_cell_length_c 20.287992
_cell_angle_alpha 90.000000
_cell_angle_beta 19.785060
_cell_angle_gamma 90.000000
_cell_volume 1002.920348
_symmetry_space_group_name_H-M "C 2"
_symmetry_group_IT_number 5
_symmetry_cell_setting 'monoclinic'
loop_
_space_group_symop_operation_xyz
x,y,z
-x,y,-z
1/2+x,1/2+y,z
1/2-x,1/2+y,-z
loop_
_atom_site_type_symbol
_atom_site_label
_atom_site_fract_x
_atom_site_fract_y
_atom_site_fract_z
Si Si1 0.346176 0.848940 0.272786
Si Si2 0.218114 0.322104 0.208754
Si Si3 0.874019 0.157595 0.372126
Si Si4 0.578456 0.412398 0.128532
Si Si5 0.215861 0.154444 0.414838
Si Si6 0.746652 0.079640 0.274829
O O1 0.251357 0.745691 0.403218
O O2 0.294600 0.752308 0.246160
O O3 0.223946 0.004649 0.370715
O O4 0.636989 0.879220 0.068252
O O5 0.209647 0.492798 0.234276
O O6 0.090696 0.267566 0.236443
O O7 0.047894 0.237187 0.388079
O O8 0.500000 0.273961 0.000000
O O9 0.733710 0.125697 0.543914
O O10 0.976085 0.008769 0.265556
O O11 0.427973 0.263022 0.234899
O O12 0.486458 0.505916 0.133399
O O13 0.500000 0.045273 0.500000
#
# Coordination Sequence:
#
# PCOD9125044 Si02
#       6
#     4   4   4   4   4   4
#     4  11  23  40  67 105 133 179 235 288 337 427
#     4  10  22  40  67  93 133 186 223 281 350 410
#     4   9  21  39  66  92 133 178 226 273 346 411
#     4  11  21  41  67  98 133 182 231 285 346 417
#     4  10  21  39  65  94 133 176 224 282 343 404
#     4  11  22  44  64  97 137 178 229 288 351 400
#
# _framework density 23.930116000000002
#
# number of rings (size 3 to 8) (size 9 to 14) (size 15 to 20)
#    1.000    0.667    1.667    4.000    0.000    0.000 
#    6.000    1.667    0.000    0.000    0.000    0.000 
#    0.000    0.000    0.000    0.000    0.000    0.000 
#
# Total GULP energy -67064.863423 kJ/mol
# GULP energy per Si atom -5588.738619 kJ/mol
# Density = 2.387565 g / cm^3
# Si number density = 23.930116 Si / 1000 Ang^3
#
#
#
# Elastic Constant Matrix: (Units=GPa)
#
#
# Indices 1 2 3 4 5 6 
#
# 1 74.4479 46.1034 16.9737 -0.0025 -16.8351 0.0033
# 2 46.1034 190.8444 36.9187 -0.0564 -2.4345 0.0629
# 3 16.9737 36.9187 111.9783 -0.0991 -22.6003 0.0718
# 4 -0.0025 -0.0564 -0.0991 16.0687 0.0225 -15.2834
# 5 -16.8351 -2.4345 -22.6003 0.0225 30.7245 -0.0246
# 6 0.0033 0.0629 0.0718 -15.2834 -0.0246 -1.9991
#
#
#
# Elastic Compliance Matrix: (Units=1/GPa)
#
#
# Indices 1 2 3 4 5 6 
#
# 1 0.018329 -0.004443 0.000754 -0.000027 0.010246 -0.000004
# 2 -0.004443 0.006704 -0.002256 0.000021 -0.003563 0.000007
# 3 0.000754 -0.002256 0.011282 0.000033 0.008533 -0.000018
# 4 -0.000027 0.000021 0.000033 0.007524 -0.000041 -0.057520
# 5 0.010246 -0.003563 0.008533 -0.000041 0.044156 -0.000022
# 6 -0.000004 0.000007 -0.000018 -0.057520 -0.000022 -0.060476
#
#
# Mechanical properties :
#
#
# Convention : Reuss Voigt Hill
#
# Bulk Modulus (GPa) = 40.94023 64.14026 52.54024
# Shear Modulus (GPa) = 105.15377 27.44383 66.29880
#
# Velocity S-wave (km/s) = 6.63607 3.39017 5.26928
# Velocity P-wave (km/s) = 8.70988 6.49505 7.68269
#
# Compressibility (1/GPa) = 0.02442585
#
# Stress axis : x y z
#
# Youngs Moduli (GPa) = 54.55978 149.16144 88.63669
#
# Poissons Ratio (x) = 0.66272 -0.06687
# Poissons Ratio (y) = 0.24241 0.19995
# Poissons Ratio (z) = -0.04116 0.33649
#
# Static dielectric constant tensor:
#      x y z
#    x 2.007210 0.000010 0.013640 
#    y 0.000010 1.892440 0.000040 
#    z 0.013640 0.000040 1.925470 
# 
# From -- ./inp_files/69065.got.cif
#   From: 2010.05.17/outbox.cif.g08.bks.cpg/sg5_35_cif.got.tgz:69065.got - 2010.06.03 18:56:24.
