data_PCOD9125114
_publ_section_title
;
Structure prediction by ZEFSAII (Michael W. Deem and Ramdas Pophale) SiO2 
 PCOD9125114
Probable space group: C 2
;
_chemical_formula_sum "Si O2"
_cell_formula_units_Z 28
_cell_length_a 19.103408
_cell_length_b 12.839904
_cell_length_c 9.609107
_cell_angle_alpha 90.000000
_cell_angle_beta 35.433292
_cell_angle_gamma 90.000000
_cell_volume 1366.469498
_symmetry_space_group_name_H-M "C 2"
_symmetry_group_IT_number 5
_symmetry_cell_setting 'monoclinic'
loop_
_space_group_symop_operation_xyz
x,y,z
-x,y,-z
1/2+x,1/2+y,z
1/2-x,1/2+y,-z
loop_
_atom_site_type_symbol
_atom_site_label
_atom_site_fract_x
_atom_site_fract_y
_atom_site_fract_z
Si Si1 0.060762 0.141200 0.256707
Si Si2 0.100357 0.089522 0.721867
Si Si3 0.105495 0.435388 0.652721
Si Si4 0.651470 0.154341 0.538369
Si Si5 0.141900 0.366948 0.083127
Si Si6 0.793272 0.877514 0.567506
Si Si7 0.282187 0.014104 0.794254
O O1 0.345769 0.117893 0.628068
O O2 0.131484 0.250153 0.159315
O O3 0.151060 0.052498 0.053896
O O4 0.959097 0.157062 0.303642
O O5 0.213742 0.139948 0.616906
O O6 0.141876 0.983105 0.581564
O O7 0.000000 0.069268 0.000000
O O8 0.081131 0.558697 0.723817
O O9 0.170408 0.378857 0.673970
O O10 0.203376 0.442024 0.366901
O O11 0.982890 0.389298 0.794416
O O12 0.626379 0.275474 0.592943
O O13 0.249461 0.375201 0.797510
O O14 0.156762 0.452594 0.179374
O O15 0.500000 0.611751 0.500000
#
# Coordination Sequence:
#
# PCOD9125114 Si02
#       7
#     4   4   4   4   4   4   4
#     4  12  23  38  60  93 115 157 203 243 295 354
#     4  11  20  40  64  86 120 158 198 249 289 357
#     4   9  20  36  59  86 112 156 195 239 289 356
#     4   9  20  38  60  83 121 154 193 240 304 342
#     4  12  21  37  62  86 120 157 198 245 295 351
#     4  11  20  37  62  90 117 155 196 248 300 348
#     4  10  21  40  55  86 123 152 194 248 292 350
#
# _framework density 20.490760999999999
#
# number of rings (size 3 to 8) (size 9 to 14) (size 15 to 20)
#    0.857    0.571    2.857    3.429    0.000    0.000 
#    0.000    4.286    3.143    0.000    0.000    0.000 
#    0.000    0.000    0.000    0.000    0.000    0.000 
#
# Total GULP energy -78035.311332 kJ/mol
# GULP energy per Si atom -5573.950809 kJ/mol
# Density = 2.044412 g / cm^3
# Si number density = 20.490761 Si / 1000 Ang^3
#
#
#
# Elastic Constant Matrix: (Units=GPa)
#
#
# Indices 1 2 3 4 5 6 
#
# 1 80.4126 17.4440 4.3025 0.0000 12.1997 0.0000
# 2 17.4440 101.9756 5.0090 0.0000 4.1418 0.0000
# 3 4.3025 5.0090 58.5566 0.0000 21.5157 0.0000
# 4 0.0000 0.0000 0.0000 6.7687 0.0000 -1.4548
# 5 12.1997 4.1418 21.5157 0.0000 30.6967 0.0000
# 6 0.0000 0.0000 0.0000 -1.4548 0.0000 23.2100
#
#
#
# Elastic Compliance Matrix: (Units=1/GPa)
#
#
# Indices 1 2 3 4 5 6 
#
# 1 0.013770 -0.002175 0.001451 0.000000 -0.006196 0.000000
# 2 -0.002175 0.010214 -0.000707 0.000000 -0.000018 0.000000
# 3 0.001451 -0.000707 0.023177 0.000000 -0.016726 0.000000
# 4 0.000000 0.000000 0.000000 0.149757 0.000000 0.009387
# 5 -0.006196 -0.000018 -0.016726 0.000000 0.046765 0.000000
# 6 0.000000 0.000000 0.000000 0.009387 0.000000 0.043673
#
#
# Mechanical properties :
#
#
# Convention : Reuss Voigt Hill
#
# Bulk Modulus (GPa) = 22.57425 32.71729 27.64577
# Shear Modulus (GPa) = 16.39419 26.41435 21.40427
#
# Velocity S-wave (km/s) = 2.83163 3.59428 3.23551
# Velocity P-wave (km/s) = 4.66171 5.76426 5.24205
#
# Compressibility (1/GPa) = 0.04429826
#
# Stress axis : x y z
#
# Youngs Moduli (GPa) = 72.62093 97.90660 43.14579
#
# Poissons Ratio (x) = 0.21296 -0.06260
# Poissons Ratio (y) = 0.15796 0.03052
# Poissons Ratio (z) = -0.10537 0.06925
#
# Static dielectric constant tensor:
#      x y z
#    x 1.729140 0.000000 -0.001550 
#    y 0.000000 1.756240 0.000000 
#    z -0.001550 0.000000 1.743760 
# 
# From -- ./inp_files/38871.got.cif
#   From: 2010.05.17/outbox.cif.g08.bks.cpg/sg5_20_cif.got.tgz:38871.got - 2010.06.03 18:56:24.
