data_PCOD9125513
_publ_section_title
;
Structure prediction by ZEFSAII (Michael W. Deem and Ramdas Pophale) SiO2 
 PCOD9125513
Probable space group: C 2
;
_chemical_formula_sum "Si O2"
_cell_formula_units_Z 28
_cell_length_a 30.872883
_cell_length_b 5.335414
_cell_length_c 7.714911
_cell_angle_alpha 90.000000
_cell_angle_beta 58.588511
_cell_angle_gamma 90.000000
_cell_volume 1084.557133
_symmetry_space_group_name_H-M "C 2"
_symmetry_group_IT_number 5
_symmetry_cell_setting 'monoclinic'
loop_
_space_group_symop_operation_xyz
x,y,z
-x,y,-z
1/2+x,1/2+y,z
1/2-x,1/2+y,-z
loop_
_atom_site_type_symbol
_atom_site_label
_atom_site_fract_x
_atom_site_fract_y
_atom_site_fract_z
Si Si1 0.695997 0.205230 0.122103
Si Si2 0.866486 0.419561 0.992597
Si Si3 0.835754 0.911830 0.257033
Si Si4 0.637546 0.580269 0.449908
Si Si5 0.019851 0.170194 0.657093
Si Si6 0.233004 0.406103 0.323946
Si Si7 0.978535 0.655901 0.741070
O O1 0.659028 0.434134 0.238817
O O2 0.662991 0.967567 0.127603
O O3 0.723628 0.167097 0.246528
O O4 0.737020 0.258639 0.890623
O O5 0.923045 0.530150 0.850450
O O6 0.842742 0.637357 0.161535
O O7 0.858100 0.145367 0.095034
O O8 0.774217 0.944144 0.387869
O O9 0.863992 0.899321 0.379890
O O10 0.580064 0.644297 0.529204
O O11 0.677859 0.779734 0.447222
O O12 0.000000 0.194321 0.500000
O O13 0.009958 0.436378 0.766568
O O14 0.988941 0.931580 0.796077
O O15 0.000000 0.687923 0.500000
#
# Coordination Sequence:
#
# PCOD9125513 Si02
#       7
#     4   4   4   4   4   4   4
#     4  11  23  42  72 104 137 185 250 302 350 429
#     4  11  25  48  75 103 148 190 241 308 368 433
#     4  11  29  47  69 105 152 197 236 292 383 452
#     4  12  28  44  72 106 149 196 247 299 375 442
#     4  10  23  41  68 105 136 178 238 304 355 421
#     4  11  25  41  70 101 144 185 240 300 356 434
#     4  10  21  41  71 102 134 173 237 301 363 411
#
# _framework density 25.816987999999998
#
# number of rings (size 3 to 8) (size 9 to 14) (size 15 to 20)
#    0.000    1.143    1.429    3.429   14.000    0.000 
#    0.000    4.286    0.000    0.000    0.000    0.000 
#    0.000    0.000    0.000    0.000    0.000    0.000 
#
# Total GULP energy -78205.768571 kJ/mol
# GULP energy per Si atom -5586.126327 kJ/mol
# Density = 2.575823 g / cm^3
# Si number density = 25.816988 Si / 1000 Ang^3
#
#
#
# Elastic Constant Matrix: (Units=GPa)
#
#
# Indices 1 2 3 4 5 6 
#
# 1 137.6007 -12.3906 29.7003 0.0000 -14.8874 0.0000
# 2 -12.3906 128.9845 4.3465 0.0000 7.4685 0.0000
# 3 29.7003 4.3465 37.2391 0.0000 -0.2165 0.0000
# 4 0.0000 0.0000 0.0000 54.1409 0.0000 -6.9883
# 5 -14.8874 7.4685 -0.2165 0.0000 33.0008 0.0000
# 6 0.0000 0.0000 0.0000 -6.9883 0.0000 38.0586
#
#
#
# Elastic Compliance Matrix: (Units=1/GPa)
#
#
# Indices 1 2 3 4 5 6 
#
# 1 0.009424 0.000930 -0.007601 0.000000 0.003991 0.000000
# 2 0.000930 0.007980 -0.001681 0.000000 -0.001397 0.000000
# 3 -0.007601 -0.001681 0.033096 0.000000 -0.002831 0.000000
# 4 0.000000 0.000000 0.000000 0.018919 0.000000 0.003474
# 5 0.003991 -0.001397 -0.002831 0.000000 0.032400 0.000000
# 6 0.000000 0.000000 0.000000 0.003474 0.000000 0.026913
#
#
# Mechanical properties :
#
#
# Convention : Reuss Voigt Hill
#
# Bulk Modulus (GPa) = 29.59077 38.57075 34.08076
# Shear Modulus (GPa) = 31.90787 43.85126 37.87957
#
# Velocity S-wave (km/s) = 3.51939 4.12581 3.83460
# Velocity P-wave (km/s) = 5.29164 6.13750 5.73020
#
# Compressibility (1/GPa) = 0.03379432
#
# Stress axis : x y z
#
# Youngs Moduli (GPa) = 106.11605 125.31634 30.21533
#
# Poissons Ratio (x) = -0.11658 0.22968
# Poissons Ratio (y) = -0.09872 0.05081
# Poissons Ratio (z) = 0.80662 0.21072
#
# Static dielectric constant tensor:
#      x y z
#    x 2.014840 0.000000 -0.009690 
#    y 0.000000 2.183630 0.000000 
#    z -0.009690 0.000000 1.861140 
# 
# From -- ./inp_files/32223.got.cif
#   From: 2010.05.17/outbox.cif.g08.bks.cpg/sg5_17_cif.got.tgz:32223.got - 2010.06.03 18:56:24.
