data_PCOD9125005
_publ_section_title
;
Structure prediction by ZEFSAII (Michael W. Deem and Ramdas Pophale) SiO2 
 PCOD9125005
Probable space group: C 2
;
_chemical_formula_sum "Si O2"
_cell_formula_units_Z 24
_cell_length_a 15.621264
_cell_length_b 6.054131
_cell_length_c 9.179829
_cell_angle_alpha 90.000000
_cell_angle_beta 98.272870
_cell_angle_gamma 90.000000
_cell_volume 859.131504
_symmetry_space_group_name_H-M "C 2"
_symmetry_group_IT_number 5
_symmetry_cell_setting 'monoclinic'
loop_
_space_group_symop_operation_xyz
x,y,z
-x,y,-z
1/2+x,1/2+y,z
1/2-x,1/2+y,-z
loop_
_atom_site_type_symbol
_atom_site_label
_atom_site_fract_x
_atom_site_fract_y
_atom_site_fract_z
Si Si1 0.395688 0.037910 0.477513
Si Si2 0.770001 0.543017 0.186918
Si Si3 0.396217 0.539083 0.470923
Si Si4 0.141981 0.396321 0.070738
Si Si5 0.067766 0.036116 0.846595
Si Si6 0.396002 0.313741 0.846794
O O1 0.500000 0.036857 0.500000
O O2 0.353129 0.047303 0.307007
O O3 0.371301 0.291428 0.525283
O O4 0.367994 0.785628 0.520328
O O5 0.704652 0.746914 0.181303
O O6 0.703496 0.350753 0.214303
O O7 0.793176 0.517876 0.024133
O O8 0.500000 0.545338 0.500000
O O9 0.380795 0.535774 0.291005
O O10 0.086683 0.555064 0.160681
O O11 0.085264 0.255352 0.943589
O O12 0.967061 0.975412 0.796028
O O13 0.094324 0.859323 0.976181
#
# Coordination Sequence:
#
# PCOD9125005 Si02
#       6
#     4   4   4   4   4   4
#     4  10  22  38  63  92 122 164 222 277 320 385
#     4  11  21  34  61  93 128 166 218 271 330 393
#     4  10  21  39  64  92 119 166 224 275 320 388
#     4  11  21  36  61  92 134 172 213 273 337 411
#     4  10  22  39  59  91 134 174 212 272 335 409
#     4  10  23  37  57  93 134 171 213 261 348 403
#
# _framework density 27.935191
#
# number of rings (size 3 to 8) (size 9 to 14) (size 15 to 20)
#    0.000    1.667    3.333    1.000    4.667    5.333 
#    0.000    0.000    0.000    8.000    0.000    0.000 
#    0.000    0.000    0.000    0.000    0.000    0.000 
#
# Total GULP energy -66989.702544 kJ/mol
# GULP energy per Si atom -5582.475212 kJ/mol
# Density = 2.787161 g / cm^3
# Si number density = 27.935191 Si / 1000 Ang^3
#
#
#
# Elastic Constant Matrix: (Units=GPa)
#
#
# Indices 1 2 3 4 5 6 
#
# 1 95.9659 39.1442 56.4068 0.0000 9.1084 0.0000
# 2 39.1442 232.8684 21.3919 0.0000 -10.1911 0.0000
# 3 56.4068 21.3919 109.2241 0.0000 13.4027 0.0000
# 4 0.0000 0.0000 0.0000 36.3265 0.0000 11.9161
# 5 9.1084 -10.1911 13.4027 0.0000 53.5608 0.0000
# 6 0.0000 0.0000 0.0000 11.9161 0.0000 30.7239
#
#
#
# Elastic Compliance Matrix: (Units=1/GPa)
#
#
# Indices 1 2 3 4 5 6 
#
# 1 0.015846 -0.002012 -0.007646 0.000000 -0.001164 0.000000
# 2 -0.002012 0.004690 -0.000032 0.000000 0.001242 0.000000
# 3 -0.007646 -0.000032 0.013362 0.000000 -0.002049 0.000000
# 4 0.000000 0.000000 0.000000 0.031541 0.000000 -0.012233
# 5 -0.001164 0.001242 -0.002049 0.000000 0.019618 0.000000
# 6 0.000000 0.000000 0.000000 -0.012233 0.000000 0.037292
#
#
# Mechanical properties :
#
#
# Convention : Reuss Voigt Hill
#
# Bulk Modulus (GPa) = 68.88469 74.66045 71.77257
# Shear Modulus (GPa) = 34.11368 45.52993 39.82180
#
# Velocity S-wave (km/s) = 3.49832 4.04151 3.77968
# Velocity P-wave (km/s) = 6.40546 6.96870 6.69301
#
# Compressibility (1/GPa) = 0.01451701
#
# Stress axis : x y z
#
# Youngs Moduli (GPa) = 63.10717 213.22829 74.83867
#
# Poissons Ratio (x) = 0.42905 0.57225
# Poissons Ratio (y) = 0.12698 0.00238
# Poissons Ratio (z) = 0.48255 0.00679
#
# Static dielectric constant tensor:
#      x y z
#    x 2.137280 0.000000 -0.036010 
#    y 0.000000 2.351840 0.000000 
#    z -0.036010 0.000000 2.204430 
# 
# From -- ./inp_files/45525.got.cif
#   From: 2010.05.17/outbox.cif.g08.bks.cpg/sg5_23_cif.got.tgz:45525.got - 2010.06.03 18:56:24.
