data_PCOD9125830
_publ_section_title
;
Structure prediction by ZEFSAII (Michael W. Deem and Ramdas Pophale) SiO2 
 PCOD9125830
Probable space group: C 2
;
_chemical_formula_sum "Si O2"
_cell_formula_units_Z 30
_cell_length_a 14.005859
_cell_length_b 5.436881
_cell_length_c 17.077424
_cell_angle_alpha 90.000000
_cell_angle_beta 103.325274
_cell_angle_gamma 90.000000
_cell_volume 1265.404224
_symmetry_space_group_name_H-M "C 2"
_symmetry_group_IT_number 5
_symmetry_cell_setting 'monoclinic'
loop_
_space_group_symop_operation_xyz
x,y,z
-x,y,-z
1/2+x,1/2+y,z
1/2-x,1/2+y,-z
loop_
_atom_site_type_symbol
_atom_site_label
_atom_site_fract_x
_atom_site_fract_y
_atom_site_fract_z
Si Si1 0.308268 0.388650 0.507047
Si Si2 0.790472 0.409313 0.197251
Si Si3 0.689868 0.012306 0.971512
Si Si4 0.572578 0.642306 0.166185
Si Si5 0.000000 0.277630 0.000000
Si Si6 0.056213 0.904502 0.322988
Si Si7 0.351599 0.213255 0.347835
Si Si8 0.815484 0.531695 0.752875
O O1 0.256615 0.651746 0.474809
O O2 0.383019 0.477702 0.588616
O O3 0.358545 0.252391 0.442164
O O4 0.838407 0.497540 0.126600
O O5 0.679505 0.520162 0.174167
O O6 0.838371 0.472155 0.290591
O O7 0.766351 0.124254 0.201162
O O8 0.595203 0.943400 0.004014
O O9 0.736311 0.278407 0.000205
O O10 0.535413 0.579967 0.245357
O O11 0.597399 0.928206 0.178455
O O12 0.508448 0.606490 0.078340
O O13 0.129780 0.709780 0.296399
O O14 0.951121 0.820186 0.332375
O O15 0.247106 0.341729 0.309771
#
# Coordination Sequence:
#
# PCOD9125830 Si02
#       8
#     4   4   4   4   2   4   4   4
#     4  12  25  50  76 111 153 199 243 313 381 450
#     4  10  23  45  70  99 148 193 247 315 383 439
#     4  12  28  50  73 110 152 201 260 320 388 448
#     4  10  23  46  67 104 142 200 245 318 374 450
#     4  12  26  46  76 110 154 206 268 316 388 458
#     4  11  25  43  72 108 146 192 251 307 373 465
#     4  11  25  43  72 108 141 197 246 306 381 454
#     4  10  21  44  67  96 143 187 245 303 387 429
#
# _framework density 23.707837999999999
#
# number of rings (size 3 to 8) (size 9 to 14) (size 15 to 20)
#    0.000    1.067    2.667    3.600    5.600    0.533 
#    2.400    1.333    0.000    0.000    0.000    0.000 
#    0.000    0.000    0.000    0.000    0.000    0.000 
#
# Total GULP energy -83573.897347 kJ/mol
# GULP energy per Si atom -5571.593156 kJ/mol
# Density = 2.365388 g / cm^3
# Si number density = 23.707838 Si / 1000 Ang^3
#
#
#
# Elastic Constant Matrix: (Units=GPa)
#
#
# Indices 1 2 3 4 5 6 
#
# 1 95.4065 7.5503 19.7774 0.0000 -7.7734 0.0000
# 2 7.5503 45.2584 18.2328 0.0000 4.1372 0.0000
# 3 19.7774 18.2328 151.2886 0.0000 -3.3115 0.0000
# 4 0.0000 0.0000 0.0000 14.4510 0.0000 -8.5394
# 5 -7.7734 4.1372 -3.3115 0.0000 34.5828 0.0000
# 6 0.0000 0.0000 0.0000 -8.5394 0.0000 9.8498
#
#
#
# Elastic Compliance Matrix: (Units=1/GPa)
#
#
# Indices 1 2 3 4 5 6 
#
# 1 0.011065 -0.001598 -0.001198 0.000000 0.002564 0.000000
# 2 -0.001598 0.023780 -0.002733 0.000000 -0.003466 0.000000
# 3 -0.001198 -0.002733 0.007112 0.000000 0.000739 0.000000
# 4 0.000000 0.000000 0.000000 0.141888 0.000000 0.123011
# 5 0.002564 -0.003466 0.000739 0.000000 0.029978 0.000000
# 6 0.000000 0.000000 0.000000 0.123011 0.000000 0.208170
#
#
# Mechanical properties :
#
#
# Convention : Reuss Voigt Hill
#
# Bulk Modulus (GPa) = 32.36252 42.56382 37.46317
# Shear Modulus (GPa) = 11.27779 28.20293 19.74036
#
# Velocity S-wave (km/s) = 2.18342 3.45281 2.88870
# Velocity P-wave (km/s) = 4.47623 5.82136 5.19254
#
# Compressibility (1/GPa) = 0.03089994
#
# Stress axis : x y z
#
# Youngs Moduli (GPa) = 90.37434 42.05275 140.60762
#
# Poissons Ratio (x) = 0.06719 0.16842
# Poissons Ratio (y) = 0.14439 0.38426
# Poissons Ratio (z) = 0.10825 0.11492
#
# Static dielectric constant tensor:
#      x y z
#    x 1.895110 0.000000 0.014730 
#    y 0.000000 2.108990 0.000000 
#    z 0.014730 0.000000 2.014720 
# 
# From -- ./inp_files/61134.got.cif
#   From: 2010.05.17/outbox.cif.g08.bks.cpg/sg5_31_cif.got.tgz:61134.got - 2010.06.03 18:56:24.
