data_PCOD9125650
_publ_section_title
;
Structure prediction by ZEFSAII (Michael W. Deem and Ramdas Pophale) SiO2 
 PCOD9125650
Probable space group: C 2
;
_chemical_formula_sum "Si O2"
_cell_formula_units_Z 32
_cell_length_a 21.818240
_cell_length_b 11.880172
_cell_length_c 10.176359
_cell_angle_alpha 90.000000
_cell_angle_beta 144.780745
_cell_angle_gamma 90.000000
_cell_volume 1521.212926
_symmetry_space_group_name_H-M "C 2"
_symmetry_group_IT_number 5
_symmetry_cell_setting 'monoclinic'
loop_
_space_group_symop_operation_xyz
x,y,z
-x,y,-z
1/2+x,1/2+y,z
1/2-x,1/2+y,-z
loop_
_atom_site_type_symbol
_atom_site_label
_atom_site_fract_x
_atom_site_fract_y
_atom_site_fract_z
Si Si1 0.095575 0.623940 0.093166
Si Si2 0.317008 0.349469 0.647394
Si Si3 0.861911 0.041442 0.937445
Si Si4 0.975567 0.703411 0.297583
Si Si5 0.797075 0.448263 0.907956
Si Si6 0.342476 0.076743 0.239763
Si Si7 0.567440 0.436876 0.412640
Si Si8 0.116561 0.281257 0.146342
O O1 0.151946 0.719049 0.276562
O O2 0.167538 0.540125 0.138466
O O3 0.000000 0.562976 0.000000
O O4 0.039298 0.694619 0.881319
O O5 0.337319 0.428824 0.808757
O O6 0.382411 0.401653 0.640682
O O7 0.195983 0.339220 0.389207
O O8 0.763939 0.066707 0.863538
O O9 0.870193 0.147374 0.853457
O O10 0.971786 0.022007 0.210501
O O11 0.059415 0.605841 0.489349
O O12 0.018746 0.826408 0.393240
O O13 0.864940 0.681052 0.179221
O O14 0.669733 0.462354 0.681993
O O15 0.846400 0.335901 0.928993
O O16 0.842125 0.475662 0.131924
O O17 0.000000 0.299447 0.000000
#
# Coordination Sequence:
#
# PCOD9125650 Si02
#       8
#     4   4   4   4   4   4   4   4
#     4  11  20  38  69 101 133 168 228 285 336 399
#     4  11  23  40  68 104 132 178 226 283 341 404
#     4  12  25  42  69 100 139 176 225 280 343 409
#     4  10  21  42  69  93 129 174 236 277 318 397
#     4  10  25  42  65  99 136 181 226 276 342 404
#     4  10  24  41  64  99 130 176 223 280 331 388
#     4  11  22  43  70 100 131 177 232 284 339 396
#     4  11  26  43  66  98 144 180 216 281 354 409
#
# _framework density 21.035844999999998
#
# number of rings (size 3 to 8) (size 9 to 14) (size 15 to 20)
#    0.000    1.250    2.500    3.000    5.250    6.500 
#    0.000    0.000    0.000    0.000    0.000    0.000 
#    0.000    0.000    0.000    0.000    0.000    0.000 
#
# Total GULP energy -89143.791043 kJ/mol
# GULP energy per Si atom -5571.486940 kJ/mol
# Density = 2.098797 g / cm^3
# Si number density = 21.035845 Si / 1000 Ang^3
#
#
#
# Elastic Constant Matrix: (Units=GPa)
#
#
# Indices 1 2 3 4 5 6 
#
# 1 83.0625 3.5305 22.8882 0.0000 26.3271 0.0000
# 2 3.5305 77.1948 18.5498 0.0000 16.7150 0.0000
# 3 22.8882 18.5498 84.9027 0.0000 16.2646 0.0000
# 4 0.0000 0.0000 0.0000 30.2218 0.0000 -5.5819
# 5 26.3271 16.7150 16.2646 0.0000 34.3489 0.0000
# 6 0.0000 0.0000 0.0000 -5.5819 0.0000 13.9224
#
#
#
# Elastic Compliance Matrix: (Units=1/GPa)
#
#
# Indices 1 2 3 4 5 6 
#
# 1 0.016729 0.002652 -0.002624 0.000000 -0.012870 0.000000
# 2 0.002652 0.015214 -0.002454 0.000000 -0.008274 0.000000
# 3 -0.002624 -0.002454 0.013645 0.000000 -0.003256 0.000000
# 4 0.000000 0.000000 0.000000 0.035735 0.000000 0.014327
# 5 -0.012870 -0.008274 -0.003256 0.000000 0.044546 0.000000
# 6 0.000000 0.000000 0.000000 0.014327 0.000000 0.077571
#
#
# Mechanical properties :
#
#
# Convention : Reuss Voigt Hill
#
# Bulk Modulus (GPa) = 24.54745 37.23297 30.89021
# Shear Modulus (GPa) = 22.53575 29.04473 25.79024
#
# Velocity S-wave (km/s) = 3.27663 3.71984 3.50525
# Velocity P-wave (km/s) = 5.09997 6.01563 5.57663
#
# Compressibility (1/GPa) = 0.04073743
#
# Stress axis : x y z
#
# Youngs Moduli (GPa) = 59.77777 65.72773 73.28477
#
# Poissons Ratio (x) = -0.17432 0.19228
# Poissons Ratio (y) = -0.15854 0.17983
# Poissons Ratio (z) = 0.15684 0.16129
#
# Static dielectric constant tensor:
#      x y z
#    x 1.799490 0.000000 0.009180 
#    y 0.000000 1.783320 0.000000 
#    z 0.009180 0.000000 1.836120 
# 
# From -- ./inp_files/47501.got.cif
#   From: 2010.05.17/outbox.cif.g08.bks.cpg/sg5_24_cif.got.tgz:47501.got - 2010.06.03 18:56:24.
