data_PCOD9125588
_publ_section_title
;
Structure prediction by ZEFSAII (Michael W. Deem and Ramdas Pophale) SiO2 
 PCOD9125588
Probable space group: C 2
;
_chemical_formula_sum "Si O2"
_cell_formula_units_Z 20
_cell_length_a 7.371878
_cell_length_b 21.229026
_cell_length_c 6.345655
_cell_angle_alpha 90.000000
_cell_angle_beta 68.997196
_cell_angle_gamma 90.000000
_cell_volume 927.103549
_symmetry_space_group_name_H-M "C 2"
_symmetry_group_IT_number 5
_symmetry_cell_setting 'monoclinic'
loop_
_space_group_symop_operation_xyz
x,y,z
-x,y,-z
1/2+x,1/2+y,z
1/2-x,1/2+y,-z
loop_
_atom_site_type_symbol
_atom_site_label
_atom_site_fract_x
_atom_site_fract_y
_atom_site_fract_z
Si Si1 0.206855 0.182260 0.795884
Si Si2 0.798652 0.932655 0.451610
Si Si3 0.269854 0.572456 0.549035
Si Si4 0.000000 0.869803 0.000000
Si Si5 0.500000 0.135903 0.000000
Si Si6 0.197200 0.321335 0.785703
O O1 0.251419 0.125347 0.620542
O O2 0.212171 0.250885 0.686627
O O3 0.370956 0.178874 0.903828
O O4 0.000000 0.173899 0.000000
O O5 0.850753 0.912974 0.193465
O O6 0.690203 0.875797 0.613920
O O7 0.000000 0.936191 0.500000
O O8 0.712285 0.002244 0.502898
O O9 0.500000 0.572302 0.500000
O O10 0.144962 0.593347 0.801530
O O11 0.123578 0.832952 0.126248
O O12 0.000000 0.323397 0.000000
#
# Coordination Sequence:
#
# PCOD9125588 Si02
#       6
#     4   4   4   2   2   4
#     4  11  24  44  67  98 137 174 221 276 327 394
#     4   9  22  41  66  95 129 171 217 270 322 390
#     4  11  24  44  69  99 137 175 222 274 327 397
#     4  10  21  42  66  88 129 176 206 274 331 372
#     4  12  25  42  70  98 129 184 218 268 339 390
#     4  10  23  42  65  98 129 168 220 265 322 391
#
# _framework density 21.572562999999999
#
# number of rings (size 3 to 8) (size 9 to 14) (size 15 to 20)
#    0.000    1.600    2.000    1.200    2.800    8.800 
#    3.600    0.000    0.000    0.000    0.000    0.000 
#    0.000    0.000    0.000    0.000    0.000    0.000 
#
# Total GULP energy -55905.222118 kJ/mol
# GULP energy per Si atom -5590.522212 kJ/mol
# Density = 2.152346 g / cm^3
# Si number density = 21.572563 Si / 1000 Ang^3
#
#
#
# Elastic Constant Matrix: (Units=GPa)
#
#
# Indices 1 2 3 4 5 6 
#
# 1 86.9160 12.5045 9.0752 0.0000 -8.1446 0.0000
# 2 12.5045 213.9315 80.5432 0.0000 -4.0476 0.0000
# 3 9.0752 80.5432 108.3011 0.0000 -11.2697 0.0000
# 4 0.0000 0.0000 0.0000 0.9699 0.0000 8.1450
# 5 -8.1446 -4.0476 -11.2697 0.0000 31.9105 0.0000
# 6 0.0000 0.0000 0.0000 8.1450 0.0000 11.4413
#
#
#
# Elastic Compliance Matrix: (Units=1/GPa)
#
#
# Indices 1 2 3 4 5 6 
#
# 1 0.011881 -0.000524 -0.000308 0.000000 0.002857 0.000000
# 2 -0.000524 0.006541 -0.004929 0.000000 -0.001045 0.000000
# 3 -0.000308 -0.004929 0.013342 0.000000 0.004008 0.000000
# 4 0.000000 0.000000 0.000000 -0.207102 0.000000 0.147435
# 5 0.002857 -0.001045 0.004008 0.000000 0.033350 0.000000
# 6 0.000000 0.000000 0.000000 0.147435 0.000000 -0.017556
#
#
# Mechanical properties :
#
#
# Convention : Reuss Voigt Hill
#
# Bulk Modulus (GPa) = 49.40680 68.15493 58.78087
# Shear Modulus (GPa) = -35.39232 29.33271 -3.02980
#
# Velocity S-wave (km/s) = -4.05485 3.69144 -1.18639
# Velocity P-wave (km/s) = 1.01486 7.05910 5.04286
#
# Compressibility (1/GPa) = 0.02024013
#
# Stress axis : x y z
#
# Youngs Moduli (GPa) = 84.17009 152.87810 74.94870
#
# Poissons Ratio (x) = 0.08015 0.02311
# Poissons Ratio (y) = 0.04413 0.36946
# Poissons Ratio (z) = 0.02595 0.75361
#
# Static dielectric constant tensor:
#      x y z
#    x 1.673890 0.000000 0.001340 
#    y 0.000000 1.792510 0.000000 
#    z 0.001340 0.000000 1.746570 
# 
# From -- ./inp_files/2618.got.cif
#   From: 2010.05.17/outbox.cif.g08.bks.cpg/sg5_2_cif.got.tgz:2618.got - 2010.06.03 18:56:24.
