data_PCOD9125167
_publ_section_title
;
Structure prediction by ZEFSAII (Michael W. Deem and Ramdas Pophale) SiO2 
 PCOD9125167
Probable space group: C 2
;
_chemical_formula_sum "Si O2"
_cell_formula_units_Z 24
_cell_length_a 14.040971
_cell_length_b 11.817396
_cell_length_c 9.372737
_cell_angle_alpha 90.000000
_cell_angle_beta 130.725581
_cell_angle_gamma 90.000000
_cell_volume 1178.595212
_symmetry_space_group_name_H-M "C 2"
_symmetry_group_IT_number 5
_symmetry_cell_setting 'monoclinic'
loop_
_space_group_symop_operation_xyz
x,y,z
-x,y,-z
1/2+x,1/2+y,z
1/2-x,1/2+y,-z
loop_
_atom_site_type_symbol
_atom_site_label
_atom_site_fract_x
_atom_site_fract_y
_atom_site_fract_z
Si Si1 0.629962 0.217840 0.089126
Si Si2 0.010293 0.371083 0.842606
Si Si3 0.991655 0.949610 0.151820
Si Si4 0.258654 0.866641 0.425360
Si Si5 0.173853 0.146603 0.946725
Si Si6 0.621235 0.023805 0.699347
O O1 0.698553 0.253283 0.301853
O O2 0.734607 0.163264 0.096211
O O3 0.500000 0.156232 0.000000
O O4 0.579849 0.330742 0.953117
O O5 0.090378 0.256127 0.897027
O O6 0.075502 0.464369 0.801902
O O7 0.868578 0.354408 0.645449
O O8 0.000000 0.396373 0.000000
O O9 0.132019 0.932436 0.346432
O O10 0.911119 0.036534 0.161854
O O11 0.000000 0.001712 0.000000
O O12 0.321345 0.929141 0.349948
O O13 0.270630 0.114315 0.167118
O O14 0.500000 0.072137 0.500000
#
# Coordination Sequence:
#
# PCOD9125167 Si02
#       6
#     4   4   4   4   4   4
#     4   9  19  36  61  88 123 168 205 258 310 376
#     4  11  24  38  62  91 132 160 207 275 305 354
#     4   9  17  35  63  88 122 167 205 250 308 387
#     4   9  18  42  60  84 122 177 203 237 323 380
#     4  12  19  36  64  98 117 163 222 255 300 373
#     4  10  21  40  63  84 126 175 206 249 314 380
#
# _framework density 20.363223999999999
#
# number of rings (size 3 to 8) (size 9 to 14) (size 15 to 20)
#    0.000    2.333    5.000    0.500    0.000    0.667 
#    6.000    3.333    0.000    0.000    0.000    0.000 
#    0.000    0.000    0.000    0.000    0.000    0.000 
#
# Total GULP energy -66908.704166 kJ/mol
# GULP energy per Si atom -5575.725347 kJ/mol
# Density = 2.031688 g / cm^3
# Si number density = 20.363224 Si / 1000 Ang^3
#
#
#
# Elastic Constant Matrix: (Units=GPa)
#
#
# Indices 1 2 3 4 5 6 
#
# 1 154.2374 54.0728 66.7539 0.0000 18.4415 0.0000
# 2 54.0728 63.0004 41.8155 0.0000 11.6096 0.0000
# 3 66.7539 41.8155 161.4920 0.0000 34.1415 0.0000
# 4 0.0000 0.0000 0.0000 13.5230 0.0000 6.0904
# 5 18.4415 11.6096 34.1415 0.0000 41.4285 0.0000
# 6 0.0000 0.0000 0.0000 6.0904 0.0000 40.6526
#
#
#
# Elastic Compliance Matrix: (Units=1/GPa)
#
#
# Indices 1 2 3 4 5 6 
#
# 1 0.009946 -0.006977 -0.002158 0.000000 -0.000694 0.000000
# 2 -0.006977 0.024143 -0.003141 0.000000 -0.001072 0.000000
# 3 -0.002158 -0.003141 0.009093 0.000000 -0.005652 0.000000
# 4 0.000000 0.000000 0.000000 0.079299 0.000000 -0.011880
# 5 -0.000694 -0.001072 -0.005652 0.000000 0.029405 0.000000
# 6 0.000000 0.000000 0.000000 -0.011880 0.000000 0.026379
#
#
# Mechanical properties :
#
#
# Convention : Reuss Voigt Hill
#
# Bulk Modulus (GPa) = 53.67559 78.22379 65.94969
# Shear Modulus (GPa) = 23.92038 33.52665 28.72351
#
# Velocity S-wave (km/s) = 3.43109 4.06203 3.75981
# Velocity P-wave (km/s) = 6.48944 7.77803 7.16277
#
# Compressibility (1/GPa) = 0.01863044
#
# Stress axis : x y z
#
# Youngs Moduli (GPa) = 100.53857 41.41954 109.97810
#
# Poissons Ratio (x) = 0.28897 0.23736
# Poissons Ratio (y) = 0.70141 0.34545
# Poissons Ratio (z) = 0.21699 0.13010
#
# Static dielectric constant tensor:
#      x y z
#    x 1.746050 0.000000 0.007000 
#    y 0.000000 1.774460 0.000000 
#    z 0.007000 0.000000 1.723050 
# 
# From -- ./inp_files/24255.got.cif
#   From: 2010.05.17/outbox.cif.g08.bks.cpg/sg5_13_cif.got.tgz:24255.got - 2010.06.03 18:56:24.
