data_PCOD9125455
_publ_section_title
;
Structure prediction by ZEFSAII (Michael W. Deem and Ramdas Pophale) SiO2 
 PCOD9125455
Probable space group: C 2
;
_chemical_formula_sum "Si O2"
_cell_formula_units_Z 26
_cell_length_a 21.085899
_cell_length_b 9.923135
_cell_length_c 8.278831
_cell_angle_alpha 90.000000
_cell_angle_beta 134.543194
_cell_angle_gamma 90.000000
_cell_volume 1234.610909
_symmetry_space_group_name_H-M "C 2"
_symmetry_group_IT_number 5
_symmetry_cell_setting 'monoclinic'
loop_
_space_group_symop_operation_xyz
x,y,z
-x,y,-z
1/2+x,1/2+y,z
1/2-x,1/2+y,-z
loop_
_atom_site_type_symbol
_atom_site_label
_atom_site_fract_x
_atom_site_fract_y
_atom_site_fract_z
Si Si1 0.000000 0.734170 0.500000
Si Si2 0.636661 0.124742 0.187063
Si Si3 0.526448 0.753788 0.376238
Si Si4 0.541255 0.038130 0.299226
Si Si5 0.608335 0.425166 0.202712
Si Si6 0.901460 0.987435 0.165161
Si Si7 0.817542 0.072761 0.348354
O O1 0.055737 0.628923 0.486839
O O2 0.947992 0.843706 0.292818
O O3 0.625718 0.041300 0.332026
O O4 0.645169 0.275495 0.265247
O O5 0.715015 0.085068 0.207929
O O6 0.543454 0.113055 0.928605
O O7 0.500000 0.814452 0.500000
O O8 0.470962 0.613714 0.273537
O O9 0.629419 0.713732 0.553967
O O10 0.510453 0.881973 0.238291
O O11 0.639158 0.493108 0.423242
O O12 0.500000 0.427620 0.000000
O O13 0.640047 0.484899 0.087205
O O14 0.839609 0.014402 0.210527
#
# Coordination Sequence:
#
# PCOD9125455 Si02
#       7
#     2   4   4   4   4   4   4
#     4  12  18  42  74  94 120 176 236 262 320 404
#     4  11  25  43  62  98 139 165 221 280 323 395
#     4  10  21  41  67  93 131 170 216 263 330 387
#     4  11  23  41  68  94 134 178 209 273 345 385
#     4  12  21  44  73  94 125 180 228 266 331 395
#     4  11  21  43  72  95 125 179 223 265 321 404
#     4  11  25  43  65  99 134 169 223 277 319 393
#
# _framework density 21.059266999999998
#
# number of rings (size 3 to 8) (size 9 to 14) (size 15 to 20)
#    0.000    0.923    7.692    0.923    2.154    2.462 
#    8.308    0.000    0.000    0.000    0.000    0.000 
#    0.000    0.000    0.000    0.000    0.000    0.000 
#
# Total GULP energy -72367.907381 kJ/mol
# GULP energy per Si atom -5566.762106 kJ/mol
# Density = 2.101134 g / cm^3
# Si number density = 21.059267 Si / 1000 Ang^3
#
#
#
# Elastic Constant Matrix: (Units=GPa)
#
#
# Indices 1 2 3 4 5 6 
#
# 1 166.3689 44.1569 37.0596 0.0000 -17.2501 0.0000
# 2 44.1569 89.0954 11.5273 0.0000 -13.4702 0.0000
# 3 37.0596 11.5273 30.6950 0.0000 -15.5290 0.0000
# 4 0.0000 0.0000 0.0000 11.3190 0.0000 1.7151
# 5 -17.2501 -13.4702 -15.5290 0.0000 33.6114 0.0000
# 6 0.0000 0.0000 0.0000 1.7151 0.0000 -17.7633
#
#
#
# Elastic Compliance Matrix: (Units=1/GPa)
#
#
# Indices 1 2 3 4 5 6 
#
# 1 0.009081 -0.003377 -0.010469 0.000000 -0.001530 0.000000
# 2 -0.003377 0.013377 0.001160 0.000000 0.004164 0.000000
# 3 -0.010469 0.001160 0.055203 0.000000 0.020597 0.000000
# 4 0.000000 0.000000 0.000000 0.087073 0.000000 0.008407
# 5 -0.001530 0.004164 0.020597 0.000000 0.040151 0.000000
# 6 0.000000 0.000000 0.000000 0.008407 0.000000 -0.055484
#
#
# Mechanical properties :
#
#
# Convention : Reuss Voigt Hill
#
# Bulk Modulus (GPa) = 19.12467 52.40523 35.76495
# Shear Modulus (GPa) = 26.01422 18.32778 22.17100
#
# Velocity S-wave (km/s) = 3.51848 2.95328 3.24819
# Velocity P-wave (km/s) = 5.06037 6.04713 5.57562
#
# Compressibility (1/GPa) = 0.05228848
#
# Stress axis : x y z
#
# Youngs Moduli (GPa) = 110.12564 74.75441 18.11500
#
# Poissons Ratio (x) = 0.25246 0.18965
# Poissons Ratio (y) = 0.37192 -0.02102
# Poissons Ratio (z) = 1.15292 -0.08674
#
# Static dielectric constant tensor:
#      x y z
#    x 1.822720 0.000000 -0.049030 
#    y 0.000000 1.740920 0.000000 
#    z -0.049030 0.000000 1.818550 
# 
# From -- ./inp_files/29161.got.cif
#   From: 2010.05.17/outbox.cif.g08.bks.cpg/sg5_15_cif.got.tgz:29161.got - 2010.06.03 18:56:24.
