data_PCOD9125821
_publ_section_title
;
Structure prediction by ZEFSAII (Michael W. Deem and Ramdas Pophale) SiO2 
 PCOD9125821
Probable space group: C 2
;
_chemical_formula_sum "Si O2"
_cell_formula_units_Z 28
_cell_length_a 11.787669
_cell_length_b 8.159495
_cell_length_c 15.014139
_cell_angle_alpha 90.000000
_cell_angle_beta 119.664761
_cell_angle_gamma 90.000000
_cell_volume 1254.814340
_symmetry_space_group_name_H-M "C 2"
_symmetry_group_IT_number 5
_symmetry_cell_setting 'monoclinic'
loop_
_space_group_symop_operation_xyz
x,y,z
-x,y,-z
1/2+x,1/2+y,z
1/2-x,1/2+y,-z
loop_
_atom_site_type_symbol
_atom_site_label
_atom_site_fract_x
_atom_site_fract_y
_atom_site_fract_z
Si Si1 0.158258 0.897030 0.389070
Si Si2 0.616476 0.036886 0.870599
Si Si3 0.583105 0.330570 0.619214
Si Si4 0.657902 0.955013 0.229981
Si Si5 0.145945 0.464031 0.676197
Si Si6 0.610555 0.776267 0.394700
Si Si7 0.142099 0.271597 0.035953
O O1 0.231033 0.883712 0.323952
O O2 0.262011 0.838920 0.503363
O O3 0.023056 0.802190 0.344657
O O4 0.115451 0.081827 0.395037
O O5 0.461799 0.083577 0.817672
O O6 0.653452 0.981287 0.785029
O O7 0.730520 0.165278 0.935238
O O8 0.624656 0.892154 0.945950
O O9 0.500000 0.372109 0.500000
O O10 0.689820 0.469121 0.682926
O O11 0.640997 0.147352 0.632133
O O12 0.611339 0.836583 0.292612
O O13 0.666985 0.871475 0.136958
O O14 0.014812 0.360592 0.609209
O O15 0.000000 0.187324 0.000000
#
# Coordination Sequence:
#
# PCOD9125821 Si02
#       7
#     4   4   4   4   4   4   4
#     4  12  23  40  62  93 131 179 217 266 317 384
#     4  10  22  44  73  95 129 172 215 279 339 390
#     4  12  22  42  69  94 138 186 220 257 324 391
#     4  10  21  44  66  92 136 175 212 272 329 384
#     4  11  23  44  62  94 133 170 216 276 323 387
#     4  11  22  40  63  90 132 173 221 269 322 378
#     4  10  21  45  71  95 128 169 216 275 341 395
#
# _framework density 22.314057999999999
#
# number of rings (size 3 to 8) (size 9 to 14) (size 15 to 20)
#    0.000    1.143    4.286    2.143    0.000    1.143 
#   15.429    5.000    0.000    0.000    0.000    0.000 
#    0.000    0.000    0.000    0.000    0.000    0.000 
#
# Total GULP energy -78134.288875 kJ/mol
# GULP energy per Si atom -5581.020634 kJ/mol
# Density = 2.226327 g / cm^3
# Si number density = 22.314058 Si / 1000 Ang^3
#
#
#
# Elastic Constant Matrix: (Units=GPa)
#
#
# Indices 1 2 3 4 5 6 
#
# 1 179.2327 29.6587 35.9325 0.0000 30.4620 0.0000
# 2 29.6587 40.7909 13.8861 0.0000 13.4625 0.0000
# 3 35.9325 13.8861 100.5654 0.0000 9.8676 0.0000
# 4 0.0000 0.0000 0.0000 12.9330 0.0000 0.5713
# 5 30.4620 13.4625 9.8676 0.0000 40.5782 0.0000
# 6 0.0000 0.0000 0.0000 0.5713 0.0000 36.2318
#
#
#
# Elastic Compliance Matrix: (Units=1/GPa)
#
#
# Indices 1 2 3 4 5 6 
#
# 1 0.007124 -0.003335 -0.001710 0.000000 -0.003826 0.000000
# 2 -0.003335 0.029989 -0.002273 0.000000 -0.006893 0.000000
# 3 -0.001710 -0.002273 0.010929 0.000000 -0.000620 0.000000
# 4 0.000000 0.000000 0.000000 0.077376 0.000000 -0.001220
# 5 -0.003826 -0.006893 -0.000620 0.000000 0.029954 0.000000
# 6 0.000000 0.000000 0.000000 -0.001220 0.000000 0.027619
#
#
# Mechanical properties :
#
#
# Convention : Reuss Voigt Hill
#
# Bulk Modulus (GPa) = 29.93378 53.28263 41.60820
# Shear Modulus (GPa) = 23.95069 34.02270 28.98669
#
# Velocity S-wave (km/s) = 3.27975 3.90900 3.60812
# Velocity P-wave (km/s) = 5.27126 6.65613 6.00376
#
# Compressibility (1/GPa) = 0.03340708
#
# Stress axis : x y z
#
# Youngs Moduli (GPa) = 140.36612 33.34558 91.49699
#
# Poissons Ratio (x) = 0.11122 0.15642
# Poissons Ratio (y) = 0.46816 0.20796
# Poissons Ratio (z) = 0.23997 0.07579
#
# Static dielectric constant tensor:
#      x y z
#    x 1.926530 0.000000 0.044070 
#    y 0.000000 1.808310 0.000000 
#    z 0.044070 0.000000 1.838140 
# 
# From -- ./inp_files/52501.got.cif
#   From: 2010.05.17/outbox.cif.g08.bks.cpg/sg5_27_cif.got.tgz:52501.got - 2010.06.03 18:56:24.
