data_PCOD9125404
_publ_section_title
;
Structure prediction by ZEFSAII (Michael W. Deem and Ramdas Pophale) SiO2 
 PCOD9125404
Probable space group: C 2
;
_chemical_formula_sum "Si O2"
_cell_formula_units_Z 32
_cell_length_a 13.783770
_cell_length_b 13.699608
_cell_length_c 8.508849
_cell_angle_alpha 90.000000
_cell_angle_beta 74.962189
_cell_angle_gamma 90.000000
_cell_volume 1551.721783
_symmetry_space_group_name_H-M "C 2"
_symmetry_group_IT_number 5
_symmetry_cell_setting 'monoclinic'
loop_
_space_group_symop_operation_xyz
x,y,z
-x,y,-z
1/2+x,1/2+y,z
1/2-x,1/2+y,-z
loop_
_atom_site_type_symbol
_atom_site_label
_atom_site_fract_x
_atom_site_fract_y
_atom_site_fract_z
Si Si1 0.761595 0.623810 0.597237
Si Si2 0.222443 0.853974 0.366650
Si Si3 0.416853 0.490101 0.395450
Si Si4 0.416722 0.222306 0.916836
Si Si5 0.724768 0.055035 0.064108
Si Si6 0.588961 0.937484 0.873977
Si Si7 0.039755 0.598564 0.653023
Si Si8 0.097757 0.936820 0.122324
O O1 0.771854 0.737587 0.635063
O O2 0.652415 0.585819 0.591000
O O3 0.841862 0.612633 0.423831
O O4 0.788380 0.559474 0.741555
O O5 0.163936 0.902982 0.537793
O O6 0.155405 0.899336 0.255000
O O7 0.335374 0.886941 0.279366
O O8 0.500000 0.498856 0.500000
O O9 0.485885 0.468060 0.215851
O O10 0.474053 0.194142 0.729174
O O11 0.400457 0.334045 0.967498
O O12 0.500000 0.183663 0.000000
O O13 0.314462 0.161807 0.969848
O O14 0.658502 0.983163 0.983067
O O15 0.837843 0.023245 0.979232
O O16 0.532703 0.018645 0.791769
O O17 0.500000 0.879597 0.000000
O O18 0.000000 0.566082 0.500000
#
# Coordination Sequence:
#
# PCOD9125404 Si02
#       8
#     4   4   4   4   4   4   4   4
#     4  12  23  40  67  96 126 167 219 263 321 381
#     4  10  21  41  65  89 126 173 211 257 324 386
#     4  10  23  43  65  93 130 174 212 268 322 375
#     4  12  22  38  63  97 124 165 214 264 319 377
#     4  11  22  40  62  92 127 163 206 267 319 371
#     4  11  20  40  61  90 127 166 203 265 322 373
#     4  12  20  36  67  93 125 159 215 266 312 376
#     4  10  23  40  63  90 133 165 215 260 319 383
#
# _framework density 20.622253000000001
#
# number of rings (size 3 to 8) (size 9 to 14) (size 15 to 20)
#    0.000    1.000    6.250    0.750    1.750    1.000 
#    2.250    0.625    0.000    0.000    0.000    0.000 
#    0.000    0.000    0.000    0.000    0.000    0.000 
#
# Total GULP energy -89123.086885 kJ/mol
# GULP energy per Si atom -5570.192930 kJ/mol
# Density = 2.057532 g / cm^3
# Si number density = 20.622253 Si / 1000 Ang^3
#
#
#
# Elastic Constant Matrix: (Units=GPa)
#
#
# Indices 1 2 3 4 5 6 
#
# 1 98.2542 40.1925 41.6051 0.0000 -26.3715 0.0000
# 2 40.1925 78.3926 46.4278 0.0000 -30.2333 0.0000
# 3 41.6051 46.4278 88.5120 0.0000 -36.0403 0.0000
# 4 0.0000 0.0000 0.0000 905.9380 0.0000 -8.0591
# 5 -26.3715 -30.2333 -36.0403 0.0000 51.0953 0.0000
# 6 0.0000 0.0000 0.0000 -8.0591 0.0000 25.8767
#
#
#
# Elastic Compliance Matrix: (Units=1/GPa)
#
#
# Indices 1 2 3 4 5 6 
#
# 1 0.013978 -0.004271 -0.003397 0.000000 0.002291 0.000000
# 2 -0.004271 0.021101 -0.006838 0.000000 0.005458 0.000000
# 3 -0.003397 -0.006838 0.019810 0.000000 0.008173 0.000000
# 4 0.000000 0.000000 0.000000 0.001107 0.000000 0.000345
# 5 0.002291 0.005458 0.008173 0.000000 0.029748 0.000000
# 6 0.000000 0.000000 0.000000 0.000345 0.000000 0.038752
#
#
# Mechanical properties :
#
#
# Convention : Reuss Voigt Hill
#
# Bulk Modulus (GPa) = 38.64674 57.95662 48.30168
# Shear Modulus (GPa) = 30.83851 205.71088 118.27470
#
# Velocity S-wave (km/s) = 3.87124 9.99842 7.58139
# Velocity P-wave (km/s) = 6.22599 12.70654 10.00548
#
# Compressibility (1/GPa) = 0.02587540
#
# Stress axis : x y z
#
# Youngs Moduli (GPa) = 71.53915 47.39115 50.48026
#
# Poissons Ratio (x) = 0.20242 0.17150
# Poissons Ratio (y) = 0.30556 0.34520
# Poissons Ratio (z) = 0.24304 0.32408
#
# Static dielectric constant tensor:
#      x y z
#    x 1.076130 0.000000 0.052080 
#    y 0.000000 1.738680 0.000000 
#    z 0.052080 0.000000 1.820210 
# 
# From -- ./inp_files/24600.got.cif
#   From: 2010.05.17/outbox.cif.g08.bks.cpg/sg5_13_cif.got.tgz:24600.got - 2010.06.03 18:56:24.
