data_PCOD9125108
_publ_section_title
;
Structure prediction by ZEFSAII (Michael W. Deem and Ramdas Pophale) SiO2 
 PCOD9125108
Probable space group: C 2
;
_chemical_formula_sum "Si O2"
_cell_formula_units_Z 30
_cell_length_a 13.987707
_cell_length_b 5.211379
_cell_length_c 17.867105
_cell_angle_alpha 90.000000
_cell_angle_beta 57.706170
_cell_angle_gamma 90.000000
_cell_volume 1100.966732
_symmetry_space_group_name_H-M "C 2"
_symmetry_group_IT_number 5
_symmetry_cell_setting 'monoclinic'
loop_
_space_group_symop_operation_xyz
x,y,z
-x,y,-z
1/2+x,1/2+y,z
1/2-x,1/2+y,-z
loop_
_atom_site_type_symbol
_atom_site_label
_atom_site_fract_x
_atom_site_fract_y
_atom_site_fract_z
Si Si1 0.706091 0.321980 0.978095
Si Si2 0.327215 0.507067 0.632801
Si Si3 0.604862 0.757092 0.204962
Si Si4 0.000000 0.546870 0.000000
Si Si5 0.809061 0.128610 0.473732
Si Si6 0.462958 0.238276 0.694928
Si Si7 0.834808 0.915331 0.312976
Si Si8 0.601131 0.790717 0.816855
O O1 0.769480 0.316800 0.872877
O O2 0.726210 0.600954 0.004374
O O3 0.580186 0.225165 0.017240
O O4 0.347861 0.487462 0.534533
O O5 0.432689 0.381372 0.630781
O O6 0.217781 0.392929 0.727320
O O7 0.287594 0.803022 0.650533
O O8 0.590411 0.454546 0.226627
O O9 0.515775 0.848431 0.178679
O O10 0.582264 0.953236 0.281291
O O11 0.922061 0.375936 0.088881
O O12 0.791622 0.424058 0.500404
O O13 0.856477 0.130527 0.368678
O O14 0.590642 0.212609 0.671662
O O15 0.884779 0.992429 0.212304
#
# Coordination Sequence:
#
# PCOD9125108 Si02
#       8
#     4   4   4   2   4   4   4   4
#     4  12  27  52  76 107 149 194 253 324 374 445
#     4  11  23  43  72 105 142 192 247 299 368 445
#     4  11  24  48  69 100 148 191 241 312 371 430
#     4  12  28  50  76 112 146 204 260 310 380 446
#     4  10  21  39  71 105 141 189 237 298 370 437
#     4  11  25  41  71 103 143 191 240 302 367 443
#     4  10  23  45  71 105 151 195 241 309 376 440
#     4  11  23  47  72 102 149 196 246 308 371 445
#
# _framework density 27.248778999999999
#
# number of rings (size 3 to 8) (size 9 to 14) (size 15 to 20)
#    0.000    1.067    4.000    1.600    1.867    1.067 
#    4.800    0.000    0.000    3.200    0.000    0.000 
#    0.000    0.000    0.000    0.000    0.000    0.000 
#
# Total GULP energy -83512.906942 kJ/mol
# GULP energy per Si atom -5567.527129 kJ/mol
# Density = 2.718676 g / cm^3
# Si number density = 27.248779 Si / 1000 Ang^3
#
#
#
# Elastic Constant Matrix: (Units=GPa)
#
#
# Indices 1 2 3 4 5 6 
#
# 1 104.5161 21.2267 32.8283 0.0011 17.7123 0.0052
# 2 21.2267 93.8586 19.8112 0.0067 -3.0770 0.0091
# 3 32.8283 19.8112 101.7914 -0.0001 -4.4728 0.0016
# 4 0.0011 0.0067 -0.0001 44.5069 -0.0001 -5.8075
# 5 17.7123 -3.0770 -4.4728 -0.0001 44.9783 0.0021
# 6 0.0052 0.0091 0.0016 -5.8075 0.0021 23.1995
#
#
#
# Elastic Compliance Matrix: (Units=1/GPa)
#
#
# Indices 1 2 3 4 5 6 
#
# 1 0.012053 -0.002116 -0.003707 0.000000 -0.005260 -0.000001
# 2 -0.002116 0.011496 -0.001490 -0.000002 0.001472 -0.000005
# 3 -0.003707 -0.001490 0.011419 0.000000 0.002493 0.000001
# 4 0.000000 -0.000002 0.000000 0.023227 0.000000 0.005814
# 5 -0.005260 0.001472 0.002493 0.000000 0.024653 -0.000002
# 6 -0.000001 -0.000005 0.000001 0.005814 -0.000002 0.044560
#
#
# Mechanical properties :
#
#
# Convention : Reuss Voigt Hill
#
# Bulk Modulus (GPa) = 49.15864 49.76650 49.46257
# Shear Modulus (GPa) = 33.59895 37.62361 35.61128
#
# Velocity S-wave (km/s) = 3.51528 3.71987 3.61902
# Velocity P-wave (km/s) = 5.87845 6.06245 5.97116
#
# Compressibility (1/GPa) = 0.02034230
#
# Stress axis : x y z
#
# Youngs Moduli (GPa) = 82.96510 86.98927 87.57343
#
# Poissons Ratio (x) = 0.18407 0.32459
# Poissons Ratio (y) = 0.17555 0.13051
# Poissons Ratio (z) = 0.30751 0.12964
#
# Static dielectric constant tensor:
#      x y z
#    x 2.225130 0.000000 -0.112370 
#    y 0.000000 2.302030 0.000000 
#    z -0.112370 0.000000 2.328540 
# 
# From -- ./inp_files/61208.got.cif
#   From: 2010.05.17/outbox.cif.g08.bks.cpg/sg5_31_cif.got.tgz:61208.got - 2010.06.03 18:56:24.
