data_PCOD9125244
_publ_section_title
;
Structure prediction by ZEFSAII (Michael W. Deem and Ramdas Pophale) SiO2 
 PCOD9125244
Probable space group: C 2
;
_chemical_formula_sum "Si O2"
_cell_formula_units_Z 26
_cell_length_a 24.770350
_cell_length_b 8.475308
_cell_length_c 11.248001
_cell_angle_alpha 90.000000
_cell_angle_beta 28.884727
_cell_angle_gamma 90.000000
_cell_volume 1140.654624
_symmetry_space_group_name_H-M "C 2"
_symmetry_group_IT_number 5
_symmetry_cell_setting 'monoclinic'
loop_
_space_group_symop_operation_xyz
x,y,z
-x,y,-z
1/2+x,1/2+y,z
1/2-x,1/2+y,-z
loop_
_atom_site_type_symbol
_atom_site_label
_atom_site_fract_x
_atom_site_fract_y
_atom_site_fract_z
Si Si1 0.549433 0.344090 0.283090
Si Si2 0.198369 0.569705 0.078358
Si Si3 0.000000 0.324089 0.500000
Si Si4 0.341398 0.143997 0.592506
Si Si5 0.489074 0.951897 0.883234
Si Si6 0.476149 0.636882 0.299442
Si Si7 0.756340 0.973916 0.722273
O O1 0.500000 0.415136 0.500000
O O2 0.657258 0.239101 0.106325
O O3 0.453951 0.218772 0.431978
O O4 0.547005 0.478230 0.187833
O O5 0.100397 0.441197 0.274942
O O6 0.231566 0.592448 0.151781
O O7 0.274501 0.496865 0.829532
O O8 0.027963 0.226751 0.564777
O O9 0.397825 0.012180 0.400936
O O10 0.280855 0.290844 0.646544
O O11 0.477934 0.766472 0.878369
O O12 0.500000 0.988323 0.000000
O O13 0.370362 0.020210 0.064481
O O14 0.355561 0.581835 0.483022
#
# Coordination Sequence:
#
# PCOD9125244 Si02
#       7
#     4   4   2   4   4   4   4
#     4   9  16  34  61  90 135 169 196 260 331 393
#     4  11  18  37  65  97 141 175 199 261 353 412
#     4  12  18  36  66  96 148 168 208 280 330 408
#     4  10  21  40  65  99 134 170 220 272 324 416
#     4  12  26  49  69  87 133 185 232 291 330 365
#     4  11  23  39  65 103 136 170 224 277 324 419
#     4  11  25  41  67 101 132 175 226 264 351 407
#
# _framework density 22.793928000000001
#
# number of rings (size 3 to 8) (size 9 to 14) (size 15 to 20)
#    0.000    1.231    7.692    0.000    2.154    1.231 
#    2.769    3.077    0.000    0.000    0.000    0.000 
#    0.000    0.000    0.000    0.000    0.000    0.000 
#
# Total GULP energy -72573.199122 kJ/mol
# GULP energy per Si atom -5582.553779 kJ/mol
# Density = 2.274205 g / cm^3
# Si number density = 22.793928 Si / 1000 Ang^3
#
#
#
# Elastic Constant Matrix: (Units=GPa)
#
#
# Indices 1 2 3 4 5 6 
#
# 1 71.3444 12.4314 25.1646 0.0000 0.5916 0.0000
# 2 12.4314 80.2953 10.5912 0.0000 -0.3551 0.0000
# 3 25.1646 10.5912 46.0984 0.0000 -13.7225 0.0000
# 4 0.0000 0.0000 0.0000 33.2365 0.0000 -3.5911
# 5 0.5916 -0.3551 -13.7225 0.0000 32.1680 0.0000
# 6 0.0000 0.0000 0.0000 -3.5911 0.0000 3.7842
#
#
#
# Elastic Compliance Matrix: (Units=1/GPa)
#
#
# Indices 1 2 3 4 5 6 
#
# 1 0.018235 -0.001374 -0.011160 0.000000 -0.005111 0.000000
# 2 -0.001374 0.012993 -0.002503 0.000000 -0.000899 0.000000
# 3 -0.011160 -0.002503 0.032546 0.000000 0.014061 0.000000
# 4 0.000000 0.000000 0.000000 0.033525 0.000000 0.031814
# 5 -0.005111 -0.000899 0.014061 0.000000 0.037169 0.000000
# 6 0.000000 0.000000 0.000000 0.031814 0.000000 0.294449
#
#
# Mechanical properties :
#
#
# Convention : Reuss Voigt Hill
#
# Bulk Modulus (GPa) = 29.67357 32.67917 31.17637
# Shear Modulus (GPa) = 10.63326 23.80780 17.22053
#
# Velocity S-wave (km/s) = 2.16219 3.23535 2.75160
# Velocity P-wave (km/s) = 4.39089 5.32208 4.87875
#
# Compressibility (1/GPa) = 0.03370003
#
# Stress axis : x y z
#
# Youngs Moduli (GPa) = 54.84078 76.96532 30.72608
#
# Poissons Ratio (x) = 0.10572 0.34290
# Poissons Ratio (y) = 0.07533 0.07690
# Poissons Ratio (z) = 0.61202 0.19263
#
# Static dielectric constant tensor:
#      x y z
#    x 1.866940 0.000000 -0.016490 
#    y 0.000000 1.873700 0.000000 
#    z -0.016490 0.000000 1.861290 
# 
# From -- ./inp_files/47913.got.cif
#   From: 2010.05.17/outbox.cif.g08.bks.cpg/sg5_24_cif.got.tgz:47913.got - 2010.06.03 18:56:24.
