data_PCOD9125150
_publ_section_title
;
Structure prediction by ZEFSAII (Michael W. Deem and Ramdas Pophale) SiO2 
 PCOD9125150
Probable space group: C 2
;
_chemical_formula_sum "Si O2"
_cell_formula_units_Z 28
_cell_length_a 9.028208
_cell_length_b 5.281756
_cell_length_c 32.085020
_cell_angle_alpha 90.000000
_cell_angle_beta 126.691137
_cell_angle_gamma 90.000000
_cell_volume 1226.832100
_symmetry_space_group_name_H-M "C 2"
_symmetry_group_IT_number 5
_symmetry_cell_setting 'monoclinic'
loop_
_space_group_symop_operation_xyz
x,y,z
-x,y,-z
1/2+x,1/2+y,z
1/2-x,1/2+y,-z
loop_
_atom_site_type_symbol
_atom_site_label
_atom_site_fract_x
_atom_site_fract_y
_atom_site_fract_z
Si Si1 0.907429 0.760020 0.560589
Si Si2 0.873762 0.118866 0.019793
Si Si3 0.354653 0.737271 0.858089
Si Si4 0.532778 0.762667 0.457546
Si Si5 0.048454 0.631323 0.342290
Si Si6 0.934537 0.739038 0.818599
Si Si7 0.696700 0.632121 0.696086
O O1 0.758259 0.797878 0.498316
O O2 0.039498 0.534055 0.568604
O O3 0.842683 0.683919 0.595794
O O4 0.001568 0.030870 0.578134
O O5 0.003202 0.178263 0.080927
O O6 0.766051 0.855233 0.008274
O O7 0.000000 0.098859 0.000000
O O8 0.148643 0.756426 0.841729
O O9 0.405685 0.001796 0.844663
O O10 0.369680 0.501559 0.828694
O O11 0.500000 0.710978 0.500000
O O12 0.896873 0.855712 0.316303
O O13 0.167275 0.647287 0.320599
O O14 0.954800 0.356732 0.330824
O O15 0.815533 0.683698 0.757469
#
# Coordination Sequence:
#
# PCOD9125150 Si02
#       7
#     4   4   4   4   4   4   4
#     4  10  23  38  61  92 119 167 210 264 316 405
#     4  12  25  44  67 101 144 180 225 279 335 399
#     4  12  25  44  72 101 133 186 227 278 335 398
#     4  10  21  40  62  87 123 160 213 259 320 377
#     4  12  27  45  71 100 137 175 223 272 354 399
#     4  12  25  45  71  98 136 174 239 278 335 398
#     4  12  26  48  69 102 134 179 220 291 335 399
#
# _framework density 22.823007
#
# number of rings (size 3 to 8) (size 9 to 14) (size 15 to 20)
#    0.000    0.571    0.000    8.571    4.000    0.000 
#    0.000    0.000    0.000    0.000    0.000    0.000 
#    0.000    0.000    0.000    0.000    0.000    0.000 
#
# Total GULP energy -78385.612576 kJ/mol
# GULP energy per Si atom -5598.972327 kJ/mol
# Density = 2.277106 g / cm^3
# Si number density = 22.823007 Si / 1000 Ang^3
#
#
#
# Elastic Constant Matrix: (Units=GPa)
#
#
# Indices 1 2 3 4 5 6 
#
# 1 119.5330 51.3545 -8.8734 0.0000 -29.3450 0.0000
# 2 51.3545 125.8506 -29.2997 0.0000 -3.2860 0.0000
# 3 -8.8734 -29.2997 72.8117 0.0000 -8.9483 0.0000
# 4 0.0000 0.0000 0.0000 39.7008 0.0000 -13.2554
# 5 -29.3450 -3.2860 -8.9483 0.0000 33.2648 0.0000
# 6 0.0000 0.0000 0.0000 -13.2554 0.0000 116.5287
#
#
#
# Elastic Compliance Matrix: (Units=1/GPa)
#
#
# Indices 1 2 3 4 5 6 
#
# 1 0.013418 -0.004918 0.001087 0.000000 0.011643 0.000000
# 2 -0.004918 0.010685 0.003409 0.000000 -0.002366 0.000000
# 3 0.001087 0.003409 0.015924 0.000000 0.005579 0.000000
# 4 0.000000 0.000000 0.000000 0.026183 0.000000 0.002978
# 5 0.011643 -0.002366 0.005579 0.000000 0.041600 0.000000
# 6 0.000000 0.000000 0.000000 0.002978 0.000000 0.008920
#
#
# Mechanical properties :
#
#
# Convention : Reuss Voigt Hill
#
# Bulk Modulus (GPa) = 25.52090 38.28425 31.90258
# Shear Modulus (GPa) = 38.27446 58.23312 48.25379
#
# Velocity S-wave (km/s) = 4.09958 5.05673 4.60310
# Velocity P-wave (km/s) = 5.79785 7.13476 6.50076
#
# Compressibility (1/GPa) = 0.03918357
#
# Stress axis : x y z
#
# Youngs Moduli (GPa) = 74.52651 93.59026 62.79750
#
# Poissons Ratio (x) = 0.46030 -0.06826
# Poissons Ratio (y) = 0.36654 -0.21411
# Poissons Ratio (z) = -0.08101 -0.31909
#
# Static dielectric constant tensor:
#      x y z
#    x 1.884860 0.000000 0.056920 
#    y 0.000000 1.876160 0.000000 
#    z 0.056920 0.000000 1.838820 
# 
# From -- ./inp_files/71521.got.cif
#   From: 2010.05.17/outbox.cif.g08.bks.cpg/sg5_36_cif.got.tgz:71521.got - 2010.06.03 18:56:24.
