data_PCOD9125446
_publ_section_title
;
Structure prediction by ZEFSAII (Michael W. Deem and Ramdas Pophale) SiO2 
 PCOD9125446
Probable space group: C 2
;
_chemical_formula_sum "Si O2"
_cell_formula_units_Z 24
_cell_length_a 12.218383
_cell_length_b 6.919692
_cell_length_c 12.106458
_cell_angle_alpha 90.000000
_cell_angle_beta 96.966954
_cell_angle_gamma 90.000000
_cell_volume 1016.012358
_symmetry_space_group_name_H-M "C 2"
_symmetry_group_IT_number 5
_symmetry_cell_setting 'monoclinic'
loop_
_space_group_symop_operation_xyz
x,y,z
-x,y,-z
1/2+x,1/2+y,z
1/2-x,1/2+y,-z
loop_
_atom_site_type_symbol
_atom_site_label
_atom_site_fract_x
_atom_site_fract_y
_atom_site_fract_z
Si Si1 0.267924 0.385430 0.099931
Si Si2 0.811494 0.334189 0.149933
Si Si3 0.537873 0.695667 0.129134
Si Si4 0.384732 0.479087 0.450012
Si Si5 0.701478 0.269290 0.342792
Si Si6 0.523649 0.304710 0.756153
O O1 0.157488 0.289860 0.134043
O O2 0.287252 0.601658 0.146115
O O3 0.377149 0.265087 0.146335
O O4 0.250632 0.405716 0.966514
O O5 0.942736 0.345328 0.154595
O O6 0.762366 0.401767 0.259158
O O7 0.525499 0.511645 0.207038
O O8 0.500000 0.636132 0.000000
O O9 0.500000 0.579332 0.500000
O O10 0.337574 0.378886 0.552876
O O11 0.291925 0.616627 0.391157
O O12 0.419274 0.334017 0.355847
O O13 0.588614 0.186315 0.274716
#
# Coordination Sequence:
#
# PCOD9125446 Si02
#       6
#     4   4   4   4   4   4
#     4  10  21  41  66  98 138 169 208 261 326 394
#     4  10  22  42  64 100 133 169 218 259 323 392
#     4   9  19  38  64  90 132 174 202 252 319 384
#     4  10  23  47  65  89 129 171 220 273 320 375
#     4  11  23  44  68  93 126 170 223 270 320 379
#     4  10  22  41  68  92 132 167 214 266 327 381
#
# _framework density 23.621759999999998
#
# number of rings (size 3 to 8) (size 9 to 14) (size 15 to 20)
#    0.000    2.000    3.333    0.000    7.000    2.667 
#    9.000    7.500    0.000    0.000    0.000    0.000 
#    0.000    0.000    0.000    0.000    0.000    0.000 
#
# Total GULP energy -67097.114857 kJ/mol
# GULP energy per Si atom -5591.426238 kJ/mol
# Density = 2.356800 g / cm^3
# Si number density = 23.621760 Si / 1000 Ang^3
#
#
#
# Elastic Constant Matrix: (Units=GPa)
#
#
# Indices 1 2 3 4 5 6 
#
# 1 207.4178 33.5781 45.8717 0.0000 25.1608 0.0000
# 2 33.5781 45.8745 9.0931 0.0000 5.2489 0.0000
# 3 45.8717 9.0931 109.2913 0.0000 -13.8874 0.0000
# 4 0.0000 0.0000 0.0000 25.6389 0.0000 6.2786
# 5 25.1608 5.2489 -13.8874 0.0000 60.2831 0.0000
# 6 0.0000 0.0000 0.0000 6.2786 0.0000 42.2401
#
#
#
# Elastic Compliance Matrix: (Units=1/GPa)
#
#
# Indices 1 2 3 4 5 6 
#
# 1 0.006406 -0.003803 -0.002751 0.000000 -0.002976 0.000000
# 2 -0.003803 0.024772 -0.000553 0.000000 -0.000697 0.000000
# 3 -0.002751 -0.000553 0.010819 0.000000 0.003689 0.000000
# 4 0.000000 0.000000 0.000000 0.040477 0.000000 -0.006017
# 5 -0.002976 -0.000697 0.003689 0.000000 0.018741 0.000000
# 6 0.000000 0.000000 0.000000 -0.006017 0.000000 0.024569
#
#
# Mechanical properties :
#
#
# Convention : Reuss Voigt Hill
#
# Bulk Modulus (GPa) = 35.99341 59.96326 47.97833
# Shear Modulus (GPa) = 33.49887 43.90177 38.70032
#
# Velocity S-wave (km/s) = 3.76990 4.31575 4.05202
# Velocity P-wave (km/s) = 5.84979 7.09042 6.49977
#
# Compressibility (1/GPa) = 0.02778286
#
# Stress axis : x y z
#
# Youngs Moduli (GPa) = 156.09767 40.36832 92.42940
#
# Poissons Ratio (x) = 0.15353 0.25423
# Poissons Ratio (y) = 0.59369 0.05114
# Poissons Ratio (z) = 0.42936 0.02233
#
# Static dielectric constant tensor:
#      x y z
#    x 1.921950 0.000000 0.015120 
#    y 0.000000 1.959320 0.000000 
#    z 0.015120 0.000000 1.909560 
# 
# From -- ./inp_files/38343.got.cif
#   From: 2010.05.17/outbox.cif.g08.bks.cpg/sg5_20_cif.got.tgz:38343.got - 2010.06.03 18:56:24.
