data_PCOD9125530
_publ_section_title
;
Structure prediction by ZEFSAII (Michael W. Deem and Ramdas Pophale) SiO2 
 PCOD9125530
Probable space group: C 2
;
_chemical_formula_sum "Si O2"
_cell_formula_units_Z 22
_cell_length_a 6.908682
_cell_length_b 12.341820
_cell_length_c 14.965580
_cell_angle_alpha 90.000000
_cell_angle_beta 45.500993
_cell_angle_gamma 90.000000
_cell_volume 910.159307
_symmetry_space_group_name_H-M "C 2"
_symmetry_group_IT_number 5
_symmetry_cell_setting 'monoclinic'
loop_
_space_group_symop_operation_xyz
x,y,z
-x,y,-z
1/2+x,1/2+y,z
1/2-x,1/2+y,-z
loop_
_atom_site_type_symbol
_atom_site_label
_atom_site_fract_x
_atom_site_fract_y
_atom_site_fract_z
Si Si1 0.559961 0.358580 0.605883
Si Si2 0.168164 0.087809 0.352990
Si Si3 0.500000 0.824167 0.000000
Si Si4 0.078415 0.319153 0.332214
Si Si5 0.745421 0.168314 0.230522
Si Si6 0.015670 0.961667 0.892102
O O1 0.396368 0.469834 0.663838
O O2 0.728601 0.341581 0.643274
O O3 0.377566 0.250767 0.657037
O O4 0.786633 0.365021 0.455217
O O5 0.074352 0.189940 0.324320
O O6 0.482268 0.109500 0.272265
O O7 0.000000 0.099074 0.500000
O O8 0.389403 0.747750 0.114206
O O9 0.253809 0.897866 0.046358
O O10 0.231432 0.379937 0.203831
O O11 0.938623 0.066574 0.184942
O O12 0.000000 0.997249 0.000000
#
# Coordination Sequence:
#
# PCOD9125530 Si02
#       6
#     4   4   2   4   4   4
#     4  10  21  41  75 102 142 191 233 304 381 417
#     4  11  20  42  74 103 149 188 230 309 373 429
#     4  12  26  52  68 104 154 190 246 316 350 424
#     4  10  21  45  68 108 147 186 239 309 367 426
#     4  11  24  46  70 103 145 187 246 304 357 427
#     4  12  27  49  77 105 148 203 249 292 367 444
#
# _framework density 24.171590999999999
#
# number of rings (size 3 to 8) (size 9 to 14) (size 15 to 20)
#    0.000    1.091    8.182    1.091    2.545    0.000 
#    4.909    0.000    0.000    0.000    0.000    0.000 
#    0.000    0.000    0.000    0.000    0.000    0.000 
#
# Total GULP energy -61632.434487 kJ/mol
# GULP energy per Si atom -5602.948590 kJ/mol
# Density = 2.411658 g / cm^3
# Si number density = 24.171591 Si / 1000 Ang^3
#
#
#
# Elastic Constant Matrix: (Units=GPa)
#
#
# Indices 1 2 3 4 5 6 
#
# 1 69.8808 66.0217 37.2812 -0.0022 -17.2264 0.0028
# 2 66.0217 219.5231 51.4121 -0.0029 -27.6544 0.0021
# 3 37.2812 51.4121 125.8101 -0.0066 -26.2128 0.0032
# 4 -0.0022 -0.0029 -0.0066 45.7387 0.0038 -9.7763
# 5 -17.2264 -27.6544 -26.2128 0.0038 37.5736 -0.0020
# 6 0.0028 0.0021 0.0032 -9.7763 -0.0020 48.5004
#
#
#
# Elastic Compliance Matrix: (Units=1/GPa)
#
#
# Indices 1 2 3 4 5 6 
#
# 1 0.022230 -0.005370 -0.003619 0.000000 0.003715 -0.000001
# 2 -0.005370 0.006572 -0.000701 0.000000 0.001886 0.000000
# 3 -0.003619 -0.000701 0.010360 0.000001 0.005052 0.000000
# 4 0.000000 0.000000 0.000001 0.022848 -0.000002 0.004605
# 5 0.003715 0.001886 0.005052 -0.000002 0.033230 0.000000
# 6 -0.000001 0.000000 0.000000 0.004605 0.000000 0.021547
#
#
# Mechanical properties :
#
#
# Convention : Reuss Voigt Hill
#
# Bulk Modulus (GPa) = 50.55290 80.51600 65.53445
# Shear Modulus (GPa) = 35.02330 43.72915 39.37622
#
# Velocity S-wave (km/s) = 3.81063 4.25798 4.04050
# Velocity P-wave (km/s) = 6.34987 7.58659 6.99561
#
# Compressibility (1/GPa) = 0.01978126
#
# Stress axis : x y z
#
# Youngs Moduli (GPa) = 44.98398 152.15432 96.52340
#
# Poissons Ratio (x) = 0.81710 0.34931
# Poissons Ratio (y) = 0.24157 0.06771
# Poissons Ratio (z) = 0.16279 0.10674
#
# Static dielectric constant tensor:
#      x y z
#    x 1.995210 0.000000 0.002300 
#    y 0.000000 1.886850 0.000000 
#    z 0.002300 0.000000 1.889950 
# 
# From -- ./inp_files/59465.got.cif
#   From: 2010.05.17/outbox.cif.g08.bks.cpg/sg5_30_cif.got.tgz:59465.got - 2010.06.03 18:56:24.
