data_PCOD9125145
_publ_section_title
;
Structure prediction by ZEFSAII (Michael W. Deem and Ramdas Pophale) SiO2 
 PCOD9125145
Probable space group: C 2
;
_chemical_formula_sum "Si O2"
_cell_formula_units_Z 28
_cell_length_a 24.128353
_cell_length_b 9.497539
_cell_length_c 8.647368
_cell_angle_alpha 90.000000
_cell_angle_beta 137.419118
_cell_angle_gamma 90.000000
_cell_volume 1340.831356
_symmetry_space_group_name_H-M "C 2"
_symmetry_group_IT_number 5
_symmetry_cell_setting 'monoclinic'
loop_
_space_group_symop_operation_xyz
x,y,z
-x,y,-z
1/2+x,1/2+y,z
1/2-x,1/2+y,-z
loop_
_atom_site_type_symbol
_atom_site_label
_atom_site_fract_x
_atom_site_fract_y
_atom_site_fract_z
Si Si1 0.344671 0.205950 0.783063
Si Si2 0.115086 0.444340 0.960377
Si Si3 0.227558 0.175342 0.277161
Si Si4 0.074006 0.994899 0.027992
Si Si5 0.729573 0.993013 0.935129
Si Si6 0.804270 0.203663 0.290120
Si Si7 0.515708 0.747943 0.220111
O O1 0.308946 0.216128 0.538147
O O2 0.399044 0.336874 0.948172
O O3 0.262685 0.203685 0.715091
O O4 0.385980 0.057939 0.905132
O O5 0.147708 0.515496 0.870215
O O6 0.027337 0.372823 0.776811
O O7 0.178760 0.317768 0.132405
O O8 0.256899 0.080720 0.193344
O O9 0.160788 0.077954 0.234157
O O10 0.000000 0.982655 0.000000
O O11 0.030716 0.104234 0.822970
O O12 0.724899 0.829203 0.883003
O O13 0.800030 0.055016 0.192127
O O14 0.890791 0.237131 0.542821
O O15 0.500000 0.764916 0.000000
#
# Coordination Sequence:
#
# PCOD9125145 Si02
#       7
#     4   4   4   4   4   4   4
#     4  11  22  38  69  96 128 169 223 290 314 394
#     4  10  23  40  63  98 133 170 225 272 343 392
#     4  11  21  40  68  95 128 178 229 269 331 394
#     4  10  21  40  61  96 132 161 216 270 340 382
#     4  11  23  42  65 100 128 179 221 275 325 404
#     4  11  23  45  69  95 133 173 230 267 334 406
#     4  10  23  43  69  97 133 179 221 273 333 397
#
# _framework density 20.882567999999999
#
# number of rings (size 3 to 8) (size 9 to 14) (size 15 to 20)
#    0.000    1.429    2.857    3.429    2.000    3.429 
#    0.000    0.000    0.000    0.000    0.000    0.000 
#    0.000    0.000    0.000    0.000    0.000    0.000 
#
# Total GULP energy -77995.303215 kJ/mol
# GULP energy per Si atom -5571.093087 kJ/mol
# Density = 2.083504 g / cm^3
# Si number density = 20.882568 Si / 1000 Ang^3
#
#
#
# Elastic Constant Matrix: (Units=GPa)
#
#
# Indices 1 2 3 4 5 6 
#
# 1 62.3591 24.2352 44.0792 0.0000 6.1758 0.0000
# 2 24.2352 117.4444 36.9322 0.0000 15.5809 0.0000
# 3 44.0792 36.9322 68.2953 0.0000 14.6714 0.0000
# 4 0.0000 0.0000 0.0000 11.8743 0.0000 -4.4027
# 5 6.1758 15.5809 14.6714 0.0000 23.9523 0.0000
# 6 0.0000 0.0000 0.0000 -4.4027 0.0000 32.8734
#
#
#
# Elastic Compliance Matrix: (Units=1/GPa)
#
#
# Indices 1 2 3 4 5 6 
#
# 1 0.029975 -0.000510 -0.020131 0.000000 0.004934 0.000000
# 2 -0.000510 0.010573 -0.004536 0.000000 -0.003968 0.000000
# 3 -0.020131 -0.004536 0.032634 0.000000 -0.011848 0.000000
# 4 0.000000 0.000000 0.000000 0.088616 0.000000 0.011868
# 5 0.004934 -0.003968 -0.011848 0.000000 0.050316 0.000000
# 6 0.000000 0.000000 0.000000 0.011868 0.000000 0.032009
#
#
# Mechanical properties :
#
#
# Convention : Reuss Voigt Hill
#
# Bulk Modulus (GPa) = 43.80592 50.95468 47.38030
# Shear Modulus (GPa) = 16.55161 23.26348 19.90755
#
# Velocity S-wave (km/s) = 2.81838 3.34131 3.09092
# Velocity P-wave (km/s) = 5.62262 6.27211 5.95622
#
# Compressibility (1/GPa) = 0.02282796
#
# Stress axis : x y z
#
# Youngs Moduli (GPa) = 33.36060 94.58364 30.64331
#
# Poissons Ratio (x) = 0.04819 0.61688
# Poissons Ratio (y) = 0.01700 0.13900
# Poissons Ratio (z) = 0.67159 0.42905
#
# Static dielectric constant tensor:
#      x y z
#    x 1.798470 0.000000 -0.056430 
#    y 0.000000 1.792640 0.000000 
#    z -0.056430 0.000000 1.784930 
# 
# From -- ./inp_files/31777.got.cif
#   From: 2010.05.17/outbox.cif.g08.bks.cpg/sg5_16_cif.got.tgz:31777.got - 2010.06.03 18:56:24.
