data_PCOD9125742
_publ_section_title
;
Structure prediction by ZEFSAII (Michael W. Deem and Ramdas Pophale) SiO2 
 PCOD9125742
Probable space group: C 2
;
_chemical_formula_sum "Si O2"
_cell_formula_units_Z 28
_cell_length_a 15.991994
_cell_length_b 5.108700
_cell_length_c 17.535847
_cell_angle_alpha 90.000000
_cell_angle_beta 128.934837
_cell_angle_gamma 90.000000
_cell_volume 1114.401967
_symmetry_space_group_name_H-M "C 2"
_symmetry_group_IT_number 5
_symmetry_cell_setting 'monoclinic'
loop_
_space_group_symop_operation_xyz
x,y,z
-x,y,-z
1/2+x,1/2+y,z
1/2-x,1/2+y,-z
loop_
_atom_site_type_symbol
_atom_site_label
_atom_site_fract_x
_atom_site_fract_y
_atom_site_fract_z
Si Si1 0.141267 0.199680 0.205496
Si Si2 0.535372 0.577669 0.296744
Si Si3 0.236646 0.799637 0.449531
Si Si4 0.046011 0.423114 0.451222
Si Si5 0.634342 0.233861 0.738738
Si Si6 0.469389 0.189781 0.900726
Si Si7 0.186993 0.583789 0.933701
O O1 0.078263 0.238988 0.249594
O O2 0.264494 0.268263 0.258709
O O3 0.078751 0.402326 0.116200
O O4 0.119463 0.893702 0.179375
O O5 0.618846 0.335454 0.348289
O O6 0.554332 0.743186 0.382903
O O7 0.415449 0.474338 0.240946
O O8 0.260980 0.494668 0.475191
O O9 0.328428 0.956198 0.455777
O O10 0.000000 0.293480 0.500000
O O11 0.963391 0.641356 0.373135
O O12 0.671621 0.056048 0.832797
O O13 0.573386 0.171069 0.906168
O O14 0.500000 0.298763 0.000000
O O15 0.228802 0.314464 0.995915
#
# Coordination Sequence:
#
# PCOD9125742 Si02
#       7
#     4   4   4   4   4   4   4
#     4  12  27  45  74 109 151 202 255 317 394 467
#     4  11  25  47  72 108 151 203 258 324 390 473
#     4  10  21  43  67  98 137 186 234 305 369 440
#     4  11  25  46  73 107 149 198 260 320 392 472
#     4  12  26  47  77 110 153 205 260 320 391 476
#     4  12  25  48  72 109 154 197 254 322 393 466
#     4  12  26  46  78 114 152 198 257 319 384 464
#
# _framework density 25.125584
#
# number of rings (size 3 to 8) (size 9 to 14) (size 15 to 20)
#    0.000    0.571    2.857    4.714    4.000    0.571 
#   10.286    0.000    0.000    0.000    0.000    0.000 
#    0.000    0.000    0.000    0.000    0.000    0.000 
#
# Total GULP energy -78085.981808 kJ/mol
# GULP energy per Si atom -5577.570129 kJ/mol
# Density = 2.506840 g / cm^3
# Si number density = 25.125584 Si / 1000 Ang^3
#
#
#
# Elastic Constant Matrix: (Units=GPa)
#
#
# Indices 1 2 3 4 5 6 
#
# 1 194.6929 25.3258 38.9878 0.0000 11.2366 0.0001
# 2 25.3258 100.6808 16.0487 -0.0002 8.3355 0.0005
# 3 38.9878 16.0487 52.8806 0.0000 -13.0738 0.0000
# 4 0.0000 -0.0002 0.0000 28.9259 0.0000 15.9060
# 5 11.2366 8.3355 -13.0738 0.0000 42.8692 0.0000
# 6 0.0001 0.0005 0.0000 15.9060 0.0000 18.9412
#
#
#
# Elastic Compliance Matrix: (Units=1/GPa)
#
#
# Indices 1 2 3 4 5 6 
#
# 1 0.006476 -0.000494 -0.005430 0.000000 -0.003257 0.000000
# 2 -0.000494 0.010908 -0.003719 0.000000 -0.003126 -0.000001
# 3 -0.005430 -0.003719 0.026577 0.000000 0.010252 0.000000
# 4 0.000000 0.000000 0.000000 0.064231 0.000000 -0.053938
# 5 -0.003257 -0.003126 0.010252 0.000000 0.027915 0.000000
# 6 0.000000 -0.000001 0.000000 -0.053938 0.000000 0.098090
#
#
# Mechanical properties :
#
#
# Convention : Reuss Voigt Hill
#
# Bulk Modulus (GPa) = 40.52642 56.55322 48.53982
# Shear Modulus (GPa) = 19.10521 36.00672 27.55597
#
# Velocity S-wave (km/s) = 2.76051 3.78970 3.31528
# Velocity P-wave (km/s) = 5.13080 6.45803 5.83229
#
# Compressibility (1/GPa) = 0.02467526
#
# Stress axis : x y z
#
# Youngs Moduli (GPa) = 154.41850 91.67373 37.62596
#
# Poissons Ratio (x) = 0.04526 0.20431
# Poissons Ratio (y) = 0.07624 0.13994
# Poissons Ratio (z) = 0.83850 0.34097
#
# Static dielectric constant tensor:
#      x y z
#    x 2.061450 0.000000 0.067020 
#    y 0.000000 1.983370 0.000000 
#    z 0.067020 0.000000 2.147320 
# 
# From -- ./inp_files/61259.got.cif
#   From: 2010.05.17/outbox.cif.g08.bks.cpg/sg5_31_cif.got.tgz:61259.got - 2010.06.03 18:56:24.
