data_PCOD9125774
_publ_section_title
;
Structure prediction by ZEFSAII (Michael W. Deem and Ramdas Pophale) SiO2 
 PCOD9125774
Probable space group: C 2
;
_chemical_formula_sum "Si O2"
_cell_formula_units_Z 28
_cell_length_a 27.516560
_cell_length_b 8.144923
_cell_length_c 4.872582
_cell_angle_alpha 90.000000
_cell_angle_beta 112.579266
_cell_angle_gamma 90.000000
_cell_volume 1008.338309
_symmetry_space_group_name_H-M "C 2"
_symmetry_group_IT_number 5
_symmetry_cell_setting 'monoclinic'
loop_
_space_group_symop_operation_xyz
x,y,z
-x,y,-z
1/2+x,1/2+y,z
1/2-x,1/2+y,-z
loop_
_atom_site_type_symbol
_atom_site_label
_atom_site_fract_x
_atom_site_fract_y
_atom_site_fract_z
Si Si1 0.586537 0.658070 0.667699
Si Si2 0.448337 0.332234 0.704190
Si Si3 0.856132 0.940181 0.861861
Si Si4 0.949866 0.470383 0.691801
Si Si5 0.662460 0.992067 0.271963
Si Si6 0.198056 0.174466 0.606886
Si Si7 0.806438 0.687021 0.152665
O O1 0.557828 0.494689 0.491241
O O2 0.643602 0.678904 0.653857
O O3 0.555321 0.822076 0.534367
O O4 0.605539 0.598627 0.005984
O O5 0.396902 0.327626 0.786495
O O6 0.450321 0.154178 0.564698
O O7 0.500000 0.346636 0.000000
O O8 0.835333 0.848312 0.089545
O O9 0.807307 0.009389 0.584521
O O10 0.897088 0.464472 0.761588
O O11 0.000000 0.452484 0.000000
O O12 0.665927 0.042344 0.964030
O O13 0.696130 0.830787 0.405581
O O14 0.687989 0.134833 0.520508
O O15 0.246982 0.184515 0.915823
#
# Coordination Sequence:
#
# PCOD9125774 Si02
#       7
#     4   4   4   4   4   4   4
#     4  10  23  42  67 104 140 185 244 306 358 443
#     4  10  21  43  70 101 142 185 241 303 373 440
#     4  11  24  44  70 101 143 189 246 309 366 439
#     4  10  21  45  73 100 142 191 240 303 371 437
#     4  11  26  46  69 108 143 188 246 305 357 456
#     4  10  26  42  69  99 145 188 245 295 376 430
#     4  12  26  44  74 103 147 192 245 301 371 434
#
# _framework density 27.768454999999999
#
# number of rings (size 3 to 8) (size 9 to 14) (size 15 to 20)
#    0.000    1.429    1.429    2.143   10.000    0.571 
#    0.000    0.714    0.000    0.000    0.000    0.000 
#    0.000    0.000    0.000    0.000    0.000    0.000 
#
# Total GULP energy -78571.749384 kJ/mol
# GULP energy per Si atom -5612.267813 kJ/mol
# Density = 2.770525 g / cm^3
# Si number density = 27.768455 Si / 1000 Ang^3
#
#
#
# Elastic Constant Matrix: (Units=GPa)
#
#
# Indices 1 2 3 4 5 6 
#
# 1 118.6053 39.6830 33.1731 0.0000 28.4312 0.0000
# 2 39.6830 206.6223 63.9162 0.0000 23.9955 0.0000
# 3 33.1731 63.9162 118.1787 0.0000 33.9224 0.0000
# 4 0.0000 0.0000 0.0000 60.9574 0.0000 9.9914
# 5 28.4312 23.9955 33.9224 0.0000 55.8658 0.0000
# 6 0.0000 0.0000 0.0000 9.9914 0.0000 16.4053
#
#
#
# Elastic Compliance Matrix: (Units=1/GPa)
#
#
# Indices 1 2 3 4 5 6 
#
# 1 0.010066 -0.001141 -0.001064 0.000000 -0.003987 0.000000
# 2 -0.001141 0.005965 -0.002830 0.000000 -0.000263 0.000000
# 3 -0.001064 -0.002830 0.011853 0.000000 -0.005440 0.000000
# 4 0.000000 0.000000 0.000000 0.018224 0.000000 -0.011099
# 5 -0.003987 -0.000263 -0.005440 0.000000 0.023345 0.000000
# 6 0.000000 0.000000 0.000000 -0.011099 0.000000 0.067716
#
#
# Mechanical properties :
#
#
# Convention : Reuss Voigt Hill
#
# Bulk Modulus (GPa) = 56.13943 79.66120 67.90032
# Shear Modulus (GPa) = 32.64177 47.08796 39.86486
#
# Velocity S-wave (km/s) = 3.43227 4.12240 3.79306
# Velocity P-wave (km/s) = 5.99735 7.17000 6.60973
#
# Compressibility (1/GPa) = 0.01781279
#
# Stress axis : x y z
#
# Youngs Moduli (GPa) = 99.34010 167.64550 84.36861
#
# Poissons Ratio (x) = 0.19131 0.08978
# Poissons Ratio (y) = 0.11336 0.23880
# Poissons Ratio (z) = 0.10571 0.47450
#
# Static dielectric constant tensor:
#      x y z
#    x 2.099770 0.000000 -0.016900 
#    y 0.000000 2.255120 0.000000 
#    z -0.016900 0.000000 2.142700 
# 
# From -- ./inp_files/11280.got.cif
#   From: 2010.05.17/outbox.cif.g08.bks.cpg/sg5_6_cif.got.tgz:11280.got - 2010.06.03 18:56:24.
