data_PCOD9125477
_publ_section_title
;
Structure prediction by ZEFSAII (Michael W. Deem and Ramdas Pophale) SiO2 
 PCOD9125477
Probable space group: C 2
;
_chemical_formula_sum "Si O2"
_cell_formula_units_Z 24
_cell_length_a 7.991302
_cell_length_b 28.567452
_cell_length_c 8.201009
_cell_angle_alpha 90.000000
_cell_angle_beta 145.175851
_cell_angle_gamma 90.000000
_cell_volume 1069.147897
_symmetry_space_group_name_H-M "C 2"
_symmetry_group_IT_number 5
_symmetry_cell_setting 'monoclinic'
loop_
_space_group_symop_operation_xyz
x,y,z
-x,y,-z
1/2+x,1/2+y,z
1/2-x,1/2+y,-z
loop_
_atom_site_type_symbol
_atom_site_label
_atom_site_fract_x
_atom_site_fract_y
_atom_site_fract_z
Si Si1 0.171374 0.807420 0.298186
Si Si2 0.722842 0.455481 0.896158
Si Si3 0.669621 0.203033 0.298727
Si Si4 0.197189 0.131059 0.312600
Si Si5 0.857689 0.400088 0.565059
Si Si6 0.177862 0.053815 0.804512
O O1 0.500000 0.799724 0.500000
O O2 0.057245 0.755703 0.251763
O O3 0.209549 0.848929 0.458363
O O4 0.000000 0.824056 0.000000
O O5 0.396992 0.437266 0.597274
O O6 0.684777 0.508628 0.929268
O O7 0.000000 0.464202 0.000000
O O8 0.860134 0.412160 0.103602
O O9 0.683679 0.171138 0.469939
O O10 0.000000 0.204824 0.500000
O O11 0.500000 0.186443 0.000000
O O12 0.500000 0.106462 0.500000
O O13 0.991777 0.096273 0.249435
O O14 0.000000 0.147055 0.000000
O O15 0.000000 0.404894 0.500000
O O16 0.000000 0.038565 0.500000
O O17 0.500000 0.067683 0.000000
#
# Coordination Sequence:
#
# PCOD9125477 Si02
#       6
#     4   4   4   4   4   4
#     4   9  18  35  61  93 122 160 214 257 293 368
#     4  11  23  40  60  88 124 160 204 256 309 370
#     4  10  21  41  68  92 124 174 221 254 306 389
#     4  12  26  42  64  99 134 159 206 280 340 375
#     4  11  21  37  62  92 123 160 204 253 308 365
#     4  11  24  45  67  86 118 171 223 256 306 393
#
# _framework density 22.447782
#
# number of rings (size 3 to 8) (size 9 to 14) (size 15 to 20)
#    0.000    1.333    0.000    7.500    0.000    3.333 
#    0.000    2.500    0.000    0.000    0.000    0.000 
#    0.000    0.000    0.000    0.000    0.000    0.000 
#
# Total GULP energy -66869.310282 kJ/mol
# GULP energy per Si atom -5572.442523 kJ/mol
# Density = 2.239669 g / cm^3
# Si number density = 22.447782 Si / 1000 Ang^3
#
#
#
# Elastic Constant Matrix: (Units=GPa)
#
#
# Indices 1 2 3 4 5 6 
#
# 1 64.8154 34.6742 21.7958 0.0000 18.9821 0.0000
# 2 34.6742 143.1738 33.0478 0.0000 -11.8076 0.0000
# 3 21.7958 33.0478 156.5451 0.0000 7.1592 0.0000
# 4 0.0000 0.0000 0.0000 40.4511 0.0000 9.5476
# 5 18.9821 -11.8076 7.1592 0.0000 41.6833 0.0000
# 6 0.0000 0.0000 0.0000 9.5476 0.0000 0.6976
#
#
#
# Elastic Compliance Matrix: (Units=1/GPa)
#
#
# Indices 1 2 3 4 5 6 
#
# 1 0.022621 -0.006150 -0.001311 0.000000 -0.011818 0.000000
# 2 -0.006150 0.009253 -0.001356 0.000000 0.005655 0.000000
# 3 -0.001311 -0.001356 0.006901 0.000000 -0.000972 0.000000
# 4 0.000000 0.000000 0.000000 -0.011084 0.000000 0.151700
# 5 -0.011818 0.005655 -0.000972 0.000000 0.031141 0.000000
# 6 0.000000 0.000000 0.000000 0.151700 0.000000 -0.642721
#
#
# Mechanical properties :
#
#
# Convention : Reuss Voigt Hill
#
# Bulk Modulus (GPa) = 47.30038 60.39667 53.84852
# Shear Modulus (GPa) = -8.94121 34.90084 12.97981
#
# Velocity S-wave (km/s) = -1.99794 3.94732 2.40723
# Velocity P-wave (km/s) = 3.97425 6.90933 5.63620
#
# Compressibility (1/GPa) = 0.02114148
#
# Stress axis : x y z
#
# Youngs Moduli (GPa) = 44.20751 108.06903 144.90472
#
# Poissons Ratio (x) = 0.66467 0.18991
# Poissons Ratio (y) = 0.27190 0.19645
# Poissons Ratio (z) = 0.05794 0.14651
#
# Static dielectric constant tensor:
#      x y z
#    x 1.833630 0.000000 -0.148350 
#    y 0.000000 1.964630 0.000000 
#    z -0.148350 0.000000 1.944950 
# 
# From -- ./inp_files/17651.got.cif
#   From: 2010.05.17/outbox.cif.g08.bks.cpg/sg5_9_cif.got.tgz:17651.got - 2010.06.03 18:56:24.
