data_PCOD9125916
_publ_section_title
;
Structure prediction by ZEFSAII (Michael W. Deem and Ramdas Pophale) SiO2 
 PCOD9125916
Probable space group: C 2
;
_chemical_formula_sum "Si O2"
_cell_formula_units_Z 26
_cell_length_a 8.483025
_cell_length_b 18.965692
_cell_length_c 8.770405
_cell_angle_alpha 90.000000
_cell_angle_beta 49.686578
_cell_angle_gamma 90.000000
_cell_volume 1075.941110
_symmetry_space_group_name_H-M "C 2"
_symmetry_group_IT_number 5
_symmetry_cell_setting 'monoclinic'
loop_
_space_group_symop_operation_xyz
x,y,z
-x,y,-z
1/2+x,1/2+y,z
1/2-x,1/2+y,-z
loop_
_atom_site_type_symbol
_atom_site_label
_atom_site_fract_x
_atom_site_fract_y
_atom_site_fract_z
Si Si1 0.730519 0.945770 0.914950
Si Si2 0.736896 0.110791 0.417882
Si Si3 0.726235 0.973502 0.282111
Si Si4 0.510864 0.747981 0.814766
Si Si5 0.599071 0.302063 0.092243
Si Si6 0.500000 0.533767 0.500000
Si Si7 0.209457 0.328156 0.459772
O O1 0.787109 0.863140 0.886942
O O2 0.500000 0.957942 0.000000
O O3 0.733741 0.963395 0.095916
O O4 0.884287 0.986580 0.702350
O O5 0.500000 0.123402 0.500000
O O6 0.862422 0.182452 0.324562
O O7 0.813090 0.078555 0.534961
O O8 0.826492 0.048525 0.253646
O O9 0.500000 0.983511 0.500000
O O10 0.782162 0.903834 0.347934
O O11 0.623485 0.818580 0.682232
O O12 0.500000 0.743899 0.000000
O O13 0.268878 0.748119 0.925336
O O14 0.404763 0.277742 0.312135
O O15 0.500000 0.331413 0.000000
O O16 0.000000 0.309438 0.500000
#
# Coordination Sequence:
#
# PCOD9125916 Si02
#       7
#     4   4   4   4   4   2   4
#     4  12  26  48  78 125 163 203 274 342 413 489
#     4  11  28  54  79 119 165 221 274 335 412 483
#     4  10  21  46  83 113 159 210 261 336 413 473
#     4  12  30  49  74 115 161 215 271 330 409 491
#     4  12  24  45  76 117 154 209 262 337 407 476
#     4  12  30  50  84 126 162 220 270 348 402 506
#     4  11  23  46  78 116 154 204 266 337 411 478
#
# _framework density 24.164891999999998
#
# number of rings (size 3 to 8) (size 9 to 14) (size 15 to 20)
#    0.000    0.615    3.077    4.154    5.385    4.923 
#    0.000    0.000    0.000    0.000    0.000    0.000 
#    0.000    0.000    0.000    0.000    0.000    0.000 
#
# Total GULP energy -72433.925888 kJ/mol
# GULP energy per Si atom -5571.840453 kJ/mol
# Density = 2.410989 g / cm^3
# Si number density = 24.164892 Si / 1000 Ang^3
#
#
#
# Elastic Constant Matrix: (Units=GPa)
#
#
# Indices 1 2 3 4 5 6 
#
# 1 147.1071 56.3350 54.5213 0.0000 -10.5756 0.0000
# 2 56.3350 93.0059 62.9075 0.0000 -4.5798 0.0000
# 3 54.5213 62.9075 170.0110 0.0000 -5.8855 0.0000
# 4 0.0000 0.0000 0.0000 -3.8245 0.0000 10.0560
# 5 -10.5756 -4.5798 -5.8855 0.0000 58.1245 0.0000
# 6 0.0000 0.0000 0.0000 10.0560 0.0000 16.8747
#
#
#
# Elastic Compliance Matrix: (Units=1/GPa)
#
#
# Indices 1 2 3 4 5 6 
#
# 1 0.009098 -0.004678 -0.001146 0.000000 0.001171 0.000000
# 2 -0.004678 0.016767 -0.004704 0.000000 -0.000006 0.000000
# 3 -0.001146 -0.004704 0.007998 0.000000 0.000231 0.000000
# 4 0.000000 0.000000 0.000000 -0.101863 0.000000 0.060702
# 5 0.001171 -0.000006 0.000231 0.000000 0.017440 0.000000
# 6 0.000000 0.000000 0.000000 0.060702 0.000000 0.023086
#
#
# Mechanical properties :
#
#
# Convention : Reuss Voigt Hill
#
# Bulk Modulus (GPa) = 78.08447 84.18350 81.13398
# Shear Modulus (GPa) = -2328.78366 29.99229 -1149.39568
#
# Velocity S-wave (km/s) = -31.07728 3.52682 -21.83299
# Velocity P-wave (km/s) = 35.43087 7.17617 24.53415
#
# Compressibility (1/GPa) = 0.01280664
#
# Stress axis : x y z
#
# Youngs Moduli (GPa) = 109.91196 59.64096 125.02821
#
# Poissons Ratio (x) = 0.27900 0.14332
# Poissons Ratio (y) = 0.51416 0.58815
# Poissons Ratio (z) = 0.12599 0.28056
#
# Static dielectric constant tensor:
#      x y z
#    x 2.913800 0.000000 -0.893550 
#    y 0.000000 1.975310 0.000000 
#    z -0.893550 0.000000 2.921330 
# 
# From -- ./inp_files/16975.got.cif
#   From: 2010.05.17/outbox.cif.g08.bks.cpg/sg5_9_cif.got.tgz:16975.got - 2010.06.03 18:56:24.
