data_PCOD9125943
_publ_section_title
;
Structure prediction by ZEFSAII (Michael W. Deem and Ramdas Pophale) SiO2 
 PCOD9125943
Probable space group: C 2
;
_chemical_formula_sum "Si O2"
_cell_formula_units_Z 30
_cell_length_a 21.857293
_cell_length_b 5.029454
_cell_length_c 27.632927
_cell_angle_alpha 90.000000
_cell_angle_beta 155.478878
_cell_angle_gamma 90.000000
_cell_volume 1260.730336
_symmetry_space_group_name_H-M "C 2"
_symmetry_group_IT_number 5
_symmetry_cell_setting 'monoclinic'
loop_
_space_group_symop_operation_xyz
x,y,z
-x,y,-z
1/2+x,1/2+y,z
1/2-x,1/2+y,-z
loop_
_atom_site_type_symbol
_atom_site_label
_atom_site_fract_x
_atom_site_fract_y
_atom_site_fract_z
Si Si1 0.424992 0.066680 0.828885
Si Si2 0.605789 0.096352 0.741600
Si Si3 0.237989 0.055197 0.248323
Si Si4 0.278655 0.192913 0.466155
Si Si5 0.545005 0.592607 0.755057
Si Si6 0.844351 0.276639 0.064144
Si Si7 0.000000 0.296491 0.500000
Si Si8 0.737040 0.693119 0.604618
O O1 0.388256 0.325889 0.835075
O O2 0.577731 0.921371 0.925323
O O3 0.371966 0.154133 0.737323
O O4 0.322384 0.831454 0.774840
O O5 0.707798 0.102350 0.767535
O O6 0.436416 0.135395 0.602383
O O7 0.618961 0.318453 0.792616
O O8 0.621220 0.813492 0.777394
O O9 0.377249 0.956345 0.380991
O O10 0.252328 0.496957 0.432485
O O11 0.128791 0.095308 0.383505
O O12 0.279473 0.000458 0.419944
O O13 0.555469 0.675585 0.818750
O O14 0.760360 0.007089 0.989851
O O15 0.089090 0.117696 0.526421
#
# Coordination Sequence:
#
# PCOD9125943 Si02
#       8
#     4   4   4   4   4   4   2   4
#     4  11  24  42  67 100 138 171 222 304 349 399
#     4  12  25  42  65  99 147 198 231 252 328 431
#     4  11  24  39  64  99 142 191 228 278 335 402
#     4  12  23  39  60  96 143 190 226 266 320 403
#     4  12  26  45  67  97 143 183 230 291 338 412
#     4  12  27  48  79 105 130 167 234 311 380 417
#     4  10  22  34  58  94 136 192 236 272 306 404
#     4  11  22  34  61  89 143 175 228 271 330 380
#
# _framework density 23.795732000000001
#
# number of rings (size 3 to 8) (size 9 to 14) (size 15 to 20)
#    0.000    0.533    2.667    6.400    5.600    1.067 
#    0.000    0.000    0.000   12.000    0.000    0.000 
#    0.000    0.000    0.000    0.000    0.000    0.000 
#
# Total GULP energy -83886.543094 kJ/mol
# GULP energy per Si atom -5592.436206 kJ/mol
# Density = 2.374157 g / cm^3
# Si number density = 23.795732 Si / 1000 Ang^3
#
#
#
# Elastic Constant Matrix: (Units=GPa)
#
#
# Indices 1 2 3 4 5 6 
#
# 1 102.5195 11.9274 15.4820 -0.0230 5.1271 -0.0992
# 2 11.9274 85.0528 12.6961 -0.0397 1.3351 -0.2529
# 3 15.4820 12.6961 48.6950 -0.0035 0.4843 -0.0308
# 4 -0.0230 -0.0397 -0.0035 26.5376 -0.0084 4.4255
# 5 5.1271 1.3351 0.4843 -0.0084 15.7001 -0.0401
# 6 -0.0992 -0.2529 -0.0308 4.4255 -0.0401 54.9699
#
#
#
# Elastic Compliance Matrix: (Units=1/GPa)
#
#
# Indices 1 2 3 4 5 6 
#
# 1 0.010490 -0.000965 -0.003051 0.000005 -0.003249 0.000010
# 2 -0.000965 0.012336 -0.002903 0.000008 -0.000644 0.000052
# 3 -0.003051 -0.002903 0.022258 -0.000003 0.000557 -0.000006
# 4 0.000005 0.000008 -0.000003 0.038195 0.000011 -0.003075
# 5 -0.003249 -0.000644 0.000557 0.000011 0.064793 0.000038
# 6 0.000010 0.000052 -0.000006 -0.003075 0.000038 0.018440
#
#
# Mechanical properties :
#
#
# Convention : Reuss Voigt Hill
#
# Bulk Modulus (GPa) = 32.00472 35.16425 33.58449
# Shear Modulus (GPa) = 26.21032 32.51897 29.36465
#
# Velocity S-wave (km/s) = 3.32244 3.70075 3.51669
# Velocity P-wave (km/s) = 5.31010 5.75068 5.53478
#
# Compressibility (1/GPa) = 0.03124539
#
# Stress axis : x y z
#
# Youngs Moduli (GPa) = 95.33101 81.06143 44.92855
#
# Poissons Ratio (x) = 0.07819 0.13709
# Poissons Ratio (y) = 0.09195 0.13044
# Poissons Ratio (z) = 0.29088 0.23535
#
# Static dielectric constant tensor:
#      x y z
#    x 1.916660 -0.000020 0.028620 
#    y -0.000020 1.859990 0.000000 
#    z 0.028620 0.000000 1.947900 
# 
# From -- ./inp_files/71002.got.cif
#   From: 2010.05.17/outbox.cif.g08.bks.cpg/sg5_36_cif.got.tgz:71002.got - 2010.06.03 18:56:24.
