data_PCOD9125329
_publ_section_title
;
Structure prediction by ZEFSAII (Michael W. Deem and Ramdas Pophale) SiO2 
 PCOD9125329
Probable space group: C 2
;
_chemical_formula_sum "Si O2"
_cell_formula_units_Z 20
_cell_length_a 11.709410
_cell_length_b 7.417967
_cell_length_c 17.911935
_cell_angle_alpha 90.000000
_cell_angle_beta 150.987621
_cell_angle_gamma 90.000000
_cell_volume 754.575806
_symmetry_space_group_name_H-M "C 2"
_symmetry_group_IT_number 5
_symmetry_cell_setting 'monoclinic'
loop_
_space_group_symop_operation_xyz
x,y,z
-x,y,-z
1/2+x,1/2+y,z
1/2-x,1/2+y,-z
loop_
_atom_site_type_symbol
_atom_site_label
_atom_site_fract_x
_atom_site_fract_y
_atom_site_fract_z
Si Si1 0.761923 0.751550 0.837343
Si Si2 0.560563 0.739808 0.869519
Si Si3 0.534189 0.344986 0.194896
Si Si4 0.858707 0.321762 0.510435
Si Si5 0.954412 0.736403 0.389544
O O1 0.632093 0.843525 0.833964
O O2 0.895432 0.871806 0.851499
O O3 0.547083 0.694410 0.660487
O O4 0.000000 0.642996 0.000000
O O5 0.522541 0.544488 0.810004
O O6 0.322510 0.780463 0.777148
O O7 0.790483 0.738254 0.052449
O O8 0.744288 0.269440 0.365337
O O9 0.630276 0.323365 0.432247
O O10 0.973286 0.522434 0.570965
O O11 0.000000 0.796542 0.500000
#
# Coordination Sequence:
#
# PCOD9125329 Si02
#       5
#     4   4   4   4   4
#     4  10  21  40  74  99 139 186 224 288 359 406
#     4  11  24  48  71 103 148 187 233 301 359 413
#     4  11  24  46  72 106 145 188 238 295 351 429
#     4  12  23  45  78 102 141 195 235 290 360 417
#     4  12  24  48  73 101 148 186 235 299 353 420
#
# _framework density 26.504958999999999
#
# number of rings (size 3 to 8) (size 9 to 14) (size 15 to 20)
#    0.000    0.800    6.000    0.600    0.000    4.000 
#   18.000    1.000    0.000    0.000    0.000    0.000 
#    0.000    0.000    0.000    0.000    0.000    0.000 
#
# Total GULP energy -55722.706675 kJ/mol
# GULP energy per Si atom -5572.270668 kJ/mol
# Density = 2.644463 g / cm^3
# Si number density = 26.504959 Si / 1000 Ang^3
#
#
#
# Elastic Constant Matrix: (Units=GPa)
#
#
# Indices 1 2 3 4 5 6 
#
# 1 159.8055 20.8935 61.3496 0.0002 26.0973 -0.0001
# 2 20.8935 35.7652 26.3610 0.0005 -4.5337 0.0003
# 3 61.3496 26.3610 257.6403 0.0013 34.3105 0.0007
# 4 0.0002 0.0005 0.0013 25.8186 0.0007 7.9963
# 5 26.0973 -4.5337 34.3105 0.0007 54.3276 0.0003
# 6 -0.0001 0.0003 0.0007 7.9963 0.0003 24.4813
#
#
#
# Elastic Compliance Matrix: (Units=1/GPa)
#
#
# Indices 1 2 3 4 5 6 
#
# 1 0.007747 -0.004271 -0.000944 0.000000 -0.003482 0.000000
# 2 -0.004271 0.033834 -0.003378 -0.000001 0.007009 0.000000
# 3 -0.000944 -0.003378 0.004836 0.000000 -0.002882 0.000000
# 4 0.000000 -0.000001 0.000000 0.043091 -0.000001 -0.014075
# 5 -0.003482 0.007009 -0.002882 -0.000001 0.022485 0.000000
# 6 0.000000 0.000000 0.000000 -0.014075 0.000000 0.045445
#
#
# Mechanical properties :
#
#
# Convention : Reuss Voigt Hill
#
# Bulk Modulus (GPa) = 34.21184 74.49102 54.35143
# Shear Modulus (GPa) = 27.11995 43.89929 35.50962
#
# Velocity S-wave (km/s) = 3.20222 4.07414 3.66421
# Velocity P-wave (km/s) = 5.15830 7.09204 6.20101
#
# Compressibility (1/GPa) = 0.02922965
#
# Stress axis : x y z
#
# Youngs Moduli (GPa) = 129.08150 29.55644 206.79695
#
# Poissons Ratio (x) = 0.12624 0.19523
# Poissons Ratio (y) = 0.55134 0.69857
# Poissons Ratio (z) = 0.12186 0.09984
#
# Static dielectric constant tensor:
#      x y z
#    x 2.113590 0.000000 0.003100 
#    y 0.000000 2.039880 0.000000 
#    z 0.003100 0.000000 2.167130 
# 
# From -- ./inp_files/44348.got.cif
#   From: 2010.05.17/outbox.cif.g08.bks.cpg/sg5_23_cif.got.tgz:44348.got - 2010.06.03 18:56:24.
