data_PCOD9125250
_publ_section_title
;
Structure prediction by ZEFSAII (Michael W. Deem and Ramdas Pophale) SiO2 
 PCOD9125250
Probable space group: C 2
;
_chemical_formula_sum "Si O2"
_cell_formula_units_Z 28
_cell_length_a 16.707404
_cell_length_b 8.352669
_cell_length_c 24.825357
_cell_angle_alpha 90.000000
_cell_angle_beta 158.955489
_cell_angle_gamma 90.000000
_cell_volume 1244.047079
_symmetry_space_group_name_H-M "C 2"
_symmetry_group_IT_number 5
_symmetry_cell_setting 'monoclinic'
loop_
_space_group_symop_operation_xyz
x,y,z
-x,y,-z
1/2+x,1/2+y,z
1/2-x,1/2+y,-z
loop_
_atom_site_type_symbol
_atom_site_label
_atom_site_fract_x
_atom_site_fract_y
_atom_site_fract_z
Si Si1 0.180378 0.568130 0.066605
Si Si2 0.653566 0.896213 0.459373
Si Si3 0.923403 0.171527 0.802689
Si Si4 0.540989 0.234898 0.761939
Si Si5 0.290644 0.518522 0.831779
Si Si6 0.338538 0.704880 0.632253
Si Si7 0.892126 0.531621 0.090365
O O1 0.302193 0.393878 0.137141
O O2 0.392964 0.685152 0.203044
O O3 0.048661 0.609496 0.929404
O O4 0.000000 0.564494 0.000000
O O5 0.716310 0.863863 0.436062
O O6 0.798248 0.783241 0.588669
O O7 0.387440 0.885326 0.298102
O O8 0.728416 0.068539 0.527073
O O9 0.837197 0.127689 0.808033
O O10 0.777024 0.171147 0.655883
O O11 0.023502 0.350487 0.860152
O O12 0.123490 0.043895 0.922412
O O13 0.658127 0.126777 0.790952
O O14 0.531916 0.134555 0.811151
O O15 0.500000 0.462829 0.000000
#
# Coordination Sequence:
#
# PCOD9125250 Si02
#       7
#     4   4   4   4   4   4   4
#     4  10  21  40  66 103 138 179 241 298 352 424
#     4  11  24  46  67 102 141 193 234 293 363 428
#     4  11  24  39  70 108 141 186 242 301 353 428
#     4  11  21  41  73 100 143 193 231 292 365 425
#     4  12  23  43  75 107 137 186 247 293 349 436
#     4  10  24  43  67  96 143 192 232 293 369 424
#     4  11  20  41  68 103 143 183 236 297 365 422
#
# _framework density 22.507185
#
# number of rings (size 3 to 8) (size 9 to 14) (size 15 to 20)
#    0.000    1.143    4.286    2.143    0.000    1.143 
#    2.571    1.429    0.000    0.000    0.000    0.000 
#    0.000    0.000    0.000    0.000    0.000    0.000 
#
# Total GULP energy -78107.457923 kJ/mol
# GULP energy per Si atom -5579.104137 kJ/mol
# Density = 2.245596 g / cm^3
# Si number density = 22.507185 Si / 1000 Ang^3
#
#
#
# Elastic Constant Matrix: (Units=GPa)
#
#
# Indices 1 2 3 4 5 6 
#
# 1 170.1039 38.0173 81.5641 -0.0044 -35.7554 0.0015
# 2 38.0173 33.7259 31.0122 -0.0012 -10.1765 0.0062
# 3 81.5641 31.0122 136.8828 0.0273 -27.1994 0.0115
# 4 -0.0044 -0.0012 0.0273 44.5372 0.0045 -11.7218
# 5 -35.7554 -10.1765 -27.1994 0.0045 43.6219 0.0004
# 6 0.0015 0.0062 0.0115 -11.7218 0.0004 23.6973
#
#
#
# Elastic Compliance Matrix: (Units=1/GPa)
#
#
# Indices 1 2 3 4 5 6 
#
# 1 0.010013 -0.006662 -0.003578 0.000004 0.004422 0.000005
# 2 -0.006662 0.042488 -0.005446 0.000002 0.001055 -0.000007
# 3 -0.003578 -0.005446 0.011227 -0.000010 0.002797 -0.000009
# 4 0.000004 0.000002 -0.000010 0.025814 -0.000006 0.012769
# 5 0.004422 0.001055 0.002797 -0.000006 0.028539 -0.000005
# 6 0.000005 -0.000007 -0.000009 0.012769 -0.000005 0.048515
#
#
# Mechanical properties :
#
#
# Convention : Reuss Voigt Hill
#
# Bulk Modulus (GPa) = 30.90846 71.32221 51.11533
# Shear Modulus (GPa) = 23.95154 35.04588 29.49871
#
# Velocity S-wave (km/s) = 3.26571 3.95029 3.62420
# Velocity P-wave (km/s) = 5.28983 7.25009 6.34611
#
# Compressibility (1/GPa) = 0.03235361
#
# Stress axis : x y z
#
# Youngs Moduli (GPa) = 99.86958 23.53626 89.06718
#
# Poissons Ratio (x) = 0.15681 0.31871
# Poissons Ratio (y) = 0.66538 0.48510
# Poissons Ratio (z) = 0.35737 0.12819
#
# Static dielectric constant tensor:
#      x y z
#    x 1.863190 0.000000 -0.017520 
#    y 0.000000 1.916280 0.000000 
#    z -0.017520 0.000000 1.961410 
# 
# From -- ./inp_files/66002.got.cif
#   From: 2010.05.17/outbox.cif.g08.bks.cpg/sg5_34_cif.got.tgz:66002.got - 2010.06.03 18:56:24.
