data_PCOD9125162
_publ_section_title
;
Structure prediction by ZEFSAII (Michael W. Deem and Ramdas Pophale) SiO2 
 PCOD9125162
Probable space group: C 2
;
_chemical_formula_sum "Si O2"
_cell_formula_units_Z 24
_cell_length_a 16.711895
_cell_length_b 8.291101
_cell_length_c 14.840009
_cell_angle_alpha 90.000000
_cell_angle_beta 145.839521
_cell_angle_gamma 90.000000
_cell_volume 1154.600360
_symmetry_space_group_name_H-M "C 2"
_symmetry_group_IT_number 5
_symmetry_cell_setting 'monoclinic'
loop_
_space_group_symop_operation_xyz
x,y,z
-x,y,-z
1/2+x,1/2+y,z
1/2-x,1/2+y,-z
loop_
_atom_site_type_symbol
_atom_site_label
_atom_site_fract_x
_atom_site_fract_y
_atom_site_fract_z
Si Si1 0.338558 0.104560 0.107600
Si Si2 0.445381 0.572314 0.348501
Si Si3 0.042319 0.938455 0.815908
Si Si4 0.209329 0.115957 0.353499
Si Si5 0.565518 0.865493 0.354694
Si Si6 0.656223 0.261952 0.693112
O O1 0.396049 0.262843 0.111793
O O2 0.342941 0.149607 0.218006
O O3 0.446845 0.960932 0.187859
O O4 0.177854 0.056616 0.936370
O O5 0.500000 0.591332 0.500000
O O6 0.525901 0.459724 0.348195
O O7 0.472956 0.749543 0.333846
O O8 0.314901 0.446324 0.246141
O O9 0.927827 0.999592 0.779021
O O10 0.165825 0.250796 0.387328
O O11 0.240861 0.199293 0.288385
O O12 0.339065 0.001221 0.506843
O O13 0.500000 0.258666 0.500000
#
# Coordination Sequence:
#
# PCOD9125162 Si02
#       6
#     4   4   4   4   4   4
#     4  11  22  43  66  87 129 170 211 249 322 379
#     4   9  21  37  62  90 121 161 210 248 307 369
#     4  10  22  41  63  94 124 168 205 259 310 377
#     4  11  23  38  61  99 126 163 210 262 310 358
#     4  11  23  37  63  94 126 165 213 259 306 376
#     4  10  21  40  62  92 127 166 205 260 309 365
#
# _framework density 20.786411000000001
#
# number of rings (size 3 to 8) (size 9 to 14) (size 15 to 20)
#    0.000    1.667    1.667    3.000   11.667    0.667 
#    0.000    0.000    0.000    0.000    0.000    0.000 
#    0.000    0.000    0.000    0.000    0.000    0.000 
#
# Total GULP energy -66813.160265 kJ/mol
# GULP energy per Si atom -5567.763355 kJ/mol
# Density = 2.073910 g / cm^3
# Si number density = 20.786411 Si / 1000 Ang^3
#
#
#
# Elastic Constant Matrix: (Units=GPa)
#
#
# Indices 1 2 3 4 5 6 
#
# 1 107.8979 65.4758 29.6133 0.0000 11.0543 0.0000
# 2 65.4758 114.7406 26.5728 0.0000 6.9886 0.0000
# 3 29.6133 26.5728 63.4454 0.0000 13.0665 0.0000
# 4 0.0000 0.0000 0.0000 25.5724 0.0000 17.5226
# 5 11.0543 6.9886 13.0665 0.0000 27.3214 0.0000
# 6 0.0000 0.0000 0.0000 17.5226 0.0000 33.4775
#
#
#
# Elastic Compliance Matrix: (Units=1/GPa)
#
#
# Indices 1 2 3 4 5 6 
#
# 1 0.015110 -0.007702 -0.003298 0.000000 -0.002566 0.000000
# 2 -0.007702 0.013586 -0.002242 0.000000 0.000713 0.000000
# 3 -0.003298 -0.002242 0.019797 0.000000 -0.007560 0.000000
# 4 0.000000 0.000000 0.000000 0.060973 0.000000 -0.031914
# 5 -0.002566 0.000713 -0.007560 0.000000 0.041073 0.000000
# 6 0.000000 0.000000 0.000000 -0.031914 0.000000 0.046575
#
#
# Mechanical properties :
#
#
# Convention : Reuss Voigt Hill
#
# Bulk Modulus (GPa) = 45.43801 58.82308 52.13054
# Shear Modulus (GPa) = 21.65104 28.23572 24.94338
#
# Velocity S-wave (km/s) = 3.23088 3.68961 3.46784
# Velocity P-wave (km/s) = 5.98540 6.81991 6.41624
#
# Compressibility (1/GPa) = 0.02200801
#
# Stress axis : x y z
#
# Youngs Moduli (GPa) = 66.18065 73.60294 50.51233
#
# Poissons Ratio (x) = 0.56692 0.16660
# Poissons Ratio (y) = 0.50975 0.11326
# Poissons Ratio (z) = 0.21828 0.16504
#
# Static dielectric constant tensor:
#      x y z
#    x 1.755820 0.000000 -0.021910 
#    y 0.000000 1.819350 0.000000 
#    z -0.021910 0.000000 1.835080 
# 
# From -- ./inp_files/29003.got.cif
#   From: 2010.05.17/outbox.cif.g08.bks.cpg/sg5_15_cif.got.tgz:29003.got - 2010.06.03 18:56:24.
