data_PCOD9125133
_publ_section_title
;
Structure prediction by ZEFSAII (Michael W. Deem and Ramdas Pophale) SiO2 
 PCOD9125133
Probable space group: C 2
;
_chemical_formula_sum "Si O2"
_cell_formula_units_Z 30
_cell_length_a 11.704363
_cell_length_b 8.465077
_cell_length_c 12.756436
_cell_angle_alpha 90.000000
_cell_angle_beta 68.644199
_cell_angle_gamma 90.000000
_cell_volume 1177.104208
_symmetry_space_group_name_H-M "C 2"
_symmetry_group_IT_number 5
_symmetry_cell_setting 'monoclinic'
loop_
_space_group_symop_operation_xyz
x,y,z
-x,y,-z
1/2+x,1/2+y,z
1/2-x,1/2+y,-z
loop_
_atom_site_type_symbol
_atom_site_label
_atom_site_fract_x
_atom_site_fract_y
_atom_site_fract_z
Si Si1 0.821907 0.478690 0.222036
Si Si2 0.500000 0.980254 0.000000
Si Si3 0.338542 0.728875 0.929405
Si Si4 0.772550 0.172550 0.324507
Si Si5 0.490387 0.214395 0.669675
Si Si6 0.627685 0.386404 0.109664
Si Si7 0.862677 0.398375 0.704519
Si Si8 0.737050 0.698435 0.437347
O O1 0.859862 0.302349 0.245410
O O2 0.718394 0.446380 0.171203
O O3 0.767500 0.566433 0.340376
O O4 0.925847 0.562360 0.118115
O O5 0.592155 0.864669 0.030129
O O6 0.391048 0.555549 0.938847
O O7 0.350749 0.777890 0.803404
O O8 0.198319 0.757007 0.015766
O O9 0.631725 0.242082 0.360131
O O10 0.806799 0.145968 0.433641
O O11 0.755975 0.015661 0.261232
O O12 0.473142 0.302503 0.785551
O O13 0.624683 0.261907 0.587698
O O14 0.474551 0.022072 0.682275
O O15 0.853855 0.316197 0.593577
#
# Coordination Sequence:
#
# PCOD9125133 Si02
#       8
#     4   2   4   4   4   4   4   4
#     4  10  21  40  62  91 127 171 214 269 337 396
#     4  10  24  38  64  94 136 170 220 286 340 412
#     4  11  21  40  62  91 127 174 215 272 340 399
#     4   9  22  40  63  91 135 169 215 282 331 396
#     4   9  22  40  58  92 131 165 217 276 324 399
#     4  10  21  40  61  84 132 166 205 274 333 392
#     4  10  22  37  65  93 127 171 225 268 330 404
#     4  12  20  40  68  96 123 179 224 264 345 399
#
# _framework density 25.486273000000001
#
# number of rings (size 3 to 8) (size 9 to 14) (size 15 to 20)
#    0.800    1.067    1.333    2.800    1.867    2.133 
#    0.000    0.000    0.000    0.000    0.000    0.000 
#    0.000    0.000    0.000    0.000    0.000    0.000 
#
# Total GULP energy -83648.998676 kJ/mol
# GULP energy per Si atom -5576.599912 kJ/mol
# Density = 2.542827 g / cm^3
# Si number density = 25.486273 Si / 1000 Ang^3
#
#
#
# Elastic Constant Matrix: (Units=GPa)
#
#
# Indices 1 2 3 4 5 6 
#
# 1 43.1421 18.8948 32.4840 0.0000 6.5339 0.0000
# 2 18.8948 106.4555 25.6934 0.0000 9.6814 0.0000
# 3 32.4840 25.6934 87.1731 0.0000 17.8440 0.0000
# 4 0.0000 0.0000 0.0000 25.0823 0.0000 -3.7345
# 5 6.5339 9.6814 17.8440 0.0000 28.4154 0.0000
# 6 0.0000 0.0000 0.0000 -3.7345 0.0000 0.6166
#
#
#
# Elastic Compliance Matrix: (Units=1/GPa)
#
#
# Indices 1 2 3 4 5 6 
#
# 1 0.033170 -0.003159 -0.011577 0.000000 0.000719 0.000000
# 2 -0.003159 0.010495 -0.001530 0.000000 -0.001889 0.000000
# 3 -0.011577 -0.001530 0.017883 0.000000 -0.008047 0.000000
# 4 0.000000 0.000000 0.000000 0.405957 0.000000 2.458770
# 5 0.000719 -0.001889 -0.008047 0.000000 0.040724 0.000000
# 6 0.000000 0.000000 0.000000 2.458770 0.000000 16.513905
#
#
# Mechanical properties :
#
#
# Convention : Reuss Voigt Hill
#
# Bulk Modulus (GPa) = 34.46021 43.43501 38.94761
# Shear Modulus (GPa) = 0.29301 21.46942 10.88121
#
# Velocity S-wave (km/s) = 0.33944 2.90555 2.06850
# Velocity P-wave (km/s) = 3.70190 5.32314 4.58475
#
# Compressibility (1/GPa) = 0.02901898
#
# Stress axis : x y z
#
# Youngs Moduli (GPa) = 30.14728 95.28159 55.91786
#
# Poissons Ratio (x) = 0.30097 0.64734
# Poissons Ratio (y) = 0.09523 0.08553
# Poissons Ratio (z) = 0.34901 0.14575
#
# Static dielectric constant tensor:
#      x y z
#    x 2.098580 0.000000 -0.022750 
#    y 0.000000 2.167110 0.000000 
#    z -0.022750 0.000000 2.009640 
# 
# From -- ./inp_files/41723.got.cif
#   From: 2010.05.17/outbox.cif.g08.bks.cpg/sg5_21_cif.got.tgz:41723.got - 2010.06.03 18:56:24.
