data_PCOD9125454
_publ_section_title
;
Structure prediction by ZEFSAII (Michael W. Deem and Ramdas Pophale) SiO2 
 PCOD9125454
Probable space group: C 2
;
_chemical_formula_sum "Si O2"
_cell_formula_units_Z 20
_cell_length_a 9.932457
_cell_length_b 13.168260
_cell_length_c 7.610772
_cell_angle_alpha 90.000000
_cell_angle_beta 95.881613
_cell_angle_gamma 90.000000
_cell_volume 990.196817
_symmetry_space_group_name_H-M "C 2"
_symmetry_group_IT_number 5
_symmetry_cell_setting 'monoclinic'
loop_
_space_group_symop_operation_xyz
x,y,z
-x,y,-z
1/2+x,1/2+y,z
1/2-x,1/2+y,-z
loop_
_atom_site_type_symbol
_atom_site_label
_atom_site_fract_x
_atom_site_fract_y
_atom_site_fract_z
Si Si1 0.646433 0.446370 0.554097
Si Si2 0.210788 0.103659 0.267858
Si Si3 0.919883 0.467864 0.155945
Si Si4 0.142383 0.954284 0.970181
Si Si5 0.109321 0.309579 0.381132
O O1 0.500000 0.398230 0.500000
O O2 0.655050 0.544988 0.431705
O O3 0.656683 0.467024 0.763847
O O4 0.769610 0.373694 0.515640
O O5 0.363420 0.060884 0.264745
O O6 0.181796 0.221354 0.282200
O O7 0.140090 0.058231 0.084128
O O8 0.020115 0.390598 0.262504
O O9 0.783539 0.411048 0.066822
O O10 0.000000 0.510449 0.000000
O O11 0.000000 0.901457 0.000000
O O12 0.000000 0.263357 0.500000
#
# Coordination Sequence:
#
# PCOD9125454 Si02
#       5
#     4   4   4   4   4
#     4  12  22  44  65  96 143 176 225 289 337 403
#     4  10  24  42  68 103 131 180 234 268 347 404
#     4  10  21  44  69  97 139 179 227 292 332 396
#     4  10  21  41  67  92 132 181 220 284 340 391
#     4  12  23  43  71 101 135 184 232 277 343 412
#
# _framework density 20.198004000000001
#
# number of rings (size 3 to 8) (size 9 to 14) (size 15 to 20)
#    1.200    0.000    6.000    0.600    0.000    0.800 
#    3.600    1.000    0.000    0.000    0.000    0.000 
#    0.000    0.000    0.000    0.000    0.000    0.000 
#
# Total GULP energy -55670.158109 kJ/mol
# GULP energy per Si atom -5567.015811 kJ/mol
# Density = 2.015203 g / cm^3
# Si number density = 20.198004 Si / 1000 Ang^3
#
#
#
# Elastic Constant Matrix: (Units=GPa)
#
#
# Indices 1 2 3 4 5 6 
#
# 1 143.7295 45.7916 17.7045 0.0000 7.2778 0.0000
# 2 45.7916 77.9259 20.3555 0.0000 4.2787 0.0000
# 3 17.7045 20.3555 71.0781 0.0000 -5.8200 0.0000
# 4 0.0000 0.0000 0.0000 4.9553 0.0000 -0.1953
# 5 7.2778 4.2787 -5.8200 0.0000 47.9231 0.0000
# 6 0.0000 0.0000 0.0000 -0.1953 0.0000 28.3697
#
#
#
# Elastic Compliance Matrix: (Units=1/GPa)
#
#
# Indices 1 2 3 4 5 6 
#
# 1 0.008643 -0.004800 -0.000859 0.000000 -0.000988 0.000000
# 2 -0.004800 0.016681 -0.003680 0.000000 -0.001207 0.000000
# 3 -0.000859 -0.003680 0.015529 0.000000 0.002345 0.000000
# 4 0.000000 0.000000 0.000000 0.201860 0.000000 0.001390
# 5 -0.000988 -0.001207 0.002345 0.000000 0.021409 0.000000
# 6 0.000000 0.000000 0.000000 0.001390 0.000000 0.035258
#
#
# Mechanical properties :
#
#
# Convention : Reuss Voigt Hill
#
# Bulk Modulus (GPa) = 45.09832 51.15964 48.12898
# Shear Modulus (GPa) = 15.36331 30.17508 22.76919
#
# Velocity S-wave (km/s) = 2.76095 3.86938 3.36117
# Velocity P-wave (km/s) = 5.70442 6.73400 6.24048
#
# Compressibility (1/GPa) = 0.02217377
#
# Stress axis : x y z
#
# Youngs Moduli (GPa) = 115.70536 59.94842 64.39567
#
# Poissons Ratio (x) = 0.28775 0.05532
# Poissons Ratio (y) = 0.55539 0.23700
# Poissons Ratio (z) = 0.09940 0.22063
#
# Static dielectric constant tensor:
#      x y z
#    x 1.796100 0.000000 -0.016290 
#    y 0.000000 1.695230 0.000000 
#    z -0.016290 0.000000 1.755290 
# 
# From -- ./inp_files/14232.got.cif
#   From: 2010.05.17/outbox.cif.g08.bks.cpg/sg5_8_cif.got.tgz:14232.got - 2010.06.03 18:56:24.
