data_PCOD9125386
_publ_section_title
;
Structure prediction by ZEFSAII (Michael W. Deem and Ramdas Pophale) SiO2 
 PCOD9125386
Probable space group: C 2
;
_chemical_formula_sum "Si O2"
_cell_formula_units_Z 18
_cell_length_a 10.602015
_cell_length_b 8.724763
_cell_length_c 15.960177
_cell_angle_alpha 90.000000
_cell_angle_beta 37.270453
_cell_angle_gamma 90.000000
_cell_volume 894.025523
_symmetry_space_group_name_H-M "C 2"
_symmetry_group_IT_number 5
_symmetry_cell_setting 'monoclinic'
loop_
_space_group_symop_operation_xyz
x,y,z
-x,y,-z
1/2+x,1/2+y,z
1/2-x,1/2+y,-z
loop_
_atom_site_type_symbol
_atom_site_label
_atom_site_fract_x
_atom_site_fract_y
_atom_site_fract_z
Si Si1 0.770763 0.160710 0.583775
Si Si2 0.914451 0.203999 0.867758
Si Si3 0.000000 0.221659 0.000000
Si Si4 0.643633 0.025415 0.131977
Si Si5 0.773030 0.527703 0.580056
O O1 0.738511 0.344340 0.598846
O O2 0.000000 0.130697 0.500000
O O3 0.590843 0.081700 0.733830
O O4 0.745446 0.091615 0.504298
O O5 0.832449 0.346906 0.858988
O O6 0.983122 0.293540 0.917517
O O7 0.098996 0.114740 0.726279
O O8 0.745961 0.083247 0.990640
O O9 0.206569 0.117723 0.883789
O O10 0.000000 0.556883 0.500000
#
# Coordination Sequence:
#
# PCOD9125386 Si02
#       5
#     4   4   2   4   4
#     4  11  25  43  65  99 133 166 215 266 324 384
#     4  10  21  41  64  91 124 167 211 263 314 373
#     4   8  22  38  62  88 128 160 210 262 314 360
#     4  10  21  42  63  90 127 166 211 259 317 375
#     4  11  24  43  68  94 131 174 212 266 322 383
#
# _framework density 20.133652000000001
#
# number of rings (size 3 to 8) (size 9 to 14) (size 15 to 20)
#    1.333    0.444    0.000    4.000    0.000    7.111 
#    0.000    0.000    0.000    0.000    0.000    0.000 
#    0.000    0.000    0.000    0.000    0.000    0.000 
#
# Total GULP energy -50122.927735 kJ/mol
# GULP energy per Si atom -5569.214193 kJ/mol
# Density = 2.008783 g / cm^3
# Si number density = 20.133652 Si / 1000 Ang^3
#
#
#
# Elastic Constant Matrix: (Units=GPa)
#
#
# Indices 1 2 3 4 5 6 
#
# 1 56.1095 18.0583 24.6115 -0.0001 -3.4806 -0.0002
# 2 18.0583 105.2901 67.2028 0.0000 -13.1366 -0.0001
# 3 24.6115 67.2028 178.6586 -0.0004 -7.2247 -0.0006
# 4 -0.0001 0.0000 -0.0004 34.6405 0.0002 6.7414
# 5 -3.4806 -13.1366 -7.2247 0.0002 29.1527 0.0003
# 6 -0.0002 -0.0001 -0.0006 6.7414 0.0003 -151.2434
#
#
#
# Elastic Compliance Matrix: (Units=1/GPa)
#
#
# Indices 1 2 3 4 5 6 
#
# 1 0.019348 -0.002005 -0.001873 0.000000 0.000942 0.000000
# 2 -0.002005 0.013323 -0.004548 0.000000 0.004637 0.000000
# 3 -0.001873 -0.004548 0.007550 0.000000 -0.000402 0.000000
# 4 0.000000 0.000000 0.000000 0.028620 0.000000 0.001276
# 5 0.000942 0.004637 -0.000402 0.000000 0.036405 0.000000
# 6 0.000000 0.000000 0.000000 0.001276 0.000000 -0.006555
#
#
# Mechanical properties :
#
#
# Convention : Reuss Voigt Hill
#
# Bulk Modulus (GPa) = 42.79313 62.20038 52.49675
# Shear Modulus (GPa) = 40.54163 -2.14433 19.19865
#
# Velocity S-wave (km/s) = 4.49221 -1.03313 3.09133
# Velocity P-wave (km/s) = 6.94315 5.43486 6.23478
#
# Compressibility (1/GPa) = 0.02336824
#
# Stress axis : x y z
#
# Youngs Moduli (GPa) = 51.68593 75.06059 132.45761
#
# Poissons Ratio (x) = 0.15053 0.24807
# Poissons Ratio (y) = 0.10365 0.60236
# Poissons Ratio (z) = 0.09680 0.34134
#
# Static dielectric constant tensor:
#      x y z
#    x 1.742470 0.000000 -0.007090 
#    y 0.000000 1.671930 0.000000 
#    z -0.007090 0.000000 1.721420 
# 
# From -- ./inp_files/44258.got.cif
#   From: 2010.05.17/outbox.cif.g08.bks.cpg/sg5_23_cif.got.tgz:44258.got - 2010.06.03 18:56:24.
