data_PCOD9125801
_publ_section_title
;
Structure prediction by ZEFSAII (Michael W. Deem and Ramdas Pophale) SiO2 
 PCOD9125801
Probable space group: C 2
;
_chemical_formula_sum "Si O2"
_cell_formula_units_Z 28
_cell_length_a 18.742246
_cell_length_b 4.989126
_cell_length_c 16.861073
_cell_angle_alpha 90.000000
_cell_angle_beta 40.584582
_cell_angle_gamma 90.000000
_cell_volume 1025.711597
_symmetry_space_group_name_H-M "C 2"
_symmetry_group_IT_number 5
_symmetry_cell_setting 'monoclinic'
loop_
_space_group_symop_operation_xyz
x,y,z
-x,y,-z
1/2+x,1/2+y,z
1/2-x,1/2+y,-z
loop_
_atom_site_type_symbol
_atom_site_label
_atom_site_fract_x
_atom_site_fract_y
_atom_site_fract_z
Si Si1 0.408473 0.575760 0.224097
Si Si2 0.903481 0.003778 0.832446
Si Si3 0.351781 0.739065 0.521520
Si Si4 0.217969 0.628570 0.289007
Si Si5 0.500000 0.474841 0.500000
Si Si6 0.385387 0.250748 0.391188
Si Si7 0.293586 0.280297 0.084520
Si Si8 0.000000 0.741250 0.000000
O O1 0.504986 0.693252 0.198799
O O2 0.317079 0.753796 0.258655
O O3 0.357317 0.348712 0.326191
O O4 0.461315 0.424381 0.105539
O O5 0.815542 0.123439 0.847479
O O6 0.983575 0.795953 0.721090
O O7 0.841774 0.870783 0.959007
O O8 0.474410 0.664059 0.447876
O O9 0.325220 0.466534 0.498057
O O10 0.303090 0.852969 0.644181
O O11 0.258799 0.532856 0.168861
O O12 0.106977 0.795651 0.391871
O O13 0.360765 0.968482 0.448781
O O14 0.388658 0.120810 0.054367
#
# Coordination Sequence:
#
# PCOD9125801 Si02
#       8
#     4   4   4   4   2   4   4   2
#     4   8  20  45  75 112 154 203 262 321 405 466
#     4   9  22  42  72 117 146 211 257 332 387 479
#     4  12  26  47  73 110 154 207 263 324 384 476
#     4  11  25  47  78 112 157 211 256 337 396 478
#     4  12  28  46  74 118 156 216 270 324 408 478
#     4  10  25  47  77 107 154 198 268 324 387 471
#     4  10  21  43  77 109 162 197 269 315 405 466
#     4   8  16  42  74 112 158 202 252 320 394 486
#
# _framework density 27.298124000000001
#
# number of rings (size 3 to 8) (size 9 to 14) (size 15 to 20)
#    0.857    1.143    1.429    0.429    4.000    3.429 
#    2.571    0.000    3.143    1.714    0.000    0.000 
#    0.000    0.000    0.000    0.000    0.000    0.000 
#
# Total GULP energy -78245.014064 kJ/mol
# GULP energy per Si atom -5588.929576 kJ/mol
# Density = 2.723599 g / cm^3
# Si number density = 27.298124 Si / 1000 Ang^3
#
#
#
# Elastic Constant Matrix: (Units=GPa)
#
#
# Indices 1 2 3 4 5 6 
#
# 1 233.3357 50.3478 20.3170 0.0664 -28.1654 -0.0294
# 2 50.3478 85.9167 31.5570 0.0685 -0.0341 -0.0318
# 3 20.3170 31.5570 153.5118 0.0898 11.2355 -0.0424
# 4 0.0664 0.0685 0.0898 26.8459 -0.0500 13.3278
# 5 -28.1654 -0.0341 11.2355 -0.0500 58.2448 0.0248
# 6 -0.0294 -0.0318 -0.0424 13.3278 0.0248 20.2767
#
#
#
# Elastic Compliance Matrix: (Units=1/GPa)
#
#
# Indices 1 2 3 4 5 6 
#
# 1 0.005267 -0.002985 -0.000274 0.000001 0.002598 -0.000002
# 2 -0.002985 0.014297 -0.002474 -0.000044 -0.000958 0.000043
# 3 -0.000274 -0.002474 0.007170 -0.000039 -0.001517 0.000038
# 4 0.000001 -0.000044 -0.000039 0.055294 0.000071 -0.036345
# 5 0.002598 -0.000958 -0.001517 0.000071 0.018717 -0.000070
# 6 -0.000002 0.000043 0.000038 -0.036345 -0.000070 0.073207
#
#
# Mechanical properties :
#
#
# Convention : Reuss Voigt Hill
#
# Bulk Modulus (GPa) = 65.49209 75.24530 70.36869
# Shear Modulus (GPa) = 26.24582 45.77631 36.01106
#
# Velocity S-wave (km/s) = 3.10409 4.09944 3.63599
# Velocity P-wave (km/s) = 6.07377 7.07329 6.59250
#
# Compressibility (1/GPa) = 0.01526902
#
# Stress axis : x y z
#
# Youngs Moduli (GPa) = 189.85374 69.94609 139.47121
#
# Poissons Ratio (x) = 0.20880 0.03816
# Poissons Ratio (y) = 0.56673 0.34501
# Poissons Ratio (z) = 0.05195 0.17303
#
# Static dielectric constant tensor:
#      x y z
#    x 2.336570 0.000000 -0.181670 
#    y 0.000000 2.164110 -0.000060 
#    z -0.181670 -0.000060 2.232510 
# 
# From -- ./inp_files/62622.got.cif
#   From: 2010.05.17/outbox.cif.g08.bks.cpg/sg5_32_cif.got.tgz:62622.got - 2010.06.03 18:56:24.
