data_PCOD9125349
_publ_section_title
;
Structure prediction by ZEFSAII (Michael W. Deem and Ramdas Pophale) SiO2 
 PCOD9125349
Probable space group: C 2
;
_chemical_formula_sum "Si O2"
_cell_formula_units_Z 24
_cell_length_a 13.778720
_cell_length_b 14.190396
_cell_length_c 5.040330
_cell_angle_alpha 90.000000
_cell_angle_beta 91.771116
_cell_angle_gamma 90.000000
_cell_volume 985.042198
_symmetry_space_group_name_H-M "C 2"
_symmetry_group_IT_number 5
_symmetry_cell_setting 'monoclinic'
loop_
_space_group_symop_operation_xyz
x,y,z
-x,y,-z
1/2+x,1/2+y,z
1/2-x,1/2+y,-z
loop_
_atom_site_type_symbol
_atom_site_label
_atom_site_fract_x
_atom_site_fract_y
_atom_site_fract_z
Si Si1 0.389215 0.389690 0.959277
Si Si2 0.000000 0.438755 0.000000
Si Si3 0.500000 0.072168 0.500000
Si Si4 0.734272 0.366021 0.556685
Si Si5 0.668404 0.605474 0.021434
Si Si6 0.908806 0.277127 0.291151
Si Si7 0.709727 0.083551 0.459805
O O1 0.312694 0.347082 0.162432
O O2 0.380313 0.502633 0.011221
O O3 0.500000 0.359360 0.000000
O O4 0.352472 0.369249 0.662360
O O5 0.018086 0.505979 0.248004
O O6 0.917989 0.366964 0.095067
O O7 0.604344 0.121260 0.538131
O O8 0.814606 0.294748 0.460890
O O9 0.784457 0.469196 0.541945
O O10 0.601387 0.686611 0.896171
O O11 0.761768 0.609807 0.835422
O O12 0.707399 0.611649 0.322554
O O13 0.000000 0.274142 0.500000
#
# Coordination Sequence:
#
# PCOD9125349 Si02
#       7
#     4   2   2   4   4   4   4
#     4  10  22  42  66  92 125 175 225 270 319 382
#     4  12  24  36  66 104 134 168 214 270 346 396
#     4  12  22  40  72  96 130 170 236 274 326 392
#     4  10  22  39  65  95 130 166 221 272 319 395
#     4  10  25  39  63  95 138 170 214 275 336 398
#     4  12  27  41  67 103 143 174 212 276 353 398
#     4  10  21  41  61  96 128 176 221 272 324 389
#
# _framework density 24.364435
#
# number of rings (size 3 to 8) (size 9 to 14) (size 15 to 20)
#    0.000    1.333    2.500    1.500   10.500    2.667 
#    0.000    0.000    7.333    0.000    0.000    0.000 
#    0.000    0.000    0.000    0.000    0.000    0.000 
#
# Total GULP energy -67204.577708 kJ/mol
# GULP energy per Si atom -5600.381476 kJ/mol
# Density = 2.430898 g / cm^3
# Si number density = 24.364435 Si / 1000 Ang^3
#
#
#
# Elastic Constant Matrix: (Units=GPa)
#
#
# Indices 1 2 3 4 5 6 
#
# 1 105.5530 -11.8727 -13.0717 0.0000 -4.7144 0.0000
# 2 -11.8727 56.0623 7.6672 0.0000 -3.6670 0.0000
# 3 -13.0717 7.6672 92.7920 0.0000 -4.0188 0.0000
# 4 0.0000 0.0000 0.0000 30.8728 0.0000 -2.1619
# 5 -4.7144 -3.6670 -4.0188 0.0000 38.6267 0.0000
# 6 0.0000 0.0000 0.0000 -2.1619 0.0000 5.9649
#
#
#
# Elastic Compliance Matrix: (Units=1/GPa)
#
#
# Indices 1 2 3 4 5 6 
#
# 1 0.009931 0.002026 0.001298 0.000000 0.001540 0.000000
# 2 0.002026 0.018549 -0.001166 0.000000 0.001887 0.000000
# 3 0.001298 -0.001166 0.011108 0.000000 0.001204 0.000000
# 4 0.000000 0.000000 0.000000 0.033234 0.000000 0.012045
# 5 0.001540 0.001887 0.001204 0.000000 0.026381 0.000000
# 6 0.000000 0.000000 0.000000 0.012045 0.000000 0.172013
#
#
# Mechanical properties :
#
#
# Convention : Reuss Voigt Hill
#
# Bulk Modulus (GPa) = 22.77539 24.42812 23.60175
# Shear Modulus (GPa) = 17.75980 33.20517 25.48249
#
# Velocity S-wave (km/s) = 2.70279 3.69569 3.23753
# Velocity P-wave (km/s) = 4.37129 5.31590 4.86656
#
# Compressibility (1/GPa) = 0.04390704
#
# Stress axis : x y z
#
# Youngs Moduli (GPa) = 100.69090 53.91055 90.02434
#
# Poissons Ratio (x) = -0.10924 -0.11688
# Poissons Ratio (y) = -0.20404 0.10492
# Poissons Ratio (z) = -0.13073 0.06283
#
# Static dielectric constant tensor:
#      x y z
#    x 1.937430 0.000000 -0.010390 
#    y 0.000000 1.969680 0.000000 
#    z -0.010390 0.000000 1.861210 
# 
# From -- ./inp_files/5195.got.cif
#   From: 2010.05.17/outbox.cif.g08.bks.cpg/sg5_3_cif.got.tgz:5195.got - 2010.06.03 18:56:24.
