data_PCOD9125281
_publ_section_title
;
Structure prediction by ZEFSAII (Michael W. Deem and Ramdas Pophale) SiO2 
 PCOD9125281
Probable space group: C 2
;
_chemical_formula_sum "Si O2"
_cell_formula_units_Z 24
_cell_length_a 21.174146
_cell_length_b 5.007061
_cell_length_c 14.102458
_cell_angle_alpha 90.000000
_cell_angle_beta 139.625950
_cell_angle_gamma 90.000000
_cell_volume 968.518081
_symmetry_space_group_name_H-M "C 2"
_symmetry_group_IT_number 5
_symmetry_cell_setting 'monoclinic'
loop_
_space_group_symop_operation_xyz
x,y,z
-x,y,-z
1/2+x,1/2+y,z
1/2-x,1/2+y,-z
loop_
_atom_site_type_symbol
_atom_site_label
_atom_site_fract_x
_atom_site_fract_y
_atom_site_fract_z
Si Si1 0.236364 0.588030 0.424866
Si Si2 0.605567 0.355986 0.995849
Si Si3 0.690641 0.092531 0.771908
Si Si4 0.913180 0.302037 0.507188
Si Si5 0.026220 0.807568 0.707130
Si Si6 0.645593 0.844572 0.152354
O O1 0.287622 0.331791 0.532303
O O2 0.310513 0.733713 0.438752
O O3 0.151074 0.458213 0.264062
O O4 0.717335 0.416274 0.090054
O O5 0.597153 0.563132 0.073106
O O6 0.599699 0.061599 0.030446
O O7 0.536691 0.397157 0.827772
O O8 0.632996 0.242847 0.787370
O O9 0.742870 0.291936 0.756483
O O10 0.613233 0.914834 0.626094
O O11 0.965531 0.536452 0.625624
O O12 0.976428 0.036487 0.588196
#
# Coordination Sequence:
#
# PCOD9125281 Si02
#       6
#     4   4   4   4   4   4
#     4  12  23  43  74  98 123 169 234 291 335 400
#     4  10  23  41  67  94 144 180 226 249 314 410
#     4  10  25  40  69  92 144 185 224 252 311 410
#     4  12  26  44  62 107 135 171 224 290 340 376
#     4  12  27  40  67 101 149 178 213 270 335 393
#     4  10  21  40  67  98 127 168 238 263 314 381
#
# _framework density 24.780127
#
# number of rings (size 3 to 8) (size 9 to 14) (size 15 to 20)
#    1.000    0.000    1.667    5.500    4.667    2.667 
#    0.000    0.000    0.000   15.000    0.000    0.000 
#    0.000    0.000    0.000    0.000    0.000    0.000 
#
# Total GULP energy -67172.245438 kJ/mol
# GULP energy per Si atom -5597.687120 kJ/mol
# Density = 2.472373 g / cm^3
# Si number density = 24.780127 Si / 1000 Ang^3
#
#
#
# Elastic Constant Matrix: (Units=GPa)
#
#
# Indices 1 2 3 4 5 6 
#
# 1 34.1035 -3.3799 14.1085 0.0003 3.0542 0.0007
# 2 -3.3799 120.4479 23.2207 0.0003 -3.1994 -0.0004
# 3 14.1085 23.2207 110.1453 -0.0006 -11.2617 -0.0013
# 4 0.0003 0.0003 -0.0006 14.3579 0.0000 -33.2541
# 5 3.0542 -3.1994 -11.2617 0.0000 36.2078 -0.0002
# 6 0.0007 -0.0004 -0.0013 -33.2541 -0.0002 9.1711
#
#
#
# Elastic Compliance Matrix: (Units=1/GPa)
#
#
# Indices 1 2 3 4 5 6 
#
# 1 0.031866 0.001723 -0.004859 0.000001 -0.004047 0.000001
# 2 0.001723 0.008749 -0.002067 0.000000 -0.000015 0.000000
# 3 -0.004859 -0.002067 0.010494 -0.000001 0.003491 -0.000001
# 4 0.000001 0.000000 -0.000001 -0.009414 0.000000 -0.034136
# 5 -0.004047 -0.000015 0.003491 0.000000 0.029044 0.000000
# 6 0.000001 0.000000 -0.000001 -0.034136 0.000000 -0.014739
#
#
# Mechanical properties :
#
#
# Convention : Reuss Voigt Hill
#
# Bulk Modulus (GPa) = 24.56742 36.95502 30.76122
# Shear Modulus (GPa) = 62.52214 27.33053 44.92634
#
# Velocity S-wave (km/s) = 5.02847 3.32463 4.26255
# Velocity P-wave (km/s) = 6.60679 5.44822 6.05528
#
# Compressibility (1/GPa) = 0.04070432
#
# Stress axis : x y z
#
# Youngs Moduli (GPa) = 31.38164 114.30219 95.29320
#
# Poissons Ratio (x) = -0.19699 0.46301
# Poissons Ratio (y) = -0.05408 0.19694
# Poissons Ratio (z) = 0.15248 0.23623
#
# Static dielectric constant tensor:
#      x y z
#    x 2.038040 0.000000 0.088430 
#    y 0.000000 1.887250 0.000000 
#    z 0.088430 0.000000 1.948890 
# 
# From -- ./inp_files/57405.got.cif
#   From: 2010.05.17/outbox.cif.g08.bks.cpg/sg5_29_cif.got.tgz:57405.got - 2010.06.03 18:56:24.
