data_PCOD9125237
_publ_section_title
;
Structure prediction by ZEFSAII (Michael W. Deem and Ramdas Pophale) SiO2 
 PCOD9125237
Probable space group: C 2
;
_chemical_formula_sum "Si O2"
_cell_formula_units_Z 20
_cell_length_a 7.698498
_cell_length_b 13.276786
_cell_length_c 8.629714
_cell_angle_alpha 90.000000
_cell_angle_beta 85.165947
_cell_angle_gamma 90.000000
_cell_volume 878.916866
_symmetry_space_group_name_H-M "C 2"
_symmetry_group_IT_number 5
_symmetry_cell_setting 'monoclinic'
loop_
_space_group_symop_operation_xyz
x,y,z
-x,y,-z
1/2+x,1/2+y,z
1/2-x,1/2+y,-z
loop_
_atom_site_type_symbol
_atom_site_label
_atom_site_fract_x
_atom_site_fract_y
_atom_site_fract_z
Si Si1 0.000000 0.368330 0.000000
Si Si2 0.328656 0.036343 0.799225
Si Si3 0.500000 0.529169 0.000000
Si Si4 0.674541 0.369051 0.210935
Si Si5 0.295944 0.527015 0.540999
Si Si6 0.928367 0.696670 0.329743
O O1 0.900955 0.438953 0.881919
O O2 0.162015 0.318784 0.893071
O O3 0.153065 0.078749 0.890414
O O4 0.294403 0.018858 0.619708
O O5 0.475195 0.120394 0.792500
O O6 0.398308 0.458739 0.887943
O O7 0.748589 0.427825 0.355341
O O8 0.502202 0.302785 0.261419
O O9 0.500000 0.523937 0.500000
O O10 0.250013 0.634005 0.628129
O O11 0.000000 0.698340 0.500000
#
# Coordination Sequence:
#
# PCOD9125237 Si02
#       6
#     2   4   2   4   4   4
#     4  10  22  40  68 102 136 182 218 276 360 398
#     4  10  21  40  65  96 133 179 223 272 344 402
#     4  10  22  38  62  98 132 176 218 266 358 394
#     4  11  22  42  67  97 139 175 226 280 335 407
#     4  11  21  42  71  93 138 183 226 279 341 396
#     4  10  23  40  65  99 130 173 238 275 323 414
#
# _framework density 22.755278000000001
#
# number of rings (size 3 to 8) (size 9 to 14) (size 15 to 20)
#    0.000    1.600    4.000    0.600    0.000    1.600 
#    0.000    8.000    0.000    0.000    0.000    0.000 
#    0.000    0.000    0.000    0.000    0.000    0.000 
#
# Total GULP energy -55671.313983 kJ/mol
# GULP energy per Si atom -5567.131398 kJ/mol
# Density = 2.270349 g / cm^3
# Si number density = 22.755278 Si / 1000 Ang^3
#
#
#
# Elastic Constant Matrix: (Units=GPa)
#
#
# Indices 1 2 3 4 5 6 
#
# 1 73.4272 7.7407 29.1713 0.0000 -28.4376 0.0000
# 2 7.7407 72.9769 32.4130 0.0000 -6.5368 0.0000
# 3 29.1713 32.4130 107.6902 0.0000 -17.2335 0.0000
# 4 0.0000 0.0000 0.0000 -2.7701 0.0000 -3.3077
# 5 -28.4376 -6.5368 -17.2335 0.0000 52.2669 0.0000
# 6 0.0000 0.0000 0.0000 -3.3077 0.0000 17.6212
#
#
#
# Elastic Compliance Matrix: (Units=1/GPa)
#
#
# Indices 1 2 3 4 5 6 
#
# 1 0.018495 0.000494 -0.003736 0.000000 0.008893 0.000000
# 2 0.000494 0.015840 -0.004794 0.000000 0.000669 0.000000
# 3 -0.003736 -0.004794 0.011950 0.000000 0.001308 0.000000
# 4 0.000000 0.000000 0.000000 -0.294897 0.000000 -0.055355
# 5 0.008893 0.000669 0.001308 0.000000 0.024486 0.000000
# 6 0.000000 0.000000 0.000000 -0.055355 0.000000 0.046359
#
#
# Mechanical properties :
#
#
# Convention : Reuss Voigt Hill
#
# Bulk Modulus (GPa) = 33.09795 43.63826 38.36811
# Shear Modulus (GPa) = -32.97632 25.74155 -3.61739
#
# Velocity S-wave (km/s) = -3.81093 3.36703 -1.26220
# Velocity P-wave (km/s) = 2.18803 5.85958 3.84364
#
# Compressibility (1/GPa) = 0.03021335
#
# Stress axis : x y z
#
# Youngs Moduli (GPa) = 54.06849 63.13172 83.68110
#
# Poissons Ratio (x) = -0.03118 0.31259
# Poissons Ratio (y) = -0.02671 0.40119
# Poissons Ratio (z) = 0.20197 0.30267
#
# Static dielectric constant tensor:
#      x y z
#    x 1.913280 0.000000 -0.045600 
#    y 0.000000 1.926690 0.000000 
#    z -0.045600 0.000000 1.946530 
# 
# From -- ./inp_files/14262.got.cif
#   From: 2010.05.17/outbox.cif.g08.bks.cpg/sg5_8_cif.got.tgz:14262.got - 2010.06.03 18:56:24.
