data_PCOD9125383
_publ_section_title
;
Structure prediction by ZEFSAII (Michael W. Deem and Ramdas Pophale) SiO2 
 PCOD9125383
Probable space group: C 2
;
_chemical_formula_sum "Si O2"
_cell_formula_units_Z 32
_cell_length_a 15.509504
_cell_length_b 11.076961
_cell_length_c 15.424594
_cell_angle_alpha 90.000000
_cell_angle_beta 140.922670
_cell_angle_gamma 90.000000
_cell_volume 1670.424765
_symmetry_space_group_name_H-M "C 2"
_symmetry_group_IT_number 5
_symmetry_cell_setting 'monoclinic'
loop_
_space_group_symop_operation_xyz
x,y,z
-x,y,-z
1/2+x,1/2+y,z
1/2-x,1/2+y,-z
loop_
_atom_site_type_symbol
_atom_site_label
_atom_site_fract_x
_atom_site_fract_y
_atom_site_fract_z
Si Si1 0.478749 0.118630 0.379246
Si Si2 0.118566 0.350453 0.702291
Si Si3 0.866049 0.810798 0.171239
Si Si4 0.835884 0.003181 0.384791
Si Si5 0.145280 0.827337 0.450620
Si Si6 0.108389 0.741671 0.006936
Si Si7 0.642868 0.962496 0.070786
Si Si8 0.162083 0.266268 0.548685
O O1 0.500000 0.129256 0.500000
O O2 0.364348 0.200886 0.240538
O O3 0.612116 0.186598 0.445350
O O4 0.443268 0.982053 0.327121
O O5 0.248405 0.304323 0.855632
O O6 0.159129 0.346808 0.632649
O O7 0.991815 0.258240 0.608126
O O8 0.997816 0.883675 0.310181
O O9 0.722204 0.878976 0.063964
O O10 0.912274 0.775805 0.110089
O O11 0.752635 0.978525 0.233231
O O12 0.792246 0.133459 0.387365
O O13 0.000000 0.003665 0.500000
O O14 0.801823 0.898044 0.425696
O O15 0.245151 0.828878 0.448964
O O16 0.115789 0.596474 0.014083
O O17 0.000000 0.773991 0.000000
O O18 0.500000 0.916350 0.000000
#
# Coordination Sequence:
#
# PCOD9125383 Si02
#       8
#     4   4   4   4   4   4   4   4
#     4  10  21  41  64  90 128 168 200 266 330 377
#     4  11  22  39  63  90 132 161 212 269 322 376
#     4  10  24  40  66  91 127 171 219 256 327 395
#     4  12  20  43  66  91 133 169 216 270 319 387
#     4  10  24  36  65  93 125 165 217 259 324 372
#     4  11  24  44  65  90 129 176 217 264 329 393
#     4  11  24  41  68  95 128 174 218 269 325 394
#     4  11  22  38  62  99 122 168 219 268 314 383
#
# _framework density 19.156804000000001
#
# number of rings (size 3 to 8) (size 9 to 14) (size 15 to 20)
#    0.750    0.500    5.000    1.875    5.250    1.000 
#    0.000    0.625    2.750    0.000    0.000    0.000 
#    0.000    0.000    0.000    0.000    0.000    0.000 
#
# Total GULP energy -89113.479150 kJ/mol
# GULP energy per Si atom -5569.592447 kJ/mol
# Density = 1.911320 g / cm^3
# Si number density = 19.156804 Si / 1000 Ang^3
#
#
#
# Elastic Constant Matrix: (Units=GPa)
#
#
# Indices 1 2 3 4 5 6 
#
# 1 83.2413 23.3195 10.0683 0.0000 0.7626 0.0000
# 2 23.3195 64.8491 -3.0796 0.0000 -6.2387 0.0000
# 3 10.0683 -3.0796 61.2471 0.0000 -6.7029 0.0000
# 4 0.0000 0.0000 0.0000 25.2062 0.0000 2.4249
# 5 0.7626 -6.2387 -6.7029 0.0000 18.6961 0.0000
# 6 0.0000 0.0000 0.0000 2.4249 0.0000 6.7318
#
#
#
# Elastic Compliance Matrix: (Units=1/GPa)
#
#
# Indices 1 2 3 4 5 6 
#
# 1 0.013937 -0.005484 -0.002945 0.000000 -0.003454 0.000000
# 2 -0.005484 0.018213 0.002609 0.000000 0.007236 0.000000
# 3 -0.002945 0.002609 0.017747 0.000000 0.007353 0.000000
# 4 0.000000 0.000000 0.000000 0.041097 0.000000 -0.014803
# 5 -0.003454 0.007236 0.007353 0.000000 0.058679 0.000000
# 6 0.000000 0.000000 0.000000 -0.014803 0.000000 0.153881
#
#
# Mechanical properties :
#
#
# Convention : Reuss Voigt Hill
#
# Bulk Modulus (GPa) = 26.13841 29.99488 28.06664
# Shear Modulus (GPa) = 15.24641 22.06212 18.65426
#
# Velocity S-wave (km/s) = 2.82419 3.39729 3.12391
# Velocity P-wave (km/s) = 4.93039 5.57497 5.26256
#
# Compressibility (1/GPa) = 0.03825788
#
# Stress axis : x y z
#
# Youngs Moduli (GPa) = 71.74929 54.90728 56.34639
#
# Poissons Ratio (x) = 0.30111 0.16594
# Poissons Ratio (y) = 0.39347 -0.14702
# Poissons Ratio (z) = 0.21130 -0.14327
#
# Static dielectric constant tensor:
#      x y z
#    x 1.696270 0.000000 0.007720 
#    y 0.000000 1.678760 0.000000 
#    z 0.007720 0.000000 1.693110 
# 
# From -- ./inp_files/54590.got.cif
#   From: 2010.05.17/outbox.cif.g08.bks.cpg/sg5_28_cif.got.tgz:54590.got - 2010.06.03 18:56:24.
