data_PCOD9125649
_publ_section_title
;
Structure prediction by ZEFSAII (Michael W. Deem and Ramdas Pophale) SiO2 
 PCOD9125649
Probable space group: C 2
;
_chemical_formula_sum "Si O2"
_cell_formula_units_Z 26
_cell_length_a 17.530126
_cell_length_b 9.163067
_cell_length_c 10.800920
_cell_angle_alpha 90.000000
_cell_angle_beta 144.216411
_cell_angle_gamma 90.000000
_cell_volume 1014.468497
_symmetry_space_group_name_H-M "C 2"
_symmetry_group_IT_number 5
_symmetry_cell_setting 'monoclinic'
loop_
_space_group_symop_operation_xyz
x,y,z
-x,y,-z
1/2+x,1/2+y,z
1/2-x,1/2+y,-z
loop_
_atom_site_type_symbol
_atom_site_label
_atom_site_fract_x
_atom_site_fract_y
_atom_site_fract_z
Si Si1 0.315805 0.738720 0.438125
Si Si2 0.804252 0.584530 0.207788
Si Si3 0.000000 0.435408 0.000000
Si Si4 0.000000 0.821182 0.500000
Si Si5 0.763929 0.478044 0.543889
Si Si6 0.500000 0.822395 0.500000
Si Si7 0.631292 0.148583 0.990564
Si Si8 0.540696 0.456302 0.811079
O O1 0.223099 0.652139 0.416645
O O2 0.287757 0.904923 0.443636
O O3 0.467090 0.743672 0.588149
O O4 0.258871 0.661945 0.241184
O O5 0.876781 0.429845 0.319524
O O6 0.882538 0.710205 0.385313
O O7 0.835003 0.622258 0.105751
O O8 0.648603 0.565679 0.009120
O O9 0.859569 0.383895 0.761329
O O10 0.956421 0.525741 0.063444
O O11 0.055400 0.917475 0.684895
O O12 0.610736 0.486141 0.372566
O O13 0.565552 0.305241 0.914905
#
# Coordination Sequence:
#
# PCOD9125649 Si02
#       8
#     4   4   2   2   4   2   4   4
#     4  11  25  45  73 104 141 186 240 299 360 445
#     4  10  22  40  67 104 140 191 236 301 368 438
#     4  10  22  44  64  90 136 190 232 292 364 434
#     4   9  24  39  64 106 152 184 246 304 370 440
#     4  11  26  44  69 101 143 190 242 295 372 440
#     4  11  22  43  72 108 138 182 246 298 352 436
#     4  10  21  42  69  92 140 185 236 292 366 433
#     4  11  22  41  67  99 141 189 240 300 366 435
#
# _framework density 25.629185
#
# number of rings (size 3 to 8) (size 9 to 14) (size 15 to 20)
#    0.000    1.538    1.538    2.769    6.462    2.462 
#    2.769    0.000    0.000    0.923    0.000    0.000 
#    0.000    0.000    0.000    0.000    0.000    0.000 
#
# Total GULP energy -72395.768148 kJ/mol
# GULP energy per Si atom -5568.905242 kJ/mol
# Density = 2.557085 g / cm^3
# Si number density = 25.629185 Si / 1000 Ang^3
#
#
#
# Elastic Constant Matrix: (Units=GPa)
#
#
# Indices 1 2 3 4 5 6 
#
# 1 84.7927 18.8656 6.4983 0.0000 10.3094 0.0000
# 2 18.8656 34.1663 7.6137 0.0000 -0.0685 0.0000
# 3 6.4983 7.6137 152.4492 0.0000 23.3805 0.0000
# 4 0.0000 0.0000 0.0000 33.3499 0.0000 -3.1668
# 5 10.3094 -0.0685 23.3805 0.0000 38.7097 0.0000
# 6 0.0000 0.0000 0.0000 -3.1668 0.0000 24.2658
#
#
#
# Elastic Compliance Matrix: (Units=1/GPa)
#
#
# Indices 1 2 3 4 5 6 
#
# 1 0.013987 -0.007821 0.000405 0.000000 -0.003984 0.000000
# 2 -0.007821 0.034010 -0.001867 0.000000 0.003271 0.000000
# 3 0.000405 -0.001867 0.007332 0.000000 -0.004540 0.000000
# 4 0.000000 0.000000 0.000000 0.030361 0.000000 0.003962
# 5 -0.003984 0.003271 -0.004540 0.000000 0.029642 0.000000
# 6 0.000000 0.000000 0.000000 0.003962 0.000000 0.041727
#
#
# Mechanical properties :
#
#
# Convention : Reuss Voigt Hill
#
# Bulk Modulus (GPa) = 27.20135 37.48480 32.34307
# Shear Modulus (GPa) = 26.61283 35.16046 30.88665
#
# Velocity S-wave (km/s) = 3.22589 3.70792 3.47527
# Velocity P-wave (km/s) = 4.95092 5.74362 5.36194
#
# Compressibility (1/GPa) = 0.03676289
#
# Stress axis : x y z
#
# Youngs Moduli (GPa) = 71.49507 29.40321 136.39334
#
# Poissons Ratio (x) = 0.22998 -0.05529
# Poissons Ratio (y) = 0.55920 0.25462
# Poissons Ratio (z) = -0.02898 0.05489
#
# Static dielectric constant tensor:
#      x y z
#    x 2.134500 0.000000 -0.096940 
#    y 0.000000 2.247400 0.000000 
#    z -0.096940 0.000000 2.288410 
# 
# From -- ./inp_files/38763.got.cif
#   From: 2010.05.17/outbox.cif.g08.bks.cpg/sg5_20_cif.got.tgz:38763.got - 2010.06.03 18:56:24.
