data_PCOD9125408
_publ_section_title
;
Structure prediction by ZEFSAII (Michael W. Deem and Ramdas Pophale) SiO2 
 PCOD9125408
Probable space group: C 2
;
_chemical_formula_sum "Si O2"
_cell_formula_units_Z 28
_cell_length_a 28.395863
_cell_length_b 7.828033
_cell_length_c 5.432384
_cell_angle_alpha 90.000000
_cell_angle_beta 108.971712
_cell_angle_gamma 90.000000
_cell_volume 1141.936667
_symmetry_space_group_name_H-M "C 2"
_symmetry_group_IT_number 5
_symmetry_cell_setting 'monoclinic'
loop_
_space_group_symop_operation_xyz
x,y,z
-x,y,-z
1/2+x,1/2+y,z
1/2-x,1/2+y,-z
loop_
_atom_site_type_symbol
_atom_site_label
_atom_site_fract_x
_atom_site_fract_y
_atom_site_fract_z
Si Si1 0.853068 0.425040 0.211680
Si Si2 0.613603 0.175031 0.125056
Si Si3 0.973339 0.586121 0.701073
Si Si4 0.205896 0.574449 0.517967
Si Si5 0.943402 0.212421 0.552965
Si Si6 0.188173 0.214717 0.236337
Si Si7 0.579744 0.542296 0.994381
O O1 0.821824 0.581223 0.268671
O O2 0.889249 0.303804 0.428586
O O3 0.888240 0.510250 0.058195
O O4 0.810714 0.301974 0.029455
O O5 0.672005 0.194071 0.288269
O O6 0.590057 0.343217 0.971437
O O7 0.583177 0.138573 0.326821
O O8 0.974776 0.380565 0.677136
O O9 0.000000 0.654255 0.500000
O O10 0.000000 0.635094 0.000000
O O11 0.192945 0.381522 0.415452
O O12 0.263913 0.603714 0.624111
O O13 0.945659 0.083258 0.786095
O O14 0.947470 0.121430 0.292056
O O15 0.134837 0.123590 0.132869
#
# Coordination Sequence:
#
# PCOD9125408 Si02
#       7
#     4   4   4   4   4   4   4
#     4  10  21  41  65  91 137 189 232 281 336 421
#     4  11  25  43  68 104 135 188 228 290 358 411
#     4  12  25  45  78 104 133 179 239 286 350 434
#     4  11  21  40  65  88 147 181 246 276 347 400
#     4  11  22  46  70  98 137 182 226 283 350 415
#     4  10  22  37  58 100 132 189 238 288 328 404
#     4  11  24  42  70 102 147 180 229 281 351 410
#
# _framework density 24.519749999999998
#
# number of rings (size 3 to 8) (size 9 to 14) (size 15 to 20)
#    0.000    1.143    2.857    4.286    2.000    3.429 
#    2.571    2.857    0.000    1.714    0.000    0.000 
#    0.000    0.000    0.000    0.000    0.000    0.000 
#
# Total GULP energy -78128.741947 kJ/mol
# GULP energy per Si atom -5580.624425 kJ/mol
# Density = 2.446394 g / cm^3
# Si number density = 24.519750 Si / 1000 Ang^3
#
#
#
# Elastic Constant Matrix: (Units=GPa)
#
#
# Indices 1 2 3 4 5 6 
#
# 1 81.3685 8.4001 36.2866 0.0000 7.2001 0.0000
# 2 8.4001 78.1443 16.4519 0.0000 6.0733 0.0000
# 3 36.2866 16.4519 127.5266 0.0000 -3.4877 0.0000
# 4 0.0000 0.0000 0.0000 27.2080 0.0000 8.4776
# 5 7.2001 6.0733 -3.4877 0.0000 33.2482 0.0000
# 6 0.0000 0.0000 0.0000 8.4776 0.0000 38.5982
#
#
#
# Elastic Compliance Matrix: (Units=1/GPa)
#
#
# Indices 1 2 3 4 5 6 
#
# 1 0.014501 -0.000409 -0.004169 0.000000 -0.003503 0.000000
# 2 -0.000409 0.013392 -0.001681 0.000000 -0.002534 0.000000
# 3 -0.004169 -0.001681 0.009304 0.000000 0.002186 0.000000
# 4 0.000000 0.000000 0.000000 0.039454 0.000000 -0.008666
# 5 -0.003503 -0.002534 0.002186 0.000000 0.031528 0.000000
# 6 0.000000 0.000000 0.000000 -0.008666 0.000000 0.027811
#
#
# Mechanical properties :
#
#
# Convention : Reuss Voigt Hill
#
# Bulk Modulus (GPa) = 40.51880 45.47962 42.99921
# Shear Modulus (GPa) = 31.90122 34.87095 33.38608
#
# Velocity S-wave (km/s) = 3.61091 3.77524 3.69399
# Velocity P-wave (km/s) = 5.82630 6.13121 5.98069
#
# Compressibility (1/GPa) = 0.02467990
#
# Stress axis : x y z
#
# Youngs Moduli (GPa) = 68.95960 74.67404 107.47582
#
# Poissons Ratio (x) = 0.03053 0.44810
# Poissons Ratio (y) = 0.02819 0.18062
# Poissons Ratio (z) = 0.28751 0.12550
#
# Static dielectric constant tensor:
#      x y z
#    x 2.031520 0.000000 -0.084970 
#    y 0.000000 1.916020 0.000000 
#    z -0.084970 0.000000 2.134010 
# 
# From -- ./inp_files/11107.got.cif
#   From: 2010.05.17/outbox.cif.g08.bks.cpg/sg5_6_cif.got.tgz:11107.got - 2010.06.03 18:56:24.
