data_PCOD9125185
_publ_section_title
;
Structure prediction by ZEFSAII (Michael W. Deem and Ramdas Pophale) SiO2 
 PCOD9125185
Probable space group: C 2
;
_chemical_formula_sum "Si O2"
_cell_formula_units_Z 32
_cell_length_a 25.991945
_cell_length_b 11.375139
_cell_length_c 5.094936
_cell_angle_alpha 90.000000
_cell_angle_beta 118.948755
_cell_angle_gamma 90.000000
_cell_volume 1318.161330
_symmetry_space_group_name_H-M "C 2"
_symmetry_group_IT_number 5
_symmetry_cell_setting 'monoclinic'
loop_
_space_group_symop_operation_xyz
x,y,z
-x,y,-z
1/2+x,1/2+y,z
1/2-x,1/2+y,-z
loop_
_atom_site_type_symbol
_atom_site_label
_atom_site_fract_x
_atom_site_fract_y
_atom_site_fract_z
Si Si1 0.334031 0.828480 0.386001
Si Si2 0.940971 0.219348 0.996531
Si Si3 0.281194 0.593022 0.247444
Si Si4 0.558578 0.186567 0.501357
Si Si5 0.122522 0.765397 0.161184
Si Si6 0.576264 0.943633 0.766125
Si Si7 0.676800 0.043518 0.293844
Si Si8 0.852274 0.029081 0.928375
O O1 0.388099 0.765910 0.678630
O O2 0.287200 0.730135 0.194181
O O3 0.368730 0.876627 0.224149
O O4 0.305981 0.935333 0.479850
O O5 0.909364 0.114733 0.079627
O O6 0.960072 0.337667 0.198791
O O7 0.000000 0.176250 0.000000
O O8 0.215909 0.547038 0.129113
O O9 0.307089 0.582549 0.605597
O O10 0.320874 0.526274 0.133014
O O11 0.500000 0.231037 0.500000
O O12 0.571712 0.238185 0.249204
O O13 0.554839 0.043286 0.510116
O O14 0.608897 0.226364 0.828320
O O15 0.174978 0.678309 0.387981
O O16 0.133560 0.902598 0.158405
O O17 0.607615 0.016744 0.074277
#
# Coordination Sequence:
#
# PCOD9125185 Si02
#       8
#     4   4   4   4   4   4   4   4
#     4  10  21  43  62  96 135 164 230 279 318 408
#     4  10  23  40  66  96 130 183 219 278 346 389
#     4  11  25  42  69  96 131 179 220 272 338 391
#     4  11  24  40  67  96 128 173 218 271 336 389
#     4  11  24  44  64  95 136 169 221 273 323 406
#     4  10  21  40  63  93 136 160 227 281 322 398
#     4  10  24  39  66  98 128 180 218 273 341 386
#     4  11  25  47  63  98 137 169 227 275 321 418
#
# _framework density 24.276237999999999
#
# number of rings (size 3 to 8) (size 9 to 14) (size 15 to 20)
#    0.000    1.500    2.500    1.125    5.250    1.000 
#    0.000    0.000    0.000    0.000    0.000    0.000 
#    0.000    0.000    0.000    0.000    0.000    0.000 
#
# Total GULP energy -89303.652455 kJ/mol
# GULP energy per Si atom -5581.478278 kJ/mol
# Density = 2.422098 g / cm^3
# Si number density = 24.276238 Si / 1000 Ang^3
#
#
#
# Elastic Constant Matrix: (Units=GPa)
#
#
# Indices 1 2 3 4 5 6 
#
# 1 141.5136 31.6591 11.8491 0.0000 -28.8540 0.0000
# 2 31.6591 120.0451 -3.2658 0.0000 -6.2557 0.0000
# 3 11.8491 -3.2658 56.8551 0.0000 -9.6858 0.0000
# 4 0.0000 0.0000 0.0000 27.0851 0.0000 -10.8296
# 5 -28.8540 -6.2557 -9.6858 0.0000 36.7558 0.0000
# 6 0.0000 0.0000 0.0000 -10.8296 0.0000 34.1448
#
#
#
# Elastic Compliance Matrix: (Units=1/GPa)
#
#
# Indices 1 2 3 4 5 6 
#
# 1 0.008903 -0.002038 -0.000880 0.000000 0.006410 0.000000
# 2 -0.002038 0.008903 0.000965 0.000000 0.000170 0.000000
# 3 -0.000880 0.000965 0.018571 0.000000 0.004367 0.000000
# 4 0.000000 0.000000 0.000000 0.042283 0.000000 0.013411
# 5 0.006410 0.000170 0.004367 0.000000 0.033418 0.000000
# 6 0.000000 0.000000 0.000000 0.013411 0.000000 0.033541
#
#
# Mechanical properties :
#
#
# Convention : Reuss Voigt Hill
#
# Bulk Modulus (GPa) = 30.79713 44.32207 37.55960
# Shear Modulus (GPa) = 31.18193 38.14189 34.66191
#
# Velocity S-wave (km/s) = 3.58783 3.96809 3.78274
# Velocity P-wave (km/s) = 5.46599 6.26828 5.88083
#
# Compressibility (1/GPa) = 0.03247056
#
# Stress axis : x y z
#
# Youngs Moduli (GPa) = 112.32015 112.32486 53.84607
#
# Poissons Ratio (x) = 0.22891 0.04741
# Poissons Ratio (y) = 0.22890 -0.05196
# Poissons Ratio (z) = 0.09890 -0.10839
#
# Static dielectric constant tensor:
#      x y z
#    x 1.969560 0.000000 0.080470 
#    y 0.000000 1.995250 0.000000 
#    z 0.080470 0.000000 2.052770 
# 
# From -- ./inp_files/10371.got.cif
#   From: 2010.05.17/outbox.cif.g08.bks.cpg/sg5_6_cif.got.tgz:10371.got - 2010.06.03 18:56:24.
