data_PCOD9125827
_publ_section_title
;
Structure prediction by ZEFSAII (Michael W. Deem and Ramdas Pophale) SiO2 
 PCOD9125827
Probable space group: C 2
;
_chemical_formula_sum "Si O2"
_cell_formula_units_Z 22
_cell_length_a 7.500977
_cell_length_b 23.801091
_cell_length_c 5.516395
_cell_angle_alpha 90.000000
_cell_angle_beta 75.525154
_cell_angle_gamma 90.000000
_cell_volume 953.588293
_symmetry_space_group_name_H-M "C 2"
_symmetry_group_IT_number 5
_symmetry_cell_setting 'monoclinic'
loop_
_space_group_symop_operation_xyz
x,y,z
-x,y,-z
1/2+x,1/2+y,z
1/2-x,1/2+y,-z
loop_
_atom_site_type_symbol
_atom_site_label
_atom_site_fract_x
_atom_site_fract_y
_atom_site_fract_z
Si Si1 0.390384 0.805970 0.788888
Si Si2 0.500000 0.448377 0.500000
Si Si3 0.304308 0.013643 0.692515
Si Si4 0.285141 0.191646 0.102334
Si Si5 0.715152 0.145024 0.394341
Si Si6 0.792373 0.917196 0.972882
O O1 0.500000 0.803292 0.500000
O O2 0.237729 0.757189 0.828980
O O3 0.500000 0.793771 0.000000
O O4 0.317741 0.868726 0.859843
O O5 0.624942 0.489238 0.619217
O O6 0.339723 0.410656 0.675328
O O7 0.500000 0.000692 0.500000
O O8 0.283539 0.080407 0.692329
O O9 0.293742 0.978404 0.946114
O O10 0.208178 0.157189 0.361178
O O11 0.500000 0.176350 0.000000
O O12 0.205376 0.178741 0.861663
O O13 0.500000 0.161504 0.500000
O O14 0.000000 0.914537 0.000000
#
# Coordination Sequence:
#
# PCOD9125827 Si02
#       6
#     4   2   4   4   4   4
#     4  12  27  44  66 100 133 174 227 278 344 404
#     4  10  24  42  62 102 126 184 224 276 342 418
#     4  10  22  41  67  99 136 177 226 279 339 404
#     4  10  21  44  67  94 131 176 224 273 332 399
#     4   9  20  39  68  98 128 174 224 270 332 404
#     4  10  24  43  65  94 133 174 229 274 344 402
#
# _framework density 23.070753
#
# number of rings (size 3 to 8) (size 9 to 14) (size 15 to 20)
#    0.000    1.818    0.000    2.182   10.182    0.000 
#    9.818    0.000    0.000    0.000    0.000    0.000 
#    0.000    0.000    0.000    0.000    0.000    0.000 
#
# Total GULP energy -61319.195874 kJ/mol
# GULP energy per Si atom -5574.472352 kJ/mol
# Density = 2.301824 g / cm^3
# Si number density = 23.070753 Si / 1000 Ang^3
#
#
#
# Elastic Constant Matrix: (Units=GPa)
#
#
# Indices 1 2 3 4 5 6 
#
# 1 55.9560 -3.9067 24.3409 0.0000 -9.3572 0.0000
# 2 -3.9067 97.6647 71.1024 0.0000 -13.2646 0.0000
# 3 24.3409 71.1024 191.5621 0.0000 -11.1893 0.0000
# 4 0.0000 0.0000 0.0000 27.1181 0.0000 -13.5233
# 5 -9.3572 -13.2646 -11.1893 0.0000 27.2233 0.0000
# 6 0.0000 0.0000 0.0000 -13.5233 0.0000 29.8208
#
#
#
# Elastic Compliance Matrix: (Units=1/GPa)
#
#
# Indices 1 2 3 4 5 6 
#
# 1 0.021325 0.004901 -0.004059 0.000000 0.008050 0.000000
# 2 0.004901 0.015800 -0.006085 0.000000 0.006882 0.000000
# 3 -0.004059 -0.006085 0.007930 0.000000 -0.001101 0.000000
# 4 0.000000 0.000000 0.000000 0.047652 0.000000 0.021610
# 5 0.008050 0.006882 -0.001101 0.000000 0.042401 0.000000
# 6 0.000000 0.000000 0.000000 0.021610 0.000000 0.043333
#
#
# Mechanical properties :
#
#
# Convention : Reuss Voigt Hill
#
# Bulk Modulus (GPa) = 28.92698 58.69512 43.81105
# Shear Modulus (GPa) = 24.94378 33.74219 29.34298
#
# Velocity S-wave (km/s) = 3.29171 3.82848 3.57020
# Velocity P-wave (km/s) = 5.19737 6.71116 6.00218
#
# Compressibility (1/GPa) = 0.03456981
#
# Stress axis : x y z
#
# Youngs Moduli (GPa) = 46.89330 63.29052 126.09752
#
# Poissons Ratio (x) = -0.31019 0.51178
# Poissons Ratio (y) = -0.22983 0.76735
# Poissons Ratio (z) = 0.19032 0.38514
#
# Static dielectric constant tensor:
#      x y z
#    x 1.895590 0.000000 0.124590 
#    y 0.000000 1.834450 0.000000 
#    z 0.124590 0.000000 2.253540 
# 
# From -- ./inp_files/2891.got.cif
#   From: 2010.05.17/outbox.cif.g08.bks.cpg/sg5_2_cif.got.tgz:2891.got - 2010.06.03 18:56:24.
