data_PCOD9125305
_publ_section_title
;
Structure prediction by ZEFSAII (Michael W. Deem and Ramdas Pophale) SiO2 
 PCOD9125305
Probable space group: C 2
;
_chemical_formula_sum "Si O2"
_cell_formula_units_Z 32
_cell_length_a 16.982187
_cell_length_b 14.719285
_cell_length_c 12.220901
_cell_angle_alpha 90.000000
_cell_angle_beta 30.245868
_cell_angle_gamma 90.000000
_cell_volume 1538.741189
_symmetry_space_group_name_H-M "C 2"
_symmetry_group_IT_number 5
_symmetry_cell_setting 'monoclinic'
loop_
_space_group_symop_operation_xyz
x,y,z
-x,y,-z
1/2+x,1/2+y,z
1/2-x,1/2+y,-z
loop_
_atom_site_type_symbol
_atom_site_label
_atom_site_fract_x
_atom_site_fract_y
_atom_site_fract_z
Si Si1 0.434295 0.121120 0.963400
Si Si2 0.992909 0.020755 0.826201
Si Si3 0.172005 0.572985 0.494829
Si Si4 0.156624 0.186306 0.871421
Si Si5 0.353011 0.511525 0.753831
Si Si6 0.896127 0.379319 0.515984
Si Si7 0.877304 0.823544 0.015665
Si Si8 0.175598 0.331981 0.035486
O O1 0.528669 0.082290 0.748147
O O2 0.462727 0.228660 0.923287
O O3 0.500000 0.086283 0.000000
O O4 0.253490 0.093114 0.164766
O O5 0.924051 0.031514 0.787811
O O6 0.170983 0.052172 0.624894
O O7 0.973008 0.916823 0.888397
O O8 0.893825 0.088003 0.021392
O O9 0.208924 0.661756 0.377064
O O10 0.137867 0.484952 0.462988
O O11 0.197009 0.251894 0.922613
O O12 0.000000 0.223159 0.000000
O O13 0.500000 0.491720 0.500000
O O14 0.239306 0.424712 0.904709
O O15 0.000000 0.371087 0.500000
O O16 0.997039 0.341548 0.293247
O O17 0.735967 0.331844 0.743246
O O18 0.776646 0.817809 0.024176
#
# Coordination Sequence:
#
# PCOD9125305 Si02
#       8
#     4   4   4   4   4   4   4   4
#     4  12  27  42  65 104 138 172 222 278 336 397
#     4  10  22  43  67  95 130 176 225 275 329 391
#     4  11  23  43  69  97 129 177 225 274 326 390
#     4  10  22  39  66  97 133 168 221 271 333 385
#     4  11  24  44  65  89 137 183 215 267 343 406
#     4  10  21  40  69  97 130 176 222 273 329 389
#     4  10  23  40  69  96 131 174 225 277 325 395
#     4  10  22  42  64 101 131 171 223 272 335 393
#
# _framework density 20.796219000000001
#
# number of rings (size 3 to 8) (size 9 to 14) (size 15 to 20)
#    0.000    1.500    2.500    1.500    1.750    8.000 
#    2.250    0.000    0.000    0.000    0.000    0.000 
#    0.000    0.000    0.000    0.000    0.000    0.000 
#
# Total GULP energy -89406.233254 kJ/mol
# GULP energy per Si atom -5587.889578 kJ/mol
# Density = 2.074889 g / cm^3
# Si number density = 20.796219 Si / 1000 Ang^3
#
#
#
# Elastic Constant Matrix: (Units=GPa)
#
#
# Indices 1 2 3 4 5 6 
#
# 1 60.6382 23.0484 22.1491 0.0000 12.5797 0.0001
# 2 23.0484 71.5076 10.6540 0.0000 4.6840 0.0001
# 3 22.1491 10.6540 96.0853 -0.0001 13.2817 0.0001
# 4 0.0000 0.0000 -0.0001 11.8273 0.0001 1.4100
# 5 12.5797 4.6840 13.2817 0.0001 18.3477 -0.0002
# 6 0.0001 0.0001 0.0001 1.4100 -0.0002 21.7332
#
#
#
# Elastic Compliance Matrix: (Units=1/GPa)
#
#
# Indices 1 2 3 4 5 6 
#
# 1 0.022219 -0.005974 -0.002850 0.000000 -0.011646 0.000000
# 2 -0.005974 0.015953 -0.000439 0.000000 0.000341 0.000000
# 3 -0.002850 -0.000439 0.012031 0.000000 -0.006644 0.000000
# 4 0.000000 0.000000 0.000000 0.085209 -0.000001 -0.005528
# 5 -0.011646 0.000341 -0.006644 -0.000001 0.067210 0.000001
# 6 0.000000 0.000000 0.000000 -0.005528 0.000001 0.046371
#
#
# Mechanical properties :
#
#
# Convention : Reuss Voigt Hill
#
# Bulk Modulus (GPa) = 31.56761 37.77046 34.66903
# Shear Modulus (GPa) = 17.98057 21.87362 19.92709
#
# Velocity S-wave (km/s) = 2.94361 3.24668 3.09885
# Velocity P-wave (km/s) = 5.17355 5.67945 5.43239
#
# Compressibility (1/GPa) = 0.03167804
#
# Stress axis : x y z
#
# Youngs Moduli (GPa) = 45.00679 62.68340 83.11666
#
# Poissons Ratio (x) = 0.37448 0.23685
# Poissons Ratio (y) = 0.26888 0.03648
# Poissons Ratio (z) = 0.12825 0.02751
#
# Static dielectric constant tensor:
#      x y z
#    x 1.810920 0.000000 0.024420 
#    y 0.000000 1.719150 0.000000 
#    z 0.024420 0.000000 1.769900 
# 
# From -- ./inp_files/44955.got.cif
#   From: 2010.05.17/outbox.cif.g08.bks.cpg/sg5_23_cif.got.tgz:44955.got - 2010.06.03 18:56:24.
