data_PCOD9125917
_publ_section_title
;
Structure prediction by ZEFSAII (Michael W. Deem and Ramdas Pophale) SiO2 
 PCOD9125917
Probable space group: C 2
;
_chemical_formula_sum "Si O2"
_cell_formula_units_Z 22
_cell_length_a 19.132941
_cell_length_b 6.816588
_cell_length_c 7.186061
_cell_angle_alpha 90.000000
_cell_angle_beta 58.267852
_cell_angle_gamma 90.000000
_cell_volume 797.117303
_symmetry_space_group_name_H-M "C 2"
_symmetry_group_IT_number 5
_symmetry_cell_setting 'monoclinic'
loop_
_space_group_symop_operation_xyz
x,y,z
-x,y,-z
1/2+x,1/2+y,z
1/2-x,1/2+y,-z
loop_
_atom_site_type_symbol
_atom_site_label
_atom_site_fract_x
_atom_site_fract_y
_atom_site_fract_z
Si Si1 0.687680 0.887590 0.424073
Si Si2 0.000000 0.014816 0.000000
Si Si3 0.826899 0.132128 0.093532
Si Si4 0.409340 0.133247 0.706359
Si Si5 0.801369 0.975489 0.720751
Si Si6 0.085502 0.635853 0.861252
O O1 0.642334 0.020709 0.640330
O O2 0.684310 0.653799 0.442020
O O3 0.781061 0.956671 0.269478
O O4 0.640640 0.949476 0.301683
O O5 0.944938 0.845946 0.180913
O O6 0.925726 0.125763 0.993479
O O7 0.799016 0.085175 0.922419
O O8 0.775876 0.331127 0.211187
O O9 0.500000 0.104432 0.500000
O O10 0.374442 0.325513 0.656327
O O11 0.606681 0.157904 0.050511
O O12 0.000000 0.517277 0.000000
#
# Coordination Sequence:
#
# PCOD9125917 Si02
#       6
#     4   2   4   4   4   4
#     4  11  25  46  85 128 180 243 302 370 459 548
#     4  10  22  48  92 134 184 230 304 390 448 544
#     4  11  23  47  89 128 182 239 303 379 454 547
#     4  11  22  46  87 127 176 236 302 379 456 548
#     4  11  23  46  87 129 177 246 304 365 463 558
#     4  10  21  46  88 130 183 227 302 383 449 546
#
# _framework density 27.599454000000001
#
# number of rings (size 3 to 8) (size 9 to 14) (size 15 to 20)
#    0.545    0.727    5.455    0.000    0.000    0.727 
#    0.000    6.364   18.000    2.182    0.000    0.000 
#    0.000    0.000    0.000    0.000    0.000    0.000 
#
# Total GULP energy -61495.158041 kJ/mol
# GULP energy per Si atom -5590.468913 kJ/mol
# Density = 2.753664 g / cm^3
# Si number density = 27.599454 Si / 1000 Ang^3
#
#
#
# Elastic Constant Matrix: (Units=GPa)
#
#
# Indices 1 2 3 4 5 6 
#
# 1 171.5454 67.2049 78.7230 0.0000 -21.7900 0.0000
# 2 67.2049 185.2761 62.9328 0.0000 -12.8733 0.0000
# 3 78.7230 62.9328 163.9572 0.0000 -13.6711 0.0000
# 4 0.0000 0.0000 0.0000 51.1125 0.0000 6.9154
# 5 -21.7900 -12.8733 -13.6711 0.0000 65.7685 0.0000
# 6 0.0000 0.0000 0.0000 6.9154 0.0000 47.7531
#
#
#
# Elastic Compliance Matrix: (Units=1/GPa)
#
#
# Indices 1 2 3 4 5 6 
#
# 1 0.008168 -0.001794 -0.003090 0.000000 0.001713 0.000000
# 2 -0.001794 0.006635 -0.001655 0.000000 0.000360 0.000000
# 3 -0.003090 -0.001655 0.008249 0.000000 0.000367 0.000000
# 4 0.000000 0.000000 0.000000 0.019956 0.000000 -0.002890
# 5 0.001713 0.000360 0.000367 0.000000 0.015919 0.000000
# 6 0.000000 0.000000 0.000000 -0.002890 0.000000 0.021360
#
#
# Mechanical properties :
#
#
# Convention : Reuss Voigt Hill
#
# Bulk Modulus (GPa) = 100.27490 104.27778 102.27634
# Shear Modulus (GPa) = 51.71135 53.72136 52.71635
#
# Velocity S-wave (km/s) = 4.33325 4.41666 4.37515
# Velocity P-wave (km/s) = 7.83882 7.99211 7.91584
#
# Compressibility (1/GPa) = 0.00997259
#
# Stress axis : x y z
#
# Youngs Moduli (GPa) = 122.43037 150.70559 121.22696
#
# Poissons Ratio (x) = 0.27037 0.37463
# Poissons Ratio (y) = 0.21964 0.20069
# Poissons Ratio (z) = 0.37835 0.24949
#
# Static dielectric constant tensor:
#      x y z
#    x 2.248070 0.000000 0.021110 
#    y 0.000000 2.197370 0.000000 
#    z 0.021110 0.000000 2.241480 
# 
# From -- ./inp_files/56637.got.cif
#   From: 2010.05.17/outbox.cif.g08.bks.cpg/sg5_29_cif.got.tgz:56637.got - 2010.06.03 18:56:24.
