data_PCOD9125373
_publ_section_title
;
Structure prediction by ZEFSAII (Michael W. Deem and Ramdas Pophale) SiO2 
 PCOD9125373
Probable space group: C 2
;
_chemical_formula_sum "Si O2"
_cell_formula_units_Z 26
_cell_length_a 13.724213
_cell_length_b 9.132946
_cell_length_c 19.092610
_cell_angle_alpha 90.000000
_cell_angle_beta 25.900638
_cell_angle_gamma 90.000000
_cell_volume 1045.341056
_symmetry_space_group_name_H-M "C 2"
_symmetry_group_IT_number 5
_symmetry_cell_setting 'monoclinic'
loop_
_space_group_symop_operation_xyz
x,y,z
-x,y,-z
1/2+x,1/2+y,z
1/2-x,1/2+y,-z
loop_
_atom_site_type_symbol
_atom_site_label
_atom_site_fract_x
_atom_site_fract_y
_atom_site_fract_z
Si Si1 0.260148 0.739340 0.186932
Si Si2 0.123031 0.082299 0.748874
Si Si3 0.521393 0.537619 0.311277
Si Si4 0.837674 0.565670 0.876232
Si Si5 0.500000 0.195689 0.000000
Si Si6 0.297406 0.504299 0.597579
Si Si7 0.619662 0.277977 0.775958
O O1 0.289865 0.695802 0.249233
O O2 0.080018 0.865043 0.286904
O O3 0.211341 0.592716 0.173194
O O4 0.500000 0.789421 0.000000
O O5 0.242991 0.926193 0.679671
O O6 0.098796 0.097211 0.681236
O O7 0.873557 0.043023 0.938423
O O8 0.359498 0.567215 0.481558
O O9 0.768819 0.606888 0.148898
O O10 0.040579 0.452593 0.757988
O O11 0.933263 0.723683 0.841389
O O12 0.511909 0.286492 0.921597
O O13 0.500000 0.413840 0.500000
O O14 0.274262 0.635481 0.669098
#
# Coordination Sequence:
#
# PCOD9125373 Si02
#       7
#     4   4   4   4   2   4   4
#     4  10  22  40  68 103 139 180 229 301 354 409
#     4  11  23  42  70 101 136 179 240 291 353 424
#     4  12  20  41  70  95 138 185 225 289 347 427
#     4   9  20  42  63  96 137 175 226 290 357 405
#     4  12  22  36  68  98 118 182 246 268 358 412
#     4  10  21  41  63  94 135 182 226 280 361 416
#     4  10  22  41  64  99 133 174 232 292 342 429
#
# _framework density 24.872264000000001
#
# number of rings (size 3 to 8) (size 9 to 14) (size 15 to 20)
#    0.923    0.615    5.385    0.000    3.231    0.000 
#    0.000   10.000    0.000    0.000    0.000    0.000 
#    0.000    0.000    0.000    0.000    0.000    0.000 
#
# Total GULP energy -72428.977264 kJ/mol
# GULP energy per Si atom -5571.459790 kJ/mol
# Density = 2.481565 g / cm^3
# Si number density = 24.872264 Si / 1000 Ang^3
#
#
#
# Elastic Constant Matrix: (Units=GPa)
#
#
# Indices 1 2 3 4 5 6 
#
# 1 133.3975 7.6555 42.2993 0.0014 40.3407 -0.0019
# 2 7.6555 47.5386 -0.5442 0.0017 9.7185 -0.0016
# 3 42.2993 -0.5442 92.7566 0.0018 13.4955 -0.0023
# 4 0.0014 0.0017 0.0018 11.0001 -0.0007 20.2578
# 5 40.3407 9.7185 13.4955 -0.0007 49.2264 0.0015
# 6 -0.0019 -0.0016 -0.0023 20.2578 0.0015 -3.2175
#
#
#
# Elastic Compliance Matrix: (Units=1/GPa)
#
#
# Indices 1 2 3 4 5 6 
#
# 1 0.011190 -0.000201 -0.003933 0.000001 -0.008052 -0.000001
# 2 -0.000201 0.021980 0.000862 0.000002 -0.004411 -0.000003
# 3 -0.003933 0.000862 0.012639 0.000001 -0.000413 -0.000001
# 4 0.000001 0.000002 0.000001 0.007218 -0.000003 0.045444
# 5 -0.008052 -0.004411 -0.000413 -0.000003 0.027897 0.000003
# 6 -0.000001 -0.000003 -0.000001 0.045444 0.000003 -0.024677
#
#
# Mechanical properties :
#
#
# Convention : Reuss Voigt Hill
#
# Bulk Modulus (GPa) = 25.46683 41.39045 33.42864
# Shear Modulus (GPa) = 65.89492 26.35392 46.12442
#
# Velocity S-wave (km/s) = 5.15275 3.25864 4.31101
# Velocity P-wave (km/s) = 6.75740 5.55298 6.18458
#
# Compressibility (1/GPa) = 0.03926676
#
# Stress axis : x y z
#
# Youngs Moduli (GPa) = 89.36540 45.49685 79.11811
#
# Poissons Ratio (x) = 0.00914 0.31113
# Poissons Ratio (y) = 0.01795 -0.06823
# Poissons Ratio (z) = 0.35143 -0.03923
#
# Static dielectric constant tensor:
#      x y z
#    x 2.039540 0.000000 -0.097790 
#    y 0.000000 2.014040 0.000000 
#    z -0.097790 0.000000 1.986380 
# 
# From -- ./inp_files/61567.got.cif
#   From: 2010.05.17/outbox.cif.g08.bks.cpg/sg5_31_cif.got.tgz:61567.got - 2010.06.03 18:56:24.
