data_PCOD9125634
_publ_section_title
;
Structure prediction by ZEFSAII (Michael W. Deem and Ramdas Pophale) SiO2 
 PCOD9125634
Probable space group: C 2
;
_chemical_formula_sum "Si O2"
_cell_formula_units_Z 20
_cell_length_a 20.174185
_cell_length_b 10.185605
_cell_length_c 6.997539
_cell_angle_alpha 90.000000
_cell_angle_beta 143.839675
_cell_angle_gamma 90.000000
_cell_volume 848.427176
_symmetry_space_group_name_H-M "C 2"
_symmetry_group_IT_number 5
_symmetry_cell_setting 'monoclinic'
loop_
_space_group_symop_operation_xyz
x,y,z
-x,y,-z
1/2+x,1/2+y,z
1/2-x,1/2+y,-z
loop_
_atom_site_type_symbol
_atom_site_label
_atom_site_fract_x
_atom_site_fract_y
_atom_site_fract_z
Si Si1 0.855763 0.015970 0.263101
Si Si2 0.593147 0.752196 0.376863
Si Si3 0.467391 0.265538 0.703232
Si Si4 0.182592 0.522035 0.571157
Si Si5 0.813951 0.607662 0.839431
O O1 0.915755 0.149804 0.469572
O O2 0.738757 0.022387 0.113174
O O3 0.927013 0.894260 0.501434
O O4 0.809556 0.007396 0.941896
O O5 0.714582 0.712985 0.570866
O O6 0.605094 0.902938 0.462749
O O7 0.500000 0.732189 0.000000
O O8 0.365813 0.161691 0.476277
O O9 0.500000 0.296903 0.000000
O O10 0.573343 0.188371 0.861596
O O11 0.172739 0.522529 0.319532
#
# Coordination Sequence:
#
# PCOD9125634 Si02
#       5
#     4   4   4   4   4
#     4  10  23  40  67  95 132 165 223 276 320 404
#     4  10  22  42  64  91 131 170 218 277 327 392
#     4  10  21  42  68  93 133 177 218 270 337 399
#     4  11  22  42  64  96 130 167 226 277 325 399
#     4   9  24  40  67  91 131 176 216 266 341 382
#
# _framework density 23.573032000000001
#
# number of rings (size 3 to 8) (size 9 to 14) (size 15 to 20)
#    1.200    0.800    0.000    3.600    5.600    0.800 
#    0.000    3.000    0.000    0.000    0.000    0.000 
#    0.000    0.000    0.000    0.000    0.000    0.000 
#
# Total GULP energy -55906.889717 kJ/mol
# GULP energy per Si atom -5590.688972 kJ/mol
# Density = 2.351938 g / cm^3
# Si number density = 23.573032 Si / 1000 Ang^3
#
#
#
# Elastic Constant Matrix: (Units=GPa)
#
#
# Indices 1 2 3 4 5 6 
#
# 1 68.7832 10.1910 14.0609 0.0000 8.1300 0.0000
# 2 10.1910 111.7095 43.0155 0.0000 -18.7158 0.0000
# 3 14.0609 43.0155 162.6500 0.0000 -7.2755 0.0000
# 4 0.0000 0.0000 0.0000 45.1916 0.0000 6.0325
# 5 8.1300 -18.7158 -7.2755 0.0000 31.0975 0.0000
# 6 0.0000 0.0000 0.0000 6.0325 0.0000 14.2667
#
#
#
# Elastic Compliance Matrix: (Units=1/GPa)
#
#
# Indices 1 2 3 4 5 6 
#
# 1 0.015702 -0.001938 -0.001092 0.000000 -0.005527 0.000000
# 2 -0.001938 0.011208 -0.002498 0.000000 0.006667 0.000000
# 3 -0.001092 -0.002498 0.006921 0.000000 0.000401 0.000000
# 4 0.000000 0.000000 0.000000 0.023452 0.000000 -0.009916
# 5 -0.005527 0.006667 0.000401 0.000000 0.037708 0.000000
# 6 0.000000 0.000000 0.000000 -0.009916 0.000000 0.074286
#
#
# Mechanical properties :
#
#
# Convention : Reuss Voigt Hill
#
# Bulk Modulus (GPa) = 43.90910 53.07528 48.49219
# Shear Modulus (GPa) = 26.60629 36.50283 31.55456
#
# Velocity S-wave (km/s) = 3.36322 3.93937 3.66264
# Velocity P-wave (km/s) = 5.80938 6.57690 6.20502
#
# Compressibility (1/GPa) = 0.02277432
#
# Stress axis : x y z
#
# Youngs Moduli (GPa) = 63.68585 89.22487 144.48268
#
# Poissons Ratio (x) = 0.17291 0.15780
# Poissons Ratio (y) = 0.12342 0.36096
# Poissons Ratio (z) = 0.06955 0.22291
#
# Static dielectric constant tensor:
#      x y z
#    x 1.960700 0.000000 0.001650 
#    y 0.000000 1.859260 0.000000 
#    z 0.001650 0.000000 1.849310 
# 
# From -- ./inp_files/31715.got.cif
#   From: 2010.05.17/outbox.cif.g08.bks.cpg/sg5_16_cif.got.tgz:31715.got - 2010.06.03 18:56:24.
