data_PCOD9125294
_publ_section_title
;
Structure prediction by ZEFSAII (Michael W. Deem and Ramdas Pophale) SiO2 
 PCOD9125294
Probable space group: C 2
;
_chemical_formula_sum "Si O2"
_cell_formula_units_Z 20
_cell_length_a 5.673885
_cell_length_b 20.854252
_cell_length_c 8.447912
_cell_angle_alpha 90.000000
_cell_angle_beta 58.902246
_cell_angle_gamma 90.000000
_cell_volume 855.941428
_symmetry_space_group_name_H-M "C 2"
_symmetry_group_IT_number 5
_symmetry_cell_setting 'monoclinic'
loop_
_space_group_symop_operation_xyz
x,y,z
-x,y,-z
1/2+x,1/2+y,z
1/2-x,1/2+y,-z
loop_
_atom_site_type_symbol
_atom_site_label
_atom_site_fract_x
_atom_site_fract_y
_atom_site_fract_z
Si Si1 0.781925 0.434550 0.834836
Si Si2 0.500000 0.829430 0.000000
Si Si3 0.425664 0.064972 0.284329
Si Si4 0.000000 0.357337 0.500000
Si Si5 0.569522 0.612726 0.713341
Si Si6 0.213314 0.251197 0.664326
O O1 0.777244 0.402352 0.663489
O O2 0.009295 0.489639 0.747190
O O3 0.500000 0.462366 0.000000
O O4 0.856071 0.376687 0.926723
O O5 0.288531 0.782482 0.162401
O O6 0.244732 0.085549 0.501431
O O7 0.723929 0.098102 0.212113
O O8 0.231194 0.082113 0.203472
O O9 0.866651 0.309757 0.420589
O O10 0.522496 0.689142 0.720625
O O11 0.500000 0.225876 0.500000
#
# Coordination Sequence:
#
# PCOD9125294 Si02
#       6
#     4   2   4   2   4   4
#     4  11  24  44  68  98 145 178 241 284 349 420
#     4  10  26  44  62 108 134 184 234 288 346 416
#     4  10  21  40  68  97 138 176 229 287 342 412
#     4  10  22  40  70 100 130 196 228 288 348 412
#     4  10  21  41  69 103 131 180 234 283 349 416
#     4  11  21  42  72  95 142 177 236 286 351 416
#
# _framework density 23.366084000000001
#
# number of rings (size 3 to 8) (size 9 to 14) (size 15 to 20)
#    0.000    1.600    2.000    3.600    2.800    0.000 
#   16.200    0.000    0.000    0.000    0.000    0.000 
#    0.000    0.000    0.000    0.000    0.000    0.000 
#
# Total GULP energy -55842.254384 kJ/mol
# GULP energy per Si atom -5584.225438 kJ/mol
# Density = 2.331290 g / cm^3
# Si number density = 23.366084 Si / 1000 Ang^3
#
#
#
# Elastic Constant Matrix: (Units=GPa)
#
#
# Indices 1 2 3 4 5 6 
#
# 1 120.2704 32.9508 21.0443 0.0000 -1.1629 0.0000
# 2 32.9508 154.9539 54.3514 0.0000 -4.6916 0.0000
# 3 21.0443 54.3514 81.6733 0.0000 3.1953 0.0000
# 4 0.0000 0.0000 0.0000 18.6686 0.0000 -0.4421
# 5 -1.1629 -4.6916 3.1953 0.0000 20.6933 0.0000
# 6 0.0000 0.0000 0.0000 -0.4421 0.0000 40.4061
#
#
#
# Elastic Compliance Matrix: (Units=1/GPa)
#
#
# Indices 1 2 3 4 5 6 
#
# 1 0.008946 -0.001404 -0.001386 0.000000 0.000398 0.000000
# 2 -0.001404 0.008802 -0.005605 0.000000 0.002782 0.000000
# 3 -0.001386 -0.005605 0.016483 0.000000 -0.003894 0.000000
# 4 0.000000 0.000000 0.000000 0.053580 0.000000 0.000586
# 5 0.000398 0.002782 -0.003894 0.000000 0.049579 0.000000
# 6 0.000000 0.000000 0.000000 0.000586 0.000000 0.024755
#
#
# Mechanical properties :
#
#
# Convention : Reuss Voigt Hill
#
# Bulk Modulus (GPa) = 57.33557 63.73227 60.53392
# Shear Modulus (GPa) = 27.06373 32.52367 29.79370
#
# Velocity S-wave (km/s) = 3.40700 3.73489 3.57470
# Velocity P-wave (km/s) = 6.32993 6.77746 6.55751
#
# Compressibility (1/GPa) = 0.01744118
#
# Stress axis : x y z
#
# Youngs Moduli (GPa) = 111.78608 113.60746 60.66765
#
# Poissons Ratio (x) = 0.15950 0.08410
# Poissons Ratio (y) = 0.15695 0.34003
# Poissons Ratio (z) = 0.15496 0.63674
#
# Static dielectric constant tensor:
#      x y z
#    x 2.017070 0.000000 0.017380 
#    y 0.000000 1.825130 0.000000 
#    z 0.017380 0.000000 1.951810 
# 
# From -- ./inp_files/12061.got.cif
#   From: 2010.05.17/outbox.cif.g08.bks.cpg/sg5_7_cif.got.tgz:12061.got - 2010.06.03 18:56:24.
