data_PCOD9125338
_publ_section_title
;
Structure prediction by ZEFSAII (Michael W. Deem and Ramdas Pophale) SiO2 
 PCOD9125338
Probable space group: C 2
;
_chemical_formula_sum "Si O2"
_cell_formula_units_Z 28
_cell_length_a 11.990347
_cell_length_b 7.129466
_cell_length_c 12.714574
_cell_angle_alpha 90.000000
_cell_angle_beta 93.805915
_cell_angle_gamma 90.000000
_cell_volume 1084.505418
_symmetry_space_group_name_H-M "C 2"
_symmetry_group_IT_number 5
_symmetry_cell_setting 'monoclinic'
loop_
_space_group_symop_operation_xyz
x,y,z
-x,y,-z
1/2+x,1/2+y,z
1/2-x,1/2+y,-z
loop_
_atom_site_type_symbol
_atom_site_label
_atom_site_fract_x
_atom_site_fract_y
_atom_site_fract_z
Si Si1 0.713141 0.593280 0.847293
Si Si2 0.124622 0.974702 0.510559
Si Si3 0.212784 0.649170 0.626363
Si Si4 0.037944 0.562459 0.768837
Si Si5 0.761293 0.670023 0.080950
Si Si6 0.027884 0.230208 0.116943
Si Si7 0.642045 0.337797 0.290527
O O1 0.733545 0.373425 0.864418
O O2 0.580966 0.625524 0.848132
O O3 0.763000 0.703123 0.751169
O O4 0.770215 0.681929 0.956010
O O5 0.168389 0.861256 0.614503
O O6 0.114842 0.824996 0.413385
O O7 0.000000 0.060835 0.500000
O O8 0.223282 0.109405 0.478663
O O9 0.101580 0.543905 0.661200
O O10 0.308567 0.551310 0.705537
O O11 0.137566 0.559261 0.860603
O O12 0.956953 0.394850 0.796751
O O13 0.969268 0.755490 0.768981
O O14 0.634304 0.603719 0.093837
O O15 0.000000 0.316561 0.000000
#
# Coordination Sequence:
#
# PCOD9125338 Si02
#       7
#     4   4   4   4   4   4   4
#     4  11  22  43  61  98 131 170 221 258 310 372
#     4  10  21  43  66  90 124 161 207 269 323 378
#     4  10  22  42  68  92 124 161 212 263 322 387
#     4  12  22  42  66  92 132 173 205 262 320 372
#     4  11  25  38  66  92 133 176 210 262 309 373
#     4  10  21  41  60  90 131 170 220 259 300 373
#     4  10  23  39  70  90 128 166 212 260 317 386
#
# _framework density 25.81822
#
# number of rings (size 3 to 8) (size 9 to 14) (size 15 to 20)
#    0.857    0.571    4.286    1.714    0.000    2.286 
#    5.143    2.143    3.143    0.000    0.000    0.000 
#    0.000    0.000    0.000    0.000    0.000    0.000 
#
# Total GULP energy -78014.411494 kJ/mol
# GULP energy per Si atom -5572.457964 kJ/mol
# Density = 2.575946 g / cm^3
# Si number density = 25.818220 Si / 1000 Ang^3
#
#
#
# Elastic Constant Matrix: (Units=GPa)
#
#
# Indices 1 2 3 4 5 6 
#
# 1 138.2151 41.2389 10.2175 0.0000 -22.0336 0.0000
# 2 41.2389 63.8100 -0.0615 0.0000 1.5013 0.0000
# 3 10.2175 -0.0615 37.5228 0.0000 -10.6448 0.0000
# 4 0.0000 0.0000 0.0000 29.5037 0.0000 4.6496
# 5 -22.0336 1.5013 -10.6448 0.0000 47.0403 0.0000
# 6 0.0000 0.0000 0.0000 4.6496 0.0000 37.1506
#
#
#
# Elastic Compliance Matrix: (Units=1/GPa)
#
#
# Indices 1 2 3 4 5 6 
#
# 1 0.010042 -0.006599 -0.001444 0.000000 0.004588 0.000000
# 2 -0.006599 0.020021 0.000825 0.000000 -0.003544 0.000000
# 3 -0.001444 0.000825 0.028687 0.000000 0.005789 0.000000
# 4 0.000000 0.000000 0.000000 0.034576 0.000000 -0.004327
# 5 0.004588 -0.003544 0.005789 0.000000 0.024830 0.000000
# 6 0.000000 0.000000 0.000000 -0.004327 0.000000 0.027459
#
#
# Mechanical properties :
#
#
# Convention : Reuss Voigt Hill
#
# Bulk Modulus (GPa) = 22.56683 38.03754 30.30219
# Shear Modulus (GPa) = 28.60021 35.28246 31.94134
#
# Velocity S-wave (km/s) = 3.33190 3.70073 3.52115
# Velocity P-wave (km/s) = 4.85404 5.74677 5.31917
#
# Compressibility (1/GPa) = 0.04431282
#
# Stress axis : x y z
#
# Youngs Moduli (GPa) = 99.57953 49.94828 34.85869
#
# Poissons Ratio (x) = 0.32963 0.05033
# Poissons Ratio (y) = 0.65716 -0.02874
# Poissons Ratio (z) = 0.14378 -0.04119
#
# Static dielectric constant tensor:
#      x y z
#    x 2.067180 0.000000 0.019240 
#    y 0.000000 2.025680 0.000000 
#    z 0.019240 0.000000 2.156810 
# 
# From -- ./inp_files/52111.got.cif
#   From: 2010.05.17/outbox.cif.g08.bks.cpg/sg5_27_cif.got.tgz:52111.got - 2010.06.03 18:56:24.
