data_PCOD9125288
_publ_section_title
;
Structure prediction by ZEFSAII (Michael W. Deem and Ramdas Pophale) SiO2 
 PCOD9125288
Probable space group: C 2
;
_chemical_formula_sum "Si O2"
_cell_formula_units_Z 24
_cell_length_a 34.031247
_cell_length_b 5.036100
_cell_length_c 18.001084
_cell_angle_alpha 90.000000
_cell_angle_beta 157.291020
_cell_angle_gamma 90.000000
_cell_volume 1191.009236
_symmetry_space_group_name_H-M "C 2"
_symmetry_group_IT_number 5
_symmetry_cell_setting 'monoclinic'
loop_
_space_group_symop_operation_xyz
x,y,z
-x,y,-z
1/2+x,1/2+y,z
1/2-x,1/2+y,-z
loop_
_atom_site_type_symbol
_atom_site_label
_atom_site_fract_x
_atom_site_fract_y
_atom_site_fract_z
Si Si1 0.837639 0.539580 0.910135
Si Si2 0.714099 0.541955 0.255794
Si Si3 0.294287 0.755608 0.538030
Si Si4 0.834533 0.378485 0.072179
Si Si5 0.606144 0.378751 0.730303
Si Si6 0.982215 0.321975 0.048953
O O1 0.857973 0.443017 0.028023
O O2 0.939546 0.515255 0.037835
O O3 0.798510 0.836761 0.833676
O O4 0.761381 0.329483 0.736152
O O5 0.776025 0.394059 0.427066
O O6 0.606394 0.603181 0.108204
O O7 0.233006 0.487475 0.449688
O O8 0.412305 0.689293 0.747049
O O9 0.885822 0.596461 0.215011
O O10 0.876689 0.100580 0.176222
O O11 0.711032 0.395718 0.865151
O O12 0.500000 0.409512 0.500000
O O13 0.000000 0.452623 0.000000
#
# Coordination Sequence:
#
# PCOD9125288 Si02
#       6
#     4   4   4   4   4   4
#     4  10  22  41  60  86 127 159 199 256 308 348
#     4  10  22  39  55  85 116 158 204 249 309 354
#     4  12  23  38  61  85 113 156 218 261 303 364
#     4  10  21  41  63  94 129 156 201 252 297 368
#     4  10  21  40  68  94 123 163 198 242 306 373
#     4  10  22  40  60  83 121 165 203 257 301 351
#
# _framework density 20.150976
#
# number of rings (size 3 to 8) (size 9 to 14) (size 15 to 20)
#    1.000    0.667    1.667    3.500    2.333    0.667 
#    6.000    0.000    0.000    0.000    0.000    0.000 
#    0.000    0.000    0.000    0.000    0.000    0.000 
#
# Total GULP energy -66858.914293 kJ/mol
# GULP energy per Si atom -5571.576191 kJ/mol
# Density = 2.010511 g / cm^3
# Si number density = 20.150976 Si / 1000 Ang^3
#
#
#
# Elastic Constant Matrix: (Units=GPa)
#
#
# Indices 1 2 3 4 5 6 
#
# 1 64.9918 -9.5020 9.8813 0.0000 -12.6369 0.0000
# 2 -9.5020 68.1757 -12.9533 -0.0001 7.5426 0.0000
# 3 9.8813 -12.9533 93.5048 0.0000 2.6943 0.0000
# 4 0.0000 -0.0001 0.0000 1.6814 0.0000 -7.0507
# 5 -12.6369 7.5426 2.6943 0.0000 16.5769 0.0000
# 6 0.0000 0.0000 0.0000 -7.0507 0.0000 11.6129
#
#
#
# Elastic Compliance Matrix: (Units=1/GPa)
#
#
# Indices 1 2 3 4 5 6 
#
# 1 0.018598 0.000575 -0.002298 0.000000 0.014290 0.000000
# 2 0.000575 0.015996 0.002363 -0.000001 -0.007224 0.000000
# 3 -0.002298 0.002363 0.011400 0.000000 -0.004680 0.000000
# 4 0.000000 -0.000001 0.000000 -0.384712 0.000000 -0.233575
# 5 0.014290 -0.007224 -0.004680 0.000000 0.075266 0.000000
# 6 0.000000 0.000000 0.000000 -0.233575 0.000000 -0.055702
#
#
# Mechanical properties :
#
#
# Convention : Reuss Voigt Hill
#
# Bulk Modulus (GPa) = 21.15258 22.39159 21.77208
# Shear Modulus (GPa) = -16.41090 21.92399 2.75654
#
# Velocity S-wave (km/s) = -2.85686 3.30204 1.17086
# Velocity P-wave (km/s) = 0.60197 5.06695 3.55750
#
# Compressibility (1/GPa) = 0.04727556
#
# Stress axis : x y z
#
# Youngs Moduli (GPa) = 53.76811 62.51406 87.72169
#
# Poissons Ratio (x) = -0.03593 0.20155
# Poissons Ratio (y) = -0.03090 -0.20732
# Poissons Ratio (z) = 0.12354 -0.14775
#
# Static dielectric constant tensor:
#      x y z
#    x 1.724710 0.000000 -0.014820 
#    y 0.000000 1.708460 0.000000 
#    z -0.014820 0.000000 1.716740 
# 
# From -- ./inp_files/58331.got.cif
#   From: 2010.05.17/outbox.cif.g08.bks.cpg/sg5_30_cif.got.tgz:58331.got - 2010.06.03 18:56:24.
