data_PCOD9125025
_publ_section_title
;
Structure prediction by ZEFSAII (Michael W. Deem and Ramdas Pophale) SiO2 
 PCOD9125025
Probable space group: C 2
;
_chemical_formula_sum "Si O2"
_cell_formula_units_Z 28
_cell_length_a 12.673211
_cell_length_b 5.095657
_cell_length_c 20.340515
_cell_angle_alpha 90.000000
_cell_angle_beta 106.606096
_cell_angle_gamma 90.000000
_cell_volume 1258.771027
_symmetry_space_group_name_H-M "C 2"
_symmetry_group_IT_number 5
_symmetry_cell_setting 'monoclinic'
loop_
_space_group_symop_operation_xyz
x,y,z
-x,y,-z
1/2+x,1/2+y,z
1/2-x,1/2+y,-z
loop_
_atom_site_type_symbol
_atom_site_label
_atom_site_fract_x
_atom_site_fract_y
_atom_site_fract_z
Si Si1 0.019544 0.853270 0.576893
Si Si2 0.871385 0.040269 0.970252
Si Si3 0.749758 0.040141 0.089258
Si Si4 0.288081 0.742634 0.352490
Si Si5 0.282938 0.589232 0.546347
Si Si6 0.406653 0.681391 0.237167
Si Si7 0.967898 0.655772 0.699746
O O1 0.000000 0.748110 0.500000
O O2 0.912393 0.031779 0.574282
O O3 0.014525 0.636969 0.633293
O O4 0.124206 0.043775 0.599515
O O5 0.808154 0.259064 0.916644
O O6 0.844566 0.759173 0.934437
O O7 0.818385 0.046661 0.033538
O O8 0.000000 0.092140 0.000000
O O9 0.831474 0.108573 0.162490
O O10 0.274448 0.002910 0.395424
O O11 0.328068 0.754905 0.284608
O O12 0.163071 0.636363 0.328062
O O13 0.262653 0.875588 0.514105
O O14 0.484865 0.435673 0.268498
O O15 0.483709 0.934481 0.244411
#
# Coordination Sequence:
#
# PCOD9125025 Si02
#       7
#     4   4   4   4   4   4   4
#     4  10  21  42  62  89 114 158 199 260 322 378
#     4  10  21  39  64  98 133 166 208 252 301 356
#     4  10  22  39  63  96 130 167 211 253 296 368
#     4  10  24  43  63  88 125 156 206 261 316 375
#     4  11  24  41  62  88 115 152 200 251 313 378
#     4  11  24  43  65  91 127 168 208 254 312 365
#     4  10  25  42  61  91 121 160 212 258 307 384
#
# _framework density 22.243917
#
# number of rings (size 3 to 8) (size 9 to 14) (size 15 to 20)
#    0.000    1.714    1.429    1.286    2.000   11.429 
#    0.000    0.000    0.000    0.000    0.000    0.000 
#    0.000    0.000    0.000    0.000    0.000    0.000 
#
# Total GULP energy -78357.354819 kJ/mol
# GULP energy per Si atom -5596.953916 kJ/mol
# Density = 2.219329 g / cm^3
# Si number density = 22.243917 Si / 1000 Ang^3
#
#
#
# Elastic Constant Matrix: (Units=GPa)
#
#
# Indices 1 2 3 4 5 6 
#
# 1 119.2577 13.5304 4.7848 0.0000 24.8230 0.0000
# 2 13.5304 48.7927 -9.2712 0.0000 -6.9507 0.0000
# 3 4.7848 -9.2712 79.7870 0.0000 16.1504 0.0000
# 4 0.0000 0.0000 0.0000 28.7655 0.0000 12.0164
# 5 24.8230 -6.9507 16.1504 0.0000 22.4018 0.0000
# 6 0.0000 0.0000 0.0000 12.0164 0.0000 25.3786
#
#
#
# Elastic Compliance Matrix: (Units=1/GPa)
#
#
# Indices 1 2 3 4 5 6 
#
# 1 0.012462 -0.005486 0.002055 0.000000 -0.016993 0.000000
# 2 -0.005486 0.023981 0.000444 0.000000 0.013200 0.000000
# 3 0.002055 0.000444 0.015098 0.000000 -0.013024 0.000000
# 4 0.000000 0.000000 0.000000 0.043335 0.000000 -0.020519
# 5 -0.016993 0.013200 -0.013024 0.000000 0.076953 0.000000
# 6 0.000000 0.000000 0.000000 -0.020519 0.000000 0.049118
#
#
# Mechanical properties :
#
#
# Convention : Reuss Voigt Hill
#
# Bulk Modulus (GPa) = 21.94624 29.54726 25.74675
# Shear Modulus (GPa) = 20.65163 31.22874 25.94019
#
# Velocity S-wave (km/s) = 3.05030 3.75096 3.41863
# Velocity P-wave (km/s) = 4.72158 5.66319 5.21369
#
# Compressibility (1/GPa) = 0.04556589
#
# Stress axis : x y z
#
# Youngs Moduli (GPa) = 80.24328 41.70003 66.23391
#
# Poissons Ratio (x) = 0.22877 -0.13610
# Poissons Ratio (y) = 0.44021 -0.02939
# Poissons Ratio (z) = -0.16488 -0.01850
#
# Static dielectric constant tensor:
#      x y z
#    x 1.828990 0.000000 -0.026730 
#    y 0.000000 1.828220 0.000000 
#    z -0.026730 0.000000 1.800520 
# 
# From -- ./inp_files/64990.got.cif
#   From: 2010.05.17/outbox.cif.g08.bks.cpg/sg5_33_cif.got.tgz:64990.got - 2010.06.03 18:56:24.
