data_PCOD9125721
_publ_section_title
;
Structure prediction by ZEFSAII (Michael W. Deem and Ramdas Pophale) SiO2 
 PCOD9125721
Probable space group: C 2
;
_chemical_formula_sum "Si O2"
_cell_formula_units_Z 22
_cell_length_a 13.789161
_cell_length_b 9.023197
_cell_length_c 8.790886
_cell_angle_alpha 90.000000
_cell_angle_beta 53.288300
_cell_angle_gamma 90.000000
_cell_volume 876.834586
_symmetry_space_group_name_H-M "C 2"
_symmetry_group_IT_number 5
_symmetry_cell_setting 'monoclinic'
loop_
_space_group_symop_operation_xyz
x,y,z
-x,y,-z
1/2+x,1/2+y,z
1/2-x,1/2+y,-z
loop_
_atom_site_type_symbol
_atom_site_label
_atom_site_fract_x
_atom_site_fract_y
_atom_site_fract_z
Si Si1 0.000000 0.442001 0.000000
Si Si2 0.848857 0.201665 0.989718
Si Si3 0.441231 0.193545 0.278114
Si Si4 0.800386 0.211893 0.697357
Si Si5 0.064152 0.016993 0.647514
Si Si6 0.799256 0.525208 0.638428
O O1 0.004120 0.552076 0.141596
O O2 0.114280 0.333226 0.927901
O O3 0.784469 0.234441 0.890909
O O4 0.975792 0.133927 0.810692
O O5 0.764941 0.082755 0.151019
O O6 0.328624 0.208393 0.265244
O O7 0.493841 0.355711 0.263832
O O8 0.389806 0.143997 0.487645
O O9 0.882876 0.074135 0.565217
O O10 0.859728 0.365106 0.587140
O O11 0.189292 0.014672 0.622868
#
# Coordination Sequence:
#
# PCOD9125721 Si02
#       6
#     2   4   4   4   4   4
#     4  12  26  42  66  96 136 176 216 264 326 392
#     4  12  24  41  68  99 131 170 218 272 325 377
#     4  10  25  43  68  92 130 177 217 261 326 393
#     4  10  24  41  69  94 133 166 221 268 325 382
#     4  10  21  43  65  95 126 173 213 264 324 388
#     4  10  22  41  65  94 129 171 213 264 328 385
#
# _framework density 25.090252
#
# number of rings (size 3 to 8) (size 9 to 14) (size 15 to 20)
#    0.000    1.455    1.818    1.636   15.273    0.000 
#    0.000    3.636    0.000    0.000    0.000    0.000 
#    0.000    0.000    0.000    0.000    0.000    0.000 
#
# Total GULP energy -61427.310409 kJ/mol
# GULP energy per Si atom -5584.300946 kJ/mol
# Density = 2.503315 g / cm^3
# Si number density = 25.090252 Si / 1000 Ang^3
#
#
#
# Elastic Constant Matrix: (Units=GPa)
#
#
# Indices 1 2 3 4 5 6 
#
# 1 63.4770 10.1111 -5.8882 0.0000 11.0421 0.0000
# 2 10.1111 115.2931 16.1529 0.0000 -3.5489 0.0000
# 3 -5.8882 16.1529 63.9144 0.0000 9.9423 0.0000
# 4 0.0000 0.0000 0.0000 40.7426 0.0000 0.1266
# 5 11.0421 -3.5489 9.9423 0.0000 27.2908 0.0000
# 6 0.0000 0.0000 0.0000 0.1266 0.0000 8.9751
#
#
#
# Elastic Compliance Matrix: (Units=1/GPa)
#
#
# Indices 1 2 3 4 5 6 
#
# 1 0.018022 -0.002366 0.003647 0.000000 -0.008928 0.000000
# 2 -0.002366 0.009420 -0.003115 0.000000 0.003317 0.000000
# 3 0.003647 -0.003115 0.018087 0.000000 -0.008470 0.000000
# 4 0.000000 0.000000 0.000000 0.024545 0.000000 -0.000346
# 5 -0.008928 0.003317 -0.008470 0.000000 0.043772 0.000000
# 6 0.000000 0.000000 0.000000 -0.000346 0.000000 0.111424
#
#
# Mechanical properties :
#
#
# Convention : Reuss Voigt Hill
#
# Bulk Modulus (GPa) = 23.88868 31.49291 27.69080
# Shear Modulus (GPa) = 20.58538 30.22227 25.40383
#
# Velocity S-wave (km/s) = 2.86746 3.47442 3.18543
# Velocity P-wave (km/s) = 4.52823 5.35486 4.95880
#
# Compressibility (1/GPa) = 0.04186083
#
# Stress axis : x y z
#
# Youngs Moduli (GPa) = 55.48742 106.16237 55.28961
#
# Poissons Ratio (x) = 0.25122 -0.20165
# Poissons Ratio (y) = 0.13130 0.17220
# Poissons Ratio (z) = -0.20237 0.33065
#
# Static dielectric constant tensor:
#      x y z
#    x 2.006070 0.000000 0.018950 
#    y 0.000000 2.082450 0.000000 
#    z 0.018950 0.000000 1.969740 
# 
# From -- ./inp_files/26425.got.cif
#   From: 2010.05.17/outbox.cif.g08.bks.cpg/sg5_14_cif.got.tgz:26425.got - 2010.06.03 18:56:24.
