data_PCOD9125169
_publ_section_title
;
Structure prediction by ZEFSAII (Michael W. Deem and Ramdas Pophale) SiO2 
 PCOD9125169
Probable space group: C 2
;
_chemical_formula_sum "Si O2"
_cell_formula_units_Z 30
_cell_length_a 17.051482
_cell_length_b 8.764902
_cell_length_c 19.568970
_cell_angle_alpha 90.000000
_cell_angle_beta 34.786117
_cell_angle_gamma 90.000000
_cell_volume 1668.568010
_symmetry_space_group_name_H-M "C 2"
_symmetry_group_IT_number 5
_symmetry_cell_setting 'monoclinic'
loop_
_space_group_symop_operation_xyz
x,y,z
-x,y,-z
1/2+x,1/2+y,z
1/2-x,1/2+y,-z
loop_
_atom_site_type_symbol
_atom_site_label
_atom_site_fract_x
_atom_site_fract_y
_atom_site_fract_z
Si Si1 0.861572 0.392500 0.133916
Si Si2 0.712101 0.314560 0.944566
Si Si3 0.121066 0.266363 0.727639
Si Si4 0.417709 0.135354 0.488190
Si Si5 0.618651 0.540314 0.127170
Si Si6 0.483534 0.974451 0.711159
Si Si7 0.422757 0.308354 0.732356
Si Si8 0.500000 0.193411 0.000000
O O1 0.854872 0.348891 0.217644
O O2 0.730969 0.331943 0.185919
O O3 0.884960 0.575152 0.110502
O O4 0.000000 0.327451 0.000000
O O5 0.760524 0.147250 0.931788
O O6 0.839104 0.385402 0.811445
O O7 0.572540 0.297305 0.003363
O O8 0.684673 0.419140 0.029260
O O9 0.258371 0.171680 0.612669
O O10 0.992970 0.151209 0.826428
O O11 0.076817 0.385538 0.699485
O O12 0.500000 0.112370 0.500000
O O13 0.446310 0.999090 0.413248
O O14 0.482533 0.281273 0.401671
O O15 0.547861 0.450199 0.240209
O O16 0.444500 0.149753 0.758073
#
# Coordination Sequence:
#
# PCOD9125169 Si02
#       8
#     4   4   4   4   4   4   4   2
#     4  10  22  37  61  93 125 162 199 246 317 379
#     4  11  23  40  59  93 124 162 200 256 316 371
#     4  11  23  41  64  93 123 162 212 256 309 365
#     4  10  22  41  64  88 119 167 210 254 299 370
#     4  11  24  37  64  91 125 160 204 257 316 367
#     4   9  24  37  66  88 125 157 212 254 304 364
#     4  10  21  40  63  86 125 161 204 250 303 367
#     4  10  24  34  60  90 134 150 202 252 312 368
#
# _framework density 17.979489000000001
#
# number of rings (size 3 to 8) (size 9 to 14) (size 15 to 20)
#    1.200    0.533    2.667    0.800   13.067    2.133 
#    0.000    0.000    2.933    3.200    0.000    0.000 
#    0.000    0.000    0.000    0.000    0.000    0.000 
#
# Total GULP energy -83547.933288 kJ/mol
# GULP energy per Si atom -5569.862219 kJ/mol
# Density = 1.793857 g / cm^3
# Si number density = 17.979489 Si / 1000 Ang^3
#
#
#
# Elastic Constant Matrix: (Units=GPa)
#
#
# Indices 1 2 3 4 5 6 
#
# 1 70.1253 35.3912 19.8639 0.0000 0.4068 0.0000
# 2 35.3912 63.0671 -2.6798 0.0000 14.4480 0.0000
# 3 19.8639 -2.6798 56.0224 0.0000 9.1156 0.0000
# 4 0.0000 0.0000 0.0000 12.8442 0.0000 -19.2439
# 5 0.4068 14.4480 9.1156 0.0000 32.9984 0.0000
# 6 0.0000 0.0000 0.0000 -19.2439 0.0000 -21.4097
#
#
#
# Elastic Compliance Matrix: (Units=1/GPa)
#
#
# Indices 1 2 3 4 5 6 
#
# 1 0.026709 -0.017998 -0.012104 0.000000 0.010895 0.000000
# 2 -0.017998 0.030015 0.010387 0.000000 -0.015789 0.000000
# 3 -0.012104 0.010387 0.024453 0.000000 -0.011153 0.000000
# 4 0.000000 0.000000 0.000000 0.033177 0.000000 -0.029821
# 5 0.010895 -0.015789 -0.011153 0.000000 0.040164 0.000000
# 6 0.000000 0.000000 0.000000 -0.029821 0.000000 -0.019904
#
#
# Mechanical properties :
#
#
# Convention : Reuss Voigt Hill
#
# Bulk Modulus (GPa) = 23.95474 32.70724 28.33099
# Shear Modulus (GPa) = 26.60118 13.99587 20.29853
#
# Velocity S-wave (km/s) = 3.85064 2.79307 3.36368
# Velocity P-wave (km/s) = 5.75519 5.35094 5.55674
#
# Compressibility (1/GPa) = 0.04174538
#
# Stress axis : x y z
#
# Youngs Moduli (GPa) = 37.44037 33.31705 40.89421
#
# Poissons Ratio (x) = 0.59966 0.49498
# Poissons Ratio (y) = 0.67387 -0.42475
# Poissons Ratio (z) = 0.45318 -0.34605
#
# Static dielectric constant tensor:
#      x y z
#    x 1.635030 0.000000 0.005190 
#    y 0.000000 1.609290 0.000000 
#    z 0.005190 0.000000 1.618930 
# 
# From -- ./inp_files/66599.got.cif
#   From: 2010.05.17/outbox.cif.g08.bks.cpg/sg5_34_cif.got.tgz:66599.got - 2010.06.03 18:56:24.
