data_PCOD9125091
_publ_section_title
;
Structure prediction by ZEFSAII (Michael W. Deem and Ramdas Pophale) SiO2 
 PCOD9125091
Probable space group: C 2
;
_chemical_formula_sum "Si O2"
_cell_formula_units_Z 24
_cell_length_a 27.040035
_cell_length_b 5.222674
_cell_length_c 7.446391
_cell_angle_alpha 90.000000
_cell_angle_beta 101.338376
_cell_angle_gamma 90.000000
_cell_volume 1031.065272
_symmetry_space_group_name_H-M "C 2"
_symmetry_group_IT_number 5
_symmetry_cell_setting 'monoclinic'
loop_
_space_group_symop_operation_xyz
x,y,z
-x,y,-z
1/2+x,1/2+y,z
1/2-x,1/2+y,-z
loop_
_atom_site_type_symbol
_atom_site_label
_atom_site_fract_x
_atom_site_fract_y
_atom_site_fract_z
Si Si1 0.589818 0.074350 0.955124
Si Si2 0.246458 0.312480 0.612740
Si Si3 0.430224 0.678579 0.583073
Si Si4 0.354778 0.047094 0.356326
Si Si5 0.540297 0.560479 0.783628
Si Si6 0.647121 0.343875 0.294918
O O1 0.632390 0.127963 0.834355
O O2 0.547125 0.290662 0.888283
O O3 0.570704 0.788006 0.903755
O O4 0.615321 0.136994 0.162084
O O5 0.246513 0.522632 0.451120
O O6 0.192943 0.354253 0.671656
O O7 0.298172 0.385758 0.753127
O O8 0.484021 0.670225 0.717745
O O9 0.439210 0.516318 0.405526
O O10 0.389217 0.579980 0.694595
O O11 0.406349 0.928586 0.475674
O O12 0.341680 0.258702 0.493055
#
# Coordination Sequence:
#
# PCOD9125091 Si02
#       6
#     4   4   4   4   4   4
#     4  11  25  42  64  97 131 167 218 269 326 385
#     4  10  21  39  68  95 124 169 221 261 330 393
#     4  10  21  41  69  88 132 176 217 262 333 380
#     4  10  22  44  65  93 132 172 213 275 326 385
#     4  10  24  42  64  96 129 174 219 264 322 395
#     4  11  23  41  67  97 127 173 218 270 328 386
#
# _framework density 23.276897000000002
#
# number of rings (size 3 to 8) (size 9 to 14) (size 15 to 20)
#    0.000    1.667    3.333    0.000    4.667    2.000 
#    0.000   10.000    0.000    0.000    0.000    0.000 
#    0.000    0.000    0.000    0.000    0.000    0.000 
#
# Total GULP energy -66939.495302 kJ/mol
# GULP energy per Si atom -5578.291275 kJ/mol
# Density = 2.322392 g / cm^3
# Si number density = 23.276897 Si / 1000 Ang^3
#
#
#
# Elastic Constant Matrix: (Units=GPa)
#
#
# Indices 1 2 3 4 5 6 
#
# 1 88.6224 13.8472 21.9476 0.0000 21.0883 0.0000
# 2 13.8472 69.0304 18.6268 0.0000 -4.5031 0.0000
# 3 21.9476 18.6268 79.1221 0.0000 -1.8037 0.0000
# 4 0.0000 0.0000 0.0000 26.8504 0.0000 0.8169
# 5 21.0883 -4.5031 -1.8037 0.0000 24.5594 0.0000
# 6 0.0000 0.0000 0.0000 0.8169 0.0000 23.0487
#
#
#
# Elastic Compliance Matrix: (Units=1/GPa)
#
#
# Indices 1 2 3 4 5 6 
#
# 1 0.016348 -0.003136 -0.004136 0.000000 -0.014916 0.000000
# 2 -0.003136 0.016235 -0.002828 0.000000 0.005462 0.000000
# 3 -0.004136 -0.002828 0.014545 0.000000 0.004102 0.000000
# 4 0.000000 0.000000 0.000000 0.037284 0.000000 -0.001321
# 5 -0.014916 0.005462 0.004102 0.000000 0.054828 0.000000
# 6 0.000000 0.000000 0.000000 -0.001321 0.000000 0.043433
#
#
# Mechanical properties :
#
#
# Convention : Reuss Voigt Hill
#
# Bulk Modulus (GPa) = 37.13676 38.40201 37.76939
# Shear Modulus (GPa) = 23.60179 27.04857 25.32518
#
# Velocity S-wave (km/s) = 3.18772 3.41256 3.30206
# Velocity P-wave (km/s) = 5.43487 5.66226 5.54973
#
# Compressibility (1/GPa) = 0.02692750
#
# Stress axis : x y z
#
# Youngs Moduli (GPa) = 61.17120 61.59626 68.75111
#
# Poissons Ratio (x) = 0.19317 0.28438
# Poissons Ratio (y) = 0.19184 0.19440
# Poissons Ratio (z) = 0.25303 0.17416
#
# Static dielectric constant tensor:
#      x y z
#    x 2.008210 0.000000 0.004670 
#    y 0.000000 1.915410 0.000000 
#    z 0.004670 0.000000 1.870110 
# 
# From -- ./inp_files/31305.got.cif
#   From: 2010.05.17/outbox.cif.g08.bks.cpg/sg5_16_cif.got.tgz:31305.got - 2010.06.03 18:56:24.
