data_PCOD9125702
_publ_section_title
;
Structure prediction by ZEFSAII (Michael W. Deem and Ramdas Pophale) SiO2 
 PCOD9125702
Probable space group: C 2
;
_chemical_formula_sum "Si O2"
_cell_formula_units_Z 24
_cell_length_a 13.622885
_cell_length_b 12.081785
_cell_length_c 5.431922
_cell_angle_alpha 90.000000
_cell_angle_beta 87.297412
_cell_angle_gamma 90.000000
_cell_volume 893.038956
_symmetry_space_group_name_H-M "C 2"
_symmetry_group_IT_number 5
_symmetry_cell_setting 'monoclinic'
loop_
_space_group_symop_operation_xyz
x,y,z
-x,y,-z
1/2+x,1/2+y,z
1/2-x,1/2+y,-z
loop_
_atom_site_type_symbol
_atom_site_label
_atom_site_fract_x
_atom_site_fract_y
_atom_site_fract_z
Si Si1 0.381054 0.668680 0.283177
Si Si2 0.386448 0.293585 0.190771
Si Si3 0.162893 0.761412 0.301188
Si Si4 0.801506 0.453367 0.848007
Si Si5 0.714300 0.516861 0.353168
Si Si6 0.500000 0.844147 0.000000
Si Si7 0.500000 0.488975 0.000000
O O1 0.274954 0.723849 0.264219
O O2 0.368276 0.604548 0.545744
O O3 0.456637 0.766624 0.222792
O O4 0.413589 0.576463 0.077817
O O5 0.382112 0.224069 0.436259
O O6 0.277951 0.351946 0.168191
O O7 0.396708 0.230248 0.932943
O O8 0.462306 0.395458 0.199079
O O9 0.165063 0.895905 0.325418
O O10 0.785698 0.508426 0.583028
O O11 0.770749 0.527123 0.089051
O O12 0.909294 0.410392 0.895345
#
# Coordination Sequence:
#
# PCOD9125702 Si02
#       7
#     4   4   4   4   4   2   2
#     4  11  22  40  71 110 125 170 240 283 317 396
#     4  10  21  43  61  91 138 177 202 273 348 385
#     4  10  21  43  61  93 138 179 200 275 349 387
#     4  10  21  43  61  91 138 177 202 273 348 385
#     4  10  21  43  61  93 138 179 200 275 349 387
#     4  11  22  40  72 109 126 171 238 284 318 393
#     4  11  22  40  72 109 126 171 238 284 318 393
#
# _framework density 26.874527
#
# number of rings (size 3 to 8) (size 9 to 14) (size 15 to 20)
#    0.000    1.667    6.667    0.000    0.000    2.667 
#    0.000    6.667    0.000    6.000    0.000    0.000 
#    0.000    0.000    0.000    0.000    0.000    0.000 
#
# Total GULP energy -66992.265855 kJ/mol
# GULP energy per Si atom -5582.688821 kJ/mol
# Density = 2.681336 g / cm^3
# Si number density = 26.874527 Si / 1000 Ang^3
#
#
#
# Elastic Constant Matrix: (Units=GPa)
#
#
# Indices 1 2 3 4 5 6 
#
# 1 180.0317 47.7948 88.5854 0.0000 -12.8393 0.0000
# 2 47.7948 60.5827 51.3196 0.0000 -15.4912 0.0000
# 3 88.5854 51.3196 249.1565 0.0000 3.4471 0.0000
# 4 0.0000 0.0000 0.0000 38.3689 0.0000 -26.6097
# 5 -12.8393 -15.4912 3.4471 0.0000 33.6090 0.0000
# 6 0.0000 0.0000 0.0000 -26.6097 0.0000 43.6756
#
#
#
# Elastic Compliance Matrix: (Units=1/GPa)
#
#
# Indices 1 2 3 4 5 6 
#
# 1 0.007671 -0.004138 -0.001892 0.000000 0.001217 0.000000
# 2 -0.004138 0.025934 -0.004020 0.000000 0.010785 0.000000
# 3 -0.001892 -0.004020 0.005558 0.000000 -0.003146 0.000000
# 4 0.000000 0.000000 0.000000 0.045133 0.000000 0.027498
# 5 0.001217 0.010785 -0.003146 0.000000 0.035513 0.000000
# 6 0.000000 0.000000 0.000000 0.027498 0.000000 0.039649
#
#
# Mechanical properties :
#
#
# Convention : Reuss Voigt Hill
#
# Bulk Modulus (GPa) = 52.45662 96.13004 74.29333
# Shear Modulus (GPa) = 26.89476 43.26878 35.08177
#
# Velocity S-wave (km/s) = 3.16690 4.01687 3.61694
# Velocity P-wave (km/s) = 5.73880 7.57372 6.71919
#
# Compressibility (1/GPa) = 0.01906337
#
# Stress axis : x y z
#
# Youngs Moduli (GPa) = 130.36496 38.56000 179.93262
#
# Poissons Ratio (x) = 0.15955 0.34040
# Poissons Ratio (y) = 0.53942 0.72327
# Poissons Ratio (z) = 0.24663 0.15500
#
# Static dielectric constant tensor:
#      x y z
#    x 2.165900 0.000000 0.042460 
#    y 0.000000 2.129580 0.000000 
#    z 0.042460 0.000000 2.233460 
# 
# From -- ./inp_files/6861.got.cif
#   From: 2010.05.17/outbox.cif.g08.bks.cpg/sg5_4_cif.got.tgz:6861.got - 2010.06.03 18:56:24.
