data_PCOD9125864
_publ_section_title
;
Structure prediction by ZEFSAII (Michael W. Deem and Ramdas Pophale) SiO2 
 PCOD9125864
Probable space group: C 2
;
_chemical_formula_sum "Si O2"
_cell_formula_units_Z 24
_cell_length_a 10.017813
_cell_length_b 17.737780
_cell_length_c 8.505173
_cell_angle_alpha 90.000000
_cell_angle_beta 46.187982
_cell_angle_gamma 90.000000
_cell_volume 1090.588486
_symmetry_space_group_name_H-M "C 2"
_symmetry_group_IT_number 5
_symmetry_cell_setting 'monoclinic'
loop_
_space_group_symop_operation_xyz
x,y,z
-x,y,-z
1/2+x,1/2+y,z
1/2-x,1/2+y,-z
loop_
_atom_site_type_symbol
_atom_site_label
_atom_site_fract_x
_atom_site_fract_y
_atom_site_fract_z
Si Si1 0.671727 0.603230 0.475016
Si Si2 0.238203 0.775717 0.631083
Si Si3 0.923986 0.344006 0.791654
Si Si4 0.082569 0.862610 0.260445
Si Si5 0.929678 0.023777 0.889298
Si Si6 0.022634 0.521642 0.297345
O O1 0.500000 0.586390 0.500000
O O2 0.746808 0.685966 0.378410
O O3 0.568745 0.589389 0.724403
O O4 0.848248 0.548816 0.338342
O O5 0.310716 0.809987 0.735875
O O6 0.381297 0.802216 0.378320
O O7 0.041680 0.810251 0.750348
O O8 0.962901 0.431535 0.724443
O O9 0.795113 0.341544 0.050111
O O10 0.059418 0.950419 0.230754
O O11 0.000000 0.852518 0.500000
O O12 0.718717 0.050813 0.072866
O O13 0.000000 0.995353 0.000000
O O14 0.000000 0.542863 0.500000
#
# Coordination Sequence:
#
# PCOD9125864 Si02
#       6
#     4   4   4   4   4   4
#     4  12  26  44  65 109 153 183 236 307 357 429
#     4  11  22  44  70  99 141 188 235 289 369 435
#     4  10  21  44  75  96 128 189 244 282 350 437
#     4  11  24  42  70 107 138 178 246 307 351 419
#     4  11  23  44  73 102 143 194 241 299 364 438
#     4  11  21  42  76 101 133 193 249 288 354 434
#
# _framework density 22.006466
#
# number of rings (size 3 to 8) (size 9 to 14) (size 15 to 20)
#    0.000    1.000    5.000    4.000    0.000    3.333 
#    6.000    3.333    0.000    0.000    0.000    0.000 
#    0.000    0.000    0.000    0.000    0.000    0.000 
#
# Total GULP energy -67072.222224 kJ/mol
# GULP energy per Si atom -5589.351852 kJ/mol
# Density = 2.195638 g / cm^3
# Si number density = 22.006466 Si / 1000 Ang^3
#
#
#
# Elastic Constant Matrix: (Units=GPa)
#
#
# Indices 1 2 3 4 5 6 
#
# 1 71.0020 27.3987 34.3329 0.0000 -23.0404 0.0000
# 2 27.3987 97.9897 34.6584 0.0000 -5.1712 0.0000
# 3 34.3329 34.6584 125.2164 0.0000 -19.7272 0.0000
# 4 0.0000 0.0000 0.0000 -16.1338 0.0000 19.0547
# 5 -23.0404 -5.1712 -19.7272 0.0000 39.3346 0.0000
# 6 0.0000 0.0000 0.0000 19.0547 0.0000 23.1089
#
#
#
# Elastic Compliance Matrix: (Units=1/GPa)
#
#
# Indices 1 2 3 4 5 6 
#
# 1 0.020273 -0.004137 -0.002854 0.000000 0.009900 0.000000
# 2 -0.004137 0.012157 -0.002563 0.000000 -0.002110 0.000000
# 3 -0.002854 -0.002563 0.009948 0.000000 0.002980 0.000000
# 4 0.000000 0.000000 0.000000 -0.031402 0.000000 0.025893
# 5 0.009900 -0.002110 0.002980 0.000000 0.032439 0.000000
# 6 0.000000 0.000000 0.000000 0.025893 0.000000 0.021923
#
#
# Mechanical properties :
#
#
# Convention : Reuss Voigt Hill
#
# Bulk Modulus (GPa) = 42.97361 54.10980 48.54170
# Shear Modulus (GPa) = 54.22838 22.44981 38.33910
#
# Velocity S-wave (km/s) = 4.96946 3.19744 4.17846
# Velocity P-wave (km/s) = 7.24551 6.18652 6.73686
#
# Compressibility (1/GPa) = 0.02327010
#
# Stress axis : x y z
#
# Youngs Moduli (GPa) = 49.32694 82.25716 100.52585
#
# Poissons Ratio (x) = 0.34026 0.28690
# Poissons Ratio (y) = 0.20405 0.25766
# Poissons Ratio (z) = 0.14078 0.21084
#
# Static dielectric constant tensor:
#      x y z
#    x 1.820450 0.000000 0.050670 
#    y 0.000000 1.759580 0.000000 
#    z 0.050670 0.000000 1.870760 
# 
# From -- ./inp_files/16726.got.cif
#   From: 2010.05.17/outbox.cif.g08.bks.cpg/sg5_9_cif.got.tgz:16726.got - 2010.06.03 18:56:24.
