data_PCOD9125791
_publ_section_title
;
Structure prediction by ZEFSAII (Michael W. Deem and Ramdas Pophale) SiO2 
 PCOD9125791
Probable space group: C 2
;
_chemical_formula_sum "Si O2"
_cell_formula_units_Z 30
_cell_length_a 24.582645
_cell_length_b 11.280000
_cell_length_c 13.651744
_cell_angle_alpha 90.000000
_cell_angle_beta 159.468852
_cell_angle_gamma 90.000000
_cell_volume 1327.645383
_symmetry_space_group_name_H-M "C 2"
_symmetry_group_IT_number 5
_symmetry_cell_setting 'monoclinic'
loop_
_space_group_symop_operation_xyz
x,y,z
-x,y,-z
1/2+x,1/2+y,z
1/2-x,1/2+y,-z
loop_
_atom_site_type_symbol
_atom_site_label
_atom_site_fract_x
_atom_site_fract_y
_atom_site_fract_z
Si Si1 0.049269 0.216760 0.384321
Si Si2 0.098996 0.772121 0.974931
Si Si3 0.126442 0.254114 0.288610
Si Si4 0.373251 0.903979 0.201555
Si Si5 0.857132 0.003165 0.041617
Si Si6 0.000000 0.635912 0.000000
Si Si7 0.267767 0.002326 0.492475
Si Si8 0.425204 0.086218 0.562554
O O1 0.909545 0.297479 0.189675
O O2 0.215257 0.246041 0.713744
O O3 0.064336 0.232686 0.293157
O O4 0.995253 0.083694 0.311053
O O5 0.040916 0.714416 0.976548
O O6 0.084884 0.912565 0.943338
O O7 0.989880 0.711059 0.709377
O O8 0.164522 0.122995 0.308072
O O9 0.253351 0.361552 0.520515
O O10 0.000000 0.303104 0.000000
O O11 0.500000 0.884905 0.500000
O O12 0.214456 0.926096 0.990503
O O13 0.428123 0.021473 0.238196
O O14 0.716749 0.077806 0.753964
O O15 0.141225 0.550406 0.260116
O O16 0.369906 0.011102 0.564957
#
# Coordination Sequence:
#
# PCOD9125791 Si02
#       8
#     4   4   4   4   4   2   4   4
#     4  12  24  46  74 101 137 189 239 290 357 429
#     4  11  23  46  69 103 139 182 232 295 347 434
#     4  12  25  42  67 101 141 181 234 287 350 425
#     4  10  21  43  73  93 139 184 222 292 361 410
#     4  11  25  45  70 102 134 185 236 291 361 421
#     4  10  22  42  68  96 142 182 222 288 356 408
#     4  11  22  42  65  95 137 183 221 283 348 409
#     4  10  22  44  67  93 140 179 221 286 359 398
#
# _framework density 22.596395999999999
#
# number of rings (size 3 to 8) (size 9 to 14) (size 15 to 20)
#    0.000    1.067    6.000    0.800    1.867    2.133 
#    4.800    0.000    0.000    0.000    0.000    0.000 
#    0.000    0.000    0.000    0.000    0.000    0.000 
#
# Total GULP energy -83613.451375 kJ/mol
# GULP energy per Si atom -5574.230092 kJ/mol
# Density = 2.254497 g / cm^3
# Si number density = 22.596396 Si / 1000 Ang^3
#
#
#
# Elastic Constant Matrix: (Units=GPa)
#
#
# Indices 1 2 3 4 5 6 
#
# 1 89.2346 21.7311 -12.4103 0.0000 9.9409 0.0000
# 2 21.7311 96.3519 24.0671 0.0000 17.4207 0.0000
# 3 -12.4103 24.0671 46.9379 0.0000 -1.1297 0.0000
# 4 0.0000 0.0000 0.0000 35.2500 0.0000 0.3286
# 5 9.9409 17.4207 -1.1297 0.0000 13.5815 0.0000
# 6 0.0000 0.0000 0.0000 0.3286 0.0000 21.3182
#
#
#
# Elastic Compliance Matrix: (Units=1/GPa)
#
#
# Indices 1 2 3 4 5 6 
#
# 1 0.013297 -0.003382 0.005130 0.000000 -0.004967 0.000000
# 2 -0.003382 0.017497 -0.010367 0.000000 -0.020830 0.000000
# 3 0.005130 -0.010367 0.028263 0.000000 0.011894 0.000000
# 4 0.000000 0.000000 0.000000 0.028373 0.000000 -0.000437
# 5 -0.004967 -0.020830 0.011894 0.000000 0.104973 0.000000
# 6 0.000000 0.000000 0.000000 -0.000437 0.000000 0.046915
#
#
# Mechanical properties :
#
#
# Convention : Reuss Voigt Hill
#
# Bulk Modulus (GPa) = 23.91253 33.25560 28.58407
# Shear Modulus (GPa) = 18.48455 27.30568 22.89512
#
# Velocity S-wave (km/s) = 2.86323 3.47999 3.18656
# Velocity P-wave (km/s) = 4.64071 5.55844 5.12018
#
# Compressibility (1/GPa) = 0.04181908
#
# Stress axis : x y z
#
# Youngs Moduli (GPa) = 75.20490 57.15221 35.38174
#
# Poissons Ratio (x) = 0.19331 -0.18152
# Poissons Ratio (y) = 0.25437 0.36681
# Poissons Ratio (z) = -0.38583 0.59251
#
# Static dielectric constant tensor:
#      x y z
#    x 1.862470 0.000000 0.053140 
#    y 0.000000 1.876940 0.000000 
#    z 0.053140 0.000000 1.892020 
# 
# From -- ./inp_files/58191.got.cif
#   From: 2010.05.17/outbox.cif.g08.bks.cpg/sg5_30_cif.got.tgz:58191.got - 2010.06.03 18:56:24.
