data_PCOD9125704
_publ_section_title
;
Structure prediction by ZEFSAII (Michael W. Deem and Ramdas Pophale) SiO2 
 PCOD9125704
Probable space group: C 2
;
_chemical_formula_sum "Si O2"
_cell_formula_units_Z 24
_cell_length_a 25.107613
_cell_length_b 5.083848
_cell_length_c 16.357239
_cell_angle_alpha 90.000000
_cell_angle_beta 150.476030
_cell_angle_gamma 90.000000
_cell_volume 1028.887248
_symmetry_space_group_name_H-M "C 2"
_symmetry_group_IT_number 5
_symmetry_cell_setting 'monoclinic'
loop_
_space_group_symop_operation_xyz
x,y,z
-x,y,-z
1/2+x,1/2+y,z
1/2-x,1/2+y,-z
loop_
_atom_site_type_symbol
_atom_site_label
_atom_site_fract_x
_atom_site_fract_y
_atom_site_fract_z
Si Si1 0.234682 0.842680 0.032127
Si Si2 0.491730 0.353405 0.757157
Si Si3 0.327231 0.905885 0.802047
Si Si4 0.953931 0.373296 0.808892
Si Si5 0.345689 0.110259 0.331047
Si Si6 0.393230 0.612995 0.465222
O O1 0.311540 0.971994 0.202427
O O2 0.276459 0.569957 0.051091
O O3 0.117901 0.791057 0.915013
O O4 0.473453 0.588317 0.796741
O O5 0.451115 0.471152 0.617216
O O6 0.433232 0.090874 0.711484
O O7 0.363285 0.858577 0.757547
O O8 0.262975 0.670787 0.761273
O O9 0.234244 0.124968 0.681102
O O10 0.435304 0.960981 0.997531
O O11 0.423592 0.906669 0.482052
O O12 0.393113 0.403280 0.391017
#
# Coordination Sequence:
#
# PCOD9125704 Si02
#       6
#     4   4   4   4   4   4
#     4  12  25  44  70  92 121 166 221 276 331 378
#     4  12  24  42  61  98 129 164 216 274 312 380
#     4   9  23  38  65  94 127 178 207 250 320 381
#     4  11  23  37  67  93 132 168 220 254 308 385
#     4  10  21  43  62  89 128 169 208 261 316 387
#     4  10  22  39  65  87 138 167 202 259 329 372
#
# _framework density 23.326172
#
# number of rings (size 3 to 8) (size 9 to 14) (size 15 to 20)
#    1.000    0.333    1.667    4.000    2.333    2.667 
#    0.000    5.000    0.000    0.000    0.000    0.000 
#    0.000    0.000    0.000    0.000    0.000    0.000 
#
# Total GULP energy -67047.095947 kJ/mol
# GULP energy per Si atom -5587.257996 kJ/mol
# Density = 2.327308 g / cm^3
# Si number density = 23.326172 Si / 1000 Ang^3
#
#
#
# Elastic Constant Matrix: (Units=GPa)
#
#
# Indices 1 2 3 4 5 6 
#
# 1 94.9831 33.2154 13.0091 -0.0001 10.4325 0.0000
# 2 33.2154 84.4909 -16.4856 -0.0003 -0.1350 0.0007
# 3 13.0091 -16.4856 38.4659 0.0005 -3.3028 -0.0001
# 4 -0.0001 -0.0003 0.0005 26.8849 -0.0004 -4.9183
# 5 10.4325 -0.1350 -3.3028 -0.0004 30.8628 0.0001
# 6 0.0000 0.0007 -0.0001 -4.9183 0.0001 16.4006
#
#
#
# Elastic Compliance Matrix: (Units=1/GPa)
#
#
# Indices 1 2 3 4 5 6 
#
# 1 0.015111 -0.007693 -0.008931 0.000000 -0.006098 0.000000
# 2 -0.007693 0.016845 0.010144 0.000000 0.003760 -0.000001
# 3 -0.008931 0.010144 0.033940 0.000000 0.006696 0.000000
# 4 0.000000 0.000000 0.000000 0.039355 0.000000 0.011802
# 5 -0.006098 0.003760 0.006696 0.000000 0.035196 0.000000
# 6 0.000000 -0.000001 0.000000 0.011802 0.000000 0.064513
#
#
# Mechanical properties :
#
#
# Convention : Reuss Voigt Hill
#
# Bulk Modulus (GPa) = 18.89067 30.82417 24.85742
# Shear Modulus (GPa) = 21.22555 27.37640 24.30097
#
# Velocity S-wave (km/s) = 3.01980 3.42955 3.23118
# Velocity P-wave (km/s) = 4.50278 5.37825 4.95987
#
# Compressibility (1/GPa) = 0.05293619
#
# Stress axis : x y z
#
# Youngs Moduli (GPa) = 66.17523 59.36409 29.46373
#
# Poissons Ratio (x) = 0.45669 0.26315
# Poissons Ratio (y) = 0.50909 -0.29888
# Poissons Ratio (z) = 0.59103 -0.60219
#
# Static dielectric constant tensor:
#      x y z
#    x 1.981700 0.000000 0.029190 
#    y 0.000000 1.862620 0.000000 
#    z 0.029190 0.000000 1.929290 
# 
# From -- ./inp_files/57406.got.cif
#   From: 2010.05.17/outbox.cif.g08.bks.cpg/sg5_29_cif.got.tgz:57406.got - 2010.06.03 18:56:24.
