data_PCOD9125690
_publ_section_title
;
Structure prediction by ZEFSAII (Michael W. Deem and Ramdas Pophale) SiO2 
 PCOD9125690
Probable space group: C 2
;
_chemical_formula_sum "Si O2"
_cell_formula_units_Z 20
_cell_length_a 13.172421
_cell_length_b 6.926499
_cell_length_c 9.302600
_cell_angle_alpha 90.000000
_cell_angle_beta 98.649587
_cell_angle_gamma 90.000000
_cell_volume 839.104431
_symmetry_space_group_name_H-M "C 2"
_symmetry_group_IT_number 5
_symmetry_cell_setting 'monoclinic'
loop_
_space_group_symop_operation_xyz
x,y,z
-x,y,-z
1/2+x,1/2+y,z
1/2-x,1/2+y,-z
loop_
_atom_site_type_symbol
_atom_site_label
_atom_site_fract_x
_atom_site_fract_y
_atom_site_fract_z
Si Si1 0.823076 0.301300 0.352542
Si Si2 0.856127 0.101565 0.646716
Si Si3 0.594107 0.861149 0.920596
Si Si4 0.959796 0.925725 0.136618
Si Si5 0.751815 0.421157 0.817768
O O1 0.876966 0.197846 0.497632
O O2 0.741878 0.460237 0.386694
O O3 0.900511 0.387699 0.249709
O O4 0.759889 0.128421 0.260305
O O5 0.824054 0.276135 0.745205
O O6 0.949689 0.982597 0.735862
O O7 0.588733 0.628089 0.929402
O O8 0.500000 0.926449 0.000000
O O9 0.697213 0.938030 0.015098
O O10 0.862425 0.832344 0.192784
O O11 0.000000 0.829100 0.000000
#
# Coordination Sequence:
#
# PCOD9125690 Si02
#       5
#     4   4   4   4   4
#     4  11  26  43  73 104 141 192 238 302 357 438
#     4  12  23  48  70 105 149 185 242 298 365 429
#     4  10  21  43  70 101 137 188 237 294 360 412
#     4  10  21  42  73 103 142 195 234 301 358 420
#     4  11  23  45  70 100 144 189 240 291 363 427
#
# _framework density 23.834937
#
# number of rings (size 3 to 8) (size 9 to 14) (size 15 to 20)
#    0.000    1.200    6.000    1.200    2.800    3.200 
#    3.600    0.000    0.000    0.000    0.000    0.000 
#    0.000    0.000    0.000    0.000    0.000    0.000 
#
# Total GULP energy -55920.525932 kJ/mol
# GULP energy per Si atom -5592.052593 kJ/mol
# Density = 2.378069 g / cm^3
# Si number density = 23.834937 Si / 1000 Ang^3
#
#
#
# Elastic Constant Matrix: (Units=GPa)
#
#
# Indices 1 2 3 4 5 6 
#
# 1 140.0153 8.5071 63.3568 0.0000 -12.5683 0.0000
# 2 8.5071 85.0968 17.6841 0.0000 -4.9538 0.0000
# 3 63.3568 17.6841 174.3358 0.0000 -12.5892 0.0000
# 4 0.0000 0.0000 0.0000 16.4237 0.0000 14.6523
# 5 -12.5683 -4.9538 -12.5892 0.0000 34.7842 0.0000
# 6 0.0000 0.0000 0.0000 14.6523 0.0000 0.0441
#
#
#
# Elastic Compliance Matrix: (Units=1/GPa)
#
#
# Indices 1 2 3 4 5 6 
#
# 1 0.008689 -0.000127 -0.002998 0.000000 0.002036 0.000000
# 2 -0.000127 0.012064 -0.001085 0.000000 0.001279 0.000000
# 3 -0.002998 -0.001085 0.007030 0.000000 0.001307 0.000000
# 4 0.000000 0.000000 0.000000 -0.000206 0.000000 0.068480
# 5 0.002036 0.001279 0.001307 0.000000 0.030140 0.000000
# 6 0.000000 0.000000 0.000000 0.068480 0.000000 -0.076758
#
#
# Mechanical properties :
#
#
# Convention : Reuss Voigt Hill
#
# Bulk Modulus (GPa) = 51.64519 64.28267 57.96393
# Shear Modulus (GPa) = -1199.86829 30.91040 -584.47895
#
# Velocity S-wave (km/s) = -22.46108 3.60509 -15.67647
# Velocity P-wave (km/s) = 25.51376 6.66013 17.41543
#
# Compressibility (1/GPa) = 0.01936289
#
# Stress axis : x y z
#
# Youngs Moduli (GPa) = 115.08651 82.89117 142.24859
#
# Poissons Ratio (x) = 0.01054 0.42644
# Poissons Ratio (y) = 0.01463 0.15436
# Poissons Ratio (z) = 0.34501 0.08995
#
# Static dielectric constant tensor:
#      x y z
#    x 2.001450 0.000000 -0.057500 
#    y 0.000000 1.920680 0.000000 
#    z -0.057500 0.000000 1.923950 
# 
# From -- ./inp_files/18369.got.cif
#   From: 2010.05.17/outbox.cif.g08.bks.cpg/sg5_10_cif.got.tgz:18369.got - 2010.06.03 18:56:24.
