data_PCOD9125910
_publ_section_title
;
Structure prediction by ZEFSAII (Michael W. Deem and Ramdas Pophale) SiO2 
 PCOD9125910
Probable space group: C 2
;
_chemical_formula_sum "Si O2"
_cell_formula_units_Z 28
_cell_length_a 22.681468
_cell_length_b 7.336382
_cell_length_c 11.809812
_cell_angle_alpha 90.000000
_cell_angle_beta 143.939150
_cell_angle_gamma 90.000000
_cell_volume 1156.774997
_symmetry_space_group_name_H-M "C 2"
_symmetry_group_IT_number 5
_symmetry_cell_setting 'monoclinic'
loop_
_space_group_symop_operation_xyz
x,y,z
-x,y,-z
1/2+x,1/2+y,z
1/2-x,1/2+y,-z
loop_
_atom_site_type_symbol
_atom_site_label
_atom_site_fract_x
_atom_site_fract_y
_atom_site_fract_z
Si Si1 0.913594 0.295630 0.436271
Si Si2 0.171415 0.361030 0.087728
Si Si3 0.109493 0.739590 0.925782
Si Si4 0.991813 0.086028 0.205949
Si Si5 0.150164 0.242523 0.290306
Si Si6 0.249075 0.399645 0.666319
Si Si7 0.378923 0.419223 0.294867
O O1 0.842830 0.433523 0.390899
O O2 0.868441 0.141120 0.282686
O O3 0.000000 0.390845 0.500000
O O4 0.954435 0.164958 0.600136
O O5 0.149100 0.388841 0.187432
O O6 0.289488 0.363574 0.242096
O O7 0.118713 0.172909 0.968549
O O8 0.112097 0.521524 0.928399
O O9 0.012227 0.866970 0.798774
O O10 0.145682 0.823729 0.862773
O O11 0.178872 0.784356 0.141356
O O12 0.047495 0.170232 0.184788
O O13 0.212252 0.297588 0.497019
O O14 0.201949 0.077586 0.306523
O O15 0.500000 0.382480 0.500000
#
# Coordination Sequence:
#
# PCOD9125910 Si02
#       7
#     4   4   4   4   4   4   4
#     4  10  21  46  73 105 154 195 244 305 383 438
#     4  12  27  47  75 113 148 194 261 302 371 460
#     4  12  25  45  77 110 144 200 247 305 380 441
#     4  11  25  50  75 107 154 197 239 319 371 438
#     4  11  26  50  73 109 159 196 258 309 376 443
#     4  11  24  44  77 107 145 207 242 310 373 440
#     4  11  25  46  75 105 154 193 242 315 379 444
#
# _framework density 24.205224999999999
#
# number of rings (size 3 to 8) (size 9 to 14) (size 15 to 20)
#    0.000    0.857    5.714    1.286    6.000    0.000 
#   15.429    0.000    0.000    0.000    0.000    0.000 
#    0.000    0.000    0.000    0.000    0.000    0.000 
#
# Total GULP energy -78165.820179 kJ/mol
# GULP energy per Si atom -5583.272870 kJ/mol
# Density = 2.415013 g / cm^3
# Si number density = 24.205225 Si / 1000 Ang^3
#
#
#
# Elastic Constant Matrix: (Units=GPa)
#
#
# Indices 1 2 3 4 5 6 
#
# 1 194.7939 41.2096 37.5004 0.0000 -0.1982 0.0000
# 2 41.2096 71.3923 19.9495 0.0000 7.0018 0.0000
# 3 37.5004 19.9495 69.1411 0.0000 -7.6137 0.0000
# 4 0.0000 0.0000 0.0000 31.8352 0.0000 -0.5394
# 5 -0.1982 7.0018 -7.6137 0.0000 50.5790 0.0000
# 6 0.0000 0.0000 0.0000 -0.5394 0.0000 34.7612
#
#
#
# Elastic Compliance Matrix: (Units=1/GPa)
#
#
# Indices 1 2 3 4 5 6 
#
# 1 0.006235 -0.002893 -0.002542 0.000000 0.000042 0.000000
# 2 -0.002893 0.016983 -0.003652 0.000000 -0.002912 0.000000
# 3 -0.002542 -0.003652 0.017236 0.000000 0.003090 0.000000
# 4 0.000000 0.000000 0.000000 0.031420 0.000000 0.000488
# 5 0.000042 -0.002912 0.003090 0.000000 0.020640 0.000000
# 6 0.000000 0.000000 0.000000 0.000488 0.000000 0.028775
#
#
# Mechanical properties :
#
#
# Convention : Reuss Voigt Hill
#
# Bulk Modulus (GPa) = 44.88330 59.18293 52.03311
# Shear Modulus (GPa) = 34.03912 39.21292 36.62602
#
# Velocity S-wave (km/s) = 3.75410 4.02931 3.89414
# Velocity P-wave (km/s) = 6.11343 6.79343 6.46238
#
# Compressibility (1/GPa) = 0.02228000
#
# Stress axis : x y z
#
# Youngs Moduli (GPa) = 160.38208 58.88256 58.01775
#
# Poissons Ratio (x) = 0.17033 0.14751
# Poissons Ratio (y) = 0.46395 0.21187
# Poissons Ratio (z) = 0.40777 0.21503
#
# Static dielectric constant tensor:
#      x y z
#    x 1.961120 0.000000 0.003710 
#    y 0.000000 2.077680 0.000000 
#    z 0.003710 0.000000 2.043410 
# 
# From -- ./inp_files/47452.got.cif
#   From: 2010.05.17/outbox.cif.g08.bks.cpg/sg5_24_cif.got.tgz:47452.got - 2010.06.03 18:56:24.
