data_PCOD9125056
_publ_section_title
;
Structure prediction by ZEFSAII (Michael W. Deem and Ramdas Pophale) SiO2 
 PCOD9125056
Probable space group: C 2
;
_chemical_formula_sum "Si O2"
_cell_formula_units_Z 24
_cell_length_a 18.815087
_cell_length_b 5.282269
_cell_length_c 25.182050
_cell_angle_alpha 90.000000
_cell_angle_beta 157.287662
_cell_angle_gamma 90.000000
_cell_volume 966.324310
_symmetry_space_group_name_H-M "C 2"
_symmetry_group_IT_number 5
_symmetry_cell_setting 'monoclinic'
loop_
_space_group_symop_operation_xyz
x,y,z
-x,y,-z
1/2+x,1/2+y,z
1/2-x,1/2+y,-z
loop_
_atom_site_type_symbol
_atom_site_label
_atom_site_fract_x
_atom_site_fract_y
_atom_site_fract_z
Si Si1 0.470098 0.179230 0.310999
Si Si2 0.925334 0.058490 0.185848
Si Si3 0.854984 0.867065 0.938155
Si Si4 0.282859 0.626009 0.350345
Si Si5 0.927673 0.115641 0.825120
Si Si6 0.247827 0.933653 0.560443
O O1 0.425926 0.315965 0.224770
O O2 0.536364 0.365305 0.402632
O O3 0.657646 0.029840 0.427951
O O4 0.304727 0.991892 0.207517
O O5 0.115613 0.210088 0.327569
O O6 0.752526 0.209462 0.091315
O O7 0.928939 0.053425 0.124590
O O8 0.967515 0.080682 0.047452
O O9 0.000000 0.727616 0.000000
O O10 0.500000 0.579386 0.500000
O O11 0.221811 0.889890 0.282820
O O12 0.239462 0.632798 0.383312
O O13 0.166798 0.388965 0.247272
#
# Coordination Sequence:
#
# PCOD9125056 Si02
#       6
#     4   4   4   4   4   4
#     4  11  21  41  69  99 138 182 241 305 364 441
#     4  10  23  42  71  96 137 192 247 298 357 444
#     4  11  29  45  68 109 148 198 243 309 386 440
#     4  11  25  45  74 107 142 195 241 315 371 437
#     4  11  26  48  73 105 150 191 261 292 375 458
#     4  10  21  39  66 104 134 181 245 299 365 427
#
# _framework density 24.836383000000001
#
# number of rings (size 3 to 8) (size 9 to 14) (size 15 to 20)
#    0.000    1.333    3.333    0.500    7.000    2.000 
#    0.000    0.000    0.000    0.000    0.000    0.000 
#    0.000    0.000    0.000    0.000    0.000    0.000 
#
# Total GULP energy -67078.192541 kJ/mol
# GULP energy per Si atom -5589.849378 kJ/mol
# Density = 2.477985 g / cm^3
# Si number density = 24.836383 Si / 1000 Ang^3
#
#
#
# Elastic Constant Matrix: (Units=GPa)
#
#
# Indices 1 2 3 4 5 6 
#
# 1 74.3718 1.5043 32.8785 -0.0035 9.6682 -0.0025
# 2 1.5043 64.3054 11.7822 -0.0073 6.1068 -0.0006
# 3 32.8785 11.7822 91.5514 -0.0065 11.3733 -0.0049
# 4 -0.0035 -0.0073 -0.0065 29.7841 0.0018 -4.5805
# 5 9.6682 6.1068 11.3733 0.0018 35.5179 0.0018
# 6 -0.0025 -0.0006 -0.0049 -4.5805 0.0018 18.0567
#
#
#
# Elastic Compliance Matrix: (Units=1/GPa)
#
#
# Indices 1 2 3 4 5 6 
#
# 1 0.016272 0.000913 -0.005615 0.000001 -0.002788 0.000001
# 2 0.000913 0.016140 -0.002113 0.000004 -0.002347 0.000001
# 3 -0.005615 -0.002113 0.013514 0.000002 -0.002436 0.000004
# 4 0.000001 0.000004 0.000002 0.034938 -0.000004 0.008863
# 5 -0.002788 -0.002347 -0.002436 -0.000004 0.030097 -0.000005
# 6 0.000001 0.000001 0.000004 0.008863 -0.000005 0.057629
#
#
# Mechanical properties :
#
#
# Convention : Reuss Voigt Hill
#
# Bulk Modulus (GPa) = 30.96469 35.83986 33.40228
# Shear Modulus (GPa) = 25.90865 28.94265 27.42565
#
# Velocity S-wave (km/s) = 3.23332 3.41740 3.32664
# Velocity P-wave (km/s) = 5.14137 5.48026 5.31352
#
# Compressibility (1/GPa) = 0.03229484
#
# Stress axis : x y z
#
# Youngs Moduli (GPa) = 61.45445 61.95969 73.99832
#
# Poissons Ratio (x) = -0.05656 0.41549
# Poissons Ratio (y) = -0.05610 0.15639
# Poissons Ratio (z) = 0.34506 0.13095
#
# Static dielectric constant tensor:
#      x y z
#    x 1.991760 0.000000 -0.002740 
#    y 0.000000 2.002530 0.000000 
#    z -0.002740 0.000000 1.983260 
# 
# From -- ./inp_files/72195.got.cif
#   From: 2010.05.17/outbox.cif.g08.bks.cpg/sg5_37_cif.got.tgz:72195.got - 2010.06.03 18:56:24.
