data_PCOD9125358
_publ_section_title
;
Structure prediction by ZEFSAII (Michael W. Deem and Ramdas Pophale) SiO2 
 PCOD9125358
Probable space group: C 2
;
_chemical_formula_sum "Si O2"
_cell_formula_units_Z 24
_cell_length_a 11.430221
_cell_length_b 8.832331
_cell_length_c 11.461773
_cell_angle_alpha 90.000000
_cell_angle_beta 99.172099
_cell_angle_gamma 90.000000
_cell_volume 1142.333924
_symmetry_space_group_name_H-M "C 2"
_symmetry_group_IT_number 5
_symmetry_cell_setting 'monoclinic'
loop_
_space_group_symop_operation_xyz
x,y,z
-x,y,-z
1/2+x,1/2+y,z
1/2-x,1/2+y,-z
loop_
_atom_site_type_symbol
_atom_site_label
_atom_site_fract_x
_atom_site_fract_y
_atom_site_fract_z
Si Si1 0.366830 0.818390 0.435166
Si Si2 0.660520 0.439594 0.844527
Si Si3 0.944506 0.129452 0.863338
Si Si4 0.203622 0.612310 0.943326
Si Si5 0.781727 0.517514 0.635621
Si Si6 0.019788 0.443580 0.770759
O O1 0.500000 0.778161 0.500000
O O2 0.290670 0.669391 0.399814
O O3 0.304839 0.920721 0.523345
O O4 0.390179 0.910883 0.320347
O O5 0.526949 0.500504 0.822027
O O6 0.672036 0.288114 0.922502
O O7 0.709639 0.424519 0.722437
O O8 0.742339 0.564158 0.924004
O O9 0.810183 0.085689 0.867655
O O10 0.961156 0.283074 0.794672
O O11 0.000000 0.159117 0.000000
O O12 0.091534 0.512925 0.889354
O O13 0.912578 0.547732 0.709428
#
# Coordination Sequence:
#
# PCOD9125358 Si02
#       6
#     4   4   4   4   4   4
#     4  10  25  46  66  93 129 173 222 273 323 376
#     4  11  23  42  67  97 134 174 214 262 330 385
#     4  10  21  41  62  93 134 173 208 258 318 388
#     4  11  24  41  65  99 136 171 211 264 325 397
#     4  11  24  45  69  95 128 172 220 272 325 380
#     4  11  23  42  70  93 133 171 214 270 328 383
#
# _framework density 21.009618
#
# number of rings (size 3 to 8) (size 9 to 14) (size 15 to 20)
#    0.000    1.333    3.333    2.000    2.333    1.333 
#    9.000    0.000    0.000    0.000    0.000    0.000 
#    0.000    0.000    0.000    0.000    0.000    0.000 
#
# Total GULP energy -67084.995741 kJ/mol
# GULP energy per Si atom -5590.416312 kJ/mol
# Density = 2.096180 g / cm^3
# Si number density = 21.009618 Si / 1000 Ang^3
#
#
#
# Elastic Constant Matrix: (Units=GPa)
#
#
# Indices 1 2 3 4 5 6 
#
# 1 80.6254 47.5632 16.4115 0.0000 0.4831 0.0000
# 2 47.5632 51.2742 -7.4608 0.0000 -6.2761 0.0000
# 3 16.4115 -7.4608 50.6620 0.0000 -29.4476 0.0000
# 4 0.0000 0.0000 0.0000 25.9315 0.0000 0.6044
# 5 0.4831 -6.2761 -29.4476 0.0000 35.9925 0.0000
# 6 0.0000 0.0000 0.0000 0.6044 0.0000 38.0724
#
#
#
# Elastic Compliance Matrix: (Units=1/GPa)
#
#
# Indices 1 2 3 4 5 6 
#
# 1 43.569500-54.811037-53.544867 0.000000-53.950588 0.000000
# 2 -54.811037 68.975668 67.370912 0.000000 67.883308 0.000000
# 3 -53.544867 67.370912 65.846846 0.000000 66.339559 0.000000
# 4 0.000000 0.000000 0.000000 0.038577 0.000000 -0.000612
# 5 -53.950588 67.883308 66.339559 0.000000 66.865254 0.000000
# 6 0.000000 0.000000 0.000000 -0.000612 0.000000 0.026275
#
#
# Mechanical properties :
#
#
# Convention : Reuss Voigt Hill
#
# Bulk Modulus (GPa) = 0.01037 32.84327 16.42682
# Shear Modulus (GPa) = 0.01391 28.40245 14.20818
#
# Velocity S-wave (km/s) = 0.08146 3.68078 2.60334
# Velocity P-wave (km/s) = 0.11745 5.80781 4.10758
#
# Compressibility (1/GPa) = 96.42202828
#
# Stress axis : x y z
#
# Youngs Moduli (GPa) = 0.02295 0.01450 0.01519
#
# Poissons Ratio (x) = 0.79464 0.81317
# Poissons Ratio (y) = 1.25801 -1.02315
# Poissons Ratio (z) = 1.22895 -0.97673
#
# Static dielectric constant tensor:
#      x y z
#    x 1.769040 0.000000 -0.005960 
#    y 0.000000 1.732060 0.000000 
#    z -0.005960 0.000000 1.751850 
# 
# From -- ./inp_files/38328.got.cif
#   From: 2010.05.17/outbox.cif.g08.bks.cpg/sg5_20_cif.got.tgz:38328.got - 2010.06.03 18:56:24.
