data_PCOD9125393
_publ_section_title
;
Structure prediction by ZEFSAII (Michael W. Deem and Ramdas Pophale) SiO2 
 PCOD9125393
Probable space group: C 2
;
_chemical_formula_sum "Si O2"
_cell_formula_units_Z 32
_cell_length_a 14.660134
_cell_length_b 7.361337
_cell_length_c 15.825447
_cell_angle_alpha 90.000000
_cell_angle_beta 122.468873
_cell_angle_gamma 90.000000
_cell_volume 1440.887378
_symmetry_space_group_name_H-M "C 2"
_symmetry_group_IT_number 5
_symmetry_cell_setting 'monoclinic'
loop_
_space_group_symop_operation_xyz
x,y,z
-x,y,-z
1/2+x,1/2+y,z
1/2-x,1/2+y,-z
loop_
_atom_site_type_symbol
_atom_site_label
_atom_site_fract_x
_atom_site_fract_y
_atom_site_fract_z
Si Si1 0.799569 0.013790 0.647168
Si Si2 0.414234 0.923998 0.149319
Si Si3 0.565557 0.998410 0.457648
Si Si4 0.497849 0.665407 0.330363
Si Si5 0.108154 0.631022 0.290515
Si Si6 0.232378 0.986953 0.182363
Si Si7 0.767736 0.055526 0.239488
Si Si8 0.125410 0.300686 0.049239
O O1 0.876129 0.120452 0.620612
O O2 0.686588 0.961658 0.549291
O O3 0.875562 0.843490 0.705539
O O4 0.769701 0.080249 0.726375
O O5 0.466231 0.754328 0.224666
O O6 0.337723 0.022912 0.178396
O O7 0.513504 0.058867 0.183110
O O8 0.353068 0.850920 0.037456
O O9 0.500000 0.097624 0.500000
O O10 0.496458 0.818832 0.401810
O O11 0.579494 0.088029 0.372829
O O12 0.397536 0.533700 0.300567
O O13 0.217536 0.540545 0.308565
O O14 0.238740 0.766726 0.197536
O O15 0.140708 0.090134 0.083445
O O16 0.705063 0.920623 0.146373
O O17 0.000000 0.348081 0.000000
#
# Coordination Sequence:
#
# PCOD9125393 Si02
#       8
#     4   4   4   4   4   4   4   4
#     4  11  22  41  66 101 128 178 224 276 342 407
#     4  10  22  42  62  93 133 176 221 277 333 393
#     4  11  22  42  69  94 135 175 221 274 347 409
#     4  10  23  42  67  94 136 175 220 282 335 398
#     4  10  21  41  64  93 134 173 216 282 335 393
#     4  10  25  42  64  96 136 174 224 279 340 392
#     4  10  23  45  64  97 139 177 222 281 336 397
#     4  12  24  42  67  97 134 185 229 278 332 403
#
# _framework density 22.208538000000001
#
# number of rings (size 3 to 8) (size 9 to 14) (size 15 to 20)
#    0.000    1.500    1.250    4.500    7.000    0.500 
#    2.250    0.625    0.000    0.000    0.000    0.000 
#    0.000    0.000    0.000    0.000    0.000    0.000 
#
# Total GULP energy -89195.691737 kJ/mol
# GULP energy per Si atom -5574.730734 kJ/mol
# Density = 2.215799 g / cm^3
# Si number density = 22.208538 Si / 1000 Ang^3
#
#
#
# Elastic Constant Matrix: (Units=GPa)
#
#
# Indices 1 2 3 4 5 6 
#
# 1 125.3227 7.8956 34.0243 0.0000 -1.6097 0.0000
# 2 7.8956 26.1517 15.0419 0.0000 -0.9672 0.0000
# 3 34.0243 15.0419 97.0524 0.0000 -9.1169 0.0000
# 4 0.0000 0.0000 0.0000 22.9182 0.0000 9.4771
# 5 -1.6097 -0.9672 -9.1169 0.0000 35.2138 0.0000
# 6 0.0000 0.0000 0.0000 9.4771 0.0000 25.2491
#
#
#
# Elastic Compliance Matrix: (Units=1/GPa)
#
#
# Indices 1 2 3 4 5 6 
#
# 1 0.008847 -0.000966 -0.002989 0.000000 -0.000396 0.000000
# 2 -0.000966 0.042097 -0.006233 0.000000 -0.000502 0.000000
# 3 -0.002989 -0.006233 0.012595 0.000000 0.002953 0.000000
# 4 0.000000 0.000000 0.000000 0.051650 0.000000 -0.019387
# 5 -0.000396 -0.000502 0.002953 0.000000 0.029131 0.000000
# 6 0.000000 0.000000 0.000000 -0.019387 0.000000 0.046882
#
#
# Mechanical properties :
#
#
# Convention : Reuss Voigt Hill
#
# Bulk Modulus (GPa) = 23.16845 40.27226 31.72036
# Shear Modulus (GPa) = 22.12735 29.44722 25.78729
#
# Velocity S-wave (km/s) = 3.15992 3.64530 3.41125
# Velocity P-wave (km/s) = 4.87528 5.99088 5.46164
#
# Compressibility (1/GPa) = 0.04316214
#
# Stress axis : x y z
#
# Youngs Moduli (GPa) = 113.03707 23.75484 79.39697
#
# Poissons Ratio (x) = 0.02296 0.23730
# Poissons Ratio (y) = 0.10924 0.49486
# Poissons Ratio (z) = 0.33785 0.14806
#
# Static dielectric constant tensor:
#      x y z
#    x 1.929760 0.000000 -0.038230 
#    y 0.000000 1.883090 0.000000 
#    z -0.038230 0.000000 1.803780 
# 
# From -- ./inp_files/54197.got.cif
#   From: 2010.05.17/outbox.cif.g08.bks.cpg/sg5_28_cif.got.tgz:54197.got - 2010.06.03 18:56:24.
