data_PCOD9125348
_publ_section_title
;
Structure prediction by ZEFSAII (Michael W. Deem and Ramdas Pophale) SiO2 
 PCOD9125348
Probable space group: C 2
;
_chemical_formula_sum "Si O2"
_cell_formula_units_Z 30
_cell_length_a 15.696134
_cell_length_b 9.523436
_cell_length_c 25.740314
_cell_angle_alpha 90.000000
_cell_angle_beta 158.689657
_cell_angle_gamma 90.000000
_cell_volume 1398.325663
_symmetry_space_group_name_H-M "C 2"
_symmetry_group_IT_number 5
_symmetry_cell_setting 'monoclinic'
loop_
_space_group_symop_operation_xyz
x,y,z
-x,y,-z
1/2+x,1/2+y,z
1/2-x,1/2+y,-z
loop_
_atom_site_type_symbol
_atom_site_label
_atom_site_fract_x
_atom_site_fract_y
_atom_site_fract_z
Si Si1 0.593981 0.325480 0.838682
Si Si2 0.549355 0.668420 0.087301
Si Si3 0.620905 0.093500 0.012612
Si Si4 0.075092 0.714861 0.370656
Si Si5 0.663853 0.898555 0.397601
Si Si6 0.500000 0.430814 0.500000
Si Si7 0.620721 0.090733 0.226317
Si Si8 0.760482 0.408513 0.091441
O O1 0.661565 0.487701 0.872125
O O2 0.495188 0.275462 0.726254
O O3 0.417519 0.252838 0.778938
O O4 0.844653 0.256163 0.998492
O O5 0.819061 0.696031 0.253013
O O6 0.500000 0.716066 0.000000
O O7 0.469040 0.506447 0.041610
O O8 0.703495 0.249870 0.046571
O O9 0.500000 0.082782 0.000000
O O10 0.421924 0.061638 0.857577
O O11 0.248133 0.808069 0.503809
O O12 0.187281 0.562489 0.425178
O O13 0.397294 0.895857 0.224340
O O14 0.819629 0.852899 0.435757
O O15 0.362142 0.531698 0.383031
O O16 0.434548 0.995447 0.152980
#
# Coordination Sequence:
#
# PCOD9125348 Si02
#       8
#     4   4   4   4   4   2   4   4
#     4  10  21  41  61  95 128 174 214 269 331 395
#     4   9  16  37  62  84 125 169 213 248 333 392
#     4  12  25  35  67 106 128 153 225 285 314 382
#     4  11  22  40  67  97 130 177 214 282 331 400
#     4  11  24  41  67  93 134 174 220 273 335 398
#     4  10  22  44  64  90 128 184 218 246 342 410
#     4  10  22  45  66  85 132 182 210 262 334 408
#     4  10  21  43  63  93 131 175 213 267 337 395
#
# _framework density 21.454229999999999
#
# number of rings (size 3 to 8) (size 9 to 14) (size 15 to 20)
#    0.000    1.600    5.333    2.400    5.600    0.000 
#    2.400    0.000    0.000    1.600    0.000    0.000 
#    0.000    0.000    0.000    0.000    0.000    0.000 
#
# Total GULP energy -83626.645827 kJ/mol
# GULP energy per Si atom -5575.109722 kJ/mol
# Density = 2.140540 g / cm^3
# Si number density = 21.454230 Si / 1000 Ang^3
#
#
#
# Elastic Constant Matrix: (Units=GPa)
#
#
# Indices 1 2 3 4 5 6 
#
# 1 47.9351 -7.7922 28.7005 0.0051 -28.8781 0.0011
# 2 -7.7922 95.3714 20.7912 0.0085 -20.7198 0.0003
# 3 28.7005 20.7912 77.5566 0.0406 -27.5942 -0.0034
# 4 0.0051 0.0085 0.0406 24.1054 -0.0072 -15.3253
# 5 -28.8781 -20.7198 -27.5942 -0.0072 41.7627 -0.0009
# 6 0.0011 0.0003 -0.0034 -15.3253 -0.0009 1.0042
#
#
#
# Elastic Compliance Matrix: (Units=1/GPa)
#
#
# Indices 1 2 3 4 5 6 
#
# 1 0.050054 0.013827 -0.009772 0.000003 0.035015 -0.000013
# 2 0.013827 0.015690 -0.004120 0.000001 0.014623 -0.000003
# 3 -0.009772 -0.004120 0.018934 -0.000003 0.003710 0.000039
# 4 0.000003 0.000001 -0.000003 -0.004767 -0.000001 -0.072750
# 5 0.035015 0.014623 0.003710 -0.000001 0.057863 0.000000
# 6 -0.000013 -0.000003 0.000039 -0.072750 0.000000 -0.114429
#
#
# Mechanical properties :
#
#
# Convention : Reuss Voigt Hill
#
# Bulk Modulus (GPa) = 11.82742 33.80691 22.81716
# Shear Modulus (GPa) = 96.78979 25.31872 61.05425
#
# Velocity S-wave (km/s) = 6.72402 3.43902 5.34038
# Velocity P-wave (km/s) = 8.11222 5.61793 6.97744
#
# Compressibility (1/GPa) = 0.08454928
#
# Stress axis : x y z
#
# Youngs Moduli (GPa) = 19.97826 63.73412 52.81436
#
# Poissons Ratio (x) = -0.88125 0.51608
# Poissons Ratio (y) = -0.27624 0.21760
# Poissons Ratio (z) = 0.19522 0.26260
#
# Static dielectric constant tensor:
#      x y z
#    x 1.863010 0.000000 0.047100 
#    y 0.000000 1.803110 -0.000010 
#    z 0.047100 -0.000010 1.808130 
# 
# From -- ./inp_files/72122.got.cif
#   From: 2010.05.17/outbox.cif.g08.bks.cpg/sg5_37_cif.got.tgz:72122.got - 2010.06.03 18:56:24.
