data_PCOD9125034
_publ_section_title
;
Structure prediction by ZEFSAII (Michael W. Deem and Ramdas Pophale) SiO2 
 PCOD9125034
Probable space group: C 2
;
_chemical_formula_sum "Si O2"
_cell_formula_units_Z 32
_cell_length_a 29.035645
_cell_length_b 8.712298
_cell_length_c 22.990789
_cell_angle_alpha 90.000000
_cell_angle_beta 163.390637
_cell_angle_gamma 90.000000
_cell_volume 1662.450132
_symmetry_space_group_name_H-M "C 2"
_symmetry_group_IT_number 5
_symmetry_cell_setting 'monoclinic'
loop_
_space_group_symop_operation_xyz
x,y,z
-x,y,-z
1/2+x,1/2+y,z
1/2-x,1/2+y,-z
loop_
_atom_site_type_symbol
_atom_site_label
_atom_site_fract_x
_atom_site_fract_y
_atom_site_fract_z
Si Si1 0.821725 0.238780 0.295254
Si Si2 0.200501 0.053491 0.364257
Si Si3 0.729927 0.970138 0.679448
Si Si4 0.259926 0.425978 0.158352
Si Si5 0.896716 0.919242 0.057425
Si Si6 0.891411 0.637112 0.258016
Si Si7 0.552555 0.741770 0.002218
Si Si8 0.062905 0.621837 0.824328
O O1 0.779163 0.297029 0.307807
O O2 0.000000 0.303179 0.500000
O O3 0.826798 0.067124 0.277344
O O4 0.685696 0.323572 0.093645
O O5 0.228560 0.961612 0.338262
O O6 0.373202 0.086082 0.600354
O O7 0.072233 0.976245 0.251531
O O8 0.109918 0.202569 0.229367
O O9 0.556284 0.053125 0.476311
O O10 0.854203 0.084588 0.863942
O O11 0.381388 0.307765 0.273352
O O12 0.160162 0.332438 0.086420
O O13 0.157884 0.506257 0.982381
O O14 0.905560 0.796906 0.119380
O O15 0.772138 0.055173 0.919015
O O16 0.891657 0.617494 0.188535
O O17 0.500000 0.817862 0.000000
#
# Coordination Sequence:
#
# PCOD9125034 Si02
#       8
#     4   4   4   4   4   4   4   4
#     4  11  22  38  59  94 125 148 205 256 311 364
#     4  10  21  39  66  85 119 165 209 247 297 371
#     4  10  21  39  65  90 117 161 211 246 307 385
#     4  11  24  39  63  92 128 161 201 267 308 356
#     4  11  21  38  65  86 118 167 201 249 305 370
#     4  11  21  41  68  86 121 167 205 255 311 369
#     4  10  21  40  62  92 121 163 210 247 309 375
#     4  10  25  40  59  94 124 159 215 253 303 363
#
# _framework density 19.248697
#
# number of rings (size 3 to 8) (size 9 to 14) (size 15 to 20)
#    0.000    1.500    3.750    0.750    3.500    0.000 
#    4.500    0.000    2.750    0.000    0.000    0.000 
#    0.000    0.000    0.000    0.000    0.000    0.000 
#
# Total GULP energy -89134.010403 kJ/mol
# GULP energy per Si atom -5570.875650 kJ/mol
# Density = 1.920489 g / cm^3
# Si number density = 19.248697 Si / 1000 Ang^3
#
#
#
# Elastic Constant Matrix: (Units=GPa)
#
#
# Indices 1 2 3 4 5 6 
#
# 1 76.9613 38.5669 18.7370 0.0000 9.6083 0.0000
# 2 38.5669 70.3016 29.8861 0.0000 -1.8414 0.0000
# 3 18.7370 29.8861 77.0521 0.0001 7.0170 0.0000
# 4 0.0000 0.0000 0.0001 46.1690 0.0000 0.9516
# 5 9.6083 -1.8414 7.0170 0.0000 25.3476 0.0000
# 6 0.0000 0.0000 0.0000 0.9516 0.0000 29.3791
#
#
#
# Elastic Compliance Matrix: (Units=1/GPa)
#
#
# Indices 1 2 3 4 5 6 
#
# 1 0.019481 -0.011028 0.000293 0.000000 -0.008267 0.000000
# 2 -0.011028 0.023524 -0.007159 0.000000 0.007871 0.000000
# 3 0.000293 -0.007159 0.016148 0.000000 -0.005102 0.000000
# 4 0.000000 0.000000 0.000000 0.021674 0.000000 -0.000702
# 5 -0.008267 0.007871 -0.005102 0.000000 0.044569 0.000000
# 6 0.000000 0.000000 0.000000 -0.000702 0.000000 0.034061
#
#
# Mechanical properties :
#
#
# Convention : Reuss Voigt Hill
#
# Bulk Modulus (GPa) = 42.79995 44.29946 43.54970
# Shear Modulus (GPa) = 24.62648 29.32080 26.97364
#
# Velocity S-wave (km/s) = 3.58073 3.90713 3.74749
# Velocity P-wave (km/s) = 6.27527 6.58927 6.43419
#
# Compressibility (1/GPa) = 0.02336452
#
# Stress axis : x y z
#
# Youngs Moduli (GPa) = 51.33309 42.50975 61.92554
#
# Poissons Ratio (x) = 0.46880 -0.01815
# Poissons Ratio (y) = 0.56610 0.44334
# Poissons Ratio (z) = -0.01505 0.30434
#
# Static dielectric constant tensor:
#      x y z
#    x 1.700740 0.000000 -0.003100 
#    y 0.000000 1.704440 0.000000 
#    z -0.003100 0.000000 1.674910 
# 
# From -- ./inp_files/67601.got.cif
#   From: 2010.05.17/outbox.cif.g08.bks.cpg/sg5_34_cif.got.tgz:67601.got - 2010.06.03 18:56:24.
