data_PCOD9125388
_publ_section_title
;
Structure prediction by ZEFSAII (Michael W. Deem and Ramdas Pophale) SiO2 
 PCOD9125388
Probable space group: C 2
;
_chemical_formula_sum "Si O2"
_cell_formula_units_Z 24
_cell_length_a 21.544133
_cell_length_b 7.385726
_cell_length_c 22.269849
_cell_angle_alpha 90.000000
_cell_angle_beta 19.745980
_cell_angle_gamma 90.000000
_cell_volume 1197.193323
_symmetry_space_group_name_H-M "C 2"
_symmetry_group_IT_number 5
_symmetry_cell_setting 'monoclinic'
loop_
_space_group_symop_operation_xyz
x,y,z
-x,y,-z
1/2+x,1/2+y,z
1/2-x,1/2+y,-z
loop_
_atom_site_type_symbol
_atom_site_label
_atom_site_fract_x
_atom_site_fract_y
_atom_site_fract_z
Si Si1 0.569075 0.591330 0.149250
Si Si2 0.758615 0.920957 0.355972
Si Si3 0.448501 0.004906 0.858053
Si Si4 0.871064 0.095853 0.457196
Si Si5 0.932519 0.611254 0.128792
Si Si6 0.132434 0.820557 0.436072
O O1 0.447831 0.456765 0.219853
O O2 0.475312 0.588723 0.300101
O O3 0.549850 0.789020 0.138554
O O4 0.782974 0.551480 0.964378
O O5 0.812791 0.790969 0.251333
O O6 0.678178 0.116150 0.413509
O O7 0.623128 0.795406 0.518734
O O8 0.650883 0.061087 0.650390
O O9 0.423758 0.093393 0.946708
O O10 0.935975 0.941172 0.444941
O O11 0.808031 0.434842 0.253834
O O12 0.000000 0.613692 0.000000
O O13 0.000000 0.817508 0.500000
#
# Coordination Sequence:
#
# PCOD9125388 Si02
#       6
#     4   4   4   4   4   4
#     4  12  21  42  64  94 130 162 207 256 322 371
#     4  10  21  41  64  92 124 159 212 259 303 379
#     4  10  22  40  63  94 126 165 205 262 304 377
#     4  10  23  41  66  92 128 164 201 263 314 366
#     4  10  23  43  61  87 129 163 205 261 307 360
#     4  10  22  43  64  91 124 162 210 257 306 373
#
# _framework density 20.046887000000002
#
# number of rings (size 3 to 8) (size 9 to 14) (size 15 to 20)
#    0.000    2.000    3.333    3.000    2.333    3.333 
#    3.000    0.000    0.000    0.000    0.000    0.000 
#    0.000    0.000    0.000    0.000    0.000    0.000 
#
# Total GULP energy -66969.962346 kJ/mol
# GULP energy per Si atom -5580.830196 kJ/mol
# Density = 2.000126 g / cm^3
# Si number density = 20.046887 Si / 1000 Ang^3
#
#
#
# Elastic Constant Matrix: (Units=GPa)
#
#
# Indices 1 2 3 4 5 6 
#
# 1 103.1428 46.4327 29.9736 -0.0004 -7.0095 0.0001
# 2 46.4327 168.4225 16.6385 -0.0024 2.4338 0.0023
# 3 29.9736 16.6385 36.4034 -0.0009 11.0701 0.0010
# 4 -0.0004 -0.0024 -0.0009 6.4840 0.0011 -5.3074
# 5 -7.0095 2.4338 11.0701 0.0011 36.6874 -0.0004
# 6 0.0001 0.0023 0.0010 -5.3074 -0.0004 21.2319
#
#
#
# Elastic Compliance Matrix: (Units=1/GPa)
#
#
# Indices 1 2 3 4 5 6 
#
# 1 0.015505 -0.003037 -0.013587 -0.000003 0.007263 0.000000
# 2 -0.003037 0.006821 -0.000333 0.000002 -0.000932 0.000000
# 3 -0.013587 -0.000333 0.043592 0.000007 -0.015727 0.000000
# 4 -0.000003 0.000002 0.000007 0.193902 -0.000008 0.048470
# 5 0.007263 -0.000932 -0.015727 -0.000008 0.033452 -0.000001
# 6 0.000000 0.000000 0.000000 0.048470 -0.000001 0.059215
#
#
# Mechanical properties :
#
#
# Convention : Reuss Voigt Hill
#
# Bulk Modulus (GPa) = 31.24711 54.89537 43.07124
# Shear Modulus (GPa) = 12.59227 27.20891 19.90059
#
# Velocity S-wave (km/s) = 2.50899 3.68810 3.15414
# Velocity P-wave (km/s) = 4.90043 6.75123 5.89887
#
# Compressibility (1/GPa) = 0.03200296
#
# Stress axis : x y z
#
# Youngs Moduli (GPa) = 64.49739 146.60186 22.94009
#
# Poissons Ratio (x) = 0.44526 0.31168
# Poissons Ratio (y) = 0.19589 0.00765
# Poissons Ratio (z) = 0.87630 0.04889
#
# Static dielectric constant tensor:
#      x y z
#    x 1.769920 0.000000 -0.040200 
#    y 0.000000 1.722530 0.000000 
#    z -0.040200 0.000000 1.712080 
# 
# From -- ./inp_files/62143.got.cif
#   From: 2010.05.17/outbox.cif.g08.bks.cpg/sg5_32_cif.got.tgz:62143.got - 2010.06.03 18:56:24.
