data_PCOD9125567
_publ_section_title
;
Structure prediction by ZEFSAII (Michael W. Deem and Ramdas Pophale) SiO2 
 PCOD9125567
Probable space group: C 2
;
_chemical_formula_sum "Si O2"
_cell_formula_units_Z 26
_cell_length_a 18.917620
_cell_length_b 8.639793
_cell_length_c 10.057164
_cell_angle_alpha 90.000000
_cell_angle_beta 44.970356
_cell_angle_gamma 90.000000
_cell_volume 1161.730938
_symmetry_space_group_name_H-M "C 2"
_symmetry_group_IT_number 5
_symmetry_cell_setting 'monoclinic'
loop_
_space_group_symop_operation_xyz
x,y,z
-x,y,-z
1/2+x,1/2+y,z
1/2-x,1/2+y,-z
loop_
_atom_site_type_symbol
_atom_site_label
_atom_site_fract_x
_atom_site_fract_y
_atom_site_fract_z
Si Si1 0.266382 0.775350 0.894798
Si Si2 0.307694 0.448460 0.763306
Si Si3 0.227359 0.975886 0.704362
Si Si4 0.000000 0.729229 0.500000
Si Si5 0.000000 0.391967 0.000000
Si Si6 0.000000 0.890175 0.000000
Si Si7 0.783069 0.314376 0.362020
Si Si8 0.459272 0.148643 0.839086
O O1 0.330544 0.620640 0.786849
O O2 0.277453 0.909172 0.770636
O O3 0.266786 0.857429 0.036851
O O4 0.155043 0.705670 0.019131
O O5 0.405543 0.343332 0.629733
O O6 0.260745 0.444595 0.679197
O O7 0.501187 0.132917 0.362483
O O8 0.257085 0.862496 0.545062
O O9 0.259633 0.148457 0.623774
O O10 0.106173 0.973116 0.881034
O O11 0.901715 0.305508 0.180159
O O12 0.031104 0.499513 0.082561
O O13 0.985244 0.782318 0.149953
#
# Coordination Sequence:
#
# PCOD9125567 Si02
#       8
#     4   4   4   2   2   2   4   4
#     4  10  21  42  64  92 128 170 210 264 320 386
#     4  11  22  41  65  93 128 172 215 262 322 385
#     4  11  24  40  64  98 125 175 216 270 319 390
#     4  10  22  36  68  96 126 168 218 258 328 386
#     4  11  23  42  62  92 136 170 214 272 322 374
#     4   9  19  38  64  86 134 168 214 250 336 378
#     4  12  25  40  66  94 133 169 223 267 324 381
#     4   9  19  37  64  92 124 168 208 264 318 386
#
# _framework density 22.380398
#
# number of rings (size 3 to 8) (size 9 to 14) (size 15 to 20)
#    0.000    1.538    1.538    3.231    6.462    0.000 
#    0.000    4.615    0.000    0.923    0.000    0.000 
#    0.000    0.000    0.000    0.000    0.000    0.000 
#
# Total GULP energy -72687.385719 kJ/mol
# GULP energy per Si atom -5591.337363 kJ/mol
# Density = 2.232946 g / cm^3
# Si number density = 22.380398 Si / 1000 Ang^3
#
#
#
# Elastic Constant Matrix: (Units=GPa)
#
#
# Indices 1 2 3 4 5 6 
#
# 1 52.8864 -12.5118 19.5911 0.0000 12.2113 0.0000
# 2 -12.5118 73.9766 14.3608 0.0000 3.5298 0.0000
# 3 19.5911 14.3608 100.9301 0.0000 20.4926 0.0000
# 4 0.0000 0.0000 0.0000 26.4485 0.0000 0.4578
# 5 12.2113 3.5298 20.4926 0.0000 42.3067 0.0000
# 6 0.0000 0.0000 0.0000 0.4578 0.0000 23.3476
#
#
#
# Elastic Compliance Matrix: (Units=1/GPa)
#
#
# Indices 1 2 3 4 5 6 
#
# 1 0.022730 0.004877 -0.004094 0.000000 -0.004985 0.000000
# 2 0.004877 0.014950 -0.002811 0.000000 -0.001293 0.000000
# 3 -0.004094 -0.002811 0.011995 0.000000 -0.004394 0.000000
# 4 0.000000 0.000000 0.000000 0.037822 0.000000 -0.000742
# 5 -0.004985 -0.001293 -0.004394 0.000000 0.027312 0.000000
# 6 0.000000 0.000000 0.000000 -0.000742 0.000000 0.042845
#
#
# Mechanical properties :
#
#
# Convention : Reuss Voigt Hill
#
# Bulk Modulus (GPa) = 21.92121 30.07482 25.99801
# Shear Modulus (GPa) = 28.26201 32.17743 30.21972
#
# Velocity S-wave (km/s) = 3.55745 3.79588 3.67860
# Velocity P-wave (km/s) = 5.16624 5.71654 5.44834
#
# Compressibility (1/GPa) = 0.04561792
#
# Stress axis : x y z
#
# Youngs Moduli (GPa) = 43.99545 66.88944 83.37112
#
# Poissons Ratio (x) = -0.32621 0.34130
# Poissons Ratio (y) = -0.21456 0.23437
# Poissons Ratio (z) = 0.18011 0.18804
#
# Static dielectric constant tensor:
#      x y z
#    x 1.813340 0.000000 -0.029890 
#    y 0.000000 1.829470 0.000000 
#    z -0.029890 0.000000 1.826080 
# 
# From -- ./inp_files/47932.got.cif
#   From: 2010.05.17/outbox.cif.g08.bks.cpg/sg5_24_cif.got.tgz:47932.got - 2010.06.03 18:56:24.
