data_PCOD9125713
_publ_section_title
;
Structure prediction by ZEFSAII (Michael W. Deem and Ramdas Pophale) SiO2 
 PCOD9125713
Probable space group: C 2
;
_chemical_formula_sum "Si O2"
_cell_formula_units_Z 26
_cell_length_a 8.754767
_cell_length_b 10.971803
_cell_length_c 14.605556
_cell_angle_alpha 90.000000
_cell_angle_beta 56.843872
_cell_angle_gamma 90.000000
_cell_volume 1174.522299
_symmetry_space_group_name_H-M "C 2"
_symmetry_group_IT_number 5
_symmetry_cell_setting 'monoclinic'
loop_
_space_group_symop_operation_xyz
x,y,z
-x,y,-z
1/2+x,1/2+y,z
1/2-x,1/2+y,-z
loop_
_atom_site_type_symbol
_atom_site_label
_atom_site_fract_x
_atom_site_fract_y
_atom_site_fract_z
Si Si1 0.500000 0.637610 0.500000
Si Si2 0.815585 0.805358 0.732422
Si Si3 0.824870 0.918306 0.298155
Si Si4 0.706334 0.663217 0.608843
Si Si5 0.480376 0.995683 0.113277
Si Si6 0.678886 0.569180 0.883360
Si Si7 0.316101 0.666764 0.724756
O O1 0.651869 0.691881 0.521933
O O2 0.371016 0.579600 0.620052
O O3 0.993185 0.872196 0.712086
O O4 0.829173 0.755445 0.624572
O O5 0.642530 0.892169 0.801051
O O6 0.776062 0.686675 0.807524
O O7 0.708074 0.798611 0.313194
O O8 0.735004 0.023973 0.390702
O O9 0.864799 0.979379 0.186627
O O10 0.501513 0.668316 0.722128
O O11 0.673451 0.007411 0.098658
O O12 0.360762 0.118805 0.167319
O O13 0.500000 0.971583 0.000000
O O14 0.500000 0.600518 0.000000
#
# Coordination Sequence:
#
# PCOD9125713 Si02
#       7
#     2   4   4   4   4   4   4
#     4   8  20  44  62  96 130 162 214 272 318 382
#     4  11  21  41  65  91 127 170 217 264 317 386
#     4  11  21  41  64  91 128 167 212 268 319 386
#     4   9  21  41  66  88 130 166 208 273 316 376
#     4  12  24  41  66  96 129 176 217 262 326 387
#     4  11  25  39  60  92 131 169 215 270 319 382
#     4  10  21  43  64  92 131 165 215 263 328 379
#
# _framework density 22.136659000000002
#
# number of rings (size 3 to 8) (size 9 to 14) (size 15 to 20)
#    0.923    0.615    3.077    2.308    2.154    0.615 
#    8.308    0.000    0.000    0.000    0.000    0.000 
#    0.000    0.000    0.000    0.000    0.000    0.000 
#
# Total GULP energy -72463.813813 kJ/mol
# GULP energy per Si atom -5574.139524 kJ/mol
# Density = 2.208627 g / cm^3
# Si number density = 22.136659 Si / 1000 Ang^3
#
#
#
# Elastic Constant Matrix: (Units=GPa)
#
#
# Indices 1 2 3 4 5 6 
#
# 1 106.1923 29.6700 17.9991 0.0000 25.8941 0.0000
# 2 29.6700 101.2519 16.0040 0.0000 16.9293 0.0000
# 3 17.9991 16.0040 84.6314 0.0000 17.9696 0.0000
# 4 0.0000 0.0000 0.0000 1.7017 0.0000 10.4204
# 5 25.8941 16.9293 17.9696 0.0000 39.2568 0.0000
# 6 0.0000 0.0000 0.0000 10.4204 0.0000 37.8023
#
#
#
# Elastic Compliance Matrix: (Units=1/GPa)
#
#
# Indices 1 2 3 4 5 6 
#
# 1 0.011737 -0.002250 -0.000701 0.000000 -0.006451 0.000000
# 2 -0.002250 0.011177 -0.001027 0.000000 -0.002866 0.000000
# 3 -0.000701 -0.001027 0.013255 0.000000 -0.005162 0.000000
# 4 0.000000 0.000000 0.000000 -0.854157 0.000000 0.235454
# 5 -0.006451 -0.002866 -0.005162 0.000000 0.033327 0.000000
# 6 0.000000 0.000000 0.000000 0.235454 0.000000 -0.038451
#
#
# Mechanical properties :
#
#
# Convention : Reuss Voigt Hill
#
# Bulk Modulus (GPa) = 35.44282 46.60243 41.02262
# Shear Modulus (GPa) = -6.20539 30.97902 12.38681
#
# Velocity S-wave (km/s) = -1.67610 3.74497 2.36807
# Velocity P-wave (km/s) = 3.50713 6.30854 5.10380
#
# Compressibility (1/GPa) = 0.02821446
#
# Stress axis : x y z
#
# Youngs Moduli (GPa) = 85.19826 89.46831 75.44155
#
# Poissons Ratio (x) = 0.20130 0.05289
# Poissons Ratio (y) = 0.19170 0.07744
# Poissons Ratio (z) = 0.05973 0.09184
#
# Static dielectric constant tensor:
#      x y z
#    x 1.803200 0.000000 -0.016290 
#    y 0.000000 1.876790 0.000000 
#    z -0.016290 0.000000 1.803880 
# 
# From -- ./inp_files/50075.got.cif
#   From: 2010.05.17/outbox.cif.g08.bks.cpg/sg5_26_cif.got.tgz:50075.got - 2010.06.03 18:56:24.
