data_PCOD9125439
_publ_section_title
;
Structure prediction by ZEFSAII (Michael W. Deem and Ramdas Pophale) SiO2 
 PCOD9125439
Probable space group: C 2
;
_chemical_formula_sum "Si O2"
_cell_formula_units_Z 32
_cell_length_a 13.347700
_cell_length_b 5.336315
_cell_length_c 21.642107
_cell_angle_alpha 90.000000
_cell_angle_beta 93.176767
_cell_angle_gamma 90.000000
_cell_volume 1539.145045
_symmetry_space_group_name_H-M "C 2"
_symmetry_group_IT_number 5
_symmetry_cell_setting 'monoclinic'
loop_
_space_group_symop_operation_xyz
x,y,z
-x,y,-z
1/2+x,1/2+y,z
1/2-x,1/2+y,-z
loop_
_atom_site_type_symbol
_atom_site_label
_atom_site_fract_x
_atom_site_fract_y
_atom_site_fract_z
Si Si1 0.695025 0.678860 0.423966
Si Si2 0.703899 0.167128 0.798778
Si Si3 0.883694 0.678591 0.512849
Si Si4 0.599532 0.702763 0.024478
Si Si5 0.785552 0.425568 0.069018
Si Si6 0.979837 0.597179 0.755005
Si Si7 0.375167 0.577085 0.714121
Si Si8 0.844297 0.530900 0.860919
O O1 0.810266 0.671896 0.450702
O O2 0.641433 0.439123 0.453656
O O3 0.679437 0.653195 0.350721
O O4 0.647736 0.938032 0.447274
O O5 0.688954 0.077091 0.868339
O O6 0.598509 0.138256 0.762026
O O7 0.790645 0.029329 0.763343
O O8 0.758742 0.433045 0.810554
O O9 0.000000 0.665540 0.500000
O O10 0.703304 0.556583 0.023330
O O11 0.605574 0.817774 0.093312
O O12 0.500000 0.559163 0.000000
O O13 0.615276 0.894924 0.968471
O O14 0.719125 0.201392 0.095331
O O15 0.945628 0.314567 0.735709
O O16 0.932329 0.641788 0.821867
O O17 0.934820 0.816641 0.710740
#
# Coordination Sequence:
#
# PCOD9125439 Si02
#       8
#     4   4   4   4   4   4   4   4
#     4  10  22  39  63  96 133 165 209 261 299 356
#     4  10  24  41  63  84 121 166 200 259 315 369
#     4  10  21  41  66  95 131 174 206 249 310 362
#     4  11  23  37  58  85 114 152 198 258 323 377
#     4  11  21  40  58  85 117 149 205 256 312 384
#     4  11  24  42  65  89 124 169 212 254 320 370
#     4  11  24  41  62  97 127 161 216 258 299 368
#     4  10  22  41  59  85 119 154 205 261 313 384
#
# _framework density 20.790762999999998
#
# number of rings (size 3 to 8) (size 9 to 14) (size 15 to 20)
#    0.000    1.500    2.500    1.875    1.750    3.500 
#    0.000    0.000    0.000    0.000    0.000    0.000 
#    0.000    0.000    0.000    0.000    0.000    0.000 
#
# Total GULP energy -89190.300005 kJ/mol
# GULP energy per Si atom -5574.393750 kJ/mol
# Density = 2.074344 g / cm^3
# Si number density = 20.790763 Si / 1000 Ang^3
#
#
#
# Elastic Constant Matrix: (Units=GPa)
#
#
# Indices 1 2 3 4 5 6 
#
# 1 108.9368 18.1869 5.7807 0.0000 11.0124 0.0000
# 2 18.1869 69.2500 -3.1488 0.0000 1.9568 0.0000
# 3 5.7807 -3.1488 26.4812 0.0000 10.8289 0.0000
# 4 0.0000 0.0000 0.0000 21.4081 0.0000 -1.0595
# 5 11.0124 1.9568 10.8289 0.0000 12.8731 0.0000
# 6 0.0000 0.0000 0.0000 -1.0595 0.0000 11.8382
#
#
#
# Elastic Compliance Matrix: (Units=1/GPa)
#
#
# Indices 1 2 3 4 5 6 
#
# 1 0.010500 -0.002414 0.001439 0.000000 -0.009825 0.000000
# 2 -0.002414 0.015342 0.003750 0.000000 -0.003422 0.000000
# 3 0.001439 0.003750 0.058888 0.000000 -0.051338 0.000000
# 4 0.000000 0.000000 0.000000 0.046919 0.000000 0.004199
# 5 -0.009825 -0.003422 -0.051338 0.000000 0.129792 0.000000
# 6 0.000000 0.000000 0.000000 0.004199 0.000000 0.084848
#
#
# Mechanical properties :
#
#
# Convention : Reuss Voigt Hill
#
# Bulk Modulus (GPa) = 11.07679 27.36729 19.22204
# Shear Modulus (GPa) = 13.48321 21.48050 17.48186
#
# Velocity S-wave (km/s) = 2.54937 3.21779 2.90288
# Velocity P-wave (km/s) = 3.74233 5.19590 4.52782
#
# Compressibility (1/GPa) = 0.09027890
#
# Stress axis : x y z
#
# Youngs Moduli (GPa) = 95.24171 65.18161 16.98136
#
# Poissons Ratio (x) = 0.15738 -0.02443
# Poissons Ratio (y) = 0.22995 -0.06369
# Poissons Ratio (z) = -0.13702 -0.24446
#
# Static dielectric constant tensor:
#      x y z
#    x 1.711580 0.000000 -0.017400 
#    y 0.000000 1.888930 0.000000 
#    z -0.017400 0.000000 1.794570 
# 
# From -- ./inp_files/64980.got.cif
#   From: 2010.05.17/outbox.cif.g08.bks.cpg/sg5_33_cif.got.tgz:64980.got - 2010.06.03 18:56:24.
