data_PCOD9125415
_publ_section_title
;
Structure prediction by ZEFSAII (Michael W. Deem and Ramdas Pophale) SiO2 
 PCOD9125415
Probable space group: C 2
;
_chemical_formula_sum "Si O2"
_cell_formula_units_Z 28
_cell_length_a 5.360950
_cell_length_b 28.034558
_cell_length_c 8.585264
_cell_angle_alpha 90.000000
_cell_angle_beta 95.817922
_cell_angle_gamma 90.000000
_cell_volume 1283.649080
_symmetry_space_group_name_H-M "C 2"
_symmetry_group_IT_number 5
_symmetry_cell_setting 'monoclinic'
loop_
_space_group_symop_operation_xyz
x,y,z
-x,y,-z
1/2+x,1/2+y,z
1/2-x,1/2+y,-z
loop_
_atom_site_type_symbol
_atom_site_label
_atom_site_fract_x
_atom_site_fract_y
_atom_site_fract_z
Si Si1 0.865069 0.242160 0.768244
Si Si2 0.201689 0.164270 0.698750
Si Si3 0.268677 0.819070 0.104747
Si Si4 0.000000 0.736467 0.500000
Si Si5 0.266135 0.925038 0.107839
Si Si6 0.237963 0.016943 0.307050
Si Si7 0.000000 0.700588 0.000000
Si Si8 0.757699 0.555566 0.661167
O O1 0.678776 0.264688 0.629438
O O2 0.936552 0.188979 0.716692
O O3 0.118942 0.274009 0.792316
O O4 0.705468 0.231616 0.914855
O O5 0.335860 0.201146 0.593708
O O6 0.204258 0.111248 0.635570
O O7 0.350309 0.168343 0.869729
O O8 0.264461 0.871532 0.180150
O O9 0.500000 0.823412 0.000000
O O10 0.000000 0.815394 0.000000
O O11 0.281484 0.964363 0.244212
O O12 0.500000 0.929894 0.000000
O O13 0.000000 0.930454 0.000000
O O14 0.249301 0.027354 0.494756
O O15 0.464935 0.048513 0.256100
O O16 0.960613 0.034239 0.246278
#
# Coordination Sequence:
#
# PCOD9125415 Si02
#       8
#     4   4   4   2   4   4   2   4
#     4  11  24  41  69  99 143 185 235 284 343 412
#     4  11  23  41  64  95 141 184 236 277 335 408
#     4  10  23  40  70 100 131 181 230 281 352 415
#     4  10  24  38  66  96 144 190 226 282 336 408
#     4  10  21  42  68 100 132 166 218 290 351 408
#     4  10  21  41  65  94 122 173 227 272 334 405
#     4  10  24  42  64 100 136 180 232 290 330 392
#     4  10  23  38  68  90 127 180 226 266 330 408
#
# _framework density 21.812813999999999
#
# number of rings (size 3 to 8) (size 9 to 14) (size 15 to 20)
#    0.000    1.714    0.000    3.429   14.000    0.000 
#    3.857    0.000    6.286    0.000   11.143    0.000 
#    0.000    0.000    0.000    0.000    0.000    0.000 
#
# Total GULP energy -78046.182323 kJ/mol
# GULP energy per Si atom -5574.727309 kJ/mol
# Density = 2.176317 g / cm^3
# Si number density = 21.812814 Si / 1000 Ang^3
#
#
#
# Elastic Constant Matrix: (Units=GPa)
#
#
# Indices 1 2 3 4 5 6 
#
# 1 175.6483 44.5449 35.0982 0.0000 -4.9070 0.0000
# 2 44.5449 151.3609 38.6068 0.0000 -2.9586 0.0000
# 3 35.0982 38.6068 87.5737 0.0000 17.1911 0.0000
# 4 0.0000 0.0000 0.0000 -0.1579 0.0000 -33.6849
# 5 -4.9070 -2.9586 17.1911 0.0000 37.9782 0.0000
# 6 0.0000 0.0000 0.0000 -33.6849 0.0000 -30.1130
#
#
#
# Elastic Compliance Matrix: (Units=1/GPa)
#
#
# Indices 1 2 3 4 5 6 
#
# 1 0.006553 -0.001273 -0.002427 0.000000 0.001846 0.000000
# 2 -0.001273 0.007873 -0.003346 0.000000 0.001963 0.000000
# 3 -0.002427 -0.003346 0.015343 0.000000 -0.007519 0.000000
# 4 0.000000 0.000000 0.000000 0.026651 0.000000 -0.029812
# 5 0.001846 0.001963 -0.007519 0.000000 0.030126 0.000000
# 6 0.000000 0.000000 0.000000 -0.029812 0.000000 0.000140
#
#
# Mechanical properties :
#
#
# Convention : Reuss Voigt Hill
#
# Bulk Modulus (GPa) = 63.79303 72.34254 68.06778
# Shear Modulus (GPa) = 47.16802 21.29699 34.23251
#
# Velocity S-wave (km/s) = 4.65521 3.12805 3.96583
# Velocity P-wave (km/s) = 7.62914 6.80319 7.22797
#
# Compressibility (1/GPa) = 0.01567569
#
# Stress axis : x y z
#
# Youngs Moduli (GPa) = 152.60894 127.01198 65.17623
#
# Poissons Ratio (x) = 0.16171 0.15821
# Poissons Ratio (y) = 0.19430 0.21809
# Poissons Ratio (z) = 0.37044 0.42499
#
# Static dielectric constant tensor:
#      x y z
#    x 1.886890 0.000000 0.012170 
#    y 0.000000 1.816100 0.000000 
#    z 0.012170 0.000000 1.966610 
# 
# From -- ./inp_files/13054.got.cif
#   From: 2010.05.17/outbox.cif.g08.bks.cpg/sg5_7_cif.got.tgz:13054.got - 2010.06.03 18:56:24.
