data_PCOD9125228
_publ_section_title
;
Structure prediction by ZEFSAII (Michael W. Deem and Ramdas Pophale) SiO2 
 PCOD9125228
Probable space group: C 2
;
_chemical_formula_sum "Si O2"
_cell_formula_units_Z 24
_cell_length_a 12.741012
_cell_length_b 7.472498
_cell_length_c 21.711551
_cell_angle_alpha 90.000000
_cell_angle_beta 153.205270
_cell_angle_gamma 90.000000
_cell_volume 931.837310
_symmetry_space_group_name_H-M "C 2"
_symmetry_group_IT_number 5
_symmetry_cell_setting 'monoclinic'
loop_
_space_group_symop_operation_xyz
x,y,z
-x,y,-z
1/2+x,1/2+y,z
1/2-x,1/2+y,-z
loop_
_atom_site_type_symbol
_atom_site_label
_atom_site_fract_x
_atom_site_fract_y
_atom_site_fract_z
Si Si1 0.107517 0.078910 0.789913
Si Si2 0.037688 0.058539 0.087202
Si Si3 0.708757 0.914442 0.004908
Si Si4 0.340127 0.901504 0.700900
Si Si5 0.559855 0.316214 0.663826
Si Si6 0.261807 0.785244 0.406188
O O1 0.967807 0.261137 0.723352
O O2 0.296514 0.061305 0.943232
O O3 0.932896 0.920118 0.719790
O O4 0.154495 0.999510 0.746831
O O5 0.952482 0.928748 0.095997
O O6 0.287316 0.150536 0.229535
O O7 0.860936 0.227838 0.000202
O O8 0.000000 0.979899 0.000000
O O9 0.523576 0.933072 0.852660
O O10 0.117313 0.827066 0.622369
O O11 0.282110 0.084447 0.637714
O O12 0.296615 0.295975 0.551051
O O13 0.500000 0.843051 0.500000
#
# Coordination Sequence:
#
# PCOD9125228 Si02
#       6
#     4   4   4   4   4   4
#     4  10  21  40  65  94 127 166 205 261 317 372
#     4  11  19  34  57  84 130 166 192 249 307 370
#     4  11  19  34  61  91 124 161 199 250 309 379
#     4  11  22  41  65  92 129 169 208 258 319 378
#     4   9  21  40  61  89 126 165 209 260 314 369
#     4  10  24  47  62  91 128 162 222 271 302 369
#
# _framework density 25.755569999999999
#
# number of rings (size 3 to 8) (size 9 to 14) (size 15 to 20)
#    1.000    0.667    5.000    2.000    0.000    0.667 
#    6.000    5.833    0.000    0.000    0.000    0.000 
#    0.000    0.000    0.000    0.000    0.000    0.000 
#
# Total GULP energy -67023.085217 kJ/mol
# GULP energy per Si atom -5585.257101 kJ/mol
# Density = 2.569695 g / cm^3
# Si number density = 25.755570 Si / 1000 Ang^3
#
#
#
# Elastic Constant Matrix: (Units=GPa)
#
#
# Indices 1 2 3 4 5 6 
#
# 1 126.3042 2.3120 34.4337 -0.0002 7.4703 0.0000
# 2 2.3120 60.1425 7.8380 0.0005 0.4456 0.0001
# 3 34.4337 7.8380 46.5079 0.0035 20.5410 0.0006
# 4 -0.0002 0.0005 0.0035 19.9078 -0.0006 13.0988
# 5 7.4703 0.4456 20.5410 -0.0006 47.9393 -0.0004
# 6 0.0000 0.0001 0.0006 13.0988 -0.0004 42.5472
#
#
#
# Elastic Compliance Matrix: (Units=1/GPa)
#
#
# Indices 1 2 3 4 5 6 
#
# 1 0.010103 0.000706 -0.008511 0.000002 0.002066 0.000000
# 2 0.000706 0.017118 -0.004056 0.000000 0.001469 0.000000
# 3 -0.008511 -0.004056 0.034393 -0.000008 -0.013373 0.000002
# 4 0.000002 0.000000 -0.000008 0.062992 0.000003 -0.019393
# 5 0.002066 0.001469 -0.013373 0.000003 0.026254 -0.000001
# 6 0.000000 0.000000 0.000002 -0.019393 -0.000001 0.029474
#
#
# Mechanical properties :
#
#
# Convention : Reuss Voigt Hill
#
# Bulk Modulus (GPa) = 26.39206 35.79135 31.09170
# Shear Modulus (GPa) = 23.07482 34.63691 28.85586
#
# Velocity S-wave (km/s) = 2.99643 3.67117 3.35083
# Velocity P-wave (km/s) = 4.71602 5.64772 5.20277
#
# Compressibility (1/GPa) = 0.03789018
#
# Stress axis : x y z
#
# Youngs Moduli (GPa) = 98.98381 58.41886 29.07558
#
# Poissons Ratio (x) = -0.04122 0.24747
# Poissons Ratio (y) = -0.06984 0.11793
# Poissons Ratio (z) = 0.84248 0.23694
#
# Static dielectric constant tensor:
#      x y z
#    x 2.071360 0.000000 0.047610 
#    y 0.000000 1.975620 0.000000 
#    z 0.047610 0.000000 2.286190 
# 
# From -- ./inp_files/70326.got.cif
#   From: 2010.05.17/outbox.cif.g08.bks.cpg/sg5_36_cif.got.tgz:70326.got - 2010.06.03 18:56:24.
