data_PCOD9125186
_publ_section_title
;
Structure prediction by ZEFSAII (Michael W. Deem and Ramdas Pophale) SiO2 
 PCOD9125186
Probable space group: C 2
;
_chemical_formula_sum "Si O2"
_cell_formula_units_Z 28
_cell_length_a 8.660068
_cell_length_b 11.051740
_cell_length_c 12.243569
_cell_angle_alpha 90.000000
_cell_angle_beta 75.023382
_cell_angle_gamma 90.000000
_cell_volume 1132.012502
_symmetry_space_group_name_H-M "C 2"
_symmetry_group_IT_number 5
_symmetry_cell_setting 'monoclinic'
loop_
_space_group_symop_operation_xyz
x,y,z
-x,y,-z
1/2+x,1/2+y,z
1/2-x,1/2+y,-z
loop_
_atom_site_type_symbol
_atom_site_label
_atom_site_fract_x
_atom_site_fract_y
_atom_site_fract_z
Si Si1 0.866721 0.454240 0.737409
Si Si2 0.570236 0.310314 0.815566
Si Si3 0.337834 0.867199 0.239067
Si Si4 0.143337 0.174106 0.567193
Si Si5 0.974328 0.932989 0.629470
Si Si6 0.500000 0.519821 0.000000
Si Si7 0.217081 0.669115 0.107935
Si Si8 0.000000 0.576396 0.500000
O O1 0.757587 0.334284 0.764089
O O2 0.783722 0.577153 0.790607
O O3 0.950948 0.488786 0.609131
O O4 0.996959 0.432217 0.806545
O O5 0.509981 0.322426 0.702332
O O6 0.466542 0.202478 0.885255
O O7 0.521754 0.428317 0.894979
O O8 0.357647 0.776686 0.339824
O O9 0.289129 0.794072 0.140811
O O10 0.206157 0.962358 0.305089
O O11 0.332597 0.149222 0.503017
O O12 0.000000 0.194051 0.500000
O O13 0.087369 0.046059 0.628188
O O14 0.000000 0.901257 0.500000
O O15 0.345165 0.604369 0.006738
#
# Coordination Sequence:
#
# PCOD9125186 Si02
#       8
#     4   4   4   4   4   2   4   2
#     4  11  23  40  63  96 140 180 232 283 342 417
#     4  10  22  42  70 101 131 180 230 282 360 417
#     4  11  24  39  64  93 131 184 232 281 350 419
#     4  11  23  39  59  93 134 187 243 286 341 411
#     4  10  21  40  63  93 138 175 224 287 341 419
#     4  10  22  44  72  96 136 172 230 304 350 416
#     4  10  23  46  67  96 133 175 228 298 352 421
#     4  12  22  42  64  94 148 196 238 296 344 416
#
# _framework density 24.734707
#
# number of rings (size 3 to 8) (size 9 to 14) (size 15 to 20)
#    0.000    1.429    2.857    2.571    2.000    4.571 
#    0.000    2.857    0.000    0.000    0.000    0.000 
#    0.000    0.000    0.000    0.000    0.000    0.000 
#
# Total GULP energy -78033.057682 kJ/mol
# GULP energy per Si atom -5573.789834 kJ/mol
# Density = 2.467841 g / cm^3
# Si number density = 24.734707 Si / 1000 Ang^3
#
#
#
# Elastic Constant Matrix: (Units=GPa)
#
#
# Indices 1 2 3 4 5 6 
#
# 1 99.9268 17.0583 1.3199 0.0000 -16.4452 0.0000
# 2 17.0583 73.2301 16.1104 0.0000 -13.0596 0.0000
# 3 1.3199 16.1104 60.7256 0.0000 -2.3149 0.0000
# 4 0.0000 0.0000 0.0000 -14.1003 0.0000 -4.4989
# 5 -16.4452 -13.0596 -2.3149 0.0000 36.5704 0.0000
# 6 0.0000 0.0000 0.0000 -4.4989 0.0000 35.8109
#
#
#
# Elastic Compliance Matrix: (Units=1/GPa)
#
#
# Indices 1 2 3 4 5 6 
#
# 1 0.011035 -0.001895 0.000427 0.000000 0.004312 0.000000
# 2 -0.001895 0.015779 -0.003972 0.000000 0.004531 0.000000
# 3 0.000427 -0.003972 0.017508 0.000000 -0.000118 0.000000
# 4 0.000000 0.000000 0.000000 -0.068188 0.000000 -0.008566
# 5 0.004312 0.004531 -0.000118 0.000000 0.030894 0.000000
# 6 0.000000 0.000000 0.000000 -0.008566 0.000000 0.026848
#
#
# Mechanical properties :
#
#
# Convention : Reuss Voigt Hill
#
# Bulk Modulus (GPa) = 29.90344 33.65109 31.77727
# Shear Modulus (GPa) = 89.43866 24.94913 57.19390
#
# Velocity S-wave (km/s) = 6.01977 3.17940 4.81385
# Velocity P-wave (km/s) = 7.77385 5.20696 6.61609
#
# Compressibility (1/GPa) = 0.03344096
#
# Stress axis : x y z
#
# Youngs Moduli (GPa) = 90.62102 63.37519 57.11824
#
# Poissons Ratio (x) = 0.12013 -0.02441
# Poissons Ratio (y) = 0.17177 0.22689
# Poissons Ratio (z) = -0.03873 0.25174
#
# Static dielectric constant tensor:
#      x y z
#    x 2.138260 0.000000 -0.075760 
#    y 0.000000 1.949300 0.000000 
#    z -0.075760 0.000000 2.003190 
# 
# From -- ./inp_files/50453.got.cif
#   From: 2010.05.17/outbox.cif.g08.bks.cpg/sg5_26_cif.got.tgz:50453.got - 2010.06.03 18:56:24.
