data_PCOD9125241
_publ_section_title
;
Structure prediction by ZEFSAII (Michael W. Deem and Ramdas Pophale) SiO2 
 PCOD9125241
Probable space group: C 2
;
_chemical_formula_sum "Si O2"
_cell_formula_units_Z 32
_cell_length_a 22.353790
_cell_length_b 11.604719
_cell_length_c 11.020977
_cell_angle_alpha 90.000000
_cell_angle_beta 147.831077
_cell_angle_gamma 90.000000
_cell_volume 1522.151885
_symmetry_space_group_name_H-M "C 2"
_symmetry_group_IT_number 5
_symmetry_cell_setting 'monoclinic'
loop_
_space_group_symop_operation_xyz
x,y,z
-x,y,-z
1/2+x,1/2+y,z
1/2-x,1/2+y,-z
loop_
_atom_site_type_symbol
_atom_site_label
_atom_site_fract_x
_atom_site_fract_y
_atom_site_fract_z
Si Si1 0.815117 0.144140 0.390414
Si Si2 0.573919 0.863287 0.933416
Si Si3 0.192078 0.911189 0.752500
Si Si4 0.154705 0.940835 0.954729
Si Si5 0.562876 0.115473 0.988190
Si Si6 0.506933 0.225650 0.374508
Si Si7 0.401831 0.859846 0.428941
Si Si8 0.477522 0.614501 0.093304
O O1 0.861630 0.226415 0.364109
O O2 0.900652 0.149461 0.647217
O O3 0.817767 0.011341 0.360332
O O4 0.686187 0.172213 0.195844
O O5 0.461588 0.874763 0.661242
O O6 0.582782 0.739803 0.013901
O O7 0.579351 0.977258 0.024058
O O8 0.679397 0.870992 0.022066
O O9 0.155914 0.972655 0.814953
O O10 0.115917 0.805577 0.579165
O O11 0.091658 0.817255 0.829905
O O12 0.087166 0.027616 0.926399
O O13 0.285497 0.929406 0.216571
O O14 0.499194 0.141515 0.751193
O O15 0.500000 0.156833 0.000000
O O16 0.500000 0.172744 0.500000
O O17 0.500000 0.880704 0.500000
O O18 0.500000 0.562736 0.000000
#
# Coordination Sequence:
#
# PCOD9125241 Si02
#       8
#     4   4   4   4   4   4   4   4
#     4  10  23  41  66  94 132 183 224 275 332 423
#     4  10  24  42  63  98 133 182 224 284 341 412
#     4  10  21  40  65  98 134 173 223 272 359 397
#     4  11  22  40  67 103 131 172 222 291 331 414
#     4  11  24  45  68  96 139 184 232 277 353 408
#     4  10  22  41  67 100 137 171 224 285 341 400
#     4  11  22  39  64 100 136 170 229 284 346 400
#     4  11  25  44  67  98 134 183 238 275 339 410
#
# _framework density 21.022870000000001
#
# number of rings (size 3 to 8) (size 9 to 14) (size 15 to 20)
#    0.000    1.500    3.750    0.375    3.500    4.000 
#    2.250    2.500    0.000    0.000    0.000    0.000 
#    0.000    0.000    0.000    0.000    0.000    0.000 
#
# Total GULP energy -89145.179308 kJ/mol
# GULP energy per Si atom -5571.573707 kJ/mol
# Density = 2.097502 g / cm^3
# Si number density = 21.022870 Si / 1000 Ang^3
#
#
#
# Elastic Constant Matrix: (Units=GPa)
#
#
# Indices 1 2 3 4 5 6 
#
# 1 127.5339 37.7015 48.1286 0.0000 -1.3569 0.0000
# 2 37.7015 56.8461 20.2733 0.0000 2.2557 0.0000
# 3 48.1286 20.2733 116.2145 0.0000 16.1924 0.0000
# 4 0.0000 0.0000 0.0000 16.9999 0.0000 5.4025
# 5 -1.3569 2.2557 16.1924 0.0000 23.4828 0.0000
# 6 0.0000 0.0000 0.0000 5.4025 0.0000 16.9439
#
#
#
# Elastic Compliance Matrix: (Units=1/GPa)
#
#
# Indices 1 2 3 4 5 6 
#
# 1 0.011279 -0.006156 -0.004171 0.000000 0.004119 0.000000
# 2 -0.006156 0.022124 -0.001067 0.000000 -0.001745 0.000000
# 3 -0.004171 -0.001067 0.011658 0.000000 -0.008177 0.000000
# 4 0.000000 0.000000 0.000000 0.065456 0.000000 -0.020870
# 5 0.004119 -0.001745 -0.008177 0.000000 0.048628 0.000000
# 6 0.000000 0.000000 0.000000 -0.020870 0.000000 0.065673
#
#
# Mechanical properties :
#
#
# Convention : Reuss Voigt Hill
#
# Bulk Modulus (GPa) = 44.89863 56.97793 50.93828
# Shear Modulus (GPa) = 19.60553 24.45139 22.02846
#
# Velocity S-wave (km/s) = 3.05713 3.41410 3.24054
# Velocity P-wave (km/s) = 5.81935 6.53476 6.18740
#
# Compressibility (1/GPa) = 0.02227240
#
# Stress axis : x y z
#
# Youngs Moduli (GPa) = 88.66172 45.19968 85.78155
#
# Poissons Ratio (x) = 0.27826 0.35779
# Poissons Ratio (y) = 0.54583 0.09151
# Poissons Ratio (z) = 0.36980 0.04822
#
# Static dielectric constant tensor:
#      x y z
#    x 1.834990 0.000000 -0.025660 
#    y 0.000000 1.792190 0.000000 
#    z -0.025660 0.000000 1.825730 
# 
# From -- ./inp_files/47508.got.cif
#   From: 2010.05.17/outbox.cif.g08.bks.cpg/sg5_24_cif.got.tgz:47508.got - 2010.06.03 18:56:24.
