data_PCOD9125221
_publ_section_title
;
Structure prediction by ZEFSAII (Michael W. Deem and Ramdas Pophale) SiO2 
 PCOD9125221
Probable space group: C 2
;
_chemical_formula_sum "Si O2"
_cell_formula_units_Z 30
_cell_length_a 9.283528
_cell_length_b 13.959873
_cell_length_c 11.160260
_cell_angle_alpha 90.000000
_cell_angle_beta 67.640573
_cell_angle_gamma 90.000000
_cell_volume 1337.593045
_symmetry_space_group_name_H-M "C 2"
_symmetry_group_IT_number 5
_symmetry_cell_setting 'monoclinic'
loop_
_space_group_symop_operation_xyz
x,y,z
-x,y,-z
1/2+x,1/2+y,z
1/2-x,1/2+y,-z
loop_
_atom_site_type_symbol
_atom_site_label
_atom_site_fract_x
_atom_site_fract_y
_atom_site_fract_z
Si Si1 0.429191 0.111220 0.889618
Si Si2 0.500000 0.638211 0.500000
Si Si3 0.616976 0.520108 0.067515
Si Si4 0.675741 0.290116 0.411974
Si Si5 0.067530 0.504493 0.346163
Si Si6 0.121882 0.103209 0.691461
Si Si7 0.064192 0.821209 0.196129
Si Si8 0.706454 0.813697 0.367229
O O1 0.505945 0.055954 0.748601
O O2 0.379611 0.215637 0.857301
O O3 0.500000 0.127449 0.000000
O O4 0.285416 0.046055 0.971005
O O5 0.596590 0.576119 0.561536
O O6 0.620386 0.711544 0.398038
O O7 0.544864 0.583803 0.197088
O O8 0.608756 0.408357 0.098833
O O9 0.500000 0.544031 0.000000
O O10 0.500000 0.251192 0.500000
O O11 0.800021 0.207886 0.338496
O O12 0.635272 0.346856 0.304269
O O13 0.747686 0.338105 0.508080
O O14 0.246989 0.539150 0.290175
O O15 0.091123 0.389869 0.342550
O O16 0.000000 0.530606 0.500000
O O17 0.876416 0.811603 0.254850
#
# Coordination Sequence:
#
# PCOD9125221 Si02
#       8
#     4   2   4   4   4   4   4   4
#     4  12  29  47  68 105 140 191 236 290 353 422
#     4  10  24  38  64 108 138 170 232 288 348 410
#     4  12  24  47  68  96 134 183 239 280 345 423
#     4   9  19  37  65 101 137 179 226 282 354 417
#     4  12  24  44  72 100 142 184 231 292 349 416
#     4  11  22  40  66  97 136 178 223 287 343 412
#     4  11  22  43  71  92 135 185 230 284 350 417
#     4  10  21  40  65 102 140 175 226 281 353 417
#
# _framework density 22.428346000000001
#
# number of rings (size 3 to 8) (size 9 to 14) (size 15 to 20)
#    0.000    1.067    4.667    0.800    5.600    2.133 
#    0.000    0.667    0.000    0.000    0.000    0.000 
#    0.000    0.000    0.000    0.000    0.000    0.000 
#
# Total GULP energy -83644.664747 kJ/mol
# GULP energy per Si atom -5576.310983 kJ/mol
# Density = 2.237730 g / cm^3
# Si number density = 22.428346 Si / 1000 Ang^3
#
#
#
# Elastic Constant Matrix: (Units=GPa)
#
#
# Indices 1 2 3 4 5 6 
#
# 1 38.3804 -0.7468 7.4717 0.0000 12.8531 0.0000
# 2 -0.7468 61.2212 32.8904 0.0000 -4.9211 0.0000
# 3 7.4717 32.8904 95.2332 0.0000 -0.5259 0.0000
# 4 0.0000 0.0000 0.0000 31.0681 0.0000 -3.5446
# 5 12.8531 -4.9211 -0.5259 0.0000 48.0347 0.0000
# 6 0.0000 0.0000 0.0000 -3.5446 0.0000 16.2374
#
#
#
# Elastic Compliance Matrix: (Units=1/GPa)
#
#
# Indices 1 2 3 4 5 6 
#
# 1 0.029200 0.001215 -0.002753 0.000000 -0.007719 0.000000
# 2 0.001215 0.020296 -0.007096 0.000000 0.001677 0.000000
# 3 -0.002753 -0.007096 0.013168 0.000000 0.000154 0.000000
# 4 0.000000 0.000000 0.000000 0.033010 0.000000 0.007206
# 5 -0.007719 0.001677 0.000154 0.000000 0.023057 0.000000
# 6 0.000000 0.000000 0.000000 0.007206 0.000000 0.063159
#
#
# Mechanical properties :
#
#
# Convention : Reuss Voigt Hill
#
# Bulk Modulus (GPa) = 22.02858 30.45171 26.24014
# Shear Modulus (GPa) = 23.33300 29.41601 26.37450
#
# Velocity S-wave (km/s) = 3.22892 3.62547 3.43293
# Velocity P-wave (km/s) = 4.87282 5.57962 5.23815
#
# Compressibility (1/GPa) = 0.04539557
#
# Stress axis : x y z
#
# Youngs Moduli (GPa) = 34.24713 49.27130 75.94193
#
# Poissons Ratio (x) = -0.05985 0.20907
# Poissons Ratio (y) = -0.04160 0.53885
# Poissons Ratio (z) = 0.09428 0.34961
#
# Static dielectric constant tensor:
#      x y z
#    x 1.855470 0.000000 0.031580 
#    y 0.000000 1.836420 0.000000 
#    z 0.031580 0.000000 1.974760 
# 
# From -- ./inp_files/36382.got.cif
#   From: 2010.05.17/outbox.cif.g08.bks.cpg/sg5_19_cif.got.tgz:36382.got - 2010.06.03 18:56:24.
