data_PCOD9125968
_publ_section_title
;
Structure prediction by ZEFSAII (Michael W. Deem and Ramdas Pophale) SiO2 
 PCOD9125968
Probable space group: C 2
;
_chemical_formula_sum "Si O2"
_cell_formula_units_Z 20
_cell_length_a 13.115629
_cell_length_b 7.548929
_cell_length_c 17.903656
_cell_angle_alpha 90.000000
_cell_angle_beta 152.670222
_cell_angle_gamma 90.000000
_cell_volume 813.830942
_symmetry_space_group_name_H-M "C 2"
_symmetry_group_IT_number 5
_symmetry_cell_setting 'monoclinic'
loop_
_space_group_symop_operation_xyz
x,y,z
-x,y,-z
1/2+x,1/2+y,z
1/2-x,1/2+y,-z
loop_
_atom_site_type_symbol
_atom_site_label
_atom_site_fract_x
_atom_site_fract_y
_atom_site_fract_z
Si Si1 0.058465 0.168380 0.372145
Si Si2 0.500000 0.627222 0.000000
Si Si3 0.527849 0.273077 0.716097
Si Si4 0.980201 0.513884 0.828547
Si Si5 0.314616 0.321352 0.964529
Si Si6 0.500000 0.537430 0.500000
O O1 0.877048 0.303617 0.222653
O O2 0.314814 0.220216 0.526556
O O3 0.024954 0.147147 0.439414
O O4 0.007238 0.982645 0.298295
O O5 0.274168 0.736745 0.845828
O O6 0.465266 0.489946 0.045626
O O7 0.500194 0.149373 0.771033
O O8 0.165544 0.364749 0.940074
O O9 0.732756 0.439614 0.664153
O O10 0.041314 0.644792 0.935470
#
# Coordination Sequence:
#
# PCOD9125968 Si02
#       6
#     4   2   4   4   4   2
#     4  11  22  41  63  87 123 166 204 254 304 360
#     4  10  22  38  60  92 122 160 206 246 298 366
#     4  10  22  40  61  87 123 163 207 251 302 361
#     4  10  22  39  60  90 120 158 203 248 304 367
#     4  11  22  40  63  89 124 162 201 252 307 361
#     4  10  22  36  58  86 114 152 204 244 296 354
#
# _framework density 24.575130000000001
#
# number of rings (size 3 to 8) (size 9 to 14) (size 15 to 20)
#    0.000    1.600    0.000    6.000    0.000    7.200 
#    0.000    2.000    0.000    9.600    0.000    0.000 
#    0.000    0.000    0.000    0.000    0.000    0.000 
#
# Total GULP energy -55900.681703 kJ/mol
# GULP energy per Si atom -5590.068170 kJ/mol
# Density = 2.451920 g / cm^3
# Si number density = 24.575130 Si / 1000 Ang^3
#
#
#
# Elastic Constant Matrix: (Units=GPa)
#
#
# Indices 1 2 3 4 5 6 
#
# 1 57.8873 5.3061 33.8971 0.0004 5.2861 0.0001
# 2 5.3061 61.0727 17.9275 0.0020 3.1228 0.0001
# 3 33.8971 17.9275 156.7214 0.0051 33.4793 0.0008
# 4 0.0004 0.0020 0.0051 41.3500 0.0005 -15.1144
# 5 5.2861 3.1228 33.4793 0.0005 52.9428 0.0000
# 6 0.0001 0.0001 0.0008 -15.1144 0.0000 26.5327
#
#
#
# Elastic Compliance Matrix: (Units=1/GPa)
#
#
# Indices 1 2 3 4 5 6 
#
# 1 0.019826 -0.000470 -0.004414 0.000000 0.000839 0.000000
# 2 -0.000470 0.016957 -0.001890 -0.000001 0.000242 0.000000
# 3 -0.004414 -0.001890 0.008595 -0.000001 -0.004883 -0.000001
# 4 0.000000 -0.000001 -0.000001 0.030544 0.000000 0.017399
# 5 0.000839 0.000242 -0.004883 0.000000 0.021878 0.000000
# 6 0.000000 0.000000 -0.000001 0.017399 0.000000 0.047601
#
#
# Mechanical properties :
#
#
# Convention : Reuss Voigt Hill
#
# Bulk Modulus (GPa) = 31.41579 43.32700 37.37140
# Shear Modulus (GPa) = 29.48862 38.73515 34.11188
#
# Velocity S-wave (km/s) = 3.46777 3.97444 3.72972
# Velocity P-wave (km/s) = 5.37077 6.22336 5.81272
#
# Compressibility (1/GPa) = 0.03183113
#
# Stress axis : x y z
#
# Youngs Moduli (GPa) = 50.43915 58.97233 116.35171
#
# Poissons Ratio (x) = 0.02771 0.51354
# Poissons Ratio (y) = 0.02370 0.21988
# Poissons Ratio (z) = 0.22262 0.11144
#
# Static dielectric constant tensor:
#      x y z
#    x 2.064340 0.000000 0.003480 
#    y 0.000000 1.874230 0.000000 
#    z 0.003480 0.000000 1.952540 
# 
# From -- ./inp_files/18373.got.cif
#   From: 2010.05.17/outbox.cif.g08.bks.cpg/sg5_10_cif.got.tgz:18373.got - 2010.06.03 18:56:24.
