data_PCOD9125000
_publ_section_title
;
Structure prediction by ZEFSAII (Michael W. Deem and Ramdas Pophale) SiO2 
 PCOD9125000
Probable space group: C 2
;
_chemical_formula_sum "Si O2"
_cell_formula_units_Z 24
_cell_length_a 15.275033
_cell_length_b 8.327195
_cell_length_c 15.245588
_cell_angle_alpha 90.000000
_cell_angle_beta 36.136497
_cell_angle_gamma 90.000000
_cell_volume 1143.573919
_symmetry_space_group_name_H-M "C 2"
_symmetry_group_IT_number 5
_symmetry_cell_setting 'monoclinic'
loop_
_space_group_symop_operation_xyz
x,y,z
-x,y,-z
1/2+x,1/2+y,z
1/2-x,1/2+y,-z
loop_
_atom_site_type_symbol
_atom_site_label
_atom_site_fract_x
_atom_site_fract_y
_atom_site_fract_z
Si Si1 0.887820 0.322950 0.797928
Si Si2 0.530767 0.305129 0.688422
Si Si3 0.319984 0.974815 0.483983
Si Si4 0.838995 0.263810 0.641115
Si Si5 0.471698 0.166959 0.114663
Si Si6 0.748091 0.478952 0.074574
O O1 0.841745 0.344788 0.734167
O O2 0.060458 0.367163 0.666001
O O3 0.847396 0.140781 0.851237
O O4 0.793503 0.428367 0.940419
O O5 0.653196 0.447088 0.584758
O O6 0.504904 0.258191 0.812301
O O7 0.366240 0.352912 0.789789
O O8 0.610923 0.151752 0.579871
O O9 0.321602 0.897840 0.579966
O O10 0.704726 0.138876 0.741809
O O11 0.000000 0.185208 0.500000
O O12 0.500000 0.260226 0.000000
O O13 0.592698 0.024874 0.012341
#
# Coordination Sequence:
#
# PCOD9125000 Si02
#       6
#     4   4   4   4   4   4
#     4  11  20  38  61  95 123 171 218 256 322 374
#     4  11  22  39  65  96 127 169 219 262 320 380
#     4  10  21  39  64  90 130 166 218 261 318 388
#     4   9  20  37  65  89 125 174 213 254 316 393
#     4  11  20  38  63  93 124 165 213 261 313 382
#     4  12  21  36  66  90 129 168 217 268 308 380
#
# _framework density 20.986839
#
# number of rings (size 3 to 8) (size 9 to 14) (size 15 to 20)
#    0.000    1.333    5.000    1.000    0.000    0.000 
#    0.000    0.000   14.667    1.000    0.000    0.000 
#    0.000    0.000    0.000    0.000    0.000    0.000 
#
# Total GULP energy -66853.254596 kJ/mol
# GULP energy per Si atom -5571.104550 kJ/mol
# Density = 2.093907 g / cm^3
# Si number density = 20.986839 Si / 1000 Ang^3
#
#
#
# Elastic Constant Matrix: (Units=GPa)
#
#
# Indices 1 2 3 4 5 6 
#
# 1 48.8430 19.3165 63.3218 0.0000 -30.2053 0.0000
# 2 19.3165 74.0280 55.1837 0.0000 -6.2663 0.0000
# 3 63.3218 55.1837 160.5661 0.0000 -32.1281 0.0000
# 4 0.0000 0.0000 0.0000 47.1096 0.0000 -13.0345
# 5 -30.2053 -6.2663 -32.1281 0.0000 56.9568 0.0000
# 6 0.0000 0.0000 0.0000 -13.0345 0.0000 10.7535
#
#
#
# Elastic Compliance Matrix: (Units=1/GPa)
#
#
# Indices 1 2 3 4 5 6 
#
# 1 0.056261 0.000813 -0.018575 0.000000 0.019448 0.000000
# 2 0.000813 0.018323 -0.006908 0.000000 -0.001450 0.000000
# 3 -0.018575 -0.006908 0.015561 0.000000 -0.001833 0.000000
# 4 0.000000 0.000000 0.000000 0.031938 0.000000 0.038713
# 5 0.019448 -0.001450 -0.001833 0.000000 0.026677 0.000000
# 6 0.000000 0.000000 0.000000 0.038713 0.000000 0.139918
#
#
# Mechanical properties :
#
#
# Convention : Reuss Voigt Hill
#
# Bulk Modulus (GPa) = 24.50775 62.12013 43.31394
# Shear Modulus (GPa) = 14.21991 32.67167 23.44579
#
# Velocity S-wave (km/s) = 2.60583 3.94987 3.34603
# Velocity P-wave (km/s) = 4.55596 7.10393 5.96752
#
# Compressibility (1/GPa) = 0.04080343
#
# Stress axis : x y z
#
# Youngs Moduli (GPa) = 17.77440 54.57602 64.26463
#
# Poissons Ratio (x) = -0.04435 1.19373
# Poissons Ratio (y) = -0.01444 0.44393
# Poissons Ratio (z) = 0.33016 0.37700
#
# Static dielectric constant tensor:
#      x y z
#    x 1.820520 0.000000 -0.030340 
#    y 0.000000 1.774650 0.000000 
#    z -0.030340 0.000000 1.808500 
# 
# From -- ./inp_files/26458.got.cif
#   From: 2010.05.17/outbox.cif.g08.bks.cpg/sg5_14_cif.got.tgz:26458.got - 2010.06.03 18:56:24.
