data_PCOD9125834
_publ_section_title
;
Structure prediction by ZEFSAII (Michael W. Deem and Ramdas Pophale) SiO2 
 PCOD9125834
Probable space group: C 2
;
_chemical_formula_sum "Si O2"
_cell_formula_units_Z 28
_cell_length_a 13.671460
_cell_length_b 6.827828
_cell_length_c 15.906610
_cell_angle_alpha 90.000000
_cell_angle_beta 119.767103
_cell_angle_gamma 90.000000
_cell_volume 1288.902808
_symmetry_space_group_name_H-M "C 2"
_symmetry_group_IT_number 5
_symmetry_cell_setting 'monoclinic'
loop_
_space_group_symop_operation_xyz
x,y,z
-x,y,-z
1/2+x,1/2+y,z
1/2-x,1/2+y,-z
loop_
_atom_site_type_symbol
_atom_site_label
_atom_site_fract_x
_atom_site_fract_y
_atom_site_fract_z
Si Si1 0.681082 0.665210 0.121337
Si Si2 0.258801 0.840692 0.404575
Si Si3 0.377549 0.986674 0.607882
Si Si4 0.132466 0.913176 0.866465
Si Si5 0.500000 0.918564 0.000000
Si Si6 0.000000 0.441625 0.500000
Si Si7 0.173947 0.729861 0.064363
Si Si8 0.089326 0.140677 0.260346
O O1 0.690764 0.432683 0.119391
O O2 0.614844 0.715263 0.177872
O O3 0.802414 0.762959 0.166514
O O4 0.598575 0.763146 0.015153
O O5 0.177888 0.656534 0.361773
O O6 0.276344 0.884846 0.511361
O O7 0.387947 0.817884 0.429621
O O8 0.200568 0.026652 0.337998
O O9 0.459649 0.054077 0.566672
O O10 0.434268 0.821694 0.688622
O O11 0.214802 0.102201 0.904330
O O12 0.012574 0.988352 0.785858
O O13 0.128345 0.802024 0.954102
O O14 0.412774 0.083384 0.926596
#
# Coordination Sequence:
#
# PCOD9125834 Si02
#       8
#     4   4   4   4   2   2   4   4
#     4  11  25  42  63 104 137 181 237 289 354 410
#     4  10  21  44  68  96 132 181 227 284 353 415
#     4  10  21  44  68  93 134 177 229 284 348 422
#     4  11  25  42  68  99 136 189 232 291 343 423
#     4  10  22  40  70  90 130 184 226 292 354 414
#     4   8  20  42  72  92 124 184 222 272 348 420
#     4  11  22  44  68  91 137 186 236 279 358 421
#     4  12  26  40  66 106 139 171 240 292 339 415
#
# _framework density 21.723903
#
# number of rings (size 3 to 8) (size 9 to 14) (size 15 to 20)
#    0.857    0.571    2.857    2.143    2.000    8.000 
#    0.000    5.000    0.000    0.000    0.000    0.000 
#    0.000    0.000    0.000    0.000    0.000    0.000 
#
# Total GULP energy -77945.657329 kJ/mol
# GULP energy per Si atom -5567.546952 kJ/mol
# Density = 2.167446 g / cm^3
# Si number density = 21.723903 Si / 1000 Ang^3
#
#
#
# Elastic Constant Matrix: (Units=GPa)
#
#
# Indices 1 2 3 4 5 6 
#
# 1 114.0745 35.8989 20.7975 0.0000 15.2327 0.0000
# 2 35.8989 114.4371 12.0400 0.0000 11.2681 0.0000
# 3 20.7975 12.0400 48.1241 0.0000 5.9924 0.0000
# 4 0.0000 0.0000 0.0000 25.4372 0.0000 7.4023
# 5 15.2327 11.2681 5.9924 0.0000 15.6711 0.0000
# 6 0.0000 0.0000 0.0000 7.4023 0.0000 22.4244
#
#
#
# Elastic Compliance Matrix: (Units=1/GPa)
#
#
# Indices 1 2 3 4 5 6 
#
# 1 0.011162 -0.002383 -0.003244 0.000000 -0.007896 0.000000
# 2 -0.002383 0.010030 -0.000913 0.000000 -0.004546 0.000000
# 3 -0.003244 -0.000913 0.023032 0.000000 -0.004997 0.000000
# 4 0.000000 0.000000 0.000000 0.043490 0.000000 -0.014356
# 5 -0.007896 -0.004546 -0.004997 0.000000 0.076666 0.000000
# 6 0.000000 0.000000 0.000000 -0.014356 0.000000 0.049333
#
#
# Mechanical properties :
#
#
# Convention : Reuss Voigt Hill
#
# Bulk Modulus (GPa) = 32.11011 46.01204 39.06108
# Shear Modulus (GPa) = 21.08142 26.56651 23.82396
#
# Velocity S-wave (km/s) = 3.11854 3.50082 3.31519
# Velocity P-wave (km/s) = 5.27069 6.12922 5.71609
#
# Compressibility (1/GPa) = 0.03114284
#
# Stress axis : x y z
#
# Youngs Moduli (GPa) = 89.59067 99.70456 43.41697
#
# Poissons Ratio (x) = 0.23756 0.14086
# Poissons Ratio (y) = 0.21346 0.03966
# Poissons Ratio (z) = 0.29067 0.09108
#
# Static dielectric constant tensor:
#      x y z
#    x 1.798950 0.000000 -0.011850 
#    y 0.000000 1.800760 0.000000 
#    z -0.011850 0.000000 1.889070 
# 
# From -- ./inp_files/65565.got.cif
#   From: 2010.05.17/outbox.cif.g08.bks.cpg/sg5_33_cif.got.tgz:65565.got - 2010.06.03 18:56:24.
