data_PCOD9125088
_publ_section_title
;
Structure prediction by ZEFSAII (Michael W. Deem and Ramdas Pophale) SiO2 
 PCOD9125088
Probable space group: C 2
;
_chemical_formula_sum "Si O2"
_cell_formula_units_Z 28
_cell_length_a 17.084354
_cell_length_b 14.063233
_cell_length_c 6.119881
_cell_angle_alpha 90.000000
_cell_angle_beta 64.864308
_cell_angle_gamma 90.000000
_cell_volume 1331.132628
_symmetry_space_group_name_H-M "C 2"
_symmetry_group_IT_number 5
_symmetry_cell_setting 'monoclinic'
loop_
_space_group_symop_operation_xyz
x,y,z
-x,y,-z
1/2+x,1/2+y,z
1/2-x,1/2+y,-z
loop_
_atom_site_type_symbol
_atom_site_label
_atom_site_fract_x
_atom_site_fract_y
_atom_site_fract_z
Si Si1 0.071591 0.878490 0.727771
Si Si2 0.703641 0.685450 0.059860
Si Si3 0.120533 0.078604 0.532795
Si Si4 0.768970 0.358260 0.654642
Si Si5 0.962623 0.661770 0.298828
Si Si6 0.206492 0.567916 0.373762
Si Si7 0.088447 0.264345 0.813511
O O1 0.171207 0.867809 0.686815
O O2 0.050758 0.775291 0.654895
O O3 0.073249 0.977875 0.594908
O O4 0.000000 0.893103 0.000000
O O5 0.656678 0.604283 0.253903
O O6 0.731311 0.771824 0.177962
O O7 0.783126 0.640860 0.836704
O O8 0.636071 0.725598 0.968798
O O9 0.205678 0.073912 0.587541
O O10 0.069546 0.171361 0.683605
O O11 0.798089 0.460723 0.707170
O O12 0.841367 0.329291 0.391125
O O13 0.873687 0.602791 0.391376
O O14 0.000000 0.630892 0.500000
O O15 0.000000 0.652508 0.000000
O O16 0.000000 0.311041 0.000000
#
# Coordination Sequence:
#
# PCOD9125088 Si02
#       7
#     4   4   4   4   4   4   4
#     4  10  21  41  64  96 133 175 223 280 345 411
#     4  10  21  39  68  90 126 169 217 279 340 412
#     4   9  20  39  63  93 125 164 219 274 344 416
#     4  10  23  42  63  95 129 172 228 276 347 411
#     4  11  26  45  66  99 139 183 234 290 345 412
#     4  10  23  41  64  92 126 178 223 278 338 410
#     4  10  21  40  60  90 127 164 215 281 341 408
#
# _framework density 21.034718999999999
#
# number of rings (size 3 to 8) (size 9 to 14) (size 15 to 20)
#    0.000    2.000    0.000    3.000    6.000    6.286 
#   15.429    0.000    0.000    0.000    0.000    0.000 
#    0.000    0.000    0.000    0.000    0.000    0.000 
#
# Total GULP energy -78033.537158 kJ/mol
# GULP energy per Si atom -5573.824083 kJ/mol
# Density = 2.098684 g / cm^3
# Si number density = 21.034719 Si / 1000 Ang^3
#
#
#
# Elastic Constant Matrix: (Units=GPa)
#
#
# Indices 1 2 3 4 5 6 
#
# 1 56.5418 27.2207 54.4190 0.0000 -19.4980 0.0000
# 2 27.2207 79.8474 48.9905 0.0000 -19.9266 0.0000
# 3 54.4190 48.9905 120.1214 0.0000 -21.6259 0.0000
# 4 0.0000 0.0000 0.0000 14.3781 0.0000 1.1257
# 5 -19.4980 -19.9266 -21.6259 0.0000 31.2599 0.0000
# 6 0.0000 0.0000 0.0000 1.1257 0.0000 11.3669
#
#
#
# Elastic Compliance Matrix: (Units=1/GPa)
#
#
# Indices 1 2 3 4 5 6 
#
# 1 0.035177 -0.000692 -0.013460 0.000000 0.012188 0.000000
# 2 -0.000692 0.018077 -0.005782 0.000000 0.007091 0.000000
# 3 -0.013460 -0.005782 0.016684 0.000000 -0.000539 0.000000
# 4 0.000000 0.000000 0.000000 0.070094 0.000000 -0.006942
# 5 0.012188 0.007091 -0.000539 0.000000 0.043740 0.000000
# 6 0.000000 0.000000 0.000000 -0.006942 0.000000 0.088662
#
#
# Mechanical properties :
#
#
# Convention : Reuss Voigt Hill
#
# Bulk Modulus (GPa) = 33.25643 57.53008 45.39326
# Shear Modulus (GPa) = 15.51232 19.79300 17.65266
#
# Velocity S-wave (km/s) = 2.71857 3.07085 2.90006
# Velocity P-wave (km/s) = 5.06939 6.32320 5.73069
#
# Compressibility (1/GPa) = 0.03006937
#
# Stress axis : x y z
#
# Youngs Moduli (GPa) = 28.42805 55.31767 59.93844
#
# Poissons Ratio (x) = 0.03829 0.80674
# Poissons Ratio (y) = 0.01968 0.34659
# Poissons Ratio (z) = 0.38263 0.31987
#
# Static dielectric constant tensor:
#      x y z
#    x 1.817140 0.000000 -0.017620 
#    y 0.000000 1.768630 0.000000 
#    z -0.017620 0.000000 1.796280 
# 
# From -- ./inp_files/8605.got.cif
#   From: 2010.05.17/outbox.cif.g08.bks.cpg/sg5_5_cif.got.tgz:8605.got - 2010.06.03 18:56:24.
