data_PCOD9125499
_publ_section_title
;
Structure prediction by ZEFSAII (Michael W. Deem and Ramdas Pophale) SiO2 
 PCOD9125499
Probable space group: C 2
;
_chemical_formula_sum "Si O2"
_cell_formula_units_Z 32
_cell_length_a 10.799793
_cell_length_b 9.787092
_cell_length_c 27.465288
_cell_angle_alpha 90.000000
_cell_angle_beta 29.442255
_cell_angle_gamma 90.000000
_cell_volume 1426.978866
_symmetry_space_group_name_H-M "C 2"
_symmetry_group_IT_number 5
_symmetry_cell_setting 'monoclinic'
loop_
_space_group_symop_operation_xyz
x,y,z
-x,y,-z
1/2+x,1/2+y,z
1/2-x,1/2+y,-z
loop_
_atom_site_type_symbol
_atom_site_label
_atom_site_fract_x
_atom_site_fract_y
_atom_site_fract_z
Si Si1 0.434547 0.250000 0.796332
Si Si2 0.466129 0.561592 0.250057
Si Si3 0.266762 0.574325 0.935233
Si Si4 0.578299 0.127573 0.560852
Si Si5 0.498266 0.433078 0.602379
Si Si6 0.635493 0.822562 0.034249
Si Si7 0.261272 0.096616 0.391077
Si Si8 0.875045 0.531435 0.191154
O O1 0.552237 0.400336 0.754586
O O2 0.553360 0.179447 0.707496
O O3 0.508540 0.151482 0.815697
O O4 0.134496 0.276950 0.895648
O O5 0.534474 0.621170 0.173561
O O6 0.693596 0.583692 0.209910
O O7 0.204255 0.612980 0.360700
O O8 0.251207 0.684779 0.983227
O O9 0.301395 0.419213 0.942543
O O10 0.000000 0.569582 0.000000
O O11 0.625417 0.287538 0.551879
O O12 0.592800 0.060045 0.609855
O O13 0.794390 0.049389 0.458308
O O14 0.348792 0.475480 0.604589
O O15 0.301590 0.439865 0.713381
O O16 0.572168 0.928058 0.099544
O O17 0.000000 0.167183 0.500000
#
# Coordination Sequence:
#
# PCOD9125499 Si02
#       8
#     4   4   4   4   4   4   4   4
#     4  10  21  41  69  97 132 179 219 271 335 390
#     4  11  24  40  64  99 132 176 217 278 331 393
#     4  12  25  46  69 100 134 169 221 276 334 401
#     4  11  23  41  65  94 138 173 228 275 330 387
#     4  10  23  41  64  97 132 180 225 270 325 401
#     4  11  26  45  72  98 132 173 221 274 337 397
#     4   9  20  39  64  90 133 175 225 267 322 388
#     4  10  22  43  66 100 138 172 225 268 330 401
#
# _framework density 22.425000000000001
#
# number of rings (size 3 to 8) (size 9 to 14) (size 15 to 20)
#    0.000    1.500    2.500    3.000    7.000    2.500 
#    4.500    0.000    0.000    0.000    0.000    0.000 
#    0.000    0.000    0.000    0.000    0.000    0.000 
#
# Total GULP energy -89394.759871 kJ/mol
# GULP energy per Si atom -5587.172492 kJ/mol
# Density = 2.237396 g / cm^3
# Si number density = 22.425000 Si / 1000 Ang^3
#
#
#
# Elastic Constant Matrix: (Units=GPa)
#
#
# Indices 1 2 3 4 5 6 
#
# 1 67.9132 35.9912 10.9764 -0.0019 6.3491 0.0006
# 2 35.9912 96.3684 3.7550 -0.0014 -2.5739 0.0000
# 3 10.9764 3.7550 41.3908 0.0010 18.1088 -0.0006
# 4 -0.0019 -0.0014 0.0010 29.6057 0.0004 -1.9755
# 5 6.3491 -2.5739 18.1088 0.0004 24.9352 0.0002
# 6 0.0006 0.0000 -0.0006 -1.9755 0.0002 31.3234
#
#
#
# Elastic Compliance Matrix: (Units=1/GPa)
#
#
# Indices 1 2 3 4 5 6 
#
# 1 0.019348 -0.007207 -0.002926 0.000001 -0.003546 0.000000
# 2 -0.007207 0.013213 -0.001007 0.000000 0.003930 0.000000
# 3 -0.002926 -0.001007 0.036271 -0.000001 -0.025700 0.000001
# 4 0.000001 0.000000 -0.000001 0.033920 0.000000 0.002139
# 5 -0.003546 0.003930 -0.025700 0.000000 0.060077 -0.000001
# 6 0.000000 0.000000 0.000001 0.002139 -0.000001 0.032060
#
#
# Mechanical properties :
#
#
# Convention : Reuss Voigt Hill
#
# Bulk Modulus (GPa) = 21.48095 34.12419 27.80257
# Shear Modulus (GPa) = 21.48813 27.50284 24.49548
#
# Velocity S-wave (km/s) = 3.09887 3.50585 3.30863
# Velocity P-wave (km/s) = 4.73327 5.62477 5.19817
#
# Compressibility (1/GPa) = 0.04655287
#
# Stress axis : x y z
#
# Youngs Moduli (GPa) = 51.68390 75.68511 27.56992
#
# Poissons Ratio (x) = 0.54545 0.08067
# Poissons Ratio (y) = 0.37248 0.02776
# Poissons Ratio (z) = 0.15122 0.07622
#
# Static dielectric constant tensor:
#      x y z
#    x 1.850740 0.000000 0.036350 
#    y 0.000000 1.804270 0.000000 
#    z 0.036350 0.000000 1.884610 
# 
# From -- ./inp_files/71753.got.cif
#   From: 2010.05.17/outbox.cif.g08.bks.cpg/sg5_36_cif.got.tgz:71753.got - 2010.06.03 18:56:24.
