data_PCOD9125678
_publ_section_title
;
Structure prediction by ZEFSAII (Michael W. Deem and Ramdas Pophale) SiO2 
 PCOD9125678
Probable space group: C 2
;
_chemical_formula_sum "Si O2"
_cell_formula_units_Z 32
_cell_length_a 32.781371
_cell_length_b 8.228492
_cell_length_c 5.254937
_cell_angle_alpha 90.000000
_cell_angle_beta 108.201882
_cell_angle_gamma 90.000000
_cell_volume 1346.545447
_symmetry_space_group_name_H-M "C 2"
_symmetry_group_IT_number 5
_symmetry_cell_setting 'monoclinic'
loop_
_space_group_symop_operation_xyz
x,y,z
-x,y,-z
1/2+x,1/2+y,z
1/2-x,1/2+y,-z
loop_
_atom_site_type_symbol
_atom_site_label
_atom_site_fract_x
_atom_site_fract_y
_atom_site_fract_z
Si Si1 0.040914 0.068440 0.421053
Si Si2 0.247933 0.363044 0.313637
Si Si3 0.632880 0.024648 0.868513
Si Si4 0.715193 0.702719 0.729918
Si Si5 0.339912 0.203346 0.562554
Si Si6 0.628001 0.656462 0.822150
Si Si7 0.453681 0.203237 0.345759
Si Si8 0.587369 0.416442 0.133722
O O1 0.000000 0.125282 0.500000
O O2 0.045422 0.875316 0.500176
O O3 0.051388 0.050428 0.142912
O O4 0.082877 0.162652 0.590670
O O5 0.217208 0.318707 0.488930
O O6 0.294685 0.292694 0.473905
O O7 0.134857 0.336337 0.944665
O O8 0.232529 0.286151 0.019307
O O9 0.659317 0.076667 0.669699
O O10 0.584761 0.077695 0.692414
O O11 0.754473 0.052787 0.284307
O O12 0.649133 0.124352 0.143768
O O13 0.668299 0.635144 0.713384
O O14 0.379016 0.333356 0.606552
O O15 0.619663 0.509883 0.002560
O O16 0.500000 0.130067 0.500000
O O17 0.441620 0.273882 0.044095
#
# Coordination Sequence:
#
# PCOD9125678 Si02
#       8
#     4   4   4   4   4   4   4   4
#     4  10  21  42  71 102 139 194 250 295 363 443
#     4  12  29  50  74 109 147 192 250 310 374 446
#     4  11  25  44  70 106 141 198 235 307 368 442
#     4  12  30  49  76 112 148 199 246 317 374 450
#     4  11  25  47  73  98 147 189 247 294 375 440
#     4  11  28  43  71 106 152 189 246 304 384 431
#     4   9  20  39  66 100 138 184 248 297 359 437
#     4  10  22  44  72 103 139 198 243 314 362 443
#
# _framework density 23.764514999999999
#
# number of rings (size 3 to 8) (size 9 to 14) (size 15 to 20)
#    0.000    1.250    1.250    2.250   15.750    5.000 
#    0.000    0.000    2.750    0.000    0.000    0.000 
#    0.000    0.000    0.000    0.000    0.000    0.000 
#
# Total GULP energy -89361.413745 kJ/mol
# GULP energy per Si atom -5585.088359 kJ/mol
# Density = 2.371043 g / cm^3
# Si number density = 23.764515 Si / 1000 Ang^3
#
#
#
# Elastic Constant Matrix: (Units=GPa)
#
#
# Indices 1 2 3 4 5 6 
#
# 1 157.9162 40.4515 50.9238 0.0000 0.9135 0.0000
# 2 40.4515 73.7660 32.1422 0.0000 0.4031 0.0000
# 3 50.9238 32.1422 94.3361 0.0000 -3.2787 0.0000
# 4 0.0000 0.0000 0.0000 23.1692 0.0000 -2.4066
# 5 0.9135 0.4031 -3.2787 0.0000 38.6363 0.0000
# 6 0.0000 0.0000 0.0000 -2.4066 0.0000 29.0010
#
#
#
# Elastic Compliance Matrix: (Units=1/GPa)
#
#
# Indices 1 2 3 4 5 6 
#
# 1 0.008209 -0.003008 -0.003422 0.000000 -0.000453 0.000000
# 2 -0.003008 0.017037 -0.004197 0.000000 -0.000463 0.000000
# 3 -0.003422 -0.004197 0.013923 0.000000 0.001306 0.000000
# 4 0.000000 0.000000 0.000000 0.043536 0.000000 0.003613
# 5 -0.000453 -0.000463 0.001306 0.000000 0.026009 0.000000
# 6 0.000000 0.000000 0.000000 0.003613 0.000000 0.034781
#
#
# Mechanical properties :
#
#
# Convention : Reuss Voigt Hill
#
# Bulk Modulus (GPa) = 55.82029 63.67258 59.74643
# Shear Modulus (GPa) = 29.28724 31.66135 30.47430
#
# Velocity S-wave (km/s) = 3.51436 3.65402 3.58487
# Velocity P-wave (km/s) = 6.32515 6.68235 6.50620
#
# Compressibility (1/GPa) = 0.01791463
#
# Stress axis : x y z
#
# Youngs Moduli (GPa) = 121.81414 58.69458 71.82224
#
# Poissons Ratio (x) = 0.17656 0.24580
# Poissons Ratio (y) = 0.36643 0.30146
# Poissons Ratio (z) = 0.41688 0.24636
#
# Static dielectric constant tensor:
#      x y z
#    x 2.021350 0.000000 -0.090830 
#    y 0.000000 1.923610 0.000000 
#    z -0.090830 0.000000 1.990540 
# 
# From -- ./inp_files/10491.got.cif
#   From: 2010.05.17/outbox.cif.g08.bks.cpg/sg5_6_cif.got.tgz:10491.got - 2010.06.03 18:56:24.
