data_PCOD9125988
_publ_section_title
;
Structure prediction by ZEFSAII (Michael W. Deem and Ramdas Pophale) SiO2 
 PCOD9125988
Probable space group: C 2
;
_chemical_formula_sum "Si O2"
_cell_formula_units_Z 24
_cell_length_a 5.301203
_cell_length_b 24.517166
_cell_length_c 8.401252
_cell_angle_alpha 90.000000
_cell_angle_beta 96.567665
_cell_angle_gamma 90.000000
_cell_volume 1084.748984
_symmetry_space_group_name_H-M "C 2"
_symmetry_group_IT_number 5
_symmetry_cell_setting 'monoclinic'
loop_
_space_group_symop_operation_xyz
x,y,z
-x,y,-z
1/2+x,1/2+y,z
1/2-x,1/2+y,-z
loop_
_atom_site_type_symbol
_atom_site_label
_atom_site_fract_x
_atom_site_fract_y
_atom_site_fract_z
Si Si1 0.500000 0.155890 0.500000
Si Si2 0.500000 0.860134 0.000000
Si Si3 0.000000 0.404982 0.500000
Si Si4 0.500000 0.723659 0.500000
Si Si5 0.754018 0.815647 0.728632
Si Si6 0.864782 0.903909 0.277464
Si Si7 0.433845 0.510397 0.811272
Si Si8 0.062723 0.578563 0.196677
O O1 0.762725 0.189136 0.549944
O O2 0.551205 0.124044 0.335936
O O3 0.686571 0.821857 0.908733
O O4 0.323881 0.899381 0.883708
O O5 0.085114 0.362830 0.640379
O O6 0.231249 0.429955 0.422412
O O7 0.647625 0.761281 0.641031
O O8 0.027746 0.841531 0.700455
O O9 0.072850 0.948455 0.247753
O O10 0.163035 0.537814 0.771842
O O11 0.665836 0.548227 0.766736
O O12 0.500000 0.507080 0.000000
O O13 0.000000 0.592823 0.000000
#
# Coordination Sequence:
#
# PCOD9125988 Si02
#       8
#     2   2   2   2   4   4   4   4
#     4  12  26  53  73 102 133 180 245 316 366 418
#     4  10  22  36  64  94 144 180 226 272 334 414
#     4   9  22  35  58  86 138 184 227 272 327 394
#     4  11  28  46  77  94 135 184 234 296 377 410
#     4  10  22  42  60  96 136 177 225 287 338 420
#     4  11  22  38  63  99 149 188 230 268 339 426
#     4  10  22  39  70 101 142 185 226 273 354 425
#     4  10  24  47  72 103 139 179 233 303 361 420
#
# _framework density 22.124936000000002
#
# number of rings (size 3 to 8) (size 9 to 14) (size 15 to 20)
#    0.000    1.667    0.000    3.000   15.167    0.667 
#    6.000    0.000    0.000    0.000    0.000    0.000 
#    0.000    0.000    0.000    0.000    0.000    0.000 
#
# Total GULP energy -66811.120809 kJ/mol
# GULP energy per Si atom -5567.593401 kJ/mol
# Density = 2.207458 g / cm^3
# Si number density = 22.124936 Si / 1000 Ang^3
#
#
#
# Elastic Constant Matrix: (Units=GPa)
#
#
# Indices 1 2 3 4 5 6 
#
# 1 126.0385 42.4616 46.7972 0.0000 -19.9334 0.0000
# 2 42.4616 91.7786 51.6848 0.0000 -15.3217 0.0000
# 3 46.7972 51.6848 103.0122 0.0000 -12.2723 0.0000
# 4 0.0000 0.0000 0.0000 18.0441 0.0000 4.9601
# 5 -19.9334 -15.3217 -12.2723 0.0000 39.1060 0.0000
# 6 0.0000 0.0000 0.0000 4.9601 0.0000 31.2269
#
#
#
# Elastic Compliance Matrix: (Units=1/GPa)
#
#
# Indices 1 2 3 4 5 6 
#
# 1 0.010468 -0.002548 -0.003075 0.000000 0.003372 0.000000
# 2 -0.002548 0.016340 -0.006682 0.000000 0.003006 0.000000
# 3 -0.003075 -0.006682 0.014501 0.000000 0.000365 0.000000
# 4 0.000000 0.000000 0.000000 0.057950 0.000000 -0.009205
# 5 0.003372 0.003006 0.000365 0.000000 0.028583 0.000000
# 6 0.000000 0.000000 0.000000 -0.009205 0.000000 0.033486
#
#
# Mechanical properties :
#
#
# Convention : Reuss Voigt Hill
#
# Bulk Modulus (GPa) = 59.89184 66.96849 63.43016
# Shear Modulus (GPa) = 26.10910 29.66778 27.88844
#
# Velocity S-wave (km/s) = 3.43895 3.66583 3.55420
# Velocity P-wave (km/s) = 6.54959 6.94635 6.75089
#
# Compressibility (1/GPa) = 0.01669677
#
# Stress axis : x y z
#
# Youngs Moduli (GPa) = 95.53257 61.20044 68.96136
#
# Poissons Ratio (x) = 0.15595 0.21206
# Poissons Ratio (y) = 0.24344 0.46083
# Poissons Ratio (z) = 0.29377 0.40897
#
# Static dielectric constant tensor:
#      x y z
#    x 2.338550 0.000000 -0.181210 
#    y 0.000000 1.795920 0.000000 
#    z -0.181210 0.000000 1.992770 
# 
# From -- ./inp_files/12884.got.cif
#   From: 2010.05.17/outbox.cif.g08.bks.cpg/sg5_7_cif.got.tgz:12884.got - 2010.06.03 18:56:24.
