data_PCOD9125740
_publ_section_title
;
Structure prediction by ZEFSAII (Michael W. Deem and Ramdas Pophale) SiO2 
 PCOD9125740
Probable space group: C 2
;
_chemical_formula_sum "Si O2"
_cell_formula_units_Z 28
_cell_length_a 12.361851
_cell_length_b 13.223565
_cell_length_c 7.141140
_cell_angle_alpha 90.000000
_cell_angle_beta 104.431927
_cell_angle_gamma 90.000000
_cell_volume 1130.509753
_symmetry_space_group_name_H-M "C 2"
_symmetry_group_IT_number 5
_symmetry_cell_setting 'monoclinic'
loop_
_space_group_symop_operation_xyz
x,y,z
-x,y,-z
1/2+x,1/2+y,z
1/2-x,1/2+y,-z
loop_
_atom_site_type_symbol
_atom_site_label
_atom_site_fract_x
_atom_site_fract_y
_atom_site_fract_z
Si Si1 0.554298 0.084010 0.225714
Si Si2 0.785965 0.056872 0.232792
Si Si3 0.051628 0.779829 0.812884
Si Si4 0.488209 0.643720 0.721339
Si Si5 0.486184 0.856570 0.713448
Si Si6 0.127401 0.944061 0.357129
Si Si7 0.264019 0.879729 0.063087
O O1 0.681991 0.121456 0.265935
O O2 0.475689 0.169466 0.283104
O O3 0.563074 0.968772 0.298065
O O4 0.500000 0.070951 0.000000
O O5 0.881679 0.125272 0.181757
O O6 0.827723 0.984033 0.422670
O O7 0.743036 0.984950 0.050789
O O8 0.976741 0.866400 0.683474
O O9 0.000000 0.777605 0.000000
O O10 0.179958 0.808352 0.907687
O O11 0.500000 0.636537 0.500000
O O12 0.433680 0.749828 0.754525
O O13 0.419873 0.546765 0.756488
O O14 0.500000 0.840808 0.500000
O O15 0.606240 0.855909 0.864699
O O16 0.217114 0.895570 0.254309
#
# Coordination Sequence:
#
# PCOD9125740 Si02
#       7
#     4   4   4   4   4   4   4
#     4  11  23  43  60  92 134 168 207 266 320 380
#     4  11  22  41  69  94 125 170 212 257 328 378
#     4   9  21  39  67  90 125 167 207 266 316 369
#     4   9  21  40  67  91 124 166 211 263 317 377
#     4  11  24  43  62  92 131 171 212 262 322 384
#     4  10  21  43  67  96 127 160 216 272 310 372
#     4  11  22  40  70  96 122 169 217 262 319 380
#
# _framework density 24.767588
#
# number of rings (size 3 to 8) (size 9 to 14) (size 15 to 20)
#    0.000    1.714    2.857    0.857    6.000    0.000 
#    7.714    1.429    0.000    0.000    0.000    0.000 
#    0.000    0.000    0.000    0.000    0.000    0.000 
#
# Total GULP energy -78135.403326 kJ/mol
# GULP energy per Si atom -5581.100238 kJ/mol
# Density = 2.471122 g / cm^3
# Si number density = 24.767588 Si / 1000 Ang^3
#
#
#
# Elastic Constant Matrix: (Units=GPa)
#
#
# Indices 1 2 3 4 5 6 
#
# 1 37.1020 -1.8462 -3.9907 0.0000 6.4417 0.0000
# 2 -1.8462 149.1020 1.6329 0.0000 1.7004 0.0000
# 3 -3.9907 1.6329 81.2100 0.0000 -4.5482 0.0000
# 4 0.0000 0.0000 0.0000 -6.4948 0.0000 -22.6341
# 5 6.4417 1.7004 -4.5482 0.0000 33.6560 0.0000
# 6 0.0000 0.0000 0.0000 -22.6341 0.0000 2.4481
#
#
#
# Elastic Compliance Matrix: (Units=1/GPa)
#
#
# Indices 1 2 3 4 5 6 
#
# 1 0.027997 0.000395 0.001075 0.000000 -0.005233 0.000000
# 2 0.000395 0.006718 -0.000140 0.000000 -0.000434 0.000000
# 3 0.001075 -0.000140 0.012453 0.000000 0.001484 0.000000
# 4 0.000000 0.000000 0.000000 -0.004635 0.000000 -0.042851
# 5 -0.005233 -0.000434 0.001484 0.000000 0.030937 0.000000
# 6 0.000000 0.000000 0.000000 -0.042851 0.000000 0.012296
#
#
# Mechanical properties :
#
#
# Convention : Reuss Voigt Hill
#
# Bulk Modulus (GPa) = 20.06991 28.77846 24.42418
# Shear Modulus (GPa) = 50.14292 24.02972 37.08632
#
# Velocity S-wave (km/s) = 4.50437 3.11820 3.87379
# Velocity P-wave (km/s) = 5.93071 4.96073 5.46727
#
# Compressibility (1/GPa) = 0.04982584
#
# Stress axis : x y z
#
# Youngs Moduli (GPa) = 35.71870 148.84975 80.30513
#
# Poissons Ratio (x) = -0.05873 -0.08631
# Poissons Ratio (y) = -0.01409 0.01124
# Poissons Ratio (z) = -0.03839 0.02084
#
# Static dielectric constant tensor:
#      x y z
#    x 2.028980 0.000000 0.004140 
#    y 0.000000 2.060860 0.000000 
#    z 0.004140 0.000000 1.986150 
# 
# From -- ./inp_files/23931.got.cif
#   From: 2010.05.17/outbox.cif.g08.bks.cpg/sg5_12_cif.got.tgz:23931.got - 2010.06.03 18:56:24.
