data_PCOD9125449
_publ_section_title
;
Structure prediction by ZEFSAII (Michael W. Deem and Ramdas Pophale) SiO2 
 PCOD9125449
Probable space group: C 2
;
_chemical_formula_sum "Si O2"
_cell_formula_units_Z 24
_cell_length_a 23.719065
_cell_length_b 5.102451
_cell_length_c 8.472177
_cell_angle_alpha 90.000000
_cell_angle_beta 76.117562
_cell_angle_gamma 90.000000
_cell_volume 995.397977
_symmetry_space_group_name_H-M "C 2"
_symmetry_group_IT_number 5
_symmetry_cell_setting 'monoclinic'
loop_
_space_group_symop_operation_xyz
x,y,z
-x,y,-z
1/2+x,1/2+y,z
1/2-x,1/2+y,-z
loop_
_atom_site_type_symbol
_atom_site_label
_atom_site_fract_x
_atom_site_fract_y
_atom_site_fract_z
Si Si1 0.579873 0.823880 0.151459
Si Si2 0.564754 0.423912 0.895803
Si Si3 0.318283 0.335548 0.110472
Si Si4 0.489476 0.324023 0.686077
Si Si5 0.811868 0.138634 0.789848
Si Si6 0.789736 0.016635 0.462886
O O1 0.553703 0.570311 0.263262
O O2 0.644532 0.865641 0.179114
O O3 0.538973 0.066263 0.216958
O O4 0.578056 0.696876 0.976514
O O5 0.616666 0.229037 0.908427
O O6 0.550944 0.412027 0.721491
O O7 0.500000 0.358880 0.000000
O O8 0.257289 0.189946 0.165022
O O9 0.316612 0.524078 0.268619
O O10 0.318827 0.444716 0.933047
O O11 0.500000 0.260073 0.500000
O O12 0.825754 0.068851 0.598968
O O13 0.738483 0.231095 0.495706
#
# Coordination Sequence:
#
# PCOD9125449 Si02
#       6
#     4   4   4   4   4   4
#     4  10  24  44  69 100 142 186 230 300 351 424
#     4   9  22  43  67  98 138 182 237 285 347 419
#     4  10  21  41  67 102 135 191 221 291 348 423
#     4  11  24  45  72 104 138 186 240 295 356 420
#     4  10  22  41  69 101 145 178 236 285 360 416
#     4  10  22  40  62  97 137 177 226 279 339 417
#
# _framework density 24.110959999999999
#
# number of rings (size 3 to 8) (size 9 to 14) (size 15 to 20)
#    0.000    2.000    0.000    1.500    2.333   12.667 
#    6.000    8.333    0.000    0.000    0.000    0.000 
#    0.000    0.000    0.000    0.000    0.000    0.000 
#
# Total GULP energy -66859.243345 kJ/mol
# GULP energy per Si atom -5571.603612 kJ/mol
# Density = 2.405608 g / cm^3
# Si number density = 24.110960 Si / 1000 Ang^3
#
#
#
# Elastic Constant Matrix: (Units=GPa)
#
#
# Indices 1 2 3 4 5 6 
#
# 1 166.1229 35.4327 49.1690 0.0000 29.3559 0.0000
# 2 35.4327 80.3182 45.4161 0.0000 -6.4077 0.0000
# 3 49.1690 45.4161 177.5322 0.0000 35.7366 0.0000
# 4 0.0000 0.0000 0.0000 9.6457 0.0000 -5.5820
# 5 29.3559 -6.4077 35.7366 0.0000 40.3891 0.0000
# 6 0.0000 0.0000 0.0000 -5.5820 0.0000 30.4699
#
#
#
# Elastic Compliance Matrix: (Units=1/GPa)
#
#
# Indices 1 2 3 4 5 6 
#
# 1 0.008035 -0.004182 0.000187 0.000000 -0.006669 0.000000
# 2 -0.004182 0.018460 -0.005798 0.000000 0.011099 0.000000
# 3 0.000187 -0.005798 0.008854 0.000000 -0.008890 0.000000
# 4 0.000000 0.000000 0.000000 0.115967 0.000000 0.021245
# 5 -0.006669 0.011099 -0.008890 0.000000 0.039233 0.000000
# 6 0.000000 0.000000 0.000000 0.021245 0.000000 0.036711
#
#
# Mechanical properties :
#
#
# Convention : Reuss Voigt Hill
#
# Bulk Modulus (GPa) = 63.44687 76.00098 69.72392
# Shear Modulus (GPa) = 19.83343 35.69800 27.76572
#
# Velocity S-wave (km/s) = 2.87119 3.85199 3.39718
# Velocity P-wave (km/s) = 6.11256 7.16754 6.66097
#
# Compressibility (1/GPa) = 0.01576122
#
# Stress axis : x y z
#
# Youngs Moduli (GPa) = 124.45810 54.17255 112.94747
#
# Poissons Ratio (x) = 0.22657 -0.02113
# Poissons Ratio (y) = 0.52054 0.65488
# Poissons Ratio (z) = -0.02328 0.31410
#
# Static dielectric constant tensor:
#      x y z
#    x 2.043610 0.000000 -0.008180 
#    y 0.000000 1.952820 0.000000 
#    z -0.008180 0.000000 2.071360 
# 
# From -- ./inp_files/30293.got.cif
#   From: 2010.05.17/outbox.cif.g08.bks.cpg/sg5_16_cif.got.tgz:30293.got - 2010.06.03 18:56:24.
