data_PCOD9125271
_publ_section_title
;
Structure prediction by ZEFSAII (Michael W. Deem and Ramdas Pophale) SiO2 
 PCOD9125271
Probable space group: C 2
;
_chemical_formula_sum "Si O2"
_cell_formula_units_Z 32
_cell_length_a 14.494161
_cell_length_b 9.600047
_cell_length_c 23.135262
_cell_angle_alpha 90.000000
_cell_angle_beta 30.267151
_cell_angle_gamma 90.000000
_cell_volume 1622.555027
_symmetry_space_group_name_H-M "C 2"
_symmetry_group_IT_number 5
_symmetry_cell_setting 'monoclinic'
loop_
_space_group_symop_operation_xyz
x,y,z
-x,y,-z
1/2+x,1/2+y,z
1/2-x,1/2+y,-z
loop_
_atom_site_type_symbol
_atom_site_label
_atom_site_fract_x
_atom_site_fract_y
_atom_site_fract_z
Si Si1 0.617724 0.848080 0.291201
Si Si2 0.660062 0.587440 0.875793
Si Si3 0.106326 0.751792 0.762995
Si Si4 0.552075 0.674291 0.122665
Si Si5 0.344699 0.909563 0.540642
Si Si6 0.253231 0.367541 0.892358
Si Si7 0.414544 0.992215 0.913769
Si Si8 0.496402 0.589025 0.281863
O O1 0.797993 0.816452 0.232309
O O2 0.454967 0.858878 0.425512
O O3 0.562520 0.723475 0.279402
O O4 0.669362 0.986608 0.227833
O O5 0.586897 0.642444 0.853903
O O6 0.704159 0.723169 0.889584
O O7 0.500000 0.512890 0.000000
O O8 0.237070 0.791981 0.637404
O O9 0.914791 0.825725 0.850448
O O10 0.066698 0.591140 0.802031
O O11 0.482168 0.620268 0.221493
O O12 0.589616 0.838532 0.111034
O O13 0.733234 0.587313 0.008245
O O14 0.500000 0.968660 0.500000
O O15 0.197199 0.021049 0.598674
O O16 0.347683 0.471617 0.796702
O O17 0.092213 0.446029 0.014485
#
# Coordination Sequence:
#
# PCOD9125271 Si02
#       8
#     4   4   4   4   4   4   4   4
#     4  11  25  41  69  93 123 165 218 261 316 383
#     4  12  24  39  63  97 130 171 203 254 322 381
#     4  10  21  40  67  89 123 172 212 257 314 372
#     4  11  24  39  62  92 134 171 211 251 316 374
#     4   9  20  45  67  85 121 170 213 267 322 365
#     4  10  22  40  61  93 136 167 201 256 317 373
#     4  11  20  38  64  89 130 169 206 254 309 371
#     4  10  24  41  64  95 123 165 213 261 312 377
#
# _framework density 19.721982000000001
#
# number of rings (size 3 to 8) (size 9 to 14) (size 15 to 20)
#    0.000    1.500    2.500    3.000    5.250    3.000 
#    0.000    0.000    0.000    0.000    0.000    0.000 
#    0.000    0.000    0.000    0.000    0.000    0.000 
#
# Total GULP energy -89227.316718 kJ/mol
# GULP energy per Si atom -5576.707295 kJ/mol
# Density = 1.967709 g / cm^3
# Si number density = 19.721982 Si / 1000 Ang^3
#
#
#
# Elastic Constant Matrix: (Units=GPa)
#
#
# Indices 1 2 3 4 5 6 
#
# 1 90.9588 36.0724 32.3595 0.0000 3.8238 0.0000
# 2 36.0724 145.3605 45.8916 -0.0001 -1.6505 0.0000
# 3 32.3595 45.8916 82.2558 -0.0006 4.2109 0.0001
# 4 0.0000 -0.0001 -0.0006 22.7989 0.0001 -2.3986
# 5 3.8238 -1.6505 4.2109 0.0001 20.5333 0.0000
# 6 0.0000 0.0000 0.0001 -2.3986 0.0000 29.4128
#
#
#
# Elastic Compliance Matrix: (Units=1/GPa)
#
#
# Indices 1 2 3 4 5 6 
#
# 1 0.013309 -0.002063 -0.003991 0.000000 -0.001826 0.000000
# 2 -0.002063 0.008725 -0.004155 0.000000 0.001938 0.000000
# 3 -0.003991 -0.004155 0.016195 0.000000 -0.002912 0.000000
# 4 0.000000 0.000000 0.000000 0.044241 0.000000 0.003608
# 5 -0.001826 0.001938 -0.002912 0.000000 0.049794 0.000000
# 6 0.000000 0.000000 0.000000 0.003608 0.000000 0.034293
#
#
# Mechanical properties :
#
#
# Convention : Reuss Voigt Hill
#
# Bulk Modulus (GPa) = 56.15089 60.80248 58.47668
# Shear Modulus (GPa) = 25.91827 28.16577 27.04202
#
# Velocity S-wave (km/s) = 3.62910 3.78317 3.70694
# Velocity P-wave (km/s) = 6.78922 7.06965 6.93085
#
# Compressibility (1/GPa) = 0.01780916
#
# Stress axis : x y z
#
# Youngs Moduli (GPa) = 75.13758 114.60747 61.74840
#
# Poissons Ratio (x) = 0.23649 0.24644
# Poissons Ratio (y) = 0.15504 0.25659
# Poissons Ratio (z) = 0.29988 0.47625
#
# Static dielectric constant tensor:
#      x y z
#    x 1.733410 0.000000 -0.003220 
#    y 0.000000 1.707790 0.000000 
#    z -0.003220 0.000000 1.727320 
# 
# From -- ./inp_files/68755.got.cif
#   From: 2010.05.17/outbox.cif.g08.bks.cpg/sg5_35_cif.got.tgz:68755.got - 2010.06.03 18:56:24.
