data_PCOD9125087
_publ_section_title
;
Structure prediction by ZEFSAII (Michael W. Deem and Ramdas Pophale) SiO2 
 PCOD9125087
Probable space group: C 2
;
_chemical_formula_sum "Si O2"
_cell_formula_units_Z 24
_cell_length_a 22.754420
_cell_length_b 5.005842
_cell_length_c 10.737713
_cell_angle_alpha 90.000000
_cell_angle_beta 131.269639
_cell_angle_gamma 90.000000
_cell_volume 919.283412
_symmetry_space_group_name_H-M "C 2"
_symmetry_group_IT_number 5
_symmetry_cell_setting 'monoclinic'
loop_
_space_group_symop_operation_xyz
x,y,z
-x,y,-z
1/2+x,1/2+y,z
1/2-x,1/2+y,-z
loop_
_atom_site_type_symbol
_atom_site_label
_atom_site_fract_x
_atom_site_fract_y
_atom_site_fract_z
Si Si1 0.000000 0.713830 0.500000
Si Si2 0.424092 0.421451 0.151469
Si Si3 0.328278 0.129928 0.320207
Si Si4 0.307935 0.632512 0.456199
Si Si5 0.857263 0.453406 0.737559
Si Si6 0.000000 0.827108 0.000000
Si Si7 0.177204 0.386016 0.029253
O O1 0.983536 0.866151 0.347020
O O2 0.916354 0.572899 0.399926
O O3 0.466484 0.466089 0.077241
O O4 0.375868 0.682258 0.119870
O O5 0.361563 0.177255 0.044745
O O6 0.333820 0.353210 0.435644
O O7 0.266547 0.278055 0.141157
O O8 0.297867 0.851056 0.332446
O O9 0.222840 0.611832 0.400213
O O10 0.366487 0.743151 0.640888
O O11 0.930796 0.639803 0.853660
O O12 0.838001 0.329133 0.844967
#
# Coordination Sequence:
#
# PCOD9125087 Si02
#       7
#     2   4   4   4   4   2   4
#     4  12  30  48  72 104 140 186 238 292 350 408
#     4  11  26  45  69 100 137 180 229 283 347 412
#     4  11  25  44  68  99 139 184 237 291 343 410
#     4  11  23  41  68 104 143 186 231 284 349 422
#     4  10  21  39  68 102 138 182 227 281 349 416
#     4  10  22  42  68 102 138 174 226 294 346 398
#     4  10  23  44  67  95 132 180 230 279 342 417
#
# _framework density 26.107292000000001
#
# number of rings (size 3 to 8) (size 9 to 14) (size 15 to 20)
#    0.000    1.333    0.000    6.000    0.000   14.667 
#    0.000    0.000    0.000    0.000    0.000    0.000 
#    0.000    0.000    0.000    0.000    0.000    0.000 
#
# Total GULP energy -67149.962209 kJ/mol
# GULP energy per Si atom -5595.830184 kJ/mol
# Density = 2.604787 g / cm^3
# Si number density = 26.107292 Si / 1000 Ang^3
#
#
#
# Elastic Constant Matrix: (Units=GPa)
#
#
# Indices 1 2 3 4 5 6 
#
# 1 121.5611 32.4400 38.8800 0.0000 13.2059 0.0000
# 2 32.4400 89.8149 13.7022 0.0000 10.7047 0.0000
# 3 38.8800 13.7022 134.2637 0.0000 -1.0415 0.0000
# 4 0.0000 0.0000 0.0000 19.2785 0.0000 7.9886
# 5 13.2059 10.7047 -1.0415 0.0000 55.2878 0.0000
# 6 0.0000 0.0000 0.0000 7.9886 0.0000 12.4939
#
#
#
# Elastic Compliance Matrix: (Units=1/GPa)
#
#
# Indices 1 2 3 4 5 6 
#
# 1 0.010073 -0.003015 -0.002624 0.000000 -0.001872 0.000000
# 2 -0.003015 0.012490 -0.000415 0.000000 -0.001706 0.000000
# 3 -0.002624 -0.000415 0.008257 0.000000 0.000863 0.000000
# 4 0.000000 0.000000 0.000000 0.070568 0.000000 -0.045121
# 5 -0.001872 -0.001706 0.000863 0.000000 0.018881 0.000000
# 6 0.000000 0.000000 0.000000 -0.045121 0.000000 0.108889
#
#
# Mechanical properties :
#
#
# Convention : Reuss Voigt Hill
#
# Bulk Modulus (GPa) = 53.43998 57.29826 55.36912
# Shear Modulus (GPa) = 20.20176 34.78654 27.49415
#
# Velocity S-wave (km/s) = 2.78474 3.65423 3.24870
# Velocity P-wave (km/s) = 5.55459 6.30867 5.94361
#
# Compressibility (1/GPa) = 0.01871258
#
# Stress axis : x y z
#
# Youngs Moduli (GPa) = 99.27058 80.06668 121.11121
#
# Poissons Ratio (x) = 0.24140 0.31778
# Poissons Ratio (y) = 0.29930 0.05023
# Poissons Ratio (z) = 0.26048 0.03321
#
# Static dielectric constant tensor:
#      x y z
#    x 2.103420 0.000000 -0.032690 
#    y 0.000000 2.059710 0.000000 
#    z -0.032690 0.000000 2.068320 
# 
# From -- ./inp_files/46835.got.cif
#   From: 2010.05.17/outbox.cif.g08.bks.cpg/sg5_24_cif.got.tgz:46835.got - 2010.06.03 18:56:24.
