data_PCOD9125867
_publ_section_title
;
Structure prediction by ZEFSAII (Michael W. Deem and Ramdas Pophale) SiO2 
 PCOD9125867
Probable space group: C 2
;
_chemical_formula_sum "Si O2"
_cell_formula_units_Z 28
_cell_length_a 14.240540
_cell_length_b 5.113053
_cell_length_c 24.762175
_cell_angle_alpha 90.000000
_cell_angle_beta 42.125215
_cell_angle_gamma 90.000000
_cell_volume 1209.367298
_symmetry_space_group_name_H-M "C 2"
_symmetry_group_IT_number 5
_symmetry_cell_setting 'monoclinic'
loop_
_space_group_symop_operation_xyz
x,y,z
-x,y,-z
1/2+x,1/2+y,z
1/2-x,1/2+y,-z
loop_
_atom_site_type_symbol
_atom_site_label
_atom_site_fract_x
_atom_site_fract_y
_atom_site_fract_z
Si Si1 0.765322 0.914100 0.133429
Si Si2 0.500000 0.321356 0.500000
Si Si3 0.696799 0.069921 0.974136
Si Si4 0.926315 0.718443 0.859345
Si Si5 0.606067 0.125276 0.347553
Si Si6 0.500000 0.658388 0.000000
Si Si7 0.743518 0.123162 0.756527
Si Si8 0.333316 0.409521 0.473598
O O1 0.842970 0.817330 0.045195
O O2 0.744440 0.684670 0.184782
O O3 0.631236 0.074259 0.170147
O O4 0.899431 0.075961 0.094848
O O5 0.588830 0.152292 0.419521
O O6 0.398176 0.480821 0.504343
O O7 0.859289 0.009296 0.891173
O O8 0.611649 0.840535 0.983475
O O9 0.652269 0.097601 0.054420
O O10 0.090086 0.693474 0.799263
O O11 0.718194 0.330150 0.276589
O O12 0.458485 0.250838 0.390356
O O13 0.645997 0.832838 0.315147
O O14 0.280264 0.678023 0.470882
#
# Coordination Sequence:
#
# PCOD9125867 Si02
#       8
#     4   2   4   4   4   2   4   4
#     4  11  25  41  62  96 129 184 234 296 355 419
#     4   8  24  48  76 106 140 178 244 274 336 440
#     4  11  22  42  64  92 123 181 254 287 334 416
#     4  11  25  40  68  92 136 183 245 288 349 412
#     4  10  26  48  71 104 143 184 226 289 349 433
#     4  10  22  38  66  88 116 182 230 308 344 396
#     4  12  27  46  64 103 151 181 220 296 369 405
#     4  10  21  44  77 107 135 176 230 286 330 416
#
# _framework density 23.152602999999999
#
# number of rings (size 3 to 8) (size 9 to 14) (size 15 to 20)
#    0.857    0.571    1.429    3.000   10.000    2.286 
#    7.714    0.000    0.000    0.000    0.000    0.000 
#    0.000    0.000    0.000    0.000    0.000    0.000 
#
# Total GULP energy -78005.158401 kJ/mol
# GULP energy per Si atom -5571.797029 kJ/mol
# Density = 2.309991 g / cm^3
# Si number density = 23.152603 Si / 1000 Ang^3
#
#
#
# Elastic Constant Matrix: (Units=GPa)
#
#
# Indices 1 2 3 4 5 6 
#
# 1 71.7736 -20.3939 23.4390 0.0436 -5.6094 0.0435
# 2 -20.3939 33.4870 1.5855 0.0701 7.6520 -0.0325
# 3 23.4390 1.5855 65.8909 0.0594 0.6687 0.0028
# 4 0.0436 0.0701 0.0594 10.8231 0.0230 -26.4372
# 5 -5.6094 7.6520 0.6687 0.0230 35.8895 -0.0283
# 6 0.0435 -0.0325 0.0028 -26.4372 -0.0283 -64.7065
#
#
#
# Elastic Compliance Matrix: (Units=1/GPa)
#
#
# Indices 1 2 3 4 5 6 
#
# 1 0.019892 0.012322 -0.007379 -0.000052 0.000619 0.000028
# 2 0.012322 0.039056 -0.005259 -0.000141 -0.006303 0.000049
# 3 -0.007379 -0.005259 0.017932 -0.000019 -0.000366 0.000006
# 4 -0.000052 -0.000141 -0.000019 0.046245 -0.000022 -0.018894
# 5 0.000619 -0.006303 -0.000366 -0.000022 0.029311 0.000000
# 6 0.000028 0.000049 0.000006 -0.018894 0.000000 -0.007735
#
#
# Mechanical properties :
#
#
# Convention : Reuss Voigt Hill
#
# Bulk Modulus (GPa) = 13.11486 20.04585 16.58036
# Shear Modulus (GPa) = 29.28287 7.50261 18.39274
#
# Velocity S-wave (km/s) = 3.56023 1.80209 2.82159
# Velocity P-wave (km/s) = 4.75154 3.60652 4.21806
#
# Compressibility (1/GPa) = 0.07624937
#
# Stress axis : x y z
#
# Youngs Moduli (GPa) = 50.27110 25.60396 55.76712
#
# Poissons Ratio (x) = -0.31550 0.41150
# Poissons Ratio (y) = -0.61946 0.29328
# Poissons Ratio (z) = 0.37094 0.13465
#
# Static dielectric constant tensor:
#      x y z
#    x 1.993150 0.000110 -0.021510 
#    y 0.000110 2.029030 -0.000080 
#    z -0.021510 -0.000080 1.970870 
# 
# From -- ./inp_files/60978.got.cif
#   From: 2010.05.17/outbox.cif.g08.bks.cpg/sg5_31_cif.got.tgz:60978.got - 2010.06.03 18:56:24.
