data_PCOD9125355
_publ_section_title
;
Structure prediction by ZEFSAII (Michael W. Deem and Ramdas Pophale) SiO2 
 PCOD9125355
Probable space group: C 2
;
_chemical_formula_sum "Si O2"
_cell_formula_units_Z 22
_cell_length_a 26.345779
_cell_length_b 7.712648
_cell_length_c 15.949941
_cell_angle_alpha 90.000000
_cell_angle_beta 17.504258
_cell_angle_gamma 90.000000
_cell_volume 974.805095
_symmetry_space_group_name_H-M "C 2"
_symmetry_group_IT_number 5
_symmetry_cell_setting 'monoclinic'
loop_
_space_group_symop_operation_xyz
x,y,z
-x,y,-z
1/2+x,1/2+y,z
1/2-x,1/2+y,-z
loop_
_atom_site_type_symbol
_atom_site_label
_atom_site_fract_x
_atom_site_fract_y
_atom_site_fract_z
Si Si1 0.849856 0.018470 0.085544
Si Si2 0.392244 0.125373 0.855529
Si Si3 0.500000 0.738578 0.000000
Si Si4 0.828610 0.171486 0.639132
Si Si5 0.672664 0.368342 0.482266
Si Si6 0.195729 0.222043 0.009429
O O1 0.773850 0.129367 0.127442
O O2 0.917804 0.132295 0.054501
O O3 0.022502 0.949093 0.772252
O O4 0.736638 0.855860 0.294198
O O5 0.572531 0.201841 0.600769
O O6 0.360648 0.920678 0.909623
O O7 0.248698 0.188503 0.146734
O O8 0.349056 0.194886 0.831362
O O9 0.333610 0.842081 0.288585
O O10 0.028913 0.144230 0.317516
O O11 0.765325 0.003894 0.687029
#
# Coordination Sequence:
#
# PCOD9125355 Si02
#       6
#     4   4   2   4   4   4
#     4  10  24  41  62  92 121 161 211 256 309 371
#     4  11  22  39  63  93 127 160 202 255 313 378
#     4  12  24  42  62  86 120 162 208 258 312 360
#     4  10  21  41  62  90 124 161 203 252 318 374
#     4  10  24  41  62  92 121 161 211 256 309 371
#     4  11  22  39  63  93 127 160 202 255 313 378
#
# _framework density 22.568615000000001
#
# number of rings (size 3 to 8) (size 9 to 14) (size 15 to 20)
#    0.000    1.455    0.000    6.000    0.000    8.000 
#    0.000    6.364    0.000    0.000    0.000    0.000 
#    0.000    0.000    0.000    0.000    0.000    0.000 
#
# Total GULP energy -61378.984696 kJ/mol
# GULP energy per Si atom -5579.907700 kJ/mol
# Density = 2.251725 g / cm^3
# Si number density = 22.568615 Si / 1000 Ang^3
#
#
#
# Elastic Constant Matrix: (Units=GPa)
#
#
# Indices 1 2 3 4 5 6 
#
# 1 62.2211 -2.1601 27.0969 0.0000 -14.3806 0.0000
# 2 -2.1601 90.8247 -2.3071 0.0000 -10.3323 0.0000
# 3 27.0969 -2.3071 87.4659 0.0000 -18.8101 0.0000
# 4 0.0000 0.0000 0.0000 34.7500 0.0000 -0.2137
# 5 -14.3806 -10.3323 -18.8101 0.0000 38.2846 0.0000
# 6 0.0000 0.0000 0.0000 -0.2137 0.0000 33.3462
#
#
#
# Elastic Compliance Matrix: (Units=1/GPa)
#
#
# Indices 1 2 3 4 5 6 
#
# 1 0.019420 0.000923 -0.004886 0.000000 0.005143 0.000000
# 2 0.000923 0.011493 0.000849 0.000000 0.003865 0.000000
# 3 -0.004886 0.000849 0.014115 0.000000 0.005329 0.000000
# 4 0.000000 0.000000 0.000000 0.028778 0.000000 0.000184
# 5 0.005143 0.003865 0.005329 0.000000 0.031713 0.000000
# 6 0.000000 0.000000 0.000000 0.000184 0.000000 0.029990
#
#
# Mechanical properties :
#
#
# Convention : Reuss Voigt Hill
#
# Bulk Modulus (GPa) = 25.77344 31.75237 28.76291
# Shear Modulus (GPa) = 32.32641 35.80163 34.06402
#
# Velocity S-wave (km/s) = 3.78876 3.98722 3.88925
# Velocity P-wave (km/s) = 5.53032 5.94113 5.73940
#
# Compressibility (1/GPa) = 0.03879963
#
# Stress axis : x y z
#
# Youngs Moduli (GPa) = 51.49258 87.00605 70.84620
#
# Poissons Ratio (x) = -0.08029 0.34615
# Poissons Ratio (y) = -0.04752 -0.06012
# Poissons Ratio (z) = 0.25159 -0.07383
#
# Static dielectric constant tensor:
#      x y z
#    x 1.802480 0.000000 0.040950 
#    y 0.000000 1.990490 0.000000 
#    z 0.040950 0.000000 1.911410 
# 
# From -- ./inp_files/57569.got.cif
#   From: 2010.05.17/outbox.cif.g08.bks.cpg/sg5_29_cif.got.tgz:57569.got - 2010.06.03 18:56:24.
