data_PCOD9125213
_publ_section_title
;
Structure prediction by ZEFSAII (Michael W. Deem and Ramdas Pophale) SiO2 
 PCOD9125213
Probable space group: C 2
;
_chemical_formula_sum "Si O2"
_cell_formula_units_Z 30
_cell_length_a 13.105192
_cell_length_b 15.077375
_cell_length_c 14.111568
_cell_angle_alpha 90.000000
_cell_angle_beta 149.929594
_cell_angle_gamma 90.000000
_cell_volume 1397.131977
_symmetry_space_group_name_H-M "C 2"
_symmetry_group_IT_number 5
_symmetry_cell_setting 'monoclinic'
loop_
_space_group_symop_operation_xyz
x,y,z
-x,y,-z
1/2+x,1/2+y,z
1/2-x,1/2+y,-z
loop_
_atom_site_type_symbol
_atom_site_label
_atom_site_fract_x
_atom_site_fract_y
_atom_site_fract_z
Si Si1 0.500000 0.745330 0.000000
Si Si2 0.895204 0.832189 0.319826
Si Si3 0.603981 0.524089 0.700254
Si Si4 0.665361 0.071077 0.938776
Si Si5 0.907269 0.161009 0.739449
Si Si6 0.678957 0.005367 0.462592
Si Si7 0.157719 0.685537 0.205312
Si Si8 0.740121 0.801071 0.532988
O O1 0.318371 0.802156 0.895306
O O2 0.379147 0.695039 0.822031
O O3 0.000000 0.793417 0.500000
O O4 0.052083 0.814374 0.360527
O O5 0.848777 0.933567 0.314659
O O6 0.363798 0.520374 0.533524
O O7 0.683740 0.615903 0.717602
O O8 0.729454 0.509774 0.898277
O O9 0.543355 0.027255 0.755999
O O10 0.491573 0.125513 0.852103
O O11 0.857699 0.130748 0.067898
O O12 0.755358 0.079367 0.597763
O O13 0.882151 0.234416 0.636097
O O14 0.671285 0.903088 0.487311
O O15 0.245905 0.755051 0.352417
O O16 0.000000 0.724638 0.000000
#
# Coordination Sequence:
#
# PCOD9125213 Si02
#       8
#     2   4   4   4   4   4   4   4
#     4  12  26  38  68  94 134 178 232 276 338 404
#     4  11  24  39  64 106 137 174 228 285 344 414
#     4   9  23  36  66 104 136 170 221 287 347 411
#     4  10  21  40  64  94 134 179 222 275 354 404
#     4  11  24  44  65  99 132 183 227 284 342 415
#     4  10  23  44  69  97 138 182 226 286 342 415
#     4  10  21  40  67  99 137 182 225 280 348 415
#     4  11  23  45  69 101 144 179 227 286 354 413
#
# _framework density 21.472560999999999
#
# number of rings (size 3 to 8) (size 9 to 14) (size 15 to 20)
#    0.000    1.600    2.667    0.800    8.400    0.000 
#    8.400    0.000    0.000    4.800    0.000    0.000 
#    0.000    0.000    0.000    0.000    0.000    0.000 
#
# Total GULP energy -83523.991505 kJ/mol
# GULP energy per Si atom -5568.266100 kJ/mol
# Density = 2.142369 g / cm^3
# Si number density = 21.472561 Si / 1000 Ang^3
#
#
#
# Elastic Constant Matrix: (Units=GPa)
#
#
# Indices 1 2 3 4 5 6 
#
# 1 33.8198 31.4847 28.4914 -0.0009 -7.5948 -0.0016
# 2 31.4847 115.7601 75.7773 -0.0031 -8.8033 -0.0027
# 3 28.4914 75.7773 155.5981 -0.0043 -2.8885 -0.0026
# 4 -0.0009 -0.0031 -0.0043 15.0374 -0.0014 -9.8113
# 5 -7.5948 -8.8033 -2.8885 -0.0014 37.7321 -0.0030
# 6 -0.0016 -0.0027 -0.0026 -9.8113 -0.0030 20.5493
#
#
#
# Elastic Compliance Matrix: (Units=1/GPa)
#
#
# Indices 1 2 3 4 5 6 
#
# 1 0.041880 -0.008777 -0.003280 0.000003 0.006131 0.000004
# 2 -0.008777 0.014759 -0.005557 0.000002 0.001251 0.000002
# 3 -0.003280 -0.005557 0.009711 0.000002 -0.001213 0.000001
# 4 0.000003 0.000002 0.000002 0.096591 0.000008 0.046117
# 5 0.006131 0.001251 -0.001213 0.000008 0.027936 0.000009
# 6 0.000004 0.000002 0.000001 0.046117 0.000009 0.070682
#
#
# Mechanical properties :
#
#
# Convention : Reuss Voigt Hill
#
# Bulk Modulus (GPa) = 32.13288 64.07610 48.10449
# Shear Modulus (GPa) = 16.27811 25.95872 21.11842
#
# Velocity S-wave (km/s) = 2.75633 3.48073 3.13949
# Velocity P-wave (km/s) = 5.01267 6.78673 5.96601
#
# Compressibility (1/GPa) = 0.03112077
#
# Stress axis : x y z
#
# Youngs Moduli (GPa) = 23.87787 67.75673 102.97256
#
# Poissons Ratio (x) = 0.59470 0.33778
# Poissons Ratio (y) = 0.20958 0.57224
# Poissons Ratio (z) = 0.07833 0.37654
#
# Static dielectric constant tensor:
#      x y z
#    x 1.810770 -0.000010 -0.001020 
#    y -0.000010 1.912910 0.000000 
#    z -0.001020 0.000000 1.803850 
# 
# From -- ./inp_files/54805.got.cif
#   From: 2010.05.17/outbox.cif.g08.bks.cpg/sg5_28_cif.got.tgz:54805.got - 2010.06.03 18:56:24.
