data_PCOD9125615
_publ_section_title
;
Structure prediction by ZEFSAII (Michael W. Deem and Ramdas Pophale) SiO2 
 PCOD9125615
Probable space group: C 2
;
_chemical_formula_sum "Si O2"
_cell_formula_units_Z 22
_cell_length_a 11.148025
_cell_length_b 9.713111
_cell_length_c 9.659079
_cell_angle_alpha 90.000000
_cell_angle_beta 119.861234
_cell_angle_gamma 90.000000
_cell_volume 907.043702
_symmetry_space_group_name_H-M "C 2"
_symmetry_group_IT_number 5
_symmetry_cell_setting 'monoclinic'
loop_
_space_group_symop_operation_xyz
x,y,z
-x,y,-z
1/2+x,1/2+y,z
1/2-x,1/2+y,-z
loop_
_atom_site_type_symbol
_atom_site_label
_atom_site_fract_x
_atom_site_fract_y
_atom_site_fract_z
Si Si1 0.500000 0.564780 0.000000
Si Si2 0.776266 0.248176 0.758422
Si Si3 0.886100 0.268428 0.316904
Si Si4 0.373005 0.471510 0.183131
Si Si5 0.353389 0.294702 0.616593
Si Si6 0.467837 0.047943 0.317060
O O1 0.416773 0.664538 0.849292
O O2 0.600670 0.473176 0.965240
O O3 0.755860 0.383548 0.838078
O O4 0.726668 0.284877 0.575287
O O5 0.666686 0.142280 0.763748
O O6 0.753631 0.328367 0.323992
O O7 0.944876 0.392741 0.257371
O O8 0.000000 0.234471 0.500000
O O9 0.854725 0.127185 0.222735
O O10 0.516023 0.398443 0.321050
O O11 0.412415 0.141133 0.678414
O O12 0.500000 0.036488 0.500000
#
# Coordination Sequence:
#
# PCOD9125615 Si02
#       6
#     2   4   4   4   4   4
#     4  12  26  42  64  96 140 176 208 274 336 380
#     4  10  22  42  66  94 131 173 217 268 331 392
#     4  11  21  34  63 100 126 160 217 270 322 384
#     4  11  25  43  66  93 129 178 227 264 318 396
#     4  10  21  42  67  94 131 170 215 277 327 376
#     4   8  18  36  60  92 127 161 206 262 317 377
#
# _framework density 24.254619999999999
#
# number of rings (size 3 to 8) (size 9 to 14) (size 15 to 20)
#    0.000    1.818    0.000    4.909    0.000   11.636 
#    0.000    3.636    0.000    5.455    0.000    0.000 
#    0.000    0.000    0.000    0.000    0.000    0.000 
#
# Total GULP energy -61543.006478 kJ/mol
# GULP energy per Si atom -5594.818771 kJ/mol
# Density = 2.419942 g / cm^3
# Si number density = 24.254620 Si / 1000 Ang^3
#
#
#
# Elastic Constant Matrix: (Units=GPa)
#
#
# Indices 1 2 3 4 5 6 
#
# 1 66.5328 1.9090 0.6867 0.0000 -10.5379 0.0000
# 2 1.9090 136.6775 5.4222 0.0000 -13.8410 0.0000
# 3 0.6867 5.4222 61.0005 0.0000 -3.4032 0.0000
# 4 0.0000 0.0000 0.0000 19.1764 0.0000 -1.2259
# 5 -10.5379 -13.8410 -3.4032 0.0000 28.1424 0.0000
# 6 0.0000 0.0000 0.0000 -1.2259 0.0000 33.0035
#
#
#
# Elastic Compliance Matrix: (Units=1/GPa)
#
#
# Indices 1 2 3 4 5 6 
#
# 1 0.016000 0.000400 0.000130 0.000000 0.006203 0.000000
# 2 0.000400 0.007724 -0.000474 0.000000 0.003891 0.000000
# 3 0.000130 -0.000474 0.016535 0.000000 0.001815 0.000000
# 4 0.000000 0.000000 0.000000 0.052272 0.000000 0.001942
# 5 0.006203 0.003891 0.001815 0.000000 0.039990 0.000000
# 6 0.000000 0.000000 0.000000 0.001942 0.000000 0.030372
#
#
# Mechanical properties :
#
#
# Convention : Reuss Voigt Hill
#
# Bulk Modulus (GPa) = 24.77025 31.13852 27.95439
# Shear Modulus (GPa) = 28.37090 33.14399 30.75745
#
# Velocity S-wave (km/s) = 3.42381 3.70063 3.56491
# Velocity P-wave (km/s) = 5.08574 5.57904 5.33809
#
# Compressibility (1/GPa) = 0.04037100
#
# Stress axis : x y z
#
# Youngs Moduli (GPa) = 62.50037 129.47078 60.47689
#
# Poissons Ratio (x) = -0.05173 -0.00789
# Poissons Ratio (y) = -0.02497 0.02866
# Poissons Ratio (z) = -0.00815 0.06137
#
# Static dielectric constant tensor:
#      x y z
#    x 1.921780 0.000000 0.040650 
#    y 0.000000 1.923950 0.000000 
#    z 0.040650 0.000000 1.943230 
# 
# From -- ./inp_files/38427.got.cif
#   From: 2010.05.17/outbox.cif.g08.bks.cpg/sg5_20_cif.got.tgz:38427.got - 2010.06.03 18:56:24.
