data_PCOD9125971
_publ_section_title
;
Structure prediction by ZEFSAII (Michael W. Deem and Ramdas Pophale) SiO2 
 PCOD9125971
Probable space group: C 2
;
_chemical_formula_sum "Si O2"
_cell_formula_units_Z 26
_cell_length_a 20.138164
_cell_length_b 12.571256
_cell_length_c 14.366983
_cell_angle_alpha 90.000000
_cell_angle_beta 159.372805
_cell_angle_gamma 90.000000
_cell_volume 1281.325253
_symmetry_space_group_name_H-M "C 2"
_symmetry_group_IT_number 5
_symmetry_cell_setting 'monoclinic'
loop_
_space_group_symop_operation_xyz
x,y,z
-x,y,-z
1/2+x,1/2+y,z
1/2-x,1/2+y,-z
loop_
_atom_site_type_symbol
_atom_site_label
_atom_site_fract_x
_atom_site_fract_y
_atom_site_fract_z
Si Si1 0.587901 0.573280 0.804022
Si Si2 0.366176 0.768015 0.577884
Si Si3 0.000000 0.691251 0.000000
Si Si4 0.199484 0.301263 0.295366
Si Si5 0.545168 0.186788 0.659645
Si Si6 0.244617 0.517955 0.234060
Si Si7 0.728271 0.892734 0.024327
O O1 0.467442 0.650420 0.714445
O O2 0.444412 0.567465 0.528600
O O3 0.794397 0.626556 0.071818
O O4 0.653510 0.450191 0.902620
O O5 0.172850 0.756701 0.268399
O O6 0.318133 0.810517 0.617062
O O7 0.522859 0.844208 0.735707
O O8 0.090779 0.609401 0.045668
O O9 0.362477 0.220781 0.477358
O O10 0.220999 0.416187 0.272723
O O11 0.000000 0.256842 0.000000
O O12 0.500000 0.134925 0.500000
O O13 0.648541 0.297456 0.772947
O O14 0.220801 0.473533 0.100196
#
# Coordination Sequence:
#
# PCOD9125971 Si02
#       7
#     4   4   2   4   4   4   4
#     4  10  22  36  59  90 122 159 206 264 303 365
#     4  10  23  38  59  93 131 158 206 260 320 369
#     4  10  22  38  56  96 132 158 202 258 316 382
#     4  12  20  37  64  93 118 164 206 262 307 357
#     4  11  21  38  60  91 127 161 209 259 310 372
#     4  11  19  36  66  93 116 160 214 259 304 357
#     4  11  19  40  65  88 119 160 217 258 301 366
#
# _framework density 20.291491000000001
#
# number of rings (size 3 to 8) (size 9 to 14) (size 15 to 20)
#    0.000    1.231    5.385    1.385    2.154    0.000 
#    0.000    1.538    1.692    0.000    0.000    0.000 
#    0.000    0.000    0.000    0.000    0.000    0.000 
#
# Total GULP energy -72391.915605 kJ/mol
# GULP energy per Si atom -5568.608893 kJ/mol
# Density = 2.024531 g / cm^3
# Si number density = 20.291491 Si / 1000 Ang^3
#
#
#
# Elastic Constant Matrix: (Units=GPa)
#
#
# Indices 1 2 3 4 5 6 
#
# 1 50.9095 19.0346 19.4534 0.0000 2.3645 0.0000
# 2 19.0346 44.3373 35.5231 0.0000 -10.3180 0.0000
# 3 19.4534 35.5231 166.5404 0.0000 23.5469 0.0000
# 4 0.0000 0.0000 0.0000 34.5614 0.0000 4.7783
# 5 2.3645 -10.3180 23.5469 0.0000 19.9511 0.0000
# 6 0.0000 0.0000 0.0000 4.7783 0.0000 22.7814
#
#
#
# Elastic Compliance Matrix: (Units=1/GPa)
#
#
# Indices 1 2 3 4 5 6 
#
# 1 0.025453 -0.016361 0.002568 0.000000 -0.014509 0.000000
# 2 -0.016361 0.054761 -0.016861 0.000000 0.050160 0.000000
# 3 0.002568 -0.016861 0.012696 0.000000 -0.024008 0.000000
# 4 0.000000 0.000000 0.000000 0.029798 0.000000 -0.006250
# 5 -0.014509 0.050160 -0.024008 0.000000 0.106118 0.000000
# 6 0.000000 0.000000 0.000000 -0.006250 0.000000 0.045206
#
#
# Mechanical properties :
#
#
# Convention : Reuss Voigt Hill
#
# Bulk Modulus (GPa) = 31.64549 45.53437 38.58993
# Shear Modulus (GPa) = 14.45616 27.97717 21.21667
#
# Velocity S-wave (km/s) = 2.67202 3.71720 3.23707
# Velocity P-wave (km/s) = 5.01487 6.39627 5.74723
#
# Compressibility (1/GPa) = 0.03160008
#
# Stress axis : x y z
#
# Youngs Moduli (GPa) = 39.28878 18.26129 78.76774
#
# Poissons Ratio (x) = 0.29878 -0.20229
# Poissons Ratio (y) = 0.64281 1.32813
# Poissons Ratio (z) = -0.10090 0.30791
#
# Static dielectric constant tensor:
#      x y z
#    x 1.798930 0.000000 0.032290 
#    y 0.000000 1.771100 0.000000 
#    z 0.032290 0.000000 1.740960 
# 
# From -- ./inp_files/29549.got.cif
#   From: 2010.05.17/outbox.cif.g08.bks.cpg/sg5_15_cif.got.tgz:29549.got - 2010.06.03 18:56:24.
