data_PCOD9125950
_publ_section_title
;
Structure prediction by ZEFSAII (Michael W. Deem and Ramdas Pophale) SiO2 
 PCOD9125950
Probable space group: C 2
;
_chemical_formula_sum "Si O2"
_cell_formula_units_Z 28
_cell_length_a 15.920765
_cell_length_b 13.600791
_cell_length_c 5.495538
_cell_angle_alpha 90.000000
_cell_angle_beta 91.604770
_cell_angle_gamma 90.000000
_cell_volume 1189.509582
_symmetry_space_group_name_H-M "C 2"
_symmetry_group_IT_number 5
_symmetry_cell_setting 'monoclinic'
loop_
_space_group_symop_operation_xyz
x,y,z
-x,y,-z
1/2+x,1/2+y,z
1/2-x,1/2+y,-z
loop_
_atom_site_type_symbol
_atom_site_label
_atom_site_fract_x
_atom_site_fract_y
_atom_site_fract_z
Si Si1 0.798468 0.595320 0.624631
Si Si2 0.072861 0.741968 0.139660
Si Si3 0.256517 0.056011 0.117373
Si Si4 0.683568 0.781862 0.605748
Si Si5 0.000000 0.220486 0.500000
Si Si6 0.000000 0.893335 0.500000
Si Si7 0.567504 0.540449 0.208527
Si Si8 0.765790 0.793651 0.108556
O O1 0.801466 0.535475 0.375973
O O2 0.715144 0.666083 0.613387
O O3 0.872574 0.674622 0.674725
O O4 0.796974 0.528983 0.864779
O O5 0.136949 0.798933 0.964313
O O6 0.979316 0.820863 0.714922
O O7 0.000000 0.680867 0.000000
O O8 0.257840 0.175137 0.115539
O O9 0.159229 0.031237 0.107760
O O10 0.582955 0.780831 0.580875
O O11 0.731537 0.823625 0.370233
O O12 0.715121 0.826782 0.864029
O O13 0.964071 0.147715 0.707898
O O14 0.927889 0.974177 0.544751
O O15 0.500000 0.507625 0.000000
#
# Coordination Sequence:
#
# PCOD9125950 Si02
#       8
#     4   4   4   4   2   2   4   4
#     4   9  18  33  52  73  96 138 187 234 276 312
#     4  10  22  35  54  71 104 154 196 230 267 329
#     4   9  17  32  51  72  98 140 179 224 282 309
#     4   9  17  28  43  77  92 137 166 217 276 314
#     4  11  18  26  52  70 112 140 175 210 264 343
#     4  11  26  34  48  78 112 160 195 218 266 325
#     4  11  21  33  48  75 116 154 185 215 259 347
#     4   9  18  32  49  69  99 133 186 224 273 308
#
# _framework density 23.539110000000001
#
# number of rings (size 3 to 8) (size 9 to 14) (size 15 to 20)
#    0.000    2.571    2.857    2.143   10.000    0.000 
#    0.000    0.000    0.000    0.000    0.000    0.000 
#    0.000    0.000   77.714    2.429    0.000    0.000 
#
# Total GULP energy -78003.242356 kJ/mol
# GULP energy per Si atom -5571.660168 kJ/mol
# Density = 2.348553 g / cm^3
# Si number density = 23.539110 Si / 1000 Ang^3
#
#
#
# Elastic Constant Matrix: (Units=GPa)
#
#
# Indices 1 2 3 4 5 6 
#
# 1 130.6891 18.4844 78.9988 0.0000 28.7334 0.0000
# 2 18.4844 41.5231 23.6025 0.0000 -6.7334 0.0000
# 3 78.9988 23.6025 192.0267 0.0000 -18.6182 0.0000
# 4 0.0000 0.0000 0.0000 29.4386 0.0000 -11.8880
# 5 28.7334 -6.7334 -18.6182 0.0000 40.1913 0.0000
# 6 0.0000 0.0000 0.0000 -11.8880 0.0000 -1.4365
#
#
#
# Elastic Compliance Matrix: (Units=1/GPa)
#
#
# Indices 1 2 3 4 5 6 
#
# 1 0.016875 -0.005752 -0.007851 0.000000 -0.016665 0.000000
# 2 -0.005752 0.028202 -0.000255 0.000000 0.008719 0.000000
# 3 -0.007851 -0.000255 0.009433 0.000000 0.009940 0.000000
# 4 0.000000 0.000000 0.000000 0.007824 0.000000 -0.064745
# 5 -0.016665 0.008719 0.009940 0.000000 0.042860 0.000000
# 6 0.000000 0.000000 0.000000 -0.064745 0.000000 -0.160330
#
#
# Mechanical properties :
#
#
# Convention : Reuss Voigt Hill
#
# Bulk Modulus (GPa) = 37.32130 67.37891 52.35011
# Shear Modulus (GPa) = -270.40524 29.84892 -120.27816
#
# Velocity S-wave (km/s) = -10.72960 3.56484 -7.15598
# Velocity P-wave (km/s) = 11.73071 6.75504 6.78156
#
# Compressibility (1/GPa) = 0.02679435
#
# Stress axis : x y z
#
# Youngs Moduli (GPa) = 59.25941 35.45843 106.01615
#
# Poissons Ratio (x) = 0.20395 0.83234
# Poissons Ratio (y) = 0.34084 0.02702
# Poissons Ratio (z) = 0.46525 0.00904
#
# Static dielectric constant tensor:
#      x y z
#    x 1.865230 0.000000 -0.045000 
#    y 0.000000 1.945880 0.000000 
#    z -0.045000 0.000000 2.041270 
# 
# From -- ./inp_files/7524.got.cif
#   From: 2010.05.17/outbox.cif.g08.bks.cpg/sg5_4_cif.got.tgz:7524.got - 2010.06.03 18:56:24.
