data_PCOD9125981
_publ_section_title
;
Structure prediction by ZEFSAII (Michael W. Deem and Ramdas Pophale) SiO2 
 PCOD9125981
Probable space group: C 2
;
_chemical_formula_sum "Si O2"
_cell_formula_units_Z 26
_cell_length_a 11.174463
_cell_length_b 7.320868
_cell_length_c 15.973229
_cell_angle_alpha 90.000000
_cell_angle_beta 127.887599
_cell_angle_gamma 90.000000
_cell_volume 1031.284284
_symmetry_space_group_name_H-M "C 2"
_symmetry_group_IT_number 5
_symmetry_cell_setting 'monoclinic'
loop_
_space_group_symop_operation_xyz
x,y,z
-x,y,-z
1/2+x,1/2+y,z
1/2-x,1/2+y,-z
loop_
_atom_site_type_symbol
_atom_site_label
_atom_site_fract_x
_atom_site_fract_y
_atom_site_fract_z
Si Si1 0.748996 0.799680 0.280575
Si Si2 0.322811 0.773889 0.931075
Si Si3 0.663504 0.341554 0.040293
Si Si4 0.961691 0.275608 0.244779
Si Si5 0.354777 0.103763 0.647229
Si Si6 0.354742 0.481757 0.583910
Si Si7 0.500000 0.244460 0.500000
O O1 0.772836 0.822553 0.193404
O O2 0.573704 0.734453 0.214384
O O3 0.853994 0.669403 0.384724
O O4 0.744067 0.994864 0.326573
O O5 0.333634 0.555258 0.938121
O O6 0.500000 0.842028 0.000000
O O7 0.226221 0.826645 0.972158
O O8 0.790585 0.241440 0.150197
O O9 0.500000 0.272355 0.000000
O O10 0.989402 0.491055 0.275236
O O11 0.043766 0.153933 0.348873
O O12 0.343265 0.321076 0.648049
O O13 0.295128 0.048719 0.528756
O O14 0.439161 0.371869 0.547505
#
# Coordination Sequence:
#
# PCOD9125981 Si02
#       7
#     4   4   4   4   4   4   2
#     4   9  21  42  72 106 151 205 253 324 391 461
#     4  11  23  51  80 108 157 204 269 340 389 477
#     4  11  27  50  80 117 153 209 271 331 414 467
#     4  10  22  45  72 108 152 199 265 320 396 465
#     4   9  19  38  71 109 148 212 253 314 394 464
#     4  11  19  40  69 101 165 202 258 316 389 483
#     4  10  22  36  62 112 150 202 252 308 390 468
#
# _framework density 25.211285
#
# number of rings (size 3 to 8) (size 9 to 14) (size 15 to 20)
#    0.923    0.923    3.077    0.000    2.154    1.846 
#    2.769    5.385    0.000    0.000    0.000    0.000 
#    0.000    0.000    0.000    0.000    0.000    0.000 
#
# Total GULP energy -72484.275849 kJ/mol
# GULP energy per Si atom -5575.713527 kJ/mol
# Density = 2.515390 g / cm^3
# Si number density = 25.211285 Si / 1000 Ang^3
#
#
#
# Elastic Constant Matrix: (Units=GPa)
#
#
# Indices 1 2 3 4 5 6 
#
# 1 120.5520 20.0702 76.7310 0.0000 20.0475 0.0000
# 2 20.0702 119.4446 31.2078 0.0000 2.4497 0.0000
# 3 76.7310 31.2078 178.8277 0.0000 12.9645 0.0000
# 4 0.0000 0.0000 0.0000 25.6102 0.0000 -6.6718
# 5 20.0475 2.4497 12.9645 0.0000 54.7987 0.0000
# 6 0.0000 0.0000 0.0000 -6.6718 0.0000 16.4449
#
#
#
# Elastic Compliance Matrix: (Units=1/GPa)
#
#
# Indices 1 2 3 4 5 6 
#
# 1 0.011998 -0.000698 -0.004793 0.000000 -0.003224 0.000000
# 2 -0.000698 0.008813 -0.001250 0.000000 0.000157 0.000000
# 3 -0.004793 -0.001250 0.007870 0.000000 -0.000053 0.000000
# 4 0.000000 0.000000 0.000000 0.043662 0.000000 0.017714
# 5 -0.003224 0.000157 -0.000053 0.000000 0.019434 0.000000
# 6 0.000000 0.000000 0.000000 0.017714 0.000000 0.067995
#
#
# Mechanical properties :
#
#
# Convention : Reuss Voigt Hill
#
# Bulk Modulus (GPa) = 65.78707 74.98248 70.38478
# Shear Modulus (GPa) = 28.03964 38.75845 33.39904
#
# Velocity S-wave (km/s) = 3.33856 3.92515 3.64368
# Velocity P-wave (km/s) = 6.40408 7.09568 6.75873
#
# Compressibility (1/GPa) = 0.01520055
#
# Stress axis : x y z
#
# Youngs Moduli (GPa) = 83.34740 113.47288 127.05968
#
# Poissons Ratio (x) = 0.07917 0.60894
# Poissons Ratio (y) = 0.05815 0.15882
# Poissons Ratio (z) = 0.39945 0.14183
#
# Static dielectric constant tensor:
#      x y z
#    x 2.149250 0.000000 0.082760 
#    y 0.000000 1.992320 0.000000 
#    z 0.082760 0.000000 2.069350 
# 
# From -- ./inp_files/60234.got.cif
#   From: 2010.05.17/outbox.cif.g08.bks.cpg/sg5_31_cif.got.tgz:60234.got - 2010.06.03 18:56:24.
