data_PCOD9125405
_publ_section_title
;
Structure prediction by ZEFSAII (Michael W. Deem and Ramdas Pophale) SiO2 
 PCOD9125405
Probable space group: C 2
;
_chemical_formula_sum "Si O2"
_cell_formula_units_Z 28
_cell_length_a 13.083855
_cell_length_b 12.780324
_cell_length_c 8.717150
_cell_angle_alpha 90.000000
_cell_angle_beta 120.620649
_cell_angle_gamma 90.000000
_cell_volume 1254.389795
_symmetry_space_group_name_H-M "C 2"
_symmetry_group_IT_number 5
_symmetry_cell_setting 'monoclinic'
loop_
_space_group_symop_operation_xyz
x,y,z
-x,y,-z
1/2+x,1/2+y,z
1/2-x,1/2+y,-z
loop_
_atom_site_type_symbol
_atom_site_label
_atom_site_fract_x
_atom_site_fract_y
_atom_site_fract_z
Si Si1 0.360014 0.302070 0.214140
Si Si2 0.450235 0.969461 0.616980
Si Si3 0.634841 0.569606 0.154095
Si Si4 0.832970 0.583414 0.050293
Si Si5 0.576114 0.346071 0.211385
Si Si6 0.687231 0.186578 0.517427
Si Si7 0.134053 0.417725 0.144529
O O1 0.364020 0.203862 0.101431
O O2 0.471392 0.371651 0.253629
O O3 0.368196 0.255436 0.389211
O O4 0.232406 0.357040 0.122409
O O5 0.500000 0.918323 0.500000
O O6 0.566531 0.010745 0.795393
O O7 0.381111 0.076424 0.529113
O O8 0.366882 0.907047 0.672137
O O9 0.714926 0.571922 0.061754
O O10 0.645818 0.452618 0.230335
O O11 0.683748 0.653077 0.316390
O O12 0.500000 0.588414 0.000000
O O13 0.837339 0.538574 0.881285
O O14 0.657179 0.252778 0.341806
O O15 0.500000 0.322912 0.000000
O O16 0.000000 0.387089 0.000000
#
# Coordination Sequence:
#
# PCOD9125405 Si02
#       7
#     4   4   4   4   4   4   4
#     4  11  22  40  64  97 134 175 224 276 334 410
#     4  11  19  39  63  95 123 169 217 282 332 392
#     4  10  22  40  66  98 135 181 222 276 345 405
#     4  10  21  41  65  90 133 174 221 274 337 399
#     4  11  23  39  69 103 130 171 236 284 327 407
#     4  11  23  40  66  95 131 175 219 280 340 398
#     4  10  24  38  63 100 130 171 222 282 337 405
#
# _framework density 22.321611999999998
#
# number of rings (size 3 to 8) (size 9 to 14) (size 15 to 20)
#    0.000    1.429    4.286    2.143    4.000    2.286 
#    0.000    0.000    0.000    0.000   18.571    0.000 
#    0.000    0.000    0.000    0.000    0.000    0.000 
#
# Total GULP energy -78087.348130 kJ/mol
# GULP energy per Si atom -5577.667724 kJ/mol
# Density = 2.227081 g / cm^3
# Si number density = 22.321612 Si / 1000 Ang^3
#
#
#
# Elastic Constant Matrix: (Units=GPa)
#
#
# Indices 1 2 3 4 5 6 
#
# 1 78.5150 11.1510 15.9868 0.0000 4.9497 0.0000
# 2 11.1510 55.0573 32.1717 0.0000 -7.2790 0.0000
# 3 15.9868 32.1717 102.5363 0.0000 3.7104 0.0000
# 4 0.0000 0.0000 0.0000 87.3652 0.0000 -22.5937
# 5 4.9497 -7.2790 3.7104 0.0000 46.1470 0.0000
# 6 0.0000 0.0000 0.0000 -22.5937 0.0000 43.0691
#
#
#
# Elastic Compliance Matrix: (Units=1/GPa)
#
#
# Indices 1 2 3 4 5 6 
#
# 1 0.013423 -0.002145 -0.001359 0.000000 -0.001669 0.000000
# 2 -0.002145 0.023377 -0.007163 0.000000 0.004493 0.000000
# 3 -0.001359 -0.007163 0.012283 0.000000 -0.001972 0.000000
# 4 0.000000 0.000000 0.000000 0.013243 0.000000 0.006947
# 5 -0.001669 0.004493 -0.001972 0.000000 0.022716 0.000000
# 6 0.000000 0.000000 0.000000 0.006947 0.000000 0.026863
#
#
# Mechanical properties :
#
#
# Convention : Reuss Voigt Hill
#
# Bulk Modulus (GPa) = 36.03756 39.41417 37.72586
# Shear Modulus (GPa) = 35.09039 47.10286 41.09663
#
# Velocity S-wave (km/s) = 3.96919 4.59866 4.29548
# Velocity P-wave (km/s) = 6.09801 6.77441 6.44509
#
# Compressibility (1/GPa) = 0.02774883
#
# Stress axis : x y z
#
# Youngs Moduli (GPa) = 74.49868 42.77738 81.41085
#
# Poissons Ratio (x) = 0.09175 0.11068
# Poissons Ratio (y) = 0.15979 0.58314
# Poissons Ratio (z) = 0.10128 0.30641
#
# Static dielectric constant tensor:
#      x y z
#    x 1.571510 0.000000 -0.000370 
#    y 0.000000 1.859340 0.000000 
#    z -0.000370 0.000000 1.938460 
# 
# From -- ./inp_files/20731.got.cif
#   From: 2010.05.17/outbox.cif.g08.bks.cpg/sg5_11_cif.got.tgz:20731.got - 2010.06.03 18:56:24.
