data_PCOD9125045
_publ_section_title
;
Structure prediction by ZEFSAII (Michael W. Deem and Ramdas Pophale) SiO2 
 PCOD9125045
Probable space group: C 2
;
_chemical_formula_sum "Si O2"
_cell_formula_units_Z 30
_cell_length_a 22.493011
_cell_length_b 16.025448
_cell_length_c 8.785493
_cell_angle_alpha 90.000000
_cell_angle_beta 29.235782
_cell_angle_gamma 90.000000
_cell_volume 1546.691720
_symmetry_space_group_name_H-M "C 2"
_symmetry_group_IT_number 5
_symmetry_cell_setting 'monoclinic'
loop_
_space_group_symop_operation_xyz
x,y,z
-x,y,-z
1/2+x,1/2+y,z
1/2-x,1/2+y,-z
loop_
_atom_site_type_symbol
_atom_site_label
_atom_site_fract_x
_atom_site_fract_y
_atom_site_fract_z
Si Si1 0.280598 0.908720 0.868848
Si Si2 0.006040 0.786679 0.813801
Si Si3 0.856542 0.647400 0.677224
Si Si4 0.500000 0.009493 0.500000
Si Si5 0.811945 0.037937 0.136312
Si Si6 0.732571 0.239547 0.831523
Si Si7 0.357622 0.600400 0.361557
Si Si8 0.079565 0.964471 0.549291
O O1 0.154924 0.929869 0.237817
O O2 0.384537 0.947612 0.745124
O O3 0.295257 0.812595 0.790538
O O4 0.268161 0.958948 0.737693
O O5 0.095328 0.726628 0.521277
O O6 0.048558 0.882121 0.714639
O O7 0.877253 0.781117 0.016562
O O8 0.000000 0.756983 0.000000
O O9 0.736655 0.609342 0.867770
O O10 0.960444 0.575401 0.455832
O O11 0.823930 0.676105 0.919437
O O12 0.794314 0.069901 0.347521
O O13 0.952752 0.011958 0.799419
O O14 0.812232 0.186394 0.535917
O O15 0.344280 0.529142 0.519560
O O16 0.500000 0.606523 0.000000
#
# Coordination Sequence:
#
# PCOD9125045 Si02
#       8
#     4   4   4   2   4   4   4   4
#     4  11  23  40  67  93 127 171 219 272 320 388
#     4  12  23  38  64 102 131 169 215 274 329 385
#     4  11  22  41  65  95 134 168 218 269 320 396
#     4  10  22  42  60  88 128 166 214 260 324 384
#     4  10  21  39  65  95 126 165 212 268 326 383
#     4  12  23  42  66  93 130 171 220 271 321 386
#     4  10  23  43  64  95 132 170 214 270 333 390
#     4  11  22  41  68  96 127 168 221 271 320 389
#
# _framework density 19.396236999999999
#
# number of rings (size 3 to 8) (size 9 to 14) (size 15 to 20)
#    0.000    1.067    4.000    4.000    0.000    1.067 
#    4.800    0.000    2.933    0.000    0.000    0.000 
#    0.000    0.000    0.000    0.000    0.000    0.000 
#
# Total GULP energy -83646.656146 kJ/mol
# GULP energy per Si atom -5576.443743 kJ/mol
# Density = 1.935209 g / cm^3
# Si number density = 19.396237 Si / 1000 Ang^3
#
#
#
# Elastic Constant Matrix: (Units=GPa)
#
#
# Indices 1 2 3 4 5 6 
#
# 1 85.2980 23.4536 24.1490 0.0000 1.8931 0.0000
# 2 23.4536 107.0924 36.4826 0.0000 -2.8564 0.0000
# 3 24.1490 36.4826 60.2150 0.0000 10.8029 0.0000
# 4 0.0000 0.0000 0.0000 34.1316 0.0000 3.0701
# 5 1.8931 -2.8564 10.8029 0.0000 28.9242 0.0000
# 6 0.0000 0.0000 0.0000 3.0701 0.0000 29.1390
#
#
#
# Elastic Compliance Matrix: (Units=1/GPa)
#
#
# Indices 1 2 3 4 5 6 
#
# 1 0.013402 -0.001308 -0.004718 0.000000 0.000756 0.000000
# 2 -0.001308 0.012366 -0.007719 0.000000 0.004190 0.000000
# 3 -0.004718 -0.007719 0.024928 0.000000 -0.009764 0.000000
# 4 0.000000 0.000000 0.000000 0.029579 0.000000 -0.003116
# 5 0.000756 0.004190 -0.009764 0.000000 0.038584 0.000000
# 6 0.000000 0.000000 0.000000 -0.003116 0.000000 0.034647
#
#
# Mechanical properties :
#
#
# Convention : Reuss Voigt Hill
#
# Bulk Modulus (GPa) = 43.09322 46.75287 44.92305
# Shear Modulus (GPa) = 26.49283 29.67364 28.08324
#
# Velocity S-wave (km/s) = 3.69978 3.91559 3.80922
# Velocity P-wave (km/s) = 6.36528 6.67824 6.52364
#
# Compressibility (1/GPa) = 0.02320550
#
# Stress axis : x y z
#
# Youngs Moduli (GPa) = 74.61476 80.87008 40.11565
#
# Poissons Ratio (x) = 0.10575 0.18928
# Poissons Ratio (y) = 0.09757 0.30966
# Poissons Ratio (z) = 0.35205 0.62425
#
# Static dielectric constant tensor:
#      x y z
#    x 1.710370 0.000000 -0.002310 
#    y 0.000000 1.690500 0.000000 
#    z -0.002310 0.000000 1.682080 
# 
# From -- ./inp_files/20389.got.cif
#   From: 2010.05.17/outbox.cif.g08.bks.cpg/sg5_11_cif.got.tgz:20389.got - 2010.06.03 18:56:24.
