data_PCOD9125642
_publ_section_title
;
Structure prediction by ZEFSAII (Michael W. Deem and Ramdas Pophale) SiO2 
 PCOD9125642
Probable space group: C 2
;
_chemical_formula_sum "Si O2"
_cell_formula_units_Z 24
_cell_length_a 11.119084
_cell_length_b 16.107098
_cell_length_c 14.312501
_cell_angle_alpha 90.000000
_cell_angle_beta 152.387294
_cell_angle_gamma 90.000000
_cell_volume 1188.077031
_symmetry_space_group_name_H-M "C 2"
_symmetry_group_IT_number 5
_symmetry_cell_setting 'monoclinic'
loop_
_space_group_symop_operation_xyz
x,y,z
-x,y,-z
1/2+x,1/2+y,z
1/2-x,1/2+y,-z
loop_
_atom_site_type_symbol
_atom_site_label
_atom_site_fract_x
_atom_site_fract_y
_atom_site_fract_z
Si Si1 0.000000 0.572070 0.500000
Si Si2 0.212646 0.492493 0.457705
Si Si3 0.393951 0.838758 0.156181
Si Si4 0.965799 0.194891 0.869329
Si Si5 0.500000 0.230551 0.000000
Si Si6 0.765281 0.442785 0.901527
Si Si7 0.484906 0.107556 0.150747
O O1 0.110116 0.519107 0.489203
O O2 0.234680 0.629459 0.698034
O O3 0.509098 0.464189 0.668363
O O4 0.047404 0.414774 0.306770
O O5 0.170354 0.569633 0.357789
O O6 0.574812 0.772624 0.227308
O O7 0.215610 0.879067 0.951883
O O8 0.225061 0.788510 0.114187
O O9 0.237740 0.152841 0.026535
O O10 0.000000 0.219306 0.000000
O O11 0.404299 0.171008 0.849801
O O12 0.870985 0.528227 0.018046
O O13 0.000000 0.410307 0.000000
#
# Coordination Sequence:
#
# PCOD9125642 Si02
#       7
#     2   4   4   4   2   4   4
#     4  12  24  40  76  98 138 170 238 272 328 402
#     4  11  25  43  69 106 126 183 224 276 337 398
#     4  10  26  42  67  98 140 176 220 276 345 391
#     4  11  22  42  66  98 135 178 219 281 326 393
#     4  10  22  46  66  98 142 176 218 282 332 398
#     4  11  23  44  68  95 135 176 224 276 328 407
#     4  10  21  42  68  97 131 175 223 271 333 389
#
# _framework density 20.200710999999998
#
# number of rings (size 3 to 8) (size 9 to 14) (size 15 to 20)
#    0.000    1.333    4.167    0.500    2.333    5.333 
#    0.000    1.667    0.000    0.000    0.000    0.000 
#    0.000    0.000    0.000    0.000    0.000    0.000 
#
# Total GULP energy -67067.461385 kJ/mol
# GULP energy per Si atom -5588.955115 kJ/mol
# Density = 2.015473 g / cm^3
# Si number density = 20.200711 Si / 1000 Ang^3
#
#
#
# Elastic Constant Matrix: (Units=GPa)
#
#
# Indices 1 2 3 4 5 6 
#
# 1 140.6399 61.6639 49.2407 0.0113 -9.1656 -0.0292
# 2 61.6639 107.1881 36.6372 0.0112 -4.8803 -0.0737
# 3 49.2407 36.6372 111.2468 0.0045 -3.0569 -0.0708
# 4 0.0113 0.0112 0.0045 -30.7246 0.0175 -41.0423
# 5 -9.1656 -4.8803 -3.0569 0.0175 20.7927 -0.0482
# 6 -0.0292 -0.0737 -0.0708 -41.0423 -0.0482 3.8189
#
#
#
# Elastic Compliance Matrix: (Units=1/GPa)
#
#
# Indices 1 2 3 4 5 6 
#
# 1 0.010482 -0.004884 -0.002948 0.000003 0.003041 0.000000
# 2 -0.004884 0.012869 -0.002061 -0.000015 0.000565 0.000014
# 3 -0.002948 -0.002061 0.010968 -0.000012 -0.000171 0.000009
# 4 0.000003 -0.000015 -0.000012 -0.002119 -0.000055 -0.022779
# 5 0.003041 0.000565 -0.000171 -0.000055 0.049542 0.000063
# 6 0.000000 0.000014 0.000009 -0.022779 0.000063 0.017052
#
#
# Mechanical properties :
#
#
# Convention : Reuss Voigt Hill
#
# Bulk Modulus (GPa) = 68.80510 72.68426 70.74468
# Shear Modulus (GPa) = 40.51085 12.87960 26.69523
#
# Velocity S-wave (km/s) = 4.48305 2.52778 3.63919
# Velocity P-wave (km/s) = 7.80587 6.67673 7.26327
#
# Compressibility (1/GPa) = 0.01453381
#
# Stress axis : x y z
#
# Youngs Moduli (GPa) = 95.40155 77.70391 91.17684
#
# Poissons Ratio (x) = 0.37952 0.26874
# Poissons Ratio (y) = 0.46596 0.18791
# Poissons Ratio (z) = 0.28120 0.16014
#
# Static dielectric constant tensor:
#      x y z
#    x 1.837060 0.000040 0.000640 
#    y 0.000040 1.722970 0.000010 
#    z 0.000640 0.000010 1.682670 
# 
# From -- ./inp_files/5177.got.cif
#   From: 2010.05.17/outbox.cif.g08.bks.cpg/sg5_3_cif.got.tgz:5177.got - 2010.06.03 18:56:24.
