data_PCOD9125277
_publ_section_title
;
Structure prediction by ZEFSAII (Michael W. Deem and Ramdas Pophale) SiO2 
 PCOD9125277
Probable space group: C 2
;
_chemical_formula_sum "Si O2"
_cell_formula_units_Z 32
_cell_length_a 17.748316
_cell_length_b 10.094998
_cell_length_c 21.396373
_cell_angle_alpha 90.000000
_cell_angle_beta 159.184422
_cell_angle_gamma 90.000000
_cell_volume 1362.302193
_symmetry_space_group_name_H-M "C 2"
_symmetry_group_IT_number 5
_symmetry_cell_setting 'monoclinic'
loop_
_space_group_symop_operation_xyz
x,y,z
-x,y,-z
1/2+x,1/2+y,z
1/2-x,1/2+y,-z
loop_
_atom_site_type_symbol
_atom_site_label
_atom_site_fract_x
_atom_site_fract_y
_atom_site_fract_z
Si Si1 0.361291 0.862860 0.201023
Si Si2 0.235383 0.663234 0.361211
Si Si3 0.560481 0.945618 0.475584
Si Si4 0.623304 0.661264 0.328696
Si Si5 0.794372 0.635710 0.082973
Si Si6 0.186890 0.884511 0.596185
Si Si7 0.548956 0.138487 0.966536
Si Si8 0.091508 0.356698 0.000734
O O1 0.376668 0.930175 0.281139
O O2 0.540057 0.749242 0.323940
O O3 0.152479 0.776822 0.031110
O O4 0.348664 0.984718 0.143381
O O5 0.368685 0.793793 0.462978
O O6 0.327398 0.521952 0.453354
O O7 0.010897 0.686526 0.220395
O O8 0.170255 0.628121 0.239855
O O9 0.500000 0.993363 0.500000
O O10 0.747217 0.024883 0.582973
O O11 0.801464 0.761892 0.440744
O O12 0.407336 0.644426 0.120066
O O13 0.735010 0.732507 0.094065
O O14 0.000000 0.878203 0.500000
O O15 0.400604 0.861516 0.802511
O O16 0.686916 0.004489 0.063909
O O17 0.500000 0.139862 0.000000
O O18 0.000000 0.346826 0.000000
#
# Coordination Sequence:
#
# PCOD9125277 Si02
#       8
#     4   4   4   4   4   4   4   4
#     4  12  26  44  69 105 140 185 234 284 358 413
#     4  11  22  42  70  99 138 176 229 284 342 411
#     4  12  29  47  67 103 146 190 231 286 355 416
#     4  11  25  44  71 100 139 181 233 290 345 416
#     4  11  24  43  71 103 130 180 233 289 345 411
#     4  10  21  40  67  96 135 178 220 272 343 413
#     4  10  21  40  68  99 132 177 232 282 341 411
#     4   9  22  40  64 103 129 170 224 281 341 401
#
# _framework density 23.489647999999999
#
# number of rings (size 3 to 8) (size 9 to 14) (size 15 to 20)
#    0.000    1.250    2.500    2.250    3.500    5.500 
#    0.000    0.000    0.000    0.000    0.000    0.000 
#    0.000    0.000    0.000    0.000    0.000    0.000 
#
# Total GULP energy -89202.249803 kJ/mol
# GULP energy per Si atom -5575.140613 kJ/mol
# Density = 2.343618 g / cm^3
# Si number density = 23.489648 Si / 1000 Ang^3
#
#
#
# Elastic Constant Matrix: (Units=GPa)
#
#
# Indices 1 2 3 4 5 6 
#
# 1 74.3809 18.4349 -4.3517 0.0015 -5.8861 -0.0001
# 2 18.4349 90.5708 1.7773 -0.0032 0.7457 -0.0029
# 3 -4.3517 1.7773 21.5515 0.0054 5.5558 0.0038
# 4 0.0015 -0.0032 0.0054 29.4212 -0.0005 14.2663
# 5 -5.8861 0.7457 5.5558 -0.0005 25.3826 -0.0017
# 6 -0.0001 -0.0029 0.0038 14.2663 -0.0017 18.2585
#
#
#
# Elastic Compliance Matrix: (Units=1/GPa)
#
#
# Indices 1 2 3 4 5 6 
#
# 1 0.014572 -0.003038 0.002436 -0.000002 0.002935 0.000001
# 2 -0.003038 0.011693 -0.001386 0.000001 -0.000745 0.000001
# 3 0.002436 -0.001386 0.049652 -0.000006 -0.010262 -0.000006
# 4 -0.000002 0.000001 -0.000006 0.054722 -0.000001 -0.042757
# 5 0.002935 -0.000745 -0.010262 -0.000001 0.042346 0.000007
# 6 0.000001 0.000001 -0.000006 -0.042757 0.000007 0.088178
#
#
# Mechanical properties :
#
#
# Convention : Reuss Voigt Hill
#
# Bulk Modulus (GPa) = 13.90004 24.24713 19.07358
# Shear Modulus (GPa) = 17.29396 25.98864 21.64130
#
# Velocity S-wave (km/s) = 2.71631 3.32985 3.03861
# Velocity P-wave (km/s) = 3.97092 5.01286 4.52200
#
# Compressibility (1/GPa) = 0.07194222
#
# Stress axis : x y z
#
# Youngs Moduli (GPa) = 68.62442 85.52302 20.14008
#
# Poissons Ratio (x) = 0.25982 -0.04907
# Poissons Ratio (y) = 0.20848 0.02791
# Poissons Ratio (z) = -0.16719 0.11851
#
# Static dielectric constant tensor:
#      x y z
#    x 1.932060 0.000000 -0.006330 
#    y 0.000000 1.922630 -0.000010 
#    z -0.006330 -0.000010 1.868770 
# 
# From -- ./inp_files/71112.got.cif
#   From: 2010.05.17/outbox.cif.g08.bks.cpg/sg5_36_cif.got.tgz:71112.got - 2010.06.03 18:56:24.
