data_PCOD9125775
_publ_section_title
;
Structure prediction by ZEFSAII (Michael W. Deem and Ramdas Pophale) SiO2 
 PCOD9125775
Probable space group: C 2
;
_chemical_formula_sum "Si O2"
_cell_formula_units_Z 22
_cell_length_a 11.690571
_cell_length_b 10.944308
_cell_length_c 11.093666
_cell_angle_alpha 90.000000
_cell_angle_beta 141.548844
_cell_angle_gamma 90.000000
_cell_volume 882.638429
_symmetry_space_group_name_H-M "C 2"
_symmetry_group_IT_number 5
_symmetry_cell_setting 'monoclinic'
loop_
_space_group_symop_operation_xyz
x,y,z
-x,y,-z
1/2+x,1/2+y,z
1/2-x,1/2+y,-z
loop_
_atom_site_type_symbol
_atom_site_label
_atom_site_fract_x
_atom_site_fract_y
_atom_site_fract_z
Si Si1 0.500000 0.227190 0.000000
Si Si2 0.119567 0.507506 0.258435
Si Si3 0.788412 0.787790 0.296308
Si Si4 0.416274 0.635677 0.659751
Si Si5 0.873462 0.359012 0.232023
Si Si6 0.680722 0.577030 0.070773
O O1 0.561996 0.136572 0.157616
O O2 0.670032 0.303400 0.084930
O O3 0.207266 0.422458 0.229275
O O4 0.279329 0.539532 0.486615
O O5 0.959040 0.424180 0.183246
O O6 0.690419 0.708617 0.321738
O O7 0.749251 0.714707 0.142656
O O8 0.000000 0.793918 0.500000
O O9 0.489493 0.745704 0.633586
O O10 0.596071 0.570361 0.866389
O O11 0.834086 0.491102 0.259891
O O12 0.500000 0.557249 0.000000
#
# Coordination Sequence:
#
# PCOD9125775 Si02
#       6
#     2   4   4   4   4   4
#     4  12  28  48  74 112 152 206 250 320 388 454
#     4  11  27  47  71 111 151 194 256 318 378 462
#     4  10  23  42  72 102 143 200 245 306 379 454
#     4  10  24  43  68 110 145 191 248 318 377 446
#     4  11  24  46  73 107 147 198 246 317 373 462
#     4  10  21  43  70 103 141 192 249 300 378 447
#
# _framework density 24.925267999999999
#
# number of rings (size 3 to 8) (size 9 to 14) (size 15 to 20)
#    0.000    1.455    0.909    2.182    8.909    4.364 
#    9.818    0.000    0.000    0.000    0.000    0.000 
#    0.000    0.000    0.000    0.000    0.000    0.000 
#
# Total GULP energy -61309.719594 kJ/mol
# GULP energy per Si atom -5573.610872 kJ/mol
# Density = 2.486854 g / cm^3
# Si number density = 24.925268 Si / 1000 Ang^3
#
#
#
# Elastic Constant Matrix: (Units=GPa)
#
#
# Indices 1 2 3 4 5 6 
#
# 1 91.7577 37.6872 45.7635 0.0000 26.1774 0.0000
# 2 37.6872 132.3797 39.0605 0.0000 13.0242 0.0000
# 3 45.7635 39.0605 100.1894 0.0000 10.4468 0.0000
# 4 0.0000 0.0000 0.0000 22.2876 0.0000 8.9996
# 5 26.1774 13.0242 10.4468 0.0000 36.2201 0.0000
# 6 0.0000 0.0000 0.0000 8.9996 0.0000 36.9680
#
#
#
# Elastic Compliance Matrix: (Units=1/GPa)
#
#
# Indices 1 2 3 4 5 6 
#
# 1 0.017854 -0.002237 -0.006208 0.000000 -0.010309 0.000000
# 2 -0.002237 0.008986 -0.002385 0.000000 -0.000927 0.000000
# 3 -0.006208 -0.002385 0.013598 0.000000 0.001422 0.000000
# 4 0.000000 0.000000 0.000000 0.049759 0.000000 -0.012113
# 5 -0.010309 -0.000927 0.001422 0.000000 0.034982 0.000000
# 6 0.000000 0.000000 0.000000 -0.012113 0.000000 0.029999
#
#
# Mechanical properties :
#
#
# Convention : Reuss Voigt Hill
#
# Bulk Modulus (GPa) = 53.25313 63.26105 58.25709
# Shear Modulus (GPa) = 27.30761 32.54952 29.92856
#
# Velocity S-wave (km/s) = 3.31354 3.61762 3.46892
# Velocity P-wave (km/s) = 6.00424 6.54866 6.28235
#
# Compressibility (1/GPa) = 0.01877824
#
# Stress axis : x y z
#
# Youngs Moduli (GPa) = 56.00865 111.28795 73.53833
#
# Poissons Ratio (x) = 0.24894 0.45655
# Poissons Ratio (y) = 0.12528 0.17538
# Poissons Ratio (z) = 0.34772 0.26541
#
# Static dielectric constant tensor:
#      x y z
#    x 2.111050 0.000000 -0.033300 
#    y 0.000000 2.026440 0.000000 
#    z -0.033300 0.000000 2.043590 
# 
# From -- ./inp_files/39353.got.cif
#   From: 2010.05.17/outbox.cif.g08.bks.cpg/sg5_20_cif.got.tgz:39353.got - 2010.06.03 18:56:24.
