data_PCOD9125798
_publ_section_title
;
Structure prediction by ZEFSAII (Michael W. Deem and Ramdas Pophale) SiO2 
 PCOD9125798
Probable space group: C 2
;
_chemical_formula_sum "Si O2"
_cell_formula_units_Z 28
_cell_length_a 9.104032
_cell_length_b 9.128822
_cell_length_c 24.480276
_cell_angle_alpha 90.000000
_cell_angle_beta 39.646646
_cell_angle_gamma 90.000000
_cell_volume 1298.136222
_symmetry_space_group_name_H-M "C 2"
_symmetry_group_IT_number 5
_symmetry_cell_setting 'monoclinic'
loop_
_space_group_symop_operation_xyz
x,y,z
-x,y,-z
1/2+x,1/2+y,z
1/2-x,1/2+y,-z
loop_
_atom_site_type_symbol
_atom_site_label
_atom_site_fract_x
_atom_site_fract_y
_atom_site_fract_z
Si Si1 0.775544 0.777680 0.414966
Si Si2 0.267384 0.636516 0.031462
Si Si3 0.086233 0.027686 0.321527
Si Si4 0.284282 0.232665 0.534686
Si Si5 0.908702 0.470025 0.326011
Si Si6 0.725098 0.805377 0.076010
Si Si7 0.222622 0.768307 0.814684
O O1 0.500000 0.785943 0.500000
O O2 0.854560 0.784672 0.455276
O O3 0.867856 0.630643 0.361191
O O4 0.908538 0.910205 0.348256
O O5 0.172090 0.470697 0.069421
O O6 0.053669 0.746022 0.105835
O O7 0.500000 0.654035 0.000000
O O8 0.339952 0.680707 0.949001
O O9 0.287233 0.963724 0.301566
O O10 0.180156 0.133114 0.247966
O O11 0.932186 0.126705 0.406254
O O12 0.500000 0.151853 0.500000
O O13 0.214594 0.362868 0.595242
O O14 0.169928 0.413462 0.243924
O O15 0.672699 0.769510 0.153955
O O16 0.000000 0.805578 0.000000
#
# Coordination Sequence:
#
# PCOD9125798 Si02
#       7
#     4   4   4   4   4   4   4
#     4  12  23  41  69  94 128 183 239 279 325 394
#     4  10  21  43  76 102 128 174 219 264 326 401
#     4  11  23  41  64  96 132 179 223 278 340 380
#     4  11  21  40  68  88 128 177 228 287 330 386
#     4  11  23  42  62  95 137 178 217 285 346 374
#     4   9  20  42  70  99 129 171 213 264 323 394
#     4  10  23  44  67  95 145 174 213 274 335 400
#
# _framework density 21.569385
#
# number of rings (size 3 to 8) (size 9 to 14) (size 15 to 20)
#    0.000    1.429    2.857    2.571    0.000    1.714 
#    0.000   18.571    0.000    0.000    0.000    0.000 
#    0.000    0.000    0.000    0.000    0.000    0.000 
#
# Total GULP energy -78100.358051 kJ/mol
# GULP energy per Si atom -5578.597004 kJ/mol
# Density = 2.152029 g / cm^3
# Si number density = 21.569385 Si / 1000 Ang^3
#
#
#
# Elastic Constant Matrix: (Units=GPa)
#
#
# Indices 1 2 3 4 5 6 
#
# 1 87.9208 33.3266 33.1280 0.0000 6.6368 0.0000
# 2 33.3266 103.3918 38.7909 0.0000 -2.6646 0.0000
# 3 33.1280 38.7909 92.9279 -0.0001 4.4048 0.0000
# 4 0.0000 0.0000 -0.0001 25.4122 0.0000 1.4638
# 5 6.6368 -2.6646 4.4048 0.0000 25.0108 0.0000
# 6 0.0000 0.0000 0.0000 1.4638 0.0000 28.4840
#
#
#
# Elastic Compliance Matrix: (Units=1/GPa)
#
#
# Indices 1 2 3 4 5 6 
#
# 1 0.014235 -0.003365 -0.003503 0.000000 -0.003519 0.000000
# 2 -0.003365 0.012372 -0.004104 0.000000 0.002934 0.000000
# 3 -0.003503 -0.004104 0.013815 0.000000 -0.001941 0.000000
# 4 0.000000 0.000000 0.000000 0.039468 0.000000 -0.002028
# 5 -0.003519 0.002934 -0.001941 0.000000 0.041571 0.000000
# 6 0.000000 0.000000 0.000000 -0.002028 0.000000 0.035212
#
#
# Mechanical properties :
#
#
# Convention : Reuss Voigt Hill
#
# Bulk Modulus (GPa) = 54.11876 54.97017 54.54447
# Shear Modulus (GPa) = 27.05989 27.71441 27.38715
#
# Velocity S-wave (km/s) = 3.54581 3.58843 3.56718
# Velocity P-wave (km/s) = 6.47369 6.53527 6.50455
#
# Compressibility (1/GPa) = 0.01847788
#
# Stress axis : x y z
#
# Youngs Moduli (GPa) = 70.24975 80.82873 72.38487
#
# Poissons Ratio (x) = 0.27196 0.25359
# Poissons Ratio (y) = 0.23637 0.29706
# Poissons Ratio (z) = 0.24611 0.33172
#
# Static dielectric constant tensor:
#      x y z
#    x 1.816830 0.000000 0.005350 
#    y 0.000000 1.836130 0.000000 
#    z 0.005350 0.000000 1.799360 
# 
# From -- ./inp_files/70114.got.cif
#   From: 2010.05.17/outbox.cif.g08.bks.cpg/sg5_36_cif.got.tgz:70114.got - 2010.06.03 18:56:24.
