data_PCOD9125686
_publ_section_title
;
Structure prediction by ZEFSAII (Michael W. Deem and Ramdas Pophale) SiO2 
 PCOD9125686
Probable space group: C 2
;
_chemical_formula_sum "Si O2"
_cell_formula_units_Z 26
_cell_length_a 14.012079
_cell_length_b 13.800267
_cell_length_c 9.776833
_cell_angle_alpha 90.000000
_cell_angle_beta 143.043580
_cell_angle_gamma 90.000000
_cell_volume 1136.612891
_symmetry_space_group_name_H-M "C 2"
_symmetry_group_IT_number 5
_symmetry_cell_setting 'monoclinic'
loop_
_space_group_symop_operation_xyz
x,y,z
-x,y,-z
1/2+x,1/2+y,z
1/2-x,1/2+y,-z
loop_
_atom_site_type_symbol
_atom_site_label
_atom_site_fract_x
_atom_site_fract_y
_atom_site_fract_z
Si Si1 0.530403 0.489060 0.298768
Si Si2 0.275771 0.345478 0.896960
Si Si3 0.528720 0.089719 0.785562
Si Si4 0.277170 0.464498 0.229629
Si Si5 0.500000 0.986891 0.500000
Si Si6 0.748623 0.242342 0.875019
Si Si7 0.000000 0.122761 0.000000
Si Si8 0.500000 0.223297 0.000000
O O1 0.403028 0.517078 0.271474
O O2 0.688917 0.483496 0.571848
O O3 0.540166 0.556878 0.178194
O O4 0.441833 0.390984 0.144884
O O5 0.341145 0.283310 0.848206
O O6 0.153075 0.428473 0.724581
O O7 0.184837 0.279143 0.902836
O O8 0.629597 0.160696 0.797535
O O9 0.463207 0.160543 0.824308
O O10 0.431013 0.037996 0.556440
O O11 0.618340 0.007977 0.980735
O O12 0.301526 0.347799 0.242793
O O13 0.860241 0.191401 0.894387
#
# Coordination Sequence:
#
# PCOD9125686 Si02
#       8
#     4   4   4   4   2   4   2   2
#     4  10  21  42  72  94 141 188 234 279 356 417
#     4  10  22  47  70 104 135 198 230 294 348 429
#     4  11  23  47  69 106 139 191 235 302 352 429
#     4  10  21  46  69  96 142 195 229 291 355 427
#     4  12  22  46  80  96 148 182 242 296 362 408
#     4  10  22  43  70 104 142 180 244 285 357 416
#     4  12  21  41  66 112 138 174 238 300 336 420
#     4  10  25  47  72 100 150 176 252 280 362 430
#
# _framework density 22.874983
#
# number of rings (size 3 to 8) (size 9 to 14) (size 15 to 20)
#    0.000    1.538    4.615    0.462    0.000    4.308 
#   16.615    0.000    0.000    0.000    0.000    0.000 
#    0.000    0.000    0.000    0.000    0.000    0.000 
#
# Total GULP energy -72369.454079 kJ/mol
# GULP energy per Si atom -5566.881083 kJ/mol
# Density = 2.282292 g / cm^3
# Si number density = 22.874983 Si / 1000 Ang^3
#
#
#
# Elastic Constant Matrix: (Units=GPa)
#
#
# Indices 1 2 3 4 5 6 
#
# 1 137.9010 47.2904 39.5784 0.0000 -41.8421 0.0000
# 2 47.2904 86.7235 31.6694 0.0000 -15.0486 0.0000
# 3 39.5784 31.6694 83.4089 0.0000 -31.5531 0.0000
# 4 0.0000 0.0000 0.0000 72.8751 0.0000 -52.0338
# 5 -41.8421 -15.0486 -31.5531 0.0000 30.3309 0.0000
# 6 0.0000 0.0000 0.0000 -52.0338 0.0000 74.5711
#
#
#
# Elastic Compliance Matrix: (Units=1/GPa)
#
#
# Indices 1 2 3 4 5 6 
#
# 1 0.014395 -0.005391 0.002831 0.000000 0.020129 0.000000
# 2 -0.005391 0.015498 -0.005327 0.000000 -0.005289 0.000000
# 3 0.002831 -0.005327 0.021677 0.000000 0.023812 0.000000
# 4 0.000000 0.000000 0.000000 0.027347 0.000000 0.019082
# 5 0.020129 -0.005289 0.023812 0.000000 0.082885 0.000000
# 6 0.000000 0.000000 0.000000 0.019082 0.000000 0.026725
#
#
# Mechanical properties :
#
#
# Convention : Reuss Voigt Hill
#
# Bulk Modulus (GPa) = 27.93675 60.56775 44.25225
# Shear Modulus (GPa) = 23.12319 48.18842 35.65580
#
# Velocity S-wave (km/s) = 3.18284 4.59475 3.95235
# Velocity P-wave (km/s) = 5.07411 7.39487 6.34156
#
# Compressibility (1/GPa) = 0.03579514
#
# Stress axis : x y z
#
# Youngs Moduli (GPa) = 69.46730 64.52426 46.13265
#
# Poissons Ratio (x) = 0.34783 -0.13059
# Poissons Ratio (y) = 0.37447 0.24577
# Poissons Ratio (z) = -0.19664 0.34375
#
# Static dielectric constant tensor:
#      x y z
#    x 1.900060 0.000000 0.031300 
#    y 0.000000 1.935730 0.000000 
#    z 0.031300 0.000000 1.931070 
# 
# From -- ./inp_files/24773.got.cif
#   From: 2010.05.17/outbox.cif.g08.bks.cpg/sg5_13_cif.got.tgz:24773.got - 2010.06.03 18:56:24.
