data_PCOD9125372
_publ_section_title
;
Structure prediction by ZEFSAII (Michael W. Deem and Ramdas Pophale) SiO2 
 PCOD9125372
Probable space group: C 2
;
_chemical_formula_sum "Si O2"
_cell_formula_units_Z 22
_cell_length_a 5.446989
_cell_length_b 14.711565
_cell_length_c 12.508510
_cell_angle_alpha 90.000000
_cell_angle_beta 124.620812
_cell_angle_gamma 90.000000
_cell_volume 824.866898
_symmetry_space_group_name_H-M "C 2"
_symmetry_group_IT_number 5
_symmetry_cell_setting 'monoclinic'
loop_
_space_group_symop_operation_xyz
x,y,z
-x,y,-z
1/2+x,1/2+y,z
1/2-x,1/2+y,-z
loop_
_atom_site_type_symbol
_atom_site_label
_atom_site_fract_x
_atom_site_fract_y
_atom_site_fract_z
Si Si1 0.044885 0.371240 0.384277
Si Si2 0.114615 0.884593 0.866591
Si Si3 0.500000 0.537874 0.000000
Si Si4 0.178777 0.504748 0.253765
Si Si5 0.134188 0.684109 0.914422
Si Si6 0.047223 0.177077 0.637936
O O1 0.723892 0.380747 0.253033
O O2 0.143226 0.266962 0.378404
O O3 0.000000 0.372575 0.500000
O O4 0.197234 0.461669 0.376123
O O5 0.196341 0.793637 0.946498
O O6 0.302963 0.913051 0.810376
O O7 0.123982 0.974996 0.938236
O O8 0.872996 0.558330 0.142701
O O9 0.453092 0.576734 0.307623
O O10 0.888648 0.699710 0.757096
O O11 0.500000 0.651747 0.000000
O O12 0.000000 0.657521 0.000000
O O13 0.000000 0.165483 0.500000
#
# Coordination Sequence:
#
# PCOD9125372 Si02
#       6
#     4   4   2   4   4   4
#     4  10  21  41  63  94 128 159 207 257 307 373
#     4  11  24  42  65  90 127 163 207 262 305 366
#     4  12  24  44  62  90 128 166 208 258 304 368
#     4  10  22  40  65  92 123 165 203 247 320 363
#     4   9  23  41  61  96 120 161 217 246 312 371
#     4   8  18  39  62  90 128 156 201 259 303 363
#
# _framework density 26.670973
#
# number of rings (size 3 to 8) (size 9 to 14) (size 15 to 20)
#    1.091    1.091    1.818    0.000    2.545    5.091 
#    0.000    0.000    0.000    0.000    0.000    0.000 
#    0.000    0.000    0.000    0.000    0.000    0.000 
#
# Total GULP energy -61242.237596 kJ/mol
# GULP energy per Si atom -5567.476145 kJ/mol
# Density = 2.661027 g / cm^3
# Si number density = 26.670973 Si / 1000 Ang^3
#
#
#
# Elastic Constant Matrix: (Units=GPa)
#
#
# Indices 1 2 3 4 5 6 
#
# 1 88.6607 38.8738 37.7893 0.0000 9.9779 0.0000
# 2 38.8738 205.6335 60.6314 0.0000 -3.1331 0.0000
# 3 37.7893 60.6314 129.6705 0.0000 8.9755 0.0000
# 4 0.0000 0.0000 0.0000 43.6894 0.0000 -7.4083
# 5 9.9779 -3.1331 8.9755 0.0000 35.6683 0.0000
# 6 0.0000 0.0000 0.0000 -7.4083 0.0000 40.0764
#
#
#
# Elastic Compliance Matrix: (Units=1/GPa)
#
#
# Indices 1 2 3 4 5 6 
#
# 1 0.013669 -0.001769 -0.002932 0.000000 -0.003241 0.000000
# 2 -0.001769 0.005919 -0.002363 0.000000 0.001609 0.000000
# 3 -0.002932 -0.002363 0.009800 0.000000 -0.001853 0.000000
# 4 0.000000 0.000000 0.000000 0.023630 0.000000 0.004368
# 5 -0.003241 0.001609 -0.001853 0.000000 0.029551 0.000000
# 6 0.000000 0.000000 0.000000 0.004368 0.000000 0.025760
#
#
# Mechanical properties :
#
#
# Convention : Reuss Voigt Hill
#
# Bulk Modulus (GPa) = 65.53596 77.61708 71.57652
# Shear Modulus (GPa) = 39.20265 42.99817 41.10041
#
# Velocity S-wave (km/s) = 3.83804 4.01954 3.92984
# Velocity P-wave (km/s) = 6.65327 7.12090 6.89105
#
# Compressibility (1/GPa) = 0.01525880
#
# Stress axis : x y z
#
# Youngs Moduli (GPa) = 73.15804 168.95303 102.04400
#
# Poissons Ratio (x) = 0.29887 0.29920
# Poissons Ratio (y) = 0.12941 0.24117
# Poissons Ratio (z) = 0.21450 0.39931
#
# Static dielectric constant tensor:
#      x y z
#    x 2.373100 0.000000 -0.024040 
#    y 0.000000 2.348570 0.000000 
#    z -0.024040 0.000000 2.120960 
# 
# From -- ./inp_files/33558.got.cif
#   From: 2010.05.17/outbox.cif.g08.bks.cpg/sg5_17_cif.got.tgz:33558.got - 2010.06.03 18:56:24.
