data_PCOD9125733
_publ_section_title
;
Structure prediction by ZEFSAII (Michael W. Deem and Ramdas Pophale) SiO2 
 PCOD9125733
Probable space group: C 2
;
_chemical_formula_sum "Si O2"
_cell_formula_units_Z 22
_cell_length_a 7.462033
_cell_length_b 24.427861
_cell_length_c 5.494985
_cell_angle_alpha 90.000000
_cell_angle_beta 72.549079
_cell_angle_gamma 90.000000
_cell_volume 955.533105
_symmetry_space_group_name_H-M "C 2"
_symmetry_group_IT_number 5
_symmetry_cell_setting 'monoclinic'
loop_
_space_group_symop_operation_xyz
x,y,z
-x,y,-z
1/2+x,1/2+y,z
1/2-x,1/2+y,-z
loop_
_atom_site_type_symbol
_atom_site_label
_atom_site_fract_x
_atom_site_fract_y
_atom_site_fract_z
Si Si1 0.779958 0.253250 0.661348
Si Si2 0.881822 0.456694 0.792830
Si Si3 0.229344 0.127504 0.404120
Si Si4 0.500000 0.331267 0.500000
Si Si5 0.784596 0.347007 0.002139
Si Si6 0.779422 0.073482 0.090150
O O1 0.720570 0.190549 0.667990
O O2 0.659311 0.291204 0.536704
O O3 0.746567 0.285369 0.926932
O O4 0.000000 0.256700 0.500000
O O5 0.789037 0.396565 0.807398
O O6 0.749237 0.509040 0.865546
O O7 0.000000 0.464610 0.500000
O O8 0.000000 0.456525 0.000000
O O9 0.294351 0.105438 0.640721
O O10 0.000000 0.125331 0.500000
O O11 0.292953 0.092159 0.145544
O O12 0.379045 0.363861 0.746027
O O13 0.000000 0.344469 0.000000
O O14 0.000000 0.086144 0.000000
#
# Coordination Sequence:
#
# PCOD9125733 Si02
#       6
#     4   4   4   2   4   4
#     4  11  23  44  71 101 147 190 233 301 356 426
#     4  11  25  46  70 100 140 186 231 288 363 418
#     4   9  21  39  69  98 139 184 229 283 359 417
#     4  12  26  44  70 110 132 192 246 282 366 440
#     4  11  25  46  72 101 148 189 238 298 366 424
#     4  10  21  43  67 101 133 182 236 285 345 421
#
# _framework density 23.023799
#
# number of rings (size 3 to 8) (size 9 to 14) (size 15 to 20)
#    0.000    1.455    1.818    2.182    5.091    2.182 
#    9.818    0.000    0.000    0.000    0.000    0.000 
#    0.000    0.000    0.000    0.000    0.000    0.000 
#
# Total GULP energy -61431.116681 kJ/mol
# GULP energy per Si atom -5584.646971 kJ/mol
# Density = 2.297140 g / cm^3
# Si number density = 23.023799 Si / 1000 Ang^3
#
#
#
# Elastic Constant Matrix: (Units=GPa)
#
#
# Indices 1 2 3 4 5 6 
#
# 1 56.1207 -5.2735 24.9914 0.0000 -13.4238 0.0000
# 2 -5.2735 119.5232 40.0103 0.0000 1.7418 0.0000
# 3 24.9914 40.0103 152.1753 0.0000 1.6715 0.0000
# 4 0.0000 0.0000 0.0000 81.1903 0.0000 0.9277
# 5 -13.4238 1.7418 1.6715 0.0000 32.0036 0.0000
# 6 0.0000 0.0000 0.0000 0.9277 0.0000 8.7980
#
#
#
# Elastic Compliance Matrix: (Units=1/GPa)
#
#
# Indices 1 2 3 4 5 6 
#
# 1 0.022232 0.002303 -0.004360 0.000000 0.009427 0.000000
# 2 0.002303 0.009417 -0.002861 0.000000 0.000603 0.000000
# 3 -0.004360 -0.002861 0.008063 0.000000 -0.002094 0.000000
# 4 0.000000 0.000000 0.000000 0.012332 0.000000 -0.001300
# 5 0.009427 0.000603 -0.002094 0.000000 0.035277 0.000000
# 6 0.000000 0.000000 0.000000 -0.001300 0.000000 0.113799
#
#
# Mechanical properties :
#
#
# Convention : Reuss Voigt Hill
#
# Bulk Modulus (GPa) = 33.47207 49.69729 41.58468
# Shear Modulus (GPa) = 22.63329 42.27111 32.45220
#
# Velocity S-wave (km/s) = 3.13875 4.28948 3.75841
# Velocity P-wave (km/s) = 5.26358 6.79447 6.07742
#
# Compressibility (1/GPa) = 0.02987565
#
# Stress axis : x y z
#
# Youngs Moduli (GPa) = 44.98062 106.19031 124.02948
#
# Poissons Ratio (x) = -0.24456 0.54079
# Poissons Ratio (y) = -0.10359 0.35482
# Poissons Ratio (z) = 0.19612 0.30379
#
# Static dielectric constant tensor:
#      x y z
#    x 1.902650 0.000000 0.055190 
#    y 0.000000 1.790130 0.000000 
#    z 0.055190 0.000000 2.011320 
# 
# From -- ./inp_files/3344.got.cif
#   From: 2010.05.17/outbox.cif.g08.bks.cpg/sg5_2_cif.got.tgz:3344.got - 2010.06.03 18:56:24.
