data_PCOD9125737
_publ_section_title
;
Structure prediction by ZEFSAII (Michael W. Deem and Ramdas Pophale) SiO2 
 PCOD9125737
Probable space group: C 2
;
_chemical_formula_sum "Si O2"
_cell_formula_units_Z 20
_cell_length_a 9.080113
_cell_length_b 25.671175
_cell_length_c 8.171812
_cell_angle_alpha 90.000000
_cell_angle_beta 146.130514
_cell_angle_gamma 90.000000
_cell_volume 1061.565365
_symmetry_space_group_name_H-M "C 2"
_symmetry_group_IT_number 5
_symmetry_cell_setting 'monoclinic'
loop_
_space_group_symop_operation_xyz
x,y,z
-x,y,-z
1/2+x,1/2+y,z
1/2-x,1/2+y,-z
loop_
_atom_site_type_symbol
_atom_site_label
_atom_site_fract_x
_atom_site_fract_y
_atom_site_fract_z
Si Si1 0.026998 0.012560 0.839924
Si Si2 0.024392 0.438055 0.334347
Si Si3 0.500000 0.286945 0.500000
Si Si4 0.790261 0.687698 0.186111
Si Si5 0.718498 0.611291 0.822045
Si Si6 0.000000 0.361466 0.000000
O O1 0.081772 0.059794 0.769775
O O2 0.785504 0.974447 0.570159
O O3 0.000000 0.034083 0.000000
O O4 0.282240 0.976615 0.084307
O O5 0.000000 0.416814 0.500000
O O6 0.998934 0.396942 0.163245
O O7 0.433089 0.244119 0.296598
O O8 0.750094 0.324316 0.737320
O O9 0.000000 0.659590 0.500000
O O10 0.500000 0.694605 0.000000
O O11 0.767014 0.653505 0.005989
O O12 0.500000 0.634232 0.500000
O O13 0.000000 0.598502 0.000000
#
# Coordination Sequence:
#
# PCOD9125737 Si02
#       6
#     4   4   2   4   4   2
#     4  10  22  41  60  88 128 176 205 249 312 393
#     4  10  23  40  62  93 130 166 215 259 319 386
#     4  10  22  42  68  90 114 170 226 252 328 382
#     4  10  21  43  67  83 127 167 216 259 311 399
#     4  12  25  37  62  99 133 164 214 264 324 375
#     4  12  22  40  70  92 124 170 212 284 316 366
#
# _framework density 18.840102000000002
#
# number of rings (size 3 to 8) (size 9 to 14) (size 15 to 20)
#    0.600    0.800    1.000    4.200    4.200    2.400 
#    0.000    3.000    0.000    0.000    0.000    0.000 
#    0.000    0.000    0.000    0.000    0.000    0.000 
#
# Total GULP energy -55720.861691 kJ/mol
# GULP energy per Si atom -5572.086169 kJ/mol
# Density = 1.879722 g / cm^3
# Si number density = 18.840102 Si / 1000 Ang^3
#
#
#
# Elastic Constant Matrix: (Units=GPa)
#
#
# Indices 1 2 3 4 5 6 
#
# 1 111.7697 75.5521 70.5074 0.0000 -8.6443 0.0000
# 2 75.5521 92.3869 52.2330 0.0000 -15.7896 0.0000
# 3 70.5074 52.2330 180.1230 0.0000 3.9992 0.0000
# 4 0.0000 0.0000 0.0000 -43.0894 0.0000 113.2646
# 5 -8.6443 -15.7896 3.9992 0.0000 41.2170 0.0000
# 6 0.0000 0.0000 0.0000 113.2646 0.0000 -174.8873
#
#
#
# Elastic Compliance Matrix: (Units=1/GPa)
#
#
# Indices 1 2 3 4 5 6 
#
# 1 0.022341 -0.016186 -0.004027 0.000000 -0.001124 0.000000
# 2 -0.016186 0.025960 -0.001341 0.000000 0.006680 0.000000
# 3 -0.004027 -0.001341 0.007563 0.000000 -0.002092 0.000000
# 4 0.000000 0.000000 0.000000 0.033041 0.000000 0.021399
# 5 -0.001124 0.006680 -0.002092 0.000000 0.026788 0.000000
# 6 0.000000 0.000000 0.000000 0.021399 0.000000 0.008141
#
#
# Mechanical properties :
#
#
# Convention : Reuss Voigt Hill
#
# Bulk Modulus (GPa) = 78.37965 86.76275 82.57120
# Shear Modulus (GPa) = 29.20690 -22.95282 3.12704
#
# Velocity S-wave (km/s) = 3.94160 -3.49420 1.28972
# Velocity P-wave (km/s) = 7.89986 5.46561 6.79267
#
# Compressibility (1/GPa) = 0.01275841
#
# Stress axis : x y z
#
# Youngs Moduli (GPa) = 44.76075 38.52077 132.21997
#
# Poissons Ratio (x) = 0.62348 0.53240
# Poissons Ratio (y) = 0.72448 0.17726
# Poissons Ratio (z) = 0.18023 0.05164
#
# Static dielectric constant tensor:
#      x y z
#    x 1.739380 0.000000 -0.012210 
#    y 0.000000 1.629300 0.000000 
#    z -0.012210 0.000000 1.728140 
# 
# From -- ./inp_files/17494.got.cif
#   From: 2010.05.17/outbox.cif.g08.bks.cpg/sg5_9_cif.got.tgz:17494.got - 2010.06.03 18:56:24.
