data_PCOD9125991
_publ_section_title
;
Structure prediction by ZEFSAII (Michael W. Deem and Ramdas Pophale) SiO2 
 PCOD9125991
Probable space group: C 2
;
_chemical_formula_sum "Si O2"
_cell_formula_units_Z 26
_cell_length_a 18.894508
_cell_length_b 5.063194
_cell_length_c 13.633258
_cell_angle_alpha 90.000000
_cell_angle_beta 54.087785
_cell_angle_gamma 90.000000
_cell_volume 1056.331221
_symmetry_space_group_name_H-M "C 2"
_symmetry_group_IT_number 5
_symmetry_cell_setting 'monoclinic'
loop_
_space_group_symop_operation_xyz
x,y,z
-x,y,-z
1/2+x,1/2+y,z
1/2-x,1/2+y,-z
loop_
_atom_site_type_symbol
_atom_site_label
_atom_site_fract_x
_atom_site_fract_y
_atom_site_fract_z
Si Si1 0.000000 0.914201 0.000000
Si Si2 0.879015 0.233549 0.237499
Si Si3 0.454470 0.879713 0.387314
Si Si4 0.924379 0.880235 0.713603
Si Si5 0.152383 0.841269 0.003907
Si Si6 0.267785 0.871766 0.157597
Si Si7 0.262875 0.872007 0.556478
O O1 0.071517 0.754715 0.000915
O O2 0.043982 0.103678 0.885640
O O3 0.921804 0.346473 0.300999
O O4 0.823453 0.418655 0.210760
O O5 0.811657 0.994882 0.315751
O O6 0.522745 0.646175 0.351035
O O7 0.361213 0.867441 0.518459
O O8 0.506301 0.148625 0.358933
O O9 0.833372 0.845895 0.730737
O O10 0.888558 0.869045 0.855279
O O11 0.221440 0.608685 0.929320
O O12 0.192955 0.109722 0.926172
O O13 0.240625 0.587377 0.529910
#
# Coordination Sequence:
#
# PCOD9125991 Si02
#       7
#     2   4   4   4   4   4   4
#     4  10  22  36  66 100 126 160 210 276 316 374
#     4  10  23  43  65  99 127 168 213 273 317 388
#     4  11  23  40  68  92 123 171 220 266 309 379
#     4  12  23  41  63  94 129 170 218 258 316 394
#     4  11  23  38  61  91 135 171 210 255 326 387
#     4  11  25  40  62  91 134 172 207 261 333 379
#     4  10  22  41  67  96 128 168 218 271 324 372
#
# _framework density 24.613492000000001
#
# number of rings (size 3 to 8) (size 9 to 14) (size 15 to 20)
#    0.000    1.231    1.538    4.615    4.308    4.308 
#    0.000    0.769    0.000    5.538    0.000    0.000 
#    0.000    0.000    0.000    0.000    0.000    0.000 
#
# Total GULP energy -72794.867334 kJ/mol
# GULP energy per Si atom -5599.605180 kJ/mol
# Density = 2.455747 g / cm^3
# Si number density = 24.613492 Si / 1000 Ang^3
#
#
#
# Elastic Constant Matrix: (Units=GPa)
#
#
# Indices 1 2 3 4 5 6 
#
# 1 88.3700 0.1598 3.9991 -0.0049 -24.0288 -0.0005
# 2 0.1598 70.7771 13.8104 -0.0201 -0.8104 -0.0176
# 3 3.9991 13.8104 96.0043 -0.0002 -24.0748 -0.0007
# 4 -0.0049 -0.0201 -0.0002 28.7430 0.0015 -25.0319
# 5 -24.0288 -0.8104 -24.0748 0.0015 42.8727 0.0003
# 6 -0.0005 -0.0176 -0.0007 -25.0319 0.0003 14.6489
#
#
#
# Elastic Compliance Matrix: (Units=1/GPa)
#
#
# Indices 1 2 3 4 5 6 
#
# 1 0.013552 -0.000246 0.001600 -0.000004 0.008489 -0.000006
# 2 -0.000246 0.014582 -0.002389 -0.000052 -0.001204 -0.000071
# 3 0.001600 -0.002389 0.012694 0.000008 0.007980 0.000011
# 4 -0.000004 -0.000052 0.000008 -0.071268 0.000005 -0.121783
# 5 0.008489 -0.001204 0.007980 0.000005 0.032541 0.000006
# 6 -0.000006 -0.000071 0.000011 -0.121783 0.000006 -0.139837
#
#
# Mechanical properties :
#
#
# Convention : Reuss Voigt Hill
#
# Bulk Modulus (GPa) = 25.80084 32.34331 29.07207
# Shear Modulus (GPa) = -40.73460 33.06505 -3.83478
#
# Velocity S-wave (km/s) = -4.07255 3.66918 -1.24955
# Velocity P-wave (km/s) = 3.40720 5.57849 3.12334
#
# Compressibility (1/GPa) = 0.03875842
#
# Stress axis : x y z
#
# Youngs Moduli (GPa) = 73.78735 68.57863 78.77529
#
# Poissons Ratio (x) = 0.01684 -0.12601
# Poissons Ratio (y) = 0.01812 0.18821
# Poissons Ratio (z) = -0.11803 0.16385
#
# Static dielectric constant tensor:
#      x y z
#    x 2.010710 -0.000010 0.096480 
#    y -0.000010 1.893470 -0.000030 
#    z 0.096480 -0.000030 2.097640 
# 
# From -- ./inp_files/62620.got.cif
#   From: 2010.05.17/outbox.cif.g08.bks.cpg/sg5_32_cif.got.tgz:62620.got - 2010.06.03 18:56:24.
