data_PCOD9125724
_publ_section_title
;
Structure prediction by ZEFSAII (Michael W. Deem and Ramdas Pophale) SiO2 
 PCOD9125724
Probable space group: C 2
;
_chemical_formula_sum "Si O2"
_cell_formula_units_Z 32
_cell_length_a 8.130224
_cell_length_b 13.076203
_cell_length_c 15.328664
_cell_angle_alpha 90.000000
_cell_angle_beta 120.302471
_cell_angle_gamma 90.000000
_cell_volume 1406.978078
_symmetry_space_group_name_H-M "C 2"
_symmetry_group_IT_number 5
_symmetry_cell_setting 'monoclinic'
loop_
_space_group_symop_operation_xyz
x,y,z
-x,y,-z
1/2+x,1/2+y,z
1/2-x,1/2+y,-z
loop_
_atom_site_type_symbol
_atom_site_label
_atom_site_fract_x
_atom_site_fract_y
_atom_site_fract_z
Si Si1 0.880155 0.443530 0.190363
Si Si2 0.973231 0.915806 0.360730
Si Si3 0.700825 0.104902 0.308426
Si Si4 0.027144 0.939002 0.840777
Si Si5 0.827520 0.147534 0.151297
Si Si6 0.176921 0.311546 0.988058
Si Si7 0.137724 0.264016 0.311393
Si Si8 0.291952 0.769698 0.478626
O O1 0.659612 0.455522 0.152406
O O2 0.896190 0.403809 0.094848
O O3 0.005929 0.541423 0.247605
O O4 0.971077 0.350112 0.270710
O O5 0.815765 0.826021 0.322455
O O6 0.028424 0.930900 0.274996
O O7 0.157656 0.868578 0.456195
O O8 0.869270 0.019121 0.365326
O O9 0.736850 0.153250 0.222708
O O10 0.708820 0.188843 0.386637
O O11 0.172745 0.033574 0.883579
O O12 0.147341 0.843832 0.905924
O O13 0.754611 0.225832 0.060991
O O14 0.050053 0.178068 0.226440
O O15 0.000000 0.277807 0.000000
O O16 0.183567 0.221825 0.419023
O O17 0.500000 0.799418 0.500000
#
# Coordination Sequence:
#
# PCOD9125724 Si02
#       8
#     4   4   4   4   4   4   4   4
#     4  10  23  44  68  97 141 174 232 291 351 411
#     4  10  24  44  68  95 143 184 229 297 355 410
#     4  10  23  45  68  98 140 190 226 299 353 421
#     4  11  23  44  67 103 133 181 236 282 348 428
#     4  10  22  43  68  96 138 173 226 287 345 420
#     4  11  23  44  70  98 136 182 225 284 352 424
#     4  10  21  43  65  95 136 180 228 281 351 411
#     4  12  23  40  71 102 135 182 244 278 358 429
#
# _framework density 22.743779
#
# number of rings (size 3 to 8) (size 9 to 14) (size 15 to 20)
#    0.000    1.500    1.250    4.500    3.500    3.000 
#    2.250    3.750    0.000    0.000    0.000    0.000 
#    0.000    0.000    0.000    0.000    0.000    0.000 
#
# Total GULP energy -89489.677525 kJ/mol
# GULP energy per Si atom -5593.104845 kJ/mol
# Density = 2.269201 g / cm^3
# Si number density = 22.743779 Si / 1000 Ang^3
#
#
#
# Elastic Constant Matrix: (Units=GPa)
#
#
# Indices 1 2 3 4 5 6 
#
# 1 54.7131 9.3719 -10.5267 0.0000 -2.4769 0.0000
# 2 9.3719 37.9662 10.3983 0.0000 -10.7933 0.0000
# 3 -10.5267 10.3983 49.1028 0.0000 -10.9914 0.0000
# 4 0.0000 0.0000 0.0000 27.1207 0.0000 -8.5113
# 5 -2.4769 -10.7933 -10.9914 0.0000 30.9270 0.0000
# 6 0.0000 0.0000 0.0000 -8.5113 0.0000 23.5996
#
#
#
# Elastic Compliance Matrix: (Units=1/GPa)
#
#
# Indices 1 2 3 4 5 6 
#
# 1 0.020606 -0.006299 0.006115 0.000000 0.001625 0.000000
# 2 -0.006299 0.032004 -0.006237 0.000000 0.008448 0.000000
# 3 0.006115 -0.006237 0.024575 0.000000 0.007047 0.000000
# 4 0.000000 0.000000 0.000000 0.041578 0.000000 0.014995
# 5 0.001625 0.008448 0.007047 0.000000 0.037917 0.000000
# 6 0.000000 0.000000 0.000000 0.014995 0.000000 0.047782
#
#
# Mechanical properties :
#
#
# Convention : Reuss Voigt Hill
#
# Bulk Modulus (GPa) = 15.54161 17.80767 16.67464
# Shear Modulus (GPa) = 20.94227 25.16537 23.05382
#
# Velocity S-wave (km/s) = 3.03775 3.32998 3.18721
# Velocity P-wave (km/s) = 4.37631 4.75728 4.57076
#
# Compressibility (1/GPa) = 0.06434338
#
# Stress axis : x y z
#
# Youngs Moduli (GPa) = 48.52866 31.24607 40.69243
#
# Poissons Ratio (x) = 0.19683 -0.24885
# Poissons Ratio (y) = 0.30571 0.25379
# Poissons Ratio (z) = -0.29677 0.19487
#
# Static dielectric constant tensor:
#      x y z
#    x 1.822600 0.000000 0.022920 
#    y 0.000000 1.866020 0.000000 
#    z 0.022920 0.000000 1.850240 
# 
# From -- ./inp_files/50967.got.cif
#   From: 2010.05.17/outbox.cif.g08.bks.cpg/sg5_26_cif.got.tgz:50967.got - 2010.06.03 18:56:24.
