data_PCOD9125586
_publ_section_title
;
Structure prediction by ZEFSAII (Michael W. Deem and Ramdas Pophale) SiO2 
 PCOD9125586
Probable space group: C 2
;
_chemical_formula_sum "Si O2"
_cell_formula_units_Z 20
_cell_length_a 21.389768
_cell_length_b 7.100318
_cell_length_c 5.384365
_cell_angle_alpha 90.000000
_cell_angle_beta 82.820891
_cell_angle_gamma 90.000000
_cell_volume 811.335029
_symmetry_space_group_name_H-M "C 2"
_symmetry_group_IT_number 5
_symmetry_cell_setting 'monoclinic'
loop_
_space_group_symop_operation_xyz
x,y,z
-x,y,-z
1/2+x,1/2+y,z
1/2-x,1/2+y,-z
loop_
_atom_site_type_symbol
_atom_site_label
_atom_site_fract_x
_atom_site_fract_y
_atom_site_fract_z
Si Si1 0.726634 0.034230 0.736257
Si Si2 0.034892 0.802702 0.232289
Si Si3 0.155407 0.215526 0.522036
Si Si4 0.337368 0.100724 0.726728
Si Si5 0.517045 0.715755 0.741107
O O1 0.799459 0.062973 0.627942
O O2 0.697124 0.828383 0.705061
O O3 0.688957 0.147721 0.536328
O O4 0.711455 0.099672 0.020525
O O5 0.105065 0.727985 0.217317
O O6 0.000000 0.743700 0.500000
O O7 0.027436 0.030505 0.233465
O O8 0.000000 0.741025 0.000000
O O9 0.142581 0.381732 0.327311
O O10 0.089982 0.156222 0.678605
O O11 0.500000 0.823229 0.500000
O O12 0.500000 0.820586 0.000000
#
# Coordination Sequence:
#
# PCOD9125586 Si02
#       5
#     4   4   4   4   4
#     4  10  25  43  72  96 135 178 221 283 338 385
#     4  10  21  42  66 101 129 178 219 272 332 400
#     4  10  26  45  69  99 139 172 230 277 332 404
#     4  10  24  42  65 101 138 172 228 271 331 403
#     4  10  24  42  68  97 135 176 224 275 335 396
#
# _framework density 24.650731
#
# number of rings (size 3 to 8) (size 9 to 14) (size 15 to 20)
#    1.200    0.800    0.000    1.200    5.600    7.200 
#    0.000    0.000    0.000    0.000    0.000    0.000 
#    0.000    0.000    0.000    0.000    0.000    0.000 
#
# Total GULP energy -55835.499778 kJ/mol
# GULP energy per Si atom -5583.549978 kJ/mol
# Density = 2.459462 g / cm^3
# Si number density = 24.650731 Si / 1000 Ang^3
#
#
#
# Elastic Constant Matrix: (Units=GPa)
#
#
# Indices 1 2 3 4 5 6 
#
# 1 94.3342 21.2594 48.9287 0.0000 -5.9526 0.0000
# 2 21.2594 88.9664 11.8011 0.0000 4.0436 0.0000
# 3 48.9287 11.8011 212.5020 0.0000 5.9534 0.0000
# 4 0.0000 0.0000 0.0000 39.4509 0.0000 -20.0962
# 5 -5.9526 4.0436 5.9534 0.0000 50.9556 0.0000
# 6 0.0000 0.0000 0.0000 -20.0962 0.0000 19.9859
#
#
#
# Elastic Compliance Matrix: (Units=1/GPa)
#
#
# Indices 1 2 3 4 5 6 
#
# 1 0.012841 -0.002782 -0.002860 0.000000 0.002055 0.000000
# 2 -0.002782 0.011961 0.000012 0.000000 -0.001276 0.000000
# 3 -0.002860 0.000012 0.005391 0.000000 -0.000965 0.000000
# 4 0.000000 0.000000 0.000000 0.051965 0.000000 0.052252
# 5 0.002055 -0.001276 -0.000965 0.000000 0.020079 0.000000
# 6 0.000000 0.000000 0.000000 0.052252 0.000000 0.102576
#
#
# Mechanical properties :
#
#
# Convention : Reuss Voigt Hill
#
# Bulk Modulus (GPa) = 52.81842 62.19789 57.50815
# Shear Modulus (GPa) = 22.48372 42.99938 32.74155
#
# Velocity S-wave (km/s) = 3.02336 4.18107 3.64843
# Velocity P-wave (km/s) = 5.80180 6.97100 6.41310
#
# Compressibility (1/GPa) = 0.01893279
#
# Stress axis : x y z
#
# Youngs Moduli (GPa) = 77.87838 83.60176 185.50755
#
# Poissons Ratio (x) = 0.23262 0.53048
# Poissons Ratio (y) = 0.21669 -0.00225
# Poissons Ratio (z) = 0.22270 -0.00101
#
# Static dielectric constant tensor:
#      x y z
#    x 1.903210 0.000000 0.020580 
#    y 0.000000 1.984680 0.000000 
#    z 0.020580 0.000000 1.959150 
# 
# From -- ./inp_files/9223.got.cif
#   From: 2010.05.17/outbox.cif.g08.bks.cpg/sg5_5_cif.got.tgz:9223.got - 2010.06.03 18:56:24.
