data_PCOD9125234
_publ_section_title
;
Structure prediction by ZEFSAII (Michael W. Deem and Ramdas Pophale) SiO2 
 PCOD9125234
Probable space group: C 2
;
_chemical_formula_sum "Si O2"
_cell_formula_units_Z 32
_cell_length_a 10.326458
_cell_length_b 9.441457
_cell_length_c 19.333651
_cell_angle_alpha 90.000000
_cell_angle_beta 132.751997
_cell_angle_gamma 90.000000
_cell_volume 1384.130776
_symmetry_space_group_name_H-M "C 2"
_symmetry_group_IT_number 5
_symmetry_cell_setting 'monoclinic'
loop_
_space_group_symop_operation_xyz
x,y,z
-x,y,-z
1/2+x,1/2+y,z
1/2-x,1/2+y,-z
loop_
_atom_site_type_symbol
_atom_site_label
_atom_site_fract_x
_atom_site_fract_y
_atom_site_fract_z
Si Si1 0.571910 0.465550 0.847759
Si Si2 0.849676 0.974383 0.576922
Si Si3 0.325309 0.972850 0.346320
Si Si4 0.130338 0.638676 0.387368
Si Si5 0.183080 0.245462 0.044904
Si Si6 0.304489 0.661492 0.305037
Si Si7 0.320746 0.215126 0.891205
Si Si8 0.765434 0.450183 0.047401
O O1 0.375422 0.468536 0.752740
O O2 0.674816 0.608605 0.869805
O O3 0.588674 0.435416 0.935881
O O4 0.695724 0.340746 0.861778
O O5 0.707769 0.013627 0.585719
O O6 0.772359 0.041550 0.479226
O O7 0.041679 0.047739 0.655291
O O8 0.860192 0.803902 0.586458
O O9 0.443762 0.076916 0.344516
O O10 0.392994 0.811596 0.360366
O O11 0.178407 0.624826 0.323869
O O12 0.301555 0.114227 0.065231
O O13 0.117362 0.355653 0.961674
O O14 0.000000 0.177901 0.000000
O O15 0.192753 0.688148 0.195003
O O16 0.252596 0.370839 0.887713
O O17 0.500000 0.189225 0.000000
#
# Coordination Sequence:
#
# PCOD9125234 Si02
#       8
#     4   4   4   4   4   4   4   4
#     4  10  21  44  65 101 147 186 256 303 353 432
#     4  11  24  49  81 113 146 193 243 310 378 452
#     4  11  24  48  69 111 152 191 239 306 371 447
#     4  11  26  48  83 112 151 191 241 310 384 456
#     4  10  21  40  65  96 130 186 257 309 358 416
#     4  11  26  48  72 113 153 193 251 310 366 452
#     4  12  23  45  73 100 151 204 251 309 368 425
#     4  10  21  42  65 101 133 196 256 308 366 422
#
# _framework density 23.119202999999999
#
# number of rings (size 3 to 8) (size 9 to 14) (size 15 to 20)
#    0.750    0.500    2.500    3.000    0.000    5.000 
#   11.250    0.000    0.000    0.000    0.000    0.000 
#    0.000    0.000    0.000    0.000    0.000    0.000 
#
# Total GULP energy -89302.430559 kJ/mol
# GULP energy per Si atom -5581.401910 kJ/mol
# Density = 2.306658 g / cm^3
# Si number density = 23.119203 Si / 1000 Ang^3
#
#
#
# Elastic Constant Matrix: (Units=GPa)
#
#
# Indices 1 2 3 4 5 6 
#
# 1 124.8244 50.8117 43.4958 0.0000 -13.3498 0.0000
# 2 50.8117 117.3027 10.5873 0.0000 -3.0036 0.0000
# 3 43.4958 10.5873 94.7162 0.0000 -15.3877 0.0000
# 4 0.0000 0.0000 0.0000 21.5475 0.0000 -2.7330
# 5 -13.3498 -3.0036 -15.3877 0.0000 40.7214 0.0000
# 6 0.0000 0.0000 0.0000 -2.7330 0.0000 35.6305
#
#
#
# Elastic Compliance Matrix: (Units=1/GPa)
#
#
# Indices 1 2 3 4 5 6 
#
# 1 0.011656 -0.004593 -0.004553 0.000000 0.001762 0.000000
# 2 -0.004593 0.010425 0.000878 0.000000 -0.000405 0.000000
# 3 -0.004553 0.000878 0.013124 0.000000 0.003532 0.000000
# 4 0.000000 0.000000 0.000000 0.046865 0.000000 0.003595
# 5 0.001762 -0.000405 0.003532 0.000000 0.026439 0.000000
# 6 0.000000 0.000000 0.000000 0.003595 0.000000 0.028342
#
#
# Mechanical properties :
#
#
# Convention : Reuss Voigt Hill
#
# Bulk Modulus (GPa) = 53.56370 60.73698 57.15034
# Shear Modulus (GPa) = 31.32644 35.04309 33.18477
#
# Velocity S-wave (km/s) = 3.68502 3.89750 3.79275
# Velocity P-wave (km/s) = 6.42842 6.82512 6.62974
#
# Compressibility (1/GPa) = 0.01866936
#
# Stress axis : x y z
#
# Youngs Moduli (GPa) = 85.79423 95.92502 76.19473
#
# Poissons Ratio (x) = 0.44057 0.34691
# Poissons Ratio (y) = 0.39404 -0.06690
# Poissons Ratio (z) = 0.39062 -0.08423
#
# Static dielectric constant tensor:
#      x y z
#    x 1.906370 0.000000 -0.034290 
#    y 0.000000 1.874590 0.000000 
#    z -0.034290 0.000000 1.907500 
# 
# From -- ./inp_files/65136.got.cif
#   From: 2010.05.17/outbox.cif.g08.bks.cpg/sg5_33_cif.got.tgz:65136.got - 2010.06.03 18:56:24.
