data_PCOD9125337
_publ_section_title
;
Structure prediction by ZEFSAII (Michael W. Deem and Ramdas Pophale) SiO2 
 PCOD9125337
Probable space group: C 2
;
_chemical_formula_sum "Si O2"
_cell_formula_units_Z 24
_cell_length_a 10.237797
_cell_length_b 9.190299
_cell_length_c 17.723126
_cell_angle_alpha 90.000000
_cell_angle_beta 43.239232
_cell_angle_gamma 90.000000
_cell_volume 1142.342335
_symmetry_space_group_name_H-M "C 2"
_symmetry_group_IT_number 5
_symmetry_cell_setting 'monoclinic'
loop_
_space_group_symop_operation_xyz
x,y,z
-x,y,-z
1/2+x,1/2+y,z
1/2-x,1/2+y,-z
loop_
_atom_site_type_symbol
_atom_site_label
_atom_site_fract_x
_atom_site_fract_y
_atom_site_fract_z
Si Si1 0.325857 0.442050 0.750906
Si Si2 0.709461 0.540512 0.928841
Si Si3 0.725460 0.452927 0.396409
Si Si4 0.559818 0.819820 0.071935
Si Si5 0.940528 0.612615 0.681377
Si Si6 0.622654 0.649911 0.708289
O O1 0.250447 0.499849 0.701621
O O2 0.430572 0.287902 0.690782
O O3 0.472194 0.548859 0.729564
O O4 0.131554 0.401365 0.876761
O O5 0.806146 0.441821 0.950389
O O6 0.832965 0.549603 0.800788
O O7 0.500000 0.479121 0.000000
O O8 0.671344 0.702364 0.975636
O O9 0.500000 0.455763 0.500000
O O10 0.805367 0.288676 0.369513
O O11 0.846692 0.552137 0.401844
O O12 0.479142 0.721083 0.175467
O O13 0.811554 0.573108 0.663144
#
# Coordination Sequence:
#
# PCOD9125337 Si02
#       6
#     4   4   4   4   4   4
#     4  10  22  40  61  90 123 159 202 255 305 358
#     4  12  21  39  59  88 127 164 204 245 298 359
#     4  10  22  44  66  87 122 161 203 256 309 361
#     4  10  24  37  58  89 123 168 206 243 296 357
#     4  10  21  41  60  90 128 159 201 252 302 357
#     4  10  22  41  62  91 123 158 205 256 300 360
#
# _framework density 21.009464000000001
#
# number of rings (size 3 to 8) (size 9 to 14) (size 15 to 20)
#    0.000    2.000    6.667    0.000    2.333    5.333 
#    0.000    0.833    0.000    0.000    0.000    0.000 
#    0.000    0.000    0.000    0.000    0.000    0.000 
#
# Total GULP energy -66982.494423 kJ/mol
# GULP energy per Si atom -5581.874535 kJ/mol
# Density = 2.096165 g / cm^3
# Si number density = 21.009464 Si / 1000 Ang^3
#
#
#
# Elastic Constant Matrix: (Units=GPa)
#
#
# Indices 1 2 3 4 5 6 
#
# 1 138.5849 74.7543 20.0479 0.0000 -57.1550 0.0000
# 2 74.7543 68.8919 20.9495 0.0000 -40.2430 0.0000
# 3 20.0479 20.9495 50.8811 0.0000 -28.6594 0.0000
# 4 0.0000 0.0000 0.0000 23.1565 0.0000 -20.4618
# 5 -57.1550 -40.2430 -28.6594 0.0000 41.4971 0.0000
# 6 0.0000 0.0000 0.0000 -20.4618 0.0000 52.9650
#
#
#
# Elastic Compliance Matrix: (Units=1/GPa)
#
#
# Indices 1 2 3 4 5 6 
#
# 1 0.025165 -0.013355 0.012784 0.000000 0.030537 0.000000
# 2 -0.013355 0.042351 0.000978 0.000000 0.023352 0.000000
# 3 0.012784 0.000978 0.040370 0.000000 0.046438 0.000000
# 4 0.000000 0.000000 0.000000 0.065567 0.000000 0.025330
# 5 0.030537 0.023352 0.046438 0.000000 0.120876 0.000000
# 6 0.000000 0.000000 0.000000 0.025330 0.000000 0.028666
#
#
# Mechanical properties :
#
#
# Convention : Reuss Voigt Hill
#
# Bulk Modulus (GPa) = 9.19967 54.42904 31.81436
# Shear Modulus (GPa) = 13.95038 33.03078 23.49058
#
# Velocity S-wave (km/s) = 2.57962 3.96938 3.34742
# Velocity P-wave (km/s) = 3.64156 6.85355 5.48781
#
# Compressibility (1/GPa) = 0.10869956
#
# Stress axis : x y z
#
# Youngs Moduli (GPa) = 39.73852 23.61241 24.77068
#
# Poissons Ratio (x) = 0.31535 -0.31667
# Poissons Ratio (y) = 0.53071 -0.02423
# Poissons Ratio (z) = -0.50802 -0.02310
#
# Static dielectric constant tensor:
#      x y z
#    x 1.817950 0.000000 0.058230 
#    y 0.000000 1.725700 0.000000 
#    z 0.058230 0.000000 1.855530 
# 
# From -- ./inp_files/52148.got.cif
#   From: 2010.05.17/outbox.cif.g08.bks.cpg/sg5_27_cif.got.tgz:52148.got - 2010.06.03 18:56:24.
