data_PCOD9125851
_publ_section_title
;
Structure prediction by ZEFSAII (Michael W. Deem and Ramdas Pophale) SiO2 
 PCOD9125851
Probable space group: C 2
;
_chemical_formula_sum "Si O2"
_cell_formula_units_Z 24
_cell_length_a 11.576744
_cell_length_b 11.587466
_cell_length_c 17.392197
_cell_angle_alpha 90.000000
_cell_angle_beta 152.208354
_cell_angle_gamma 90.000000
_cell_volume 1087.815713
_symmetry_space_group_name_H-M "C 2"
_symmetry_group_IT_number 5
_symmetry_cell_setting 'monoclinic'
loop_
_space_group_symop_operation_xyz
x,y,z
-x,y,-z
1/2+x,1/2+y,z
1/2-x,1/2+y,-z
loop_
_atom_site_type_symbol
_atom_site_label
_atom_site_fract_x
_atom_site_fract_y
_atom_site_fract_z
Si Si1 0.135001 0.413710 0.763979
Si Si2 0.419766 0.740715 0.145687
Si Si3 0.716914 0.568494 0.803654
Si Si4 0.869128 0.747678 0.783119
Si Si5 0.268194 0.676681 0.811140
Si Si6 0.633208 0.350842 0.381649
O O1 0.093866 0.369266 0.826838
O O2 0.326622 0.332178 0.830582
O O3 0.225473 0.543236 0.806281
O O4 0.875226 0.390848 0.568676
O O5 0.415530 0.657827 0.216855
O O6 0.641707 0.706108 0.221502
O O7 0.160625 0.720788 0.949006
O O8 0.730614 0.630443 0.728122
O O9 0.570598 0.450678 0.727062
O O10 0.000000 0.556180 0.000000
O O11 0.797264 0.816392 0.664613
O O12 0.007200 0.738435 0.670283
O O13 0.500000 0.719425 0.000000
#
# Coordination Sequence:
#
# PCOD9125851 Si02
#       6
#     4   4   4   4   4   4
#     4  11  26  43  69 103 141 177 227 295 355 402
#     4  10  22  45  72  98 133 179 238 283 337 419
#     4   9  21  40  69  98 132 179 231 285 340 409
#     4  10  21  44  70  97 131 182 233 279 342 418
#     4  12  25  45  73 103 137 187 236 279 347 426
#     4  12  25  42  68 103 141 178 225 288 354 411
#
# _framework density 22.062562
#
# number of rings (size 3 to 8) (size 9 to 14) (size 15 to 20)
#    0.000    1.333    1.667    4.500    4.667    2.000 
#    0.000    0.000    0.000    0.000    0.000    0.000 
#    0.000    0.000    0.000    0.000    0.000    0.000 
#
# Total GULP energy -67069.033903 kJ/mol
# GULP energy per Si atom -5589.086159 kJ/mol
# Density = 2.201235 g / cm^3
# Si number density = 22.062562 Si / 1000 Ang^3
#
#
#
# Elastic Constant Matrix: (Units=GPa)
#
#
# Indices 1 2 3 4 5 6 
#
# 1 122.2232 47.0624 27.7813 0.0030 1.2544 0.0011
# 2 47.0624 99.0178 6.9426 0.0053 13.1511 0.0018
# 3 27.7813 6.9426 70.9482 0.0122 1.1958 0.0034
# 4 0.0030 0.0053 0.0122 25.4698 0.0051 4.6508
# 5 1.2544 13.1511 1.1958 0.0051 20.3497 0.0014
# 6 0.0011 0.0018 0.0034 4.6508 0.0014 31.3607
#
#
#
# Elastic Compliance Matrix: (Units=1/GPa)
#
#
# Indices 1 2 3 4 5 6 
#
# 1 0.011117 -0.005416 -0.003874 0.000001 0.003043 0.000000
# 2 -0.005416 0.013752 0.000920 -0.000001 -0.008608 0.000000
# 3 -0.003874 0.000920 0.015543 -0.000007 -0.001269 -0.000001
# 4 0.000001 -0.000001 -0.000007 0.040355 -0.000009 -0.005985
# 5 0.003043 -0.008608 -0.001269 -0.000009 0.054590 -0.000001
# 6 0.000000 0.000000 -0.000001 -0.005985 -0.000001 0.032775
#
#
# Mechanical properties :
#
#
# Convention : Reuss Voigt Hill
#
# Bulk Modulus (GPa) = 42.24479 50.64020 46.44249
# Shear Modulus (GPa) = 25.93862 29.46291 27.70076
#
# Velocity S-wave (km/s) = 3.43255 3.65831 3.54723
# Velocity P-wave (km/s) = 5.90755 6.39118 6.15412
#
# Compressibility (1/GPa) = 0.02367156
#
# Stress axis : x y z
#
# Youngs Moduli (GPa) = 89.95532 72.71604 64.33682
#
# Poissons Ratio (x) = 0.39384 0.24926
# Poissons Ratio (y) = 0.48721 -0.05920
# Poissons Ratio (z) = 0.34851 -0.06691
#
# Static dielectric constant tensor:
#      x y z
#    x 1.889660 0.000000 -0.016350 
#    y 0.000000 1.833030 0.000000 
#    z -0.016350 0.000000 1.824100 
# 
# From -- ./inp_files/39095.got.cif
#   From: 2010.05.17/outbox.cif.g08.bks.cpg/sg5_20_cif.got.tgz:39095.got - 2010.06.03 18:56:24.
