data_PCOD9125479
_publ_section_title
;
Structure prediction by ZEFSAII (Michael W. Deem and Ramdas Pophale) SiO2 
 PCOD9125479
Probable space group: C 2
;
_chemical_formula_sum "Si O2"
_cell_formula_units_Z 24
_cell_length_a 12.425621
_cell_length_b 9.384078
_cell_length_c 13.078645
_cell_angle_alpha 90.000000
_cell_angle_beta 52.363503
_cell_angle_gamma 90.000000
_cell_volume 1207.656042
_symmetry_space_group_name_H-M "C 2"
_symmetry_group_IT_number 5
_symmetry_cell_setting 'monoclinic'
loop_
_space_group_symop_operation_xyz
x,y,z
-x,y,-z
1/2+x,1/2+y,z
1/2-x,1/2+y,-z
loop_
_atom_site_type_symbol
_atom_site_label
_atom_site_fract_x
_atom_site_fract_y
_atom_site_fract_z
Si Si1 0.632001 0.720130 0.361116
Si Si2 0.863186 0.763155 0.371999
Si Si3 0.261266 0.971382 0.393016
Si Si4 0.854629 0.145451 0.877008
Si Si5 0.173730 0.809588 0.138606
Si Si6 0.586608 0.793302 0.855028
O O1 0.500000 0.769313 0.500000
O O2 0.765285 0.794631 0.331103
O O3 0.658974 0.554795 0.377010
O O4 0.619987 0.719717 0.247164
O O5 0.817609 0.863152 0.490168
O O6 0.825807 0.600124 0.420361
O O7 0.018269 0.776587 0.251897
O O8 0.377269 0.899123 0.257572
O O9 0.817816 0.980251 0.882758
O O10 0.734934 0.227534 0.005656
O O11 0.991624 0.168851 0.864767
O O12 0.269273 0.758777 0.177037
O O13 0.500000 0.858020 0.000000
#
# Coordination Sequence:
#
# PCOD9125479 Si02
#       6
#     4   4   4   4   4   4
#     4  10  21  41  68  93 129 184 221 280 344 403
#     4  10  24  38  67 100 129 179 228 276 346 405
#     4  10  22  40  67  94 134 171 230 274 340 405
#     4  11  24  45  71  96 139 176 233 279 343 410
#     4  11  24  45  67 102 135 183 225 282 345 409
#     4  10  23  42  71  94 132 182 226 277 340 406
#
# _framework density 19.873207000000001
#
# number of rings (size 3 to 8) (size 9 to 14) (size 15 to 20)
#    1.000    0.667    1.667    2.000    7.000    0.667 
#    9.000    0.000    3.667    0.000    0.000    0.000 
#    0.000    0.000    0.000    0.000    0.000    0.000 
#
# Total GULP energy -66896.866340 kJ/mol
# GULP energy per Si atom -5574.738862 kJ/mol
# Density = 1.982797 g / cm^3
# Si number density = 19.873207 Si / 1000 Ang^3
#
#
#
# Elastic Constant Matrix: (Units=GPa)
#
#
# Indices 1 2 3 4 5 6 
#
# 1 130.2385 27.5596 70.3234 0.0000 -17.0166 0.0000
# 2 27.5596 32.5502 44.5175 0.0000 0.2644 0.0000
# 3 70.3234 44.5175 141.1073 0.0000 -7.2247 0.0000
# 4 0.0000 0.0000 0.0000 37.4327 0.0000 -1.9377
# 5 -17.0166 0.2644 -7.2247 0.0000 35.6446 0.0000
# 6 0.0000 0.0000 0.0000 -1.9377 0.0000 19.7070
#
#
#
# Elastic Compliance Matrix: (Units=1/GPa)
#
#
# Indices 1 2 3 4 5 6 
#
# 1 0.011377 -0.003937 -0.004192 0.000000 0.004611 0.000000
# 2 -0.003937 0.055942 -0.015970 0.000000 -0.005531 0.000000
# 3 -0.004192 -0.015970 0.014266 0.000000 0.001009 0.000000
# 4 0.000000 0.000000 0.000000 0.026851 0.000000 0.002640
# 5 0.004611 -0.005531 0.001009 0.000000 0.030502 0.000000
# 6 0.000000 0.000000 0.000000 0.002640 0.000000 0.051003
#
#
# Mechanical properties :
#
#
# Convention : Reuss Voigt Hill
#
# Bulk Modulus (GPa) = 29.95209 65.41079 47.68144
# Shear Modulus (GPa) = 20.05879 29.32322 24.69100
#
# Velocity S-wave (km/s) = 3.18045 3.84541 3.52863
# Velocity P-wave (km/s) = 5.34709 7.25960 6.37547
#
# Compressibility (1/GPa) = 0.03338666
#
# Stress axis : x y z
#
# Youngs Moduli (GPa) = 87.89458 17.87579 70.09794
#
# Poissons Ratio (x) = 0.07038 0.29383
# Poissons Ratio (y) = 0.34608 1.11945
# Poissons Ratio (z) = 0.36843 0.28547
#
# Static dielectric constant tensor:
#      x y z
#    x 1.731780 0.000000 0.008390 
#    y 0.000000 1.696090 0.000000 
#    z 0.008390 0.000000 1.680810 
# 
# From -- ./inp_files/42167.got.cif
#   From: 2010.05.17/outbox.cif.g08.bks.cpg/sg5_22_cif.got.tgz:42167.got - 2010.06.03 18:56:24.
