data_PCOD9125238
_publ_section_title
;
Structure prediction by ZEFSAII (Michael W. Deem and Ramdas Pophale) SiO2 
 PCOD9125238
Probable space group: C 2
;
_chemical_formula_sum "Si O2"
_cell_formula_units_Z 16
_cell_length_a 12.403597
_cell_length_b 5.363903
_cell_length_c 9.392877
_cell_angle_alpha 90.000000
_cell_angle_beta 48.680039
_cell_angle_gamma 90.000000
_cell_volume 469.339261
_symmetry_space_group_name_H-M "C 2"
_symmetry_group_IT_number 5
_symmetry_cell_setting 'monoclinic'
loop_
_space_group_symop_operation_xyz
x,y,z
-x,y,-z
1/2+x,1/2+y,z
1/2-x,1/2+y,-z
loop_
_atom_site_type_symbol
_atom_site_label
_atom_site_fract_x
_atom_site_fract_y
_atom_site_fract_z
Si Si1 0.915821 0.337760 0.224338
Si Si2 0.359841 0.087758 0.724338
Si Si3 0.140160 0.864947 0.775663
Si Si4 0.415822 0.614947 0.724338
O O1 0.837621 0.601354 0.324757
O O2 0.054008 0.402694 0.223077
O O3 0.945991 0.050012 0.276924
O O4 0.000000 0.353780 0.000000
O O5 0.500000 0.103781 0.500000
O O6 0.337623 0.351352 0.824756
O O7 0.222915 0.152694 0.723077
O O8 0.277085 0.800011 0.776925
O O9 0.000000 0.848920 0.000000
O O10 0.500000 0.598923 0.500000
#
# Coordination Sequence:
#
# PCOD9125238 Si02
#       4
#     4   4   4   4
#     4  10  21  40  65  97 132 175 226 283 340 406
#     4  10  21  40  65  97 132 175 226 283 340 406
#     4  10  21  40  65  97 132 175 226 283 340 406
#     4  10  21  40  65  97 132 175 226 283 340 406
#
# _framework density 34.090479000000002
#
# number of rings (size 3 to 8) (size 9 to 14) (size 15 to 20)
#    0.000    2.000    0.000    3.000    0.000    0.000 
#    0.000   40.000    0.000    0.000    0.000    0.000 
#    0.000    0.000    0.000    0.000    0.000    0.000 
#
# Total GULP energy -44733.840842 kJ/mol
# GULP energy per Si atom -5591.730105 kJ/mol
# Density = 3.401289 g / cm^3
# Si number density = 34.090479 Si / 1000 Ang^3
#
#
#
# Elastic Constant Matrix: (Units=GPa)
#
#
# Indices 1 2 3 4 5 6 
#
# 1 515.5586 137.2856 67.9006 -0.0009 -3.1660 0.0005
# 2 137.2856 560.1736 2.6724 -0.0050 -1.6240 0.0052
# 3 67.9006 2.6724 297.2909 -0.0008 0.5369 0.0008
# 4 -0.0009 -0.0050 -0.0008 16.5283 0.0005 -0.6304
# 5 -3.1660 -1.6240 0.5369 0.0005 92.4591 -0.0005
# 6 0.0005 0.0052 0.0008 -0.6304 -0.0005 68.6994
#
#
#
# Elastic Compliance Matrix: (Units=1/GPa)
#
#
# Indices 1 2 3 4 5 6 
#
# 1 0.002143 -0.000523 -0.000485 0.000000 0.000067 0.000000
# 2 -0.000523 0.001913 0.000102 0.000001 0.000015 0.000000
# 3 -0.000485 0.000102 0.003474 0.000000 -0.000035 0.000000
# 4 0.000000 0.000001 0.000000 0.060524 0.000000 0.000555
# 5 0.000067 0.000015 -0.000035 0.000000 0.010818 0.000000
# 6 0.000000 0.000000 0.000000 0.000555 0.000000 0.014561
#
#
# Mechanical properties :
#
#
# Convention : Reuss Voigt Hill
#
# Bulk Modulus (GPa) = 174.86723 198.74893 186.80808
# Shear Modulus (GPa) = 51.46691 113.21500 82.34095
#
# Velocity S-wave (km/s) = 3.88972 5.76908 4.91997
# Velocity P-wave (km/s) = 8.46047 10.13920 9.33764
#
# Compressibility (1/GPa) = 0.00571862
#
# Stress axis : x y z
#
# Youngs Moduli (GPa) = 466.61140 522.78731 287.88540
#
# Poissons Ratio (x) = 0.27327 0.13960
# Poissons Ratio (y) = 0.24391 -0.02941
# Poissons Ratio (z) = 0.22626 -0.05341
#
# Static dielectric constant tensor:
#      x y z
#    x 2.826300 0.000000 -0.008890 
#    y 0.000000 2.841690 0.000000 
#    z -0.008890 0.000000 2.088230 
# 
# From -- ./inp_files/11725.got.cif
#   From: 2010.05.17/outbox.cif.g08.bks.cpg/sg5_6_cif.got.tgz:11725.got - 2010.06.03 18:56:24.
