data_PCOD9125691
_publ_section_title
;
Structure prediction by ZEFSAII (Michael W. Deem and Ramdas Pophale) SiO2 
 PCOD9125691
Probable space group: C 2
;
_chemical_formula_sum "Si O2"
_cell_formula_units_Z 24
_cell_length_a 7.914452
_cell_length_b 15.525213
_cell_length_c 8.090512
_cell_angle_alpha 90.000000
_cell_angle_beta 95.590436
_cell_angle_gamma 90.000000
_cell_volume 989.381646
_symmetry_space_group_name_H-M "C 2"
_symmetry_group_IT_number 5
_symmetry_cell_setting 'monoclinic'
loop_
_space_group_symop_operation_xyz
x,y,z
-x,y,-z
1/2+x,1/2+y,z
1/2-x,1/2+y,-z
loop_
_atom_site_type_symbol
_atom_site_label
_atom_site_fract_x
_atom_site_fract_y
_atom_site_fract_z
Si Si1 0.318077 0.930980 0.000063
Si Si2 0.757004 0.871724 0.349970
Si Si3 0.356128 0.350528 0.706496
Si Si4 0.392868 0.688346 0.704192
Si Si5 0.914213 0.617028 0.147136
Si Si6 0.248051 0.154600 0.659796
O O1 0.191873 0.886496 0.118155
O O2 0.355237 0.023298 0.083288
O O3 0.500000 0.883030 0.000000
O O4 0.269477 0.938065 0.802631
O O5 0.772953 0.902205 0.541844
O O6 0.623685 0.791814 0.328371
O O7 0.945585 0.840236 0.316850
O O8 0.284361 0.255590 0.682161
O O9 0.252178 0.668257 0.823892
O O10 0.576766 0.646473 0.753041
O O11 0.317339 0.643008 0.532410
O O12 0.071253 0.611127 0.288844
O O13 0.000000 0.663459 0.000000
#
# Coordination Sequence:
#
# PCOD9125691 Si02
#       6
#     4   4   4   4   4   4
#     4  11  25  44  61  97 146 188 229 281 356 422
#     4  10  21  42  73 104 137 175 242 295 349 418
#     4  10  21  42  74 103 132 181 232 300 351 412
#     4  10  21  42  74 104 131 178 236 301 343 412
#     4  11  25  44  61 100 143 187 226 283 357 416
#     4  10  21  42  73 104 131 173 241 289 353 419
#
# _framework density 24.257574999999999
#
# number of rings (size 3 to 8) (size 9 to 14) (size 15 to 20)
#    0.000    1.667    1.667    2.000    2.333    2.667 
#   24.000    1.667    0.000    0.000    0.000    0.000 
#    0.000    0.000    0.000    0.000    0.000    0.000 
#
# Total GULP energy -66937.726459 kJ/mol
# GULP energy per Si atom -5578.143872 kJ/mol
# Density = 2.420236 g / cm^3
# Si number density = 24.257575 Si / 1000 Ang^3
#
#
#
# Elastic Constant Matrix: (Units=GPa)
#
#
# Indices 1 2 3 4 5 6 
#
# 1 86.4488 -3.9014 1.0586 0.0000 -11.3778 0.0000
# 2 -3.9014 41.5563 11.5569 0.0000 8.0989 0.0000
# 3 1.0586 11.5569 89.8472 0.0000 0.6272 0.0000
# 4 0.0000 0.0000 0.0000 24.6973 0.0000 -2.0447
# 5 -11.3778 8.0989 0.6272 0.0000 50.2551 0.0000
# 6 0.0000 0.0000 0.0000 -2.0447 0.0000 92.3248
#
#
#
# Elastic Compliance Matrix: (Units=1/GPa)
#
#
# Indices 1 2 3 4 5 6 
#
# 1 0.011943 0.000684 -0.000247 0.000000 0.002597 0.000000
# 2 0.000684 0.025819 -0.003301 0.000000 -0.003965 0.000000
# 3 -0.000247 -0.003301 0.011555 0.000000 0.000332 0.000000
# 4 0.000000 0.000000 0.000000 0.040565 0.000000 0.000898
# 5 0.002597 -0.003965 0.000332 0.000000 0.021121 0.000000
# 6 0.000000 0.000000 0.000000 0.000898 0.000000 0.010851
#
#
# Mechanical properties :
#
#
# Convention : Reuss Voigt Hill
#
# Bulk Modulus (GPa) = 22.94190 26.14230 24.54210
# Shear Modulus (GPa) = 35.18337 47.39798 41.29068
#
# Velocity S-wave (km/s) = 3.81255 4.42514 4.13022
# Velocity P-wave (km/s) = 5.37205 6.07532 5.73448
#
# Compressibility (1/GPa) = 0.04358836
#
# Stress axis : x y z
#
# Youngs Moduli (GPa) = 83.72968 38.73154 86.54073
#
# Poissons Ratio (x) = -0.02648 0.02136
# Poissons Ratio (y) = -0.05725 0.28571
# Poissons Ratio (z) = 0.02066 0.12787
#
# Static dielectric constant tensor:
#      x y z
#    x 2.007520 0.000000 0.049960 
#    y 0.000000 1.939050 0.000000 
#    z 0.049960 0.000000 2.000890 
# 
# From -- ./inp_files/15091.got.cif
#   From: 2010.05.17/outbox.cif.g08.bks.cpg/sg5_8_cif.got.tgz:15091.got - 2010.06.03 18:56:24.
