data_PCOD9125079
_publ_section_title
;
Structure prediction by ZEFSAII (Michael W. Deem and Ramdas Pophale) SiO2 
 PCOD9125079
Probable space group: C 2
;
_chemical_formula_sum "Si O2"
_cell_formula_units_Z 30
_cell_length_a 16.750849
_cell_length_b 9.247775
_cell_length_c 14.156728
_cell_angle_alpha 90.000000
_cell_angle_beta 136.960780
_cell_angle_gamma 90.000000
_cell_volume 1496.714184
_symmetry_space_group_name_H-M "C 2"
_symmetry_group_IT_number 5
_symmetry_cell_setting 'monoclinic'
loop_
_space_group_symop_operation_xyz
x,y,z
-x,y,-z
1/2+x,1/2+y,z
1/2-x,1/2+y,-z
loop_
_atom_site_type_symbol
_atom_site_label
_atom_site_fract_x
_atom_site_fract_y
_atom_site_fract_z
Si Si1 0.881903 0.427880 0.698395
Si Si2 0.729050 0.182529 0.099978
Si Si3 0.638284 0.769357 0.127719
Si Si4 0.796999 0.139301 0.524647
Si Si5 0.323413 0.479787 0.736916
Si Si6 0.000000 0.791888 0.000000
Si Si7 0.130010 0.235288 0.601050
Si Si8 0.661973 0.902901 0.945384
O O1 0.853327 0.392807 0.783666
O O2 0.816862 0.299463 0.584208
O O3 0.830710 0.580253 0.617467
O O4 0.021775 0.414528 0.806983
O O5 0.601582 0.201356 0.037264
O O6 0.820298 0.156915 0.263432
O O7 0.774235 0.324219 0.085201
O O8 0.718002 0.057598 0.014048
O O9 0.695855 0.622733 0.216263
O O10 0.500000 0.737749 0.000000
O O11 0.677944 0.819075 0.059041
O O12 0.867868 0.133758 0.488803
O O13 0.838810 0.035721 0.644334
O O14 0.217685 0.367757 0.656716
O O15 0.436348 0.394117 0.869812
O O16 0.000000 0.291167 0.500000
#
# Coordination Sequence:
#
# PCOD9125079 Si02
#       8
#     4   4   4   4   4   2   4   4
#     4  10  22  38  67  95 133 171 224 272 331 399
#     4  11  27  41  69  96 139 176 227 280 343 388
#     4   9  19  37  65  92 127 168 223 277 330 387
#     4  11  21  40  64  96 125 179 220 260 333 403
#     4  10  21  39  67  93 127 175 221 272 328 400
#     4  10  24  42  64 100 132 174 230 284 332 402
#     4  11  24  42  62  96 137 172 217 274 336 395
#     4  11  25  43  65  99 135 178 223 287 337 393
#
# _framework density 20.043907000000001
#
# number of rings (size 3 to 8) (size 9 to 14) (size 15 to 20)
#    0.000    1.600    2.000    1.600   10.267    1.067 
#    0.000    0.000    0.000    7.200    0.000    0.000 
#    0.000    0.000    0.000    0.000    0.000    0.000 
#
# Total GULP energy -83751.866821 kJ/mol
# GULP energy per Si atom -5583.457788 kJ/mol
# Density = 1.999829 g / cm^3
# Si number density = 20.043907 Si / 1000 Ang^3
#
#
#
# Elastic Constant Matrix: (Units=GPa)
#
#
# Indices 1 2 3 4 5 6 
#
# 1 64.4593 9.5915 42.8377 0.0000 -5.0914 0.0000
# 2 9.5915 62.5537 40.4769 0.0000 2.9183 0.0000
# 3 42.8377 40.4769 117.3728 0.0000 -2.1092 0.0000
# 4 0.0000 0.0000 0.0000 28.6337 0.0000 -12.1299
# 5 -5.0914 2.9183 -2.1092 0.0000 26.4210 0.0000
# 6 0.0000 0.0000 0.0000 -12.1299 0.0000 19.4394
#
#
#
# Elastic Compliance Matrix: (Units=1/GPa)
#
#
# Indices 1 2 3 4 5 6 
#
# 1 0.020973 0.001999 -0.008287 0.000000 0.003159 0.000000
# 2 0.001999 0.020984 -0.008013 0.000000 -0.002572 0.000000
# 3 -0.008287 -0.008013 0.014315 0.000000 0.000431 0.000000
# 4 0.000000 0.000000 0.000000 0.047472 0.000000 0.029622
# 5 0.003159 -0.002572 0.000431 0.000000 0.038776 0.000000
# 6 0.000000 0.000000 0.000000 0.029622 0.000000 0.069926
#
#
# Mechanical properties :
#
#
# Convention : Reuss Voigt Hill
#
# Bulk Modulus (GPa) = 36.13781 47.79977 41.96879
# Shear Modulus (GPa) = 19.97823 24.99746 22.48785
#
# Velocity S-wave (km/s) = 3.16052 3.53531 3.35316
# Velocity P-wave (km/s) = 5.60241 6.36898 5.99795
#
# Compressibility (1/GPa) = 0.02767185
#
# Stress axis : x y z
#
# Youngs Moduli (GPa) = 47.67994 47.65440 69.85486
#
# Poissons Ratio (x) = -0.09527 0.57891
# Poissons Ratio (y) = -0.09532 0.55971
# Poissons Ratio (z) = 0.39514 0.38183
#
# Static dielectric constant tensor:
#      x y z
#    x 1.688960 0.000000 -0.027260 
#    y 0.000000 1.736760 0.000000 
#    z -0.027260 0.000000 1.719850 
# 
# From -- ./inp_files/44337.got.cif
#   From: 2010.05.17/outbox.cif.g08.bks.cpg/sg5_23_cif.got.tgz:44337.got - 2010.06.03 18:56:24.
