data_PCOD9125303
_publ_section_title
;
Structure prediction by ZEFSAII (Michael W. Deem and Ramdas Pophale) SiO2 
 PCOD9125303
Probable space group: C 2
;
_chemical_formula_sum "Si O2"
_cell_formula_units_Z 32
_cell_length_a 16.553846
_cell_length_b 9.495269
_cell_length_c 11.603620
_cell_angle_alpha 90.000000
_cell_angle_beta 45.010450
_cell_angle_gamma 90.000000
_cell_volume 1289.923274
_symmetry_space_group_name_H-M "C 2"
_symmetry_group_IT_number 5
_symmetry_cell_setting 'monoclinic'
loop_
_space_group_symop_operation_xyz
x,y,z
-x,y,-z
1/2+x,1/2+y,z
1/2-x,1/2+y,-z
loop_
_atom_site_type_symbol
_atom_site_label
_atom_site_fract_x
_atom_site_fract_y
_atom_site_fract_z
Si Si1 0.083279 0.998930 0.077122
Si Si2 0.823572 0.225974 0.696259
Si Si3 0.273647 0.426255 0.852581
Si Si4 0.415471 0.726934 0.348931
Si Si5 0.136229 0.811772 0.721017
Si Si6 0.698818 0.059196 0.506180
Si Si7 0.304404 0.129425 0.739107
Si Si8 0.925128 0.442875 0.782894
O O1 0.151838 0.915859 0.106648
O O2 0.020963 0.135181 0.196525
O O3 0.946630 0.394176 0.315111
O O4 0.179888 0.064133 0.895889
O O5 0.702522 0.285258 0.773754
O O6 0.880746 0.330599 0.730546
O O7 0.804085 0.074694 0.768880
O O8 0.891805 0.202441 0.508197
O O9 0.296134 0.296753 0.746897
O O10 0.145429 0.427167 0.029286
O O11 0.518944 0.395073 0.855056
O O12 0.309468 0.669319 0.385276
O O13 0.222202 0.917262 0.563301
O O14 0.128866 0.658163 0.667492
O O15 0.649978 0.066201 0.425604
O O16 0.388734 0.086223 0.758648
#
# Coordination Sequence:
#
# PCOD9125303 Si02
#       8
#     4   4   4   4   4   4   4   4
#     4  10  22  43  67  99 136 178 228 275 345 415
#     4  11  22  42  71  96 136 184 224 278 346 413
#     4  11  23  40  65 103 136 175 231 285 334 404
#     4  10  21  40  69  93 126 183 224 268 344 415
#     4  10  23  44  69 100 134 184 223 283 347 414
#     4  10  23  42  67  98 135 176 229 278 338 412
#     4  11  23  41  68  98 137 181 224 288 338 402
#     4  11  20  43  63  96 135 177 225 277 343 406
#
# _framework density 24.807677999999999
#
# number of rings (size 3 to 8) (size 9 to 14) (size 15 to 20)
#    0.000    1.500    3.750    1.125    5.250    2.000 
#    4.500    0.000    0.000    4.500    0.000    0.000 
#    0.000    0.000    0.000    0.000    0.000    0.000 
#
# Total GULP energy -89423.813768 kJ/mol
# GULP energy per Si atom -5588.988361 kJ/mol
# Density = 2.475121 g / cm^3
# Si number density = 24.807678 Si / 1000 Ang^3
#
#
#
# Elastic Constant Matrix: (Units=GPa)
#
#
# Indices 1 2 3 4 5 6 
#
# 1 14.5818 -19.6033 -21.8075 0.0000 -5.3999 0.0000
# 2 -19.6033 123.2873 -2.8800 0.0000 26.7587 0.0000
# 3 -21.8075 -2.8800 57.1670 0.0000 -2.6163 0.0000
# 4 0.0000 0.0000 0.0000 37.6096 0.0000 3.1291
# 5 -5.3999 26.7587 -2.6163 0.0000 33.0338 0.0000
# 6 0.0000 0.0000 0.0000 3.1291 0.0000 15.1015
#
#
#
# Elastic Compliance Matrix: (Units=1/GPa)
#
#
# Indices 1 2 3 4 5 6 
#
# 1 0.377835 0.057739 0.148265 0.000000 0.026735 0.000000
# 2 0.057739 0.018666 0.022788 0.000000 -0.003877 0.000000
# 3 0.148265 0.022788 0.075738 0.000000 0.011775 0.000000
# 4 0.000000 0.000000 0.000000 0.027055 0.000000 -0.005606
# 5 0.026735 -0.003877 0.011775 0.000000 0.038715 0.000000
# 6 0.000000 0.000000 0.000000 -0.005606 0.000000 0.067380
#
#
# Mechanical properties :
#
#
# Convention : Reuss Voigt Hill
#
# Bulk Modulus (GPa) = 1.07548 11.82827 6.45187
# Shear Modulus (GPa) = 10.92308 33.10412 22.01360
#
# Velocity S-wave (km/s) = 2.10063 3.65695 2.98211
# Velocity P-wave (km/s) = 2.51357 4.75493 3.80312
#
# Compressibility (1/GPa) = 0.92982165
#
# Stress axis : x y z
#
# Youngs Moduli (GPa) = 2.64666 53.57439 13.20341
#
# Poissons Ratio (x) = -3.09331 -1.95760
# Poissons Ratio (y) = -0.15281 -0.30088
# Poissons Ratio (z) = -0.39241 -1.22087
#
# Static dielectric constant tensor:
#      x y z
#    x 2.144930 0.000000 -0.174890 
#    y 0.000000 2.059870 0.000000 
#    z -0.174890 0.000000 2.040540 
# 
# From -- ./inp_files/46129.got.cif
#   From: 2010.05.17/outbox.cif.g08.bks.cpg/sg5_24_cif.got.tgz:46129.got - 2010.06.03 18:56:24.
