data_PCOD9125541
_publ_section_title
;
Structure prediction by ZEFSAII (Michael W. Deem and Ramdas Pophale) SiO2 
 PCOD9125541
Probable space group: C 2
;
_chemical_formula_sum "Si O2"
_cell_formula_units_Z 32
_cell_length_a 11.792149
_cell_length_b 10.450299
_cell_length_c 13.214534
_cell_angle_alpha 90.000000
_cell_angle_beta 111.350782
_cell_angle_gamma 90.000000
_cell_volume 1516.684550
_symmetry_space_group_name_H-M "C 2"
_symmetry_group_IT_number 5
_symmetry_cell_setting 'monoclinic'
loop_
_space_group_symop_operation_xyz
x,y,z
-x,y,-z
1/2+x,1/2+y,z
1/2-x,1/2+y,-z
loop_
_atom_site_type_symbol
_atom_site_label
_atom_site_fract_x
_atom_site_fract_y
_atom_site_fract_z
Si Si1 0.693948 0.313510 0.575061
Si Si2 0.462198 0.737090 0.678586
Si Si3 0.147191 0.697710 0.774675
Si Si4 0.005227 0.862062 0.121460
Si Si5 0.121177 0.084611 0.608181
Si Si6 0.294748 0.326703 0.646328
Si Si7 0.428444 0.989089 0.379422
Si Si8 0.566189 0.660880 0.120154
O O1 0.819594 0.234467 0.605731
O O2 0.635483 0.255400 0.656982
O O3 0.701423 0.460866 0.612708
O O4 0.641898 0.322702 0.443836
O O5 0.549154 0.614804 0.688447
O O6 0.509718 0.854589 0.628438
O O7 0.464447 0.754911 0.798269
O O8 0.072831 0.568533 0.725322
O O9 0.287374 0.660305 0.840729
O O10 0.100374 0.792694 0.846695
O O11 0.121118 0.822341 0.227774
O O12 0.015584 0.016906 0.123028
O O13 0.000000 0.824216 0.000000
O O14 0.208371 0.204019 0.620715
O O15 0.000000 0.081011 0.500000
O O16 0.208007 0.451684 0.628489
O O17 0.500000 0.043900 0.500000
O O18 0.500000 0.709061 0.000000
#
# Coordination Sequence:
#
# PCOD9125541 Si02
#       8
#     4   4   4   4   4   4   4   4
#     4  11  24  36  64 101 131 169 218 272 337 418
#     4  10  21  42  61  93 133 170 219 268 331 409
#     4  11  26  42  68 102 134 179 230 279 342 420
#     4  11  26  46  68  95 133 181 236 290 339 391
#     4  11  23  38  60  96 136 171 215 265 336 413
#     4  11  23  40  66  93 133 184 214 281 348 401
#     4  11  22  40  63  99 140 179 211 273 353 414
#     4  10  23  47  71  93 130 180 227 291 337 398
#
# _framework density 21.098652999999999
#
# number of rings (size 3 to 8) (size 9 to 14) (size 15 to 20)
#    0.000    1.250    3.750    1.500    8.750    2.000 
#    0.000    0.625    0.000    0.000    0.000    0.000 
#    0.000    0.000    0.000    0.000    0.000    0.000 
#
# Total GULP energy -89099.394656 kJ/mol
# GULP energy per Si atom -5568.712166 kJ/mol
# Density = 2.105063 g / cm^3
# Si number density = 21.098653 Si / 1000 Ang^3
#
#
#
# Elastic Constant Matrix: (Units=GPa)
#
#
# Indices 1 2 3 4 5 6 
#
# 1 67.5910 17.4498 50.4018 0.0000 -7.9297 0.0000
# 2 17.4498 50.7452 14.5026 0.0000 0.1048 0.0000
# 3 50.4018 14.5026 174.0431 0.0000 -9.8026 0.0000
# 4 0.0000 0.0000 0.0000 31.1323 0.0000 -5.3961
# 5 -7.9297 0.1048 -9.8026 0.0000 23.4317 0.0000
# 6 0.0000 0.0000 0.0000 -5.3961 0.0000 5.3880
#
#
#
# Elastic Compliance Matrix: (Units=1/GPa)
#
#
# Indices 1 2 3 4 5 6 
#
# 1 0.020745 -0.005639 -0.005265 0.000000 0.004843 0.000000
# 2 -0.005639 0.021735 -0.000298 0.000000 -0.002130 0.000000
# 3 -0.005265 -0.000298 0.007369 0.000000 0.001302 0.000000
# 4 0.000000 0.000000 0.000000 0.038868 0.000000 0.038926
# 5 0.004843 -0.002130 0.001302 0.000000 0.044870 0.000000
# 6 0.000000 0.000000 0.000000 0.038926 0.000000 0.224582
#
#
# Mechanical properties :
#
#
# Convention : Reuss Voigt Hill
#
# Bulk Modulus (GPa) = 36.43713 50.78753 43.61233
# Shear Modulus (GPa) = 12.82970 25.99207 19.41088
#
# Velocity S-wave (km/s) = 2.46861 3.51369 3.03645
# Velocity P-wave (km/s) = 5.04309 6.37064 5.74534
#
# Compressibility (1/GPa) = 0.02744453
#
# Stress axis : x y z
#
# Youngs Moduli (GPa) = 48.20482 46.00884 135.71140
#
# Poissons Ratio (x) = 0.25944 0.71451
# Poissons Ratio (y) = 0.27182 0.04046
# Poissons Ratio (z) = 0.25379 0.01372
#
# Static dielectric constant tensor:
#      x y z
#    x 1.847320 0.000000 -0.014970 
#    y 0.000000 1.888950 0.000000 
#    z -0.014970 0.000000 1.763430 
# 
# From -- ./inp_files/39428.got.cif
#   From: 2010.05.17/outbox.cif.g08.bks.cpg/sg5_20_cif.got.tgz:39428.got - 2010.06.03 18:56:24.
