data_PCOD9125645
_publ_section_title
;
Structure prediction by ZEFSAII (Michael W. Deem and Ramdas Pophale) SiO2 
 PCOD9125645
Probable space group: C 2
;
_chemical_formula_sum "Si O2"
_cell_formula_units_Z 18
_cell_length_a 11.006816
_cell_length_b 7.581057
_cell_length_c 11.715992
_cell_angle_alpha 90.000000
_cell_angle_beta 40.534963
_cell_angle_gamma 90.000000
_cell_volume 635.367582
_symmetry_space_group_name_H-M "C 2"
_symmetry_group_IT_number 5
_symmetry_cell_setting 'monoclinic'
loop_
_space_group_symop_operation_xyz
x,y,z
-x,y,-z
1/2+x,1/2+y,z
1/2-x,1/2+y,-z
loop_
_atom_site_type_symbol
_atom_site_label
_atom_site_fract_x
_atom_site_fract_y
_atom_site_fract_z
Si Si1 0.417638 0.993410 0.436199
Si Si2 0.377054 0.770281 0.893215
Si Si3 0.500000 0.336440 0.500000
Si Si4 0.518402 0.416030 0.797382
Si Si5 0.684573 0.084602 0.817218
O O1 0.500000 0.915901 0.500000
O O2 0.195410 0.969321 0.593366
O O3 0.463489 0.198492 0.423124
O O4 0.994969 0.420928 0.743193
O O5 0.478959 0.608801 0.884005
O O6 0.305134 0.667792 0.831818
O O7 0.189621 0.845285 0.082711
O O8 0.323431 0.457284 0.652159
O O9 0.396654 0.254982 0.190339
O O10 0.500000 0.988801 0.000000
#
# Coordination Sequence:
#
# PCOD9125645 Si02
#       5
#     4   4   2   4   4
#     4  10  23  45  75 106 149 205 250 311 386 452
#     4  11  25  44  71 109 150 198 257 310 381 459
#     4  10  22  40  72 108 140 200 254 284 392 454
#     4  11  25  45  72 108 151 200 254 315 377 462
#     4  10  21  42  69 100 148 198 244 310 377 445
#
# _framework density 28.330055000000002
#
# number of rings (size 3 to 8) (size 9 to 14) (size 15 to 20)
#    0.667    0.889    2.222    1.333    0.000   10.667 
#    0.000    0.000    0.000    0.000    0.000    0.000 
#    0.000    0.000    0.000    0.000    0.000    0.000 
#
# Total GULP energy -50380.820893 kJ/mol
# GULP energy per Si atom -5597.868988 kJ/mol
# Density = 2.826557 g / cm^3
# Si number density = 28.330055 Si / 1000 Ang^3
#
#
#
# Elastic Constant Matrix: (Units=GPa)
#
#
# Indices 1 2 3 4 5 6 
#
# 1 100.2533 53.6771 63.4240 0.0000 -6.4545 0.0000
# 2 53.6771 243.4867 126.5377 0.0000 -8.2663 0.0000
# 3 63.4240 126.5377 306.6077 0.0000 -13.6273 0.0000
# 4 0.0000 0.0000 0.0000 73.1458 0.0000 -8.2796
# 5 -6.4545 -8.2663 -13.6273 0.0000 38.1790 0.0000
# 6 0.0000 0.0000 0.0000 -8.2796 0.0000 49.8053
#
#
#
# Elastic Compliance Matrix: (Units=1/GPa)
#
#
# Indices 1 2 3 4 5 6 
#
# 1 0.012063 -0.001720 -0.001739 0.000000 0.001046 0.000000
# 2 -0.001720 0.005479 -0.001896 0.000000 0.000219 0.000000
# 3 -0.001739 -0.001896 0.004443 0.000000 0.000881 0.000000
# 4 0.000000 0.000000 0.000000 0.013934 0.000000 0.002316
# 5 0.001046 0.000219 0.000881 0.000000 0.026731 0.000000
# 6 0.000000 0.000000 0.000000 0.002316 0.000000 0.020463
#
#
# Mechanical properties :
#
#
# Convention : Reuss Voigt Hill
#
# Bulk Modulus (GPa) = 88.68881 126.40280 107.54581
# Shear Modulus (GPa) = 51.23984 59.33994 55.28989
#
# Velocity S-wave (km/s) = 4.25746 4.58164 4.42252
# Velocity P-wave (km/s) = 7.45262 8.52662 8.00765
#
# Compressibility (1/GPa) = 0.01127538
#
# Stress axis : x y z
#
# Youngs Moduli (GPa) = 82.89669 182.52420 225.08948
#
# Poissons Ratio (x) = 0.31396 0.39142
# Poissons Ratio (y) = 0.14259 0.42667
# Poissons Ratio (z) = 0.14415 0.34598
#
# Static dielectric constant tensor:
#      x y z
#    x 2.336060 0.000000 0.046800 
#    y 0.000000 2.285280 0.000000 
#    z 0.046800 0.000000 2.109830 
# 
# From -- ./inp_files/61295.got.cif
#   From: 2010.05.17/outbox.cif.g08.bks.cpg/sg5_31_cif.got.tgz:61295.got - 2010.06.03 18:56:24.
