data_PCOD9125632
_publ_section_title
;
Structure prediction by ZEFSAII (Michael W. Deem and Ramdas Pophale) SiO2 
 PCOD9125632
Probable space group: C 2
;
_chemical_formula_sum "Si O2"
_cell_formula_units_Z 30
_cell_length_a 12.736564
_cell_length_b 14.813576
_cell_length_c 8.154641
_cell_angle_alpha 90.000000
_cell_angle_beta 73.056264
_cell_angle_gamma 90.000000
_cell_volume 1471.782082
_symmetry_space_group_name_H-M "C 2"
_symmetry_group_IT_number 5
_symmetry_cell_setting 'monoclinic'
loop_
_space_group_symop_operation_xyz
x,y,z
-x,y,-z
1/2+x,1/2+y,z
1/2-x,1/2+y,-z
loop_
_atom_site_type_symbol
_atom_site_label
_atom_site_fract_x
_atom_site_fract_y
_atom_site_fract_z
Si Si1 0.436773 0.529000 0.775035
Si Si2 0.666265 0.519732 0.813700
Si Si3 0.000000 0.408725 0.500000
Si Si4 0.835755 0.662293 0.836067
Si Si5 0.034551 0.535381 0.799698
Si Si6 0.247456 0.644047 0.758027
Si Si7 0.614631 0.340287 0.371439
Si Si8 0.258308 0.841293 0.618991
O O1 0.566420 0.543250 0.737476
O O2 0.369469 0.602926 0.703187
O O3 0.415859 0.431130 0.708861
O O4 0.383598 0.526282 0.980995
O O5 0.765180 0.591431 0.760367
O O6 0.708740 0.418520 0.760649
O O7 0.989040 0.467856 0.338632
O O8 0.888652 0.352457 0.561090
O O9 0.838704 0.761196 0.761607
O O10 0.957081 0.621817 0.802804
O O11 0.782707 0.664022 0.039401
O O12 0.160084 0.568309 0.742199
O O13 0.000000 0.502392 0.000000
O O14 0.231765 0.738019 0.673263
O O15 0.500000 0.306215 0.500000
O O16 0.702948 0.361563 0.470319
#
# Coordination Sequence:
#
# PCOD9125632 Si02
#       8
#     4   4   2   4   4   4   4   4
#     4  10  22  42  67  90 122 167 213 256 319 371
#     4  10  21  42  68  90 123 165 210 266 311 378
#     4  12  26  44  66  96 134 176 210 272 322 388
#     4  10  22  40  66  93 124 165 216 266 323 373
#     4  10  22  42  70  94 126 173 222 265 325 375
#     4  10  23  43  64  92 126 168 212 266 315 387
#     4  12  24  38  62  97 126 164 210 262 317 381
#     4  12  25  41  61  97 131 166 211 258 328 379
#
# _framework density 20.383454
#
# number of rings (size 3 to 8) (size 9 to 14) (size 15 to 20)
#    0.000    1.333    2.667    2.400    2.800    2.133 
#    3.600    0.000    0.000    0.000    0.000    0.000 
#    0.000    0.000    0.000    0.000    0.000    0.000 
#
# Total GULP energy -83845.226332 kJ/mol
# GULP energy per Si atom -5589.681755 kJ/mol
# Density = 2.033706 g / cm^3
# Si number density = 20.383454 Si / 1000 Ang^3
#
#
#
# Elastic Constant Matrix: (Units=GPa)
#
#
# Indices 1 2 3 4 5 6 
#
# 1 134.6637 11.6241 25.4795 0.0000 8.9037 0.0000
# 2 11.6241 48.6387 14.7161 0.0000 16.1475 0.0000
# 3 25.4795 14.7161 29.6115 0.0000 12.4727 0.0000
# 4 0.0000 0.0000 0.0000 -33.4535 0.0000 -7.5957
# 5 8.9037 16.1475 12.4727 0.0000 27.7874 0.0000
# 6 0.0000 0.0000 0.0000 -7.5957 0.0000 16.5166
#
#
#
# Elastic Compliance Matrix: (Units=1/GPa)
#
#
# Indices 1 2 3 4 5 6 
#
# 1 0.008882 0.000056 -0.007963 0.000000 0.000696 0.000000
# 2 0.000056 0.027077 -0.008471 0.000000 -0.011950 0.000000
# 3 -0.007963 -0.008471 0.051403 0.000000 -0.015599 0.000000
# 4 0.000000 0.000000 0.000000 -0.027066 0.000000 -0.012447
# 5 0.000696 -0.011950 -0.015599 0.000000 0.049710 0.000000
# 6 0.000000 0.000000 0.000000 -0.012447 0.000000 0.054821
#
#
# Mechanical properties :
#
#
# Convention : Reuss Voigt Hill
#
# Bulk Modulus (GPa) = 18.31354 35.17261 26.74307
# Shear Modulus (GPa) = 23.17125 12.90972 18.04048
#
# Velocity S-wave (km/s) = 3.37526 2.51936 2.97822
# Velocity P-wave (km/s) = 4.91872 5.07502 4.99748
#
# Compressibility (1/GPa) = 0.05460441
#
# Stress axis : x y z
#
# Youngs Moduli (GPa) = 112.58977 36.93215 19.45422
#
# Poissons Ratio (x) = -0.00205 0.15492
# Poissons Ratio (y) = -0.00626 0.16479
# Poissons Ratio (z) = 0.89659 0.31284
#
# Static dielectric constant tensor:
#      x y z
#    x 1.741030 0.000000 0.006180 
#    y 0.000000 1.666570 0.000000 
#    z 0.006180 0.000000 1.746130 
# 
# From -- ./inp_files/20599.got.cif
#   From: 2010.05.17/outbox.cif.g08.bks.cpg/sg5_11_cif.got.tgz:20599.got - 2010.06.03 18:56:24.
