data_PCOD9125982
_publ_section_title
;
Structure prediction by ZEFSAII (Michael W. Deem and Ramdas Pophale) SiO2 
 PCOD9125982
Probable space group: C 2
;
_chemical_formula_sum "Si O2"
_cell_formula_units_Z 28
_cell_length_a 8.248771
_cell_length_b 12.444443
_cell_length_c 12.115684
_cell_angle_alpha 90.000000
_cell_angle_beta 96.401558
_cell_angle_gamma 90.000000
_cell_volume 1235.936891
_symmetry_space_group_name_H-M "C 2"
_symmetry_group_IT_number 5
_symmetry_cell_setting 'monoclinic'
loop_
_space_group_symop_operation_xyz
x,y,z
-x,y,-z
1/2+x,1/2+y,z
1/2-x,1/2+y,-z
loop_
_atom_site_type_symbol
_atom_site_label
_atom_site_fract_x
_atom_site_fract_y
_atom_site_fract_z
Si Si1 0.751789 0.575820 0.073280
Si Si2 0.910813 0.255101 0.800411
Si Si3 0.913831 0.663282 0.888905
Si Si4 0.329463 0.399792 0.347972
Si Si5 0.597268 0.633635 0.617874
Si Si6 0.707420 0.342243 0.413036
Si Si7 0.729016 0.867309 0.813100
O O1 0.642422 0.670510 0.112187
O O2 0.693331 0.460863 0.109383
O O3 0.933521 0.594687 0.142271
O O4 0.784700 0.589528 0.945442
O O5 0.762153 0.328015 0.747978
O O6 0.981270 0.191025 0.698826
O O7 0.057185 0.331502 0.850055
O O8 0.832630 0.757081 0.814972
O O9 0.000000 0.722970 0.000000
O O10 0.330343 0.526276 0.323235
O O11 0.515352 0.359564 0.377358
O O12 0.249421 0.385272 0.462894
O O13 0.500000 0.599984 0.500000
O O14 0.729613 0.720090 0.587552
O O15 0.791712 0.401874 0.315829
#
# Coordination Sequence:
#
# PCOD9125982 Si02
#       7
#     4   4   4   4   4   4   4
#     4   9  22  41  64  88 119 160 192 257 300 362
#     4  11  24  37  64  93 123 156 212 242 289 375
#     4   8  22  45  58  88 124 147 199 257 302 364
#     4  11  22  39  58  88 124 173 195 244 301 345
#     4  11  21  39  57  86 126 161 203 250 290 338
#     4  10  22  36  62  86 124 160 205 244 289 363
#     4  11  22  41  63  92 121 157 201 255 302 358
#
# _framework density 22.654879000000001
#
# number of rings (size 3 to 8) (size 9 to 14) (size 15 to 20)
#    0.857    0.857    2.857    1.714    0.000    6.286 
#    2.571    4.286    0.000    0.000    0.000    0.000 
#    0.000    0.000    0.000    0.000    0.000    0.000 
#
# Total GULP energy -78143.074758 kJ/mol
# GULP energy per Si atom -5581.648197 kJ/mol
# Density = 2.260332 g / cm^3
# Si number density = 22.654879 Si / 1000 Ang^3
#
#
#
# Elastic Constant Matrix: (Units=GPa)
#
#
# Indices 1 2 3 4 5 6 
#
# 1 32.5652 16.0858 -6.3198 0.0000 -13.4231 0.0000
# 2 16.0858 113.5812 10.5329 0.0000 -8.4809 0.0000
# 3 -6.3198 10.5329 49.0862 0.0000 -7.8672 0.0000
# 4 0.0000 0.0000 0.0000 13.7703 0.0000 1.4690
# 5 -13.4231 -8.4809 -7.8672 0.0000 30.0632 0.0000
# 6 0.0000 0.0000 0.0000 1.4690 0.0000 14.4757
#
#
#
# Elastic Compliance Matrix: (Units=1/GPa)
#
#
# Indices 1 2 3 4 5 6 
#
# 1 0.044014 -0.005631 0.010198 0.000000 0.020732 0.000000
# 2 -0.005631 0.009835 -0.002916 0.000000 -0.000503 0.000000
# 3 0.010198 -0.002916 0.023912 0.000000 0.009988 0.000000
# 4 0.000000 0.000000 0.000000 0.073415 0.000000 -0.007450
# 5 0.020732 -0.000503 0.009988 0.000000 0.044992 0.000000
# 6 0.000000 0.000000 0.000000 -0.007450 0.000000 0.069837
#
#
# Mechanical properties :
#
#
# Convention : Reuss Voigt Hill
#
# Bulk Modulus (GPa) = 12.33622 26.20337 19.26980
# Shear Modulus (GPa) = 17.25785 23.32409 20.29097
#
# Velocity S-wave (km/s) = 2.76302 3.21212 2.99600
# Velocity P-wave (km/s) = 3.95425 5.03472 4.52684
#
# Compressibility (1/GPa) = 0.08106211
#
# Stress axis : x y z
#
# Youngs Moduli (GPa) = 22.72012 101.68166 41.82030
#
# Poissons Ratio (x) = 0.57258 -0.42648
# Poissons Ratio (y) = 0.12794 0.12194
# Poissons Ratio (z) = -0.23170 0.29650
#
# Static dielectric constant tensor:
#      x y z
#    x 1.897420 0.000000 0.001280 
#    y 0.000000 1.807720 0.000000 
#    z 0.001280 0.000000 1.868570 
# 
# From -- ./inp_files/50128.got.cif
#   From: 2010.05.17/outbox.cif.g08.bks.cpg/sg5_26_cif.got.tgz:50128.got - 2010.06.03 18:56:24.
