data_PCOD9125152
_publ_section_title
;
Structure prediction by ZEFSAII (Michael W. Deem and Ramdas Pophale) SiO2 
 PCOD9125152
Probable space group: C 2
;
_chemical_formula_sum "Si O2"
_cell_formula_units_Z 22
_cell_length_a 25.565655
_cell_length_b 7.783080
_cell_length_c 6.650774
_cell_angle_alpha 90.000000
_cell_angle_beta 120.296005
_cell_angle_gamma 90.000000
_cell_volume 1142.636542
_symmetry_space_group_name_H-M "C 2"
_symmetry_group_IT_number 5
_symmetry_cell_setting 'monoclinic'
loop_
_space_group_symop_operation_xyz
x,y,z
-x,y,-z
1/2+x,1/2+y,z
1/2-x,1/2+y,-z
loop_
_atom_site_type_symbol
_atom_site_label
_atom_site_fract_x
_atom_site_fract_y
_atom_site_fract_z
Si Si1 0.380118 0.419100 0.772167
Si Si2 0.397561 0.739102 0.566897
Si Si3 0.500000 0.603835 0.000000
Si Si4 0.321882 0.888495 0.077315
Si Si5 0.233236 0.056414 0.231977
Si Si6 0.655339 0.049921 0.277621
O O1 0.369091 0.552028 0.565724
O O2 0.445046 0.487057 0.974583
O O3 0.326095 0.450042 0.823534
O O4 0.380057 0.219484 0.720526
O O5 0.467866 0.713609 0.762289
O O6 0.376329 0.803722 0.310277
O O7 0.371573 0.878580 0.673799
O O8 0.274504 0.968413 0.142410
O O9 0.288533 0.740731 0.886540
O O10 0.345100 0.026222 0.961801
O O11 0.276300 0.071539 0.509604
#
# Coordination Sequence:
#
# PCOD9125152 Si02
#       6
#     4   4   2   4   4   4
#     4  10  21  40  62  87 126 163 204 253 311 363
#     4   9  22  42  60  89 121 167 211 251 306 368
#     4   8  20  42  64  82 118 170 204 264 306 352
#     4  11  22  37  62  94 128 167 204 252 314 379
#     4  11  23  35  61  93 130 159 204 255 313 374
#     4  11  22  39  62  93 127 158 201 265 314 367
#
# _framework density 19.253715
#
# number of rings (size 3 to 8) (size 9 to 14) (size 15 to 20)
#    1.091    0.727    1.818    2.182    7.636    0.727 
#    0.000    3.636    0.000    2.182    0.000    0.000 
#    0.000    0.000    0.000    0.000    0.000    0.000 
#
# Total GULP energy -61308.904312 kJ/mol
# GULP energy per Si atom -5573.536756 kJ/mol
# Density = 1.920989 g / cm^3
# Si number density = 19.253715 Si / 1000 Ang^3
#
#
#
# Elastic Constant Matrix: (Units=GPa)
#
#
# Indices 1 2 3 4 5 6 
#
# 1 62.6931 19.5717 46.2990 0.0000 26.5987 0.0000
# 2 19.5717 92.6623 42.0393 0.0000 7.5011 0.0000
# 3 46.2990 42.0393 108.3366 0.0000 10.0485 0.0000
# 4 0.0000 0.0000 0.0000 19.5335 0.0000 -5.9007
# 5 26.5987 7.5011 10.0485 0.0000 31.0083 0.0000
# 6 0.0000 0.0000 0.0000 -5.9007 0.0000 7.5421
#
#
#
# Elastic Compliance Matrix: (Units=1/GPa)
#
#
# Indices 1 2 3 4 5 6 
#
# 1 0.037949 0.000533 -0.013809 0.000000 -0.028207 0.000000
# 2 0.000533 0.013180 -0.005159 0.000000 -0.001973 0.000000
# 3 -0.013809 -0.005159 0.016413 0.000000 0.007774 0.000000
# 4 0.000000 0.000000 0.000000 0.067038 0.000000 0.052448
# 5 -0.028207 -0.001973 0.007774 0.000000 0.054403 0.000000
# 6 0.000000 0.000000 0.000000 0.052448 0.000000 0.173622
#
#
# Mechanical properties :
#
#
# Convention : Reuss Voigt Hill
#
# Bulk Modulus (GPa) = 32.60316 53.27912 42.94114
# Shear Modulus (GPa) = 12.20411 22.00224 17.10318
#
# Velocity S-wave (km/s) = 2.52038 3.38413 2.98368
# Velocity P-wave (km/s) = 5.04381 6.55759 5.84987
#
# Compressibility (1/GPa) = 0.03067187
#
# Stress axis : x y z
#
# Youngs Moduli (GPa) = 26.35092 75.87475 60.92903
#
# Poissons Ratio (x) = -0.04041 0.84134
# Poissons Ratio (y) = -0.01403 0.31432
# Poissons Ratio (z) = 0.36387 0.39143
#
# Static dielectric constant tensor:
#      x y z
#    x 1.666780 0.000000 -0.001850 
#    y 0.000000 1.700900 0.000000 
#    z -0.001850 0.000000 1.681740 
# 
# From -- ./inp_files/10194.got.cif
#   From: 2010.05.17/outbox.cif.g08.bks.cpg/sg5_6_cif.got.tgz:10194.got - 2010.06.03 18:56:24.
