data_PCOD9125053
_publ_section_title
;
Structure prediction by ZEFSAII (Michael W. Deem and Ramdas Pophale) SiO2 
 PCOD9125053
Probable space group: C 2
;
_chemical_formula_sum "Si O2"
_cell_formula_units_Z 18
_cell_length_a 6.500846
_cell_length_b 24.954147
_cell_length_c 5.285746
_cell_angle_alpha 90.000000
_cell_angle_beta 93.996068
_cell_angle_gamma 90.000000
_cell_volume 855.385275
_symmetry_space_group_name_H-M "C 2"
_symmetry_group_IT_number 5
_symmetry_cell_setting 'monoclinic'
loop_
_space_group_symop_operation_xyz
x,y,z
-x,y,-z
1/2+x,1/2+y,z
1/2-x,1/2+y,-z
loop_
_atom_site_type_symbol
_atom_site_label
_atom_site_fract_x
_atom_site_fract_y
_atom_site_fract_z
Si Si1 0.866915 0.059790 0.737852
Si Si2 0.622280 0.953370 0.768471
Si Si3 0.000000 0.351458 0.000000
Si Si4 0.367411 0.285784 0.244930
Si Si5 0.854343 0.175245 0.737123
O O1 0.745123 0.116458 0.730683
O O2 0.000000 0.064662 0.500000
O O3 0.780462 0.999960 0.725029
O O4 0.000000 0.062258 0.000000
O O5 0.500000 0.947074 0.500000
O O6 0.655220 0.892652 0.867364
O O7 0.500000 0.976754 0.000000
O O8 0.850608 0.316763 0.810887
O O9 0.500000 0.303544 0.500000
O O10 0.305212 0.223750 0.273422
O O11 0.500000 0.292025 0.000000
O O12 0.000000 0.180069 0.500000
O O13 0.000000 0.179742 0.000000
#
# Coordination Sequence:
#
# PCOD9125053 Si02
#       5
#     4   4   2   4   4
#     4  10  21  39  66 100 128 170 220 272 333 405
#     4  10  23  41  63  88 127 185 205 269 343 376
#     4  10  28  48  66  96 150 172 226 292 326 390
#     4  12  27  43  72 103 131 183 233 273 340 406
#     4  10  21  41  69  94 140 175 208 286 345 388
#
# _framework density 21.043149
#
# number of rings (size 3 to 8) (size 9 to 14) (size 15 to 20)
#    0.667    0.889    1.111    2.667    3.111    2.667 
#    0.000    0.000    0.000    0.000    0.000    0.000 
#    0.000    0.000    0.000    0.000    0.000    0.000 
#
# Total GULP energy -50103.175428 kJ/mol
# GULP energy per Si atom -5567.019492 kJ/mol
# Density = 2.099525 g / cm^3
# Si number density = 21.043149 Si / 1000 Ang^3
#
#
#
# Elastic Constant Matrix: (Units=GPa)
#
#
# Indices 1 2 3 4 5 6 
#
# 1 33.3001 39.8127 21.2827 0.0000 7.4283 0.0000
# 2 39.8127 163.2955 26.2001 0.0000 18.3756 0.0000
# 3 21.2827 26.2001 153.9878 0.0000 2.4021 0.0000
# 4 0.0000 0.0000 0.0000 -27.3669 0.0000 -12.3267
# 5 7.4283 18.3756 2.4021 0.0000 34.1293 0.0000
# 6 0.0000 0.0000 0.0000 -12.3267 0.0000 39.0261
#
#
#
# Elastic Compliance Matrix: (Units=1/GPa)
#
#
# Indices 1 2 3 4 5 6 
#
# 1 0.045806 -0.009952 -0.004571 0.000000 -0.004290 0.000000
# 2 -0.009952 0.008857 -0.000091 0.000000 -0.002596 0.000000
# 3 -0.004571 -0.000091 0.007133 0.000000 0.000542 0.000000
# 4 0.000000 0.000000 0.000000 -0.031989 0.000000 -0.010104
# 5 -0.004290 -0.002596 0.000542 0.000000 0.031594 0.000000
# 6 0.000000 0.000000 0.000000 -0.010104 0.000000 0.022432
#
#
# Mechanical properties :
#
#
# Convention : Reuss Voigt Hill
#
# Bulk Modulus (GPa) = 30.70415 58.35273 44.52844
# Shear Modulus (GPa) = 40.34979 26.71022 33.53001
#
# Velocity S-wave (km/s) = 4.38365 3.56660 3.99606
# Velocity P-wave (km/s) = 6.34386 6.68962 6.51904
#
# Compressibility (1/GPa) = 0.03256889
#
# Stress axis : x y z
#
# Youngs Moduli (GPa) = 21.83104 112.90551 140.19779
#
# Poissons Ratio (x) = 1.12362 0.64081
# Poissons Ratio (y) = 0.21726 0.01276
# Poissons Ratio (z) = 0.09978 0.01028
#
# Static dielectric constant tensor:
#      x y z
#    x 1.829090 0.000000 -0.008730 
#    y 0.000000 1.848900 0.000000 
#    z -0.008730 0.000000 1.719110 
# 
# From -- ./inp_files/975.got.cif
#   From: 2010.05.17/outbox.cif.g08.bks.cpg/sg5_1_cif.got.tgz:975.got - 2010.06.03 18:56:24.
