data_PCOD9125496
_publ_section_title
;
Structure prediction by ZEFSAII (Michael W. Deem and Ramdas Pophale) SiO2 
 PCOD9125496
Probable space group: C 2
;
_chemical_formula_sum "Si O2"
_cell_formula_units_Z 28
_cell_length_a 9.435824
_cell_length_b 7.151447
_cell_length_c 27.163191
_cell_angle_alpha 90.000000
_cell_angle_beta 139.347793
_cell_angle_gamma 90.000000
_cell_volume 1194.114999
_symmetry_space_group_name_H-M "C 2"
_symmetry_group_IT_number 5
_symmetry_cell_setting 'monoclinic'
loop_
_space_group_symop_operation_xyz
x,y,z
-x,y,-z
1/2+x,1/2+y,z
1/2-x,1/2+y,-z
loop_
_atom_site_type_symbol
_atom_site_label
_atom_site_fract_x
_atom_site_fract_y
_atom_site_fract_z
Si Si1 0.797014 0.367250 0.975409
Si Si2 0.752612 0.794227 0.931244
Si Si3 0.720843 0.578374 0.540511
Si Si4 0.839658 0.530618 0.290116
Si Si5 0.245988 0.518048 0.562336
Si Si6 0.532913 0.441371 0.724757
Si Si7 0.799893 0.761779 0.833980
O O1 0.762309 0.572627 0.944180
O O2 0.560454 0.275898 0.907315
O O3 0.858499 0.372213 0.049129
O O4 0.000000 0.280782 0.000000
O O5 0.691162 0.812904 0.858150
O O6 0.000000 0.865299 0.000000
O O7 0.500000 0.486159 0.500000
O O8 0.687269 0.580334 0.473649
O O9 0.730897 0.792827 0.559985
O O10 0.940157 0.492155 0.620353
O O11 0.646481 0.468542 0.277918
O O12 0.792377 0.405021 0.230343
O O13 0.883238 0.741780 0.276993
O O14 0.415496 0.557113 0.649829
O O15 0.000000 0.586228 0.500000
O O16 0.734349 0.557077 0.798555
#
# Coordination Sequence:
#
# PCOD9125496 Si02
#       7
#     4   4   4   4   4   4   4
#     4  10  22  48  76 105 144 188 243 310 376 474
#     4   9  21  46  70 107 136 186 241 294 376 467
#     4  10  23  40  70 103 138 198 264 316 385 465
#     4  11  26  50  73 109 162 204 260 332 399 464
#     4  10  21  41  69  95 143 195 257 317 379 460
#     4  11  26  48  72 114 156 204 265 328 399 473
#     4  11  25  48  76 110 152 197 253 315 399 474
#
# _framework density 23.448328
#
# number of rings (size 3 to 8) (size 9 to 14) (size 15 to 20)
#    0.000    1.714    1.429    0.857    2.000    5.714 
#   33.429    0.000    0.000    0.000    0.000    0.000 
#    0.000    0.000    0.000    0.000    0.000    0.000 
#
# Total GULP energy -78081.363292 kJ/mol
# GULP energy per Si atom -5577.240235 kJ/mol
# Density = 2.339496 g / cm^3
# Si number density = 23.448328 Si / 1000 Ang^3
#
#
#
# Elastic Constant Matrix: (Units=GPa)
#
#
# Indices 1 2 3 4 5 6 
#
# 1 179.7501 32.7942 72.6617 0.0000 -22.2837 0.0000
# 2 32.7942 101.6906 42.7252 0.0000 4.2250 0.0000
# 3 72.6617 42.7252 160.8764 0.0000 -24.3948 0.0000
# 4 0.0000 0.0000 0.0000 20.3828 0.0000 -30.6422
# 5 -22.2837 4.2250 -24.3948 0.0000 51.4322 0.0000
# 6 0.0000 0.0000 0.0000 -30.6422 0.0000 15.8929
#
#
#
# Elastic Compliance Matrix: (Units=1/GPa)
#
#
# Indices 1 2 3 4 5 6 
#
# 1 0.007074 -0.001289 -0.002556 0.000000 0.001959 0.000000
# 2 -0.001289 0.011606 -0.002941 0.000000 -0.002907 0.000000
# 3 -0.002556 -0.002941 0.008642 0.000000 0.003233 0.000000
# 4 0.000000 0.000000 0.000000 -0.025842 0.000000 -0.049824
# 5 0.001959 -0.002907 0.003233 0.000000 0.022064 0.000000
# 6 0.000000 0.000000 0.000000 -0.049824 0.000000 -0.033142
#
#
# Mechanical properties :
#
#
# Convention : Reuss Voigt Hill
#
# Bulk Modulus (GPa) = 72.72494 82.07547 77.40021
# Shear Modulus (GPa) = 584.36453 37.15066 310.75759
#
# Velocity S-wave (km/s) = 15.80363 3.98472 11.52460
# Velocity P-wave (km/s) = 19.08111 7.49996 14.49721
#
# Compressibility (1/GPa) = 0.01375044
#
# Stress axis : x y z
#
# Youngs Moduli (GPa) = 141.35353 86.16395 115.71887
#
# Poissons Ratio (x) = 0.11106 0.29577
# Poissons Ratio (y) = 0.18220 0.34031
# Poissons Ratio (z) = 0.36129 0.25339
#
# Static dielectric constant tensor:
#      x y z
#    x 1.855000 0.000000 0.070180 
#    y 0.000000 1.933000 0.000000 
#    z 0.070180 0.000000 1.862640 
# 
# From -- ./inp_files/70173.got.cif
#   From: 2010.05.17/outbox.cif.g08.bks.cpg/sg5_36_cif.got.tgz:70173.got - 2010.06.03 18:56:24.
