data_PCOD9125144
_publ_section_title
;
Structure prediction by ZEFSAII (Michael W. Deem and Ramdas Pophale) SiO2 
 PCOD9125144
Probable space group: C 2
;
_chemical_formula_sum "Si O2"
_cell_formula_units_Z 24
_cell_length_a 17.807141
_cell_length_b 4.939111
_cell_length_c 17.036534
_cell_angle_alpha 90.000000
_cell_angle_beta 143.855616
_cell_angle_gamma 90.000000
_cell_volume 883.782220
_symmetry_space_group_name_H-M "C 2"
_symmetry_group_IT_number 5
_symmetry_cell_setting 'monoclinic'
loop_
_space_group_symop_operation_xyz
x,y,z
-x,y,-z
1/2+x,1/2+y,z
1/2-x,1/2+y,-z
loop_
_atom_site_type_symbol
_atom_site_label
_atom_site_fract_x
_atom_site_fract_y
_atom_site_fract_z
Si Si1 0.212720 0.888220 0.992107
Si Si2 0.342012 0.382422 0.208952
Si Si3 0.609655 0.570073 0.424969
Si Si4 0.419401 0.886746 0.354508
Si Si5 0.316821 0.757591 0.685138
Si Si6 0.457282 0.269344 0.872605
O O1 0.215033 0.667012 0.913932
O O2 0.080768 0.870890 0.926800
O O3 0.293442 0.615705 0.094107
O O4 0.491519 0.374805 0.310063
O O5 0.333324 0.623492 0.268603
O O6 0.331878 0.137931 0.263557
O O7 0.534955 0.834536 0.390565
O O8 0.670949 0.640421 0.393807
O O9 0.692300 0.441474 0.564483
O O10 0.500000 0.911370 0.500000
O O11 0.347790 0.490645 0.762527
O O12 0.419678 0.978750 0.803614
O O13 0.500000 0.248858 0.000000
#
# Coordination Sequence:
#
# PCOD9125144 Si02
#       6
#     4   4   4   4   4   4
#     4  12  25  47  72  97 129 193 247 276 334 418
#     4  10  22  42  64  97 135 173 226 286 336 408
#     4  10  25  39  73 106 127 181 228 281 353 418
#     4  10  21  40  61  95 141 169 205 275 349 403
#     4  12  24  44  76 102 141 179 235 284 360 427
#     4  12  27  50  69 107 148 186 231 305 350 409
#
# _framework density 27.156009999999998
#
# number of rings (size 3 to 8) (size 9 to 14) (size 15 to 20)
#    1.000    0.000    1.667    5.000    4.667    0.000 
#    9.000    0.000    0.000    0.000    0.000    0.000 
#    0.000    0.000    0.000    0.000    0.000    0.000 
#
# Total GULP energy -66933.565561 kJ/mol
# GULP energy per Si atom -5577.797130 kJ/mol
# Density = 2.709420 g / cm^3
# Si number density = 27.156010 Si / 1000 Ang^3
#
#
#
# Elastic Constant Matrix: (Units=GPa)
#
#
# Indices 1 2 3 4 5 6 
#
# 1 74.3508 21.0663 29.7846 -0.0005 -11.7504 0.0001
# 2 21.0663 292.8393 79.9432 -0.0012 -11.5653 0.0011
# 3 29.7846 79.9432 221.0488 -0.0001 -44.2234 0.0007
# 4 -0.0005 -0.0012 -0.0001 61.0946 -0.0003 15.2409
# 5 -11.7504 -11.5653 -44.2234 -0.0003 49.6267 0.0001
# 6 0.0001 0.0011 0.0007 15.2409 0.0001 38.3862
#
#
#
# Elastic Compliance Matrix: (Units=1/GPa)
#
#
# Indices 1 2 3 4 5 6 
#
# 1 0.014480 -0.000600 -0.001309 0.000000 0.002122 0.000000
# 2 -0.000600 0.003821 -0.001401 0.000000 -0.000500 0.000000
# 3 -0.001309 -0.001401 0.006182 0.000000 0.004872 0.000000
# 4 0.000000 0.000000 0.000000 0.018167 0.000000 -0.007213
# 5 0.002122 -0.000500 0.004872 0.000000 0.024878 0.000000
# 6 0.000000 0.000000 0.000000 -0.007213 0.000000 0.028915
#
#
# Mechanical properties :
#
#
# Convention : Reuss Voigt Hill
#
# Bulk Modulus (GPa) = 55.98908 94.42524 75.20716
# Shear Modulus (GPa) = 45.86414 60.31781 53.09098
#
# Velocity S-wave (km/s) = 4.11410 4.71803 4.42638
# Velocity P-wave (km/s) = 6.57496 8.03285 7.34019
#
# Compressibility (1/GPa) = 0.01786063
#
# Stress axis : x y z
#
# Youngs Moduli (GPa) = 69.06207 261.73017 161.76760
#
# Poissons Ratio (x) = 0.15714 0.21182
# Poissons Ratio (y) = 0.04146 0.22663
# Poissons Ratio (z) = 0.09043 0.36667
#
# Static dielectric constant tensor:
#      x y z
#    x 1.737870 0.000000 -0.004660 
#    y 0.000000 2.208110 0.000000 
#    z -0.004660 0.000000 2.119350 
# 
# From -- ./inp_files/63180.got.cif
#   From: 2010.05.17/outbox.cif.g08.bks.cpg/sg5_32_cif.got.tgz:63180.got - 2010.06.03 18:56:24.
