data_PCOD9125705
_publ_section_title
;
Structure prediction by ZEFSAII (Michael W. Deem and Ramdas Pophale) SiO2 
 PCOD9125705
Probable space group: C 2
;
_chemical_formula_sum "Si O2"
_cell_formula_units_Z 26
_cell_length_a 22.104214
_cell_length_b 10.357298
_cell_length_c 7.670416
_cell_angle_alpha 90.000000
_cell_angle_beta 131.745397
_cell_angle_gamma 90.000000
_cell_volume 1310.218818
_symmetry_space_group_name_H-M "C 2"
_symmetry_group_IT_number 5
_symmetry_cell_setting 'monoclinic'
loop_
_space_group_symop_operation_xyz
x,y,z
-x,y,-z
1/2+x,1/2+y,z
1/2-x,1/2+y,-z
loop_
_atom_site_type_symbol
_atom_site_label
_atom_site_fract_x
_atom_site_fract_y
_atom_site_fract_z
Si Si1 0.917337 0.151990 0.232472
Si Si2 0.220832 0.464209 0.145797
Si Si3 0.066487 0.629587 0.774070
Si Si4 0.000000 0.544454 0.000000
Si Si5 0.688544 0.722886 0.636814
Si Si6 0.327672 0.386922 0.027389
Si Si7 0.384959 0.812048 0.835862
O O1 0.855516 0.212241 0.258958
O O2 0.000000 0.130118 0.500000
O O3 0.876716 0.018534 0.086704
O O4 0.928403 0.242378 0.083024
O O5 0.260448 0.593367 0.295829
O O6 0.282409 0.411426 0.122446
O O7 0.200437 0.354799 0.245377
O O8 0.135014 0.516966 0.903583
O O9 0.112136 0.765618 0.842657
O O10 0.000000 0.607605 0.500000
O O11 0.018987 0.625666 0.865941
O O12 0.925790 0.444310 0.849631
O O13 0.626267 0.730953 0.359101
O O14 0.753020 0.840871 0.761793
#
# Coordination Sequence:
#
# PCOD9125705 Si02
#       7
#     4   4   4   2   4   4   4
#     4  11  23  40  64  92 127 164 210 258 315 375
#     4   9  21  40  59  95 121 159 215 255 309 376
#     4  10  22  42  65  88 125 166 206 257 317 368
#     4  10  24  40  58  98 120 158 220 252 306 386
#     4  10  22  39  62  89 127 160 210 258 314 372
#     4  10  21  43  62  92 125 166 207 262 314 371
#     4  11  22  38  64  91 125 166 210 256 316 369
#
# _framework density 19.844011999999999
#
# number of rings (size 3 to 8) (size 9 to 14) (size 15 to 20)
#    0.000    1.846    1.538    1.385    4.308    2.462 
#    8.308    2.308    0.000    0.000    0.000    0.000 
#    0.000    0.000    0.000    0.000    0.000    0.000 
#
# Total GULP energy -72477.405258 kJ/mol
# GULP energy per Si atom -5575.185020 kJ/mol
# Density = 1.979885 g / cm^3
# Si number density = 19.844012 Si / 1000 Ang^3
#
#
#
# Elastic Constant Matrix: (Units=GPa)
#
#
# Indices 1 2 3 4 5 6 
#
# 1 80.7561 37.9253 31.0199 0.0000 -0.6254 0.0000
# 2 37.9253 79.7533 31.0740 0.0000 -8.1993 0.0000
# 3 31.0199 31.0740 103.1531 0.0000 -5.9804 0.0000
# 4 0.0000 0.0000 0.0000 23.1413 0.0000 -5.7302
# 5 -0.6254 -8.1993 -5.9804 0.0000 22.0940 0.0000
# 6 0.0000 0.0000 0.0000 -5.7302 0.0000 35.9348
#
#
#
# Elastic Compliance Matrix: (Units=1/GPa)
#
#
# Indices 1 2 3 4 5 6 
#
# 1 0.016906 -0.007138 -0.003108 0.000000 -0.003012 0.000000
# 2 -0.007138 0.017610 -0.002836 0.000000 0.005566 0.000000
# 3 -0.003108 -0.002836 0.011599 0.000000 0.001999 0.000000
# 4 0.000000 0.000000 0.000000 0.044989 0.000000 0.007174
# 5 -0.003012 0.005566 0.001999 0.000000 0.047783 0.000000
# 6 0.000000 0.000000 0.000000 0.007174 0.000000 0.028972
#
#
# Mechanical properties :
#
#
# Convention : Reuss Voigt Hill
#
# Bulk Modulus (GPa) = 50.12193 51.52231 50.82212
# Shear Modulus (GPa) = 24.91618 27.14357 26.02987
#
# Velocity S-wave (km/s) = 3.54729 3.70245 3.62570
# Velocity P-wave (km/s) = 6.48772 6.65564 6.57222
#
# Compressibility (1/GPa) = 0.01995135
#
# Stress axis : x y z
#
# Youngs Moduli (GPa) = 59.15172 56.78591 86.21300
#
# Poissons Ratio (x) = 0.40533 0.26797
# Poissons Ratio (y) = 0.42221 0.24448
# Poissons Ratio (z) = 0.18386 0.16103
#
# Static dielectric constant tensor:
#      x y z
#    x 1.716700 0.000000 0.018870 
#    y 0.000000 1.708820 0.000000 
#    z 0.018870 0.000000 1.685690 
# 
# From -- ./inp_files/9622.got.cif
#   From: 2010.05.17/outbox.cif.g08.bks.cpg/sg5_5_cif.got.tgz:9622.got - 2010.06.03 18:56:24.
