data_PCOD9125614
_publ_section_title
;
Structure prediction by ZEFSAII (Michael W. Deem and Ramdas Pophale) SiO2 
 PCOD9125614
Probable space group: C 2
;
_chemical_formula_sum "Si O2"
_cell_formula_units_Z 32
_cell_length_a 31.523228
_cell_length_b 11.822569
_cell_length_c 9.325094
_cell_angle_alpha 90.000000
_cell_angle_beta 154.649826
_cell_angle_gamma 90.000000
_cell_volume 1487.959479
_symmetry_space_group_name_H-M "C 2"
_symmetry_group_IT_number 5
_symmetry_cell_setting 'monoclinic'
loop_
_space_group_symop_operation_xyz
x,y,z
-x,y,-z
1/2+x,1/2+y,z
1/2-x,1/2+y,-z
loop_
_atom_site_type_symbol
_atom_site_label
_atom_site_fract_x
_atom_site_fract_y
_atom_site_fract_z
Si Si1 0.383745 0.240700 0.022108
Si Si2 0.934389 0.007007 0.656237
Si Si3 0.688970 0.995520 0.234358
Si Si4 0.196936 0.220481 0.777094
Si Si5 0.883601 0.288342 0.165540
Si Si6 0.329046 0.824681 0.601002
Si Si7 0.906227 0.784557 0.417947
Si Si8 0.388786 0.615367 0.939558
O O1 0.400722 0.298210 0.228619
O O2 0.477963 0.255612 0.207620
O O3 0.368250 0.106559 0.993849
O O4 0.277533 0.290469 0.652642
O O5 0.854352 0.105187 0.430164
O O6 0.885346 0.893285 0.450255
O O7 0.000000 0.992928 0.000000
O O8 0.011099 0.045187 0.765785
O O9 0.799284 0.039541 0.606702
O O10 0.645783 0.943720 0.251287
O O11 0.676828 0.893199 0.085810
O O12 0.144471 0.266026 0.757783
O O13 0.183993 0.309840 0.607506
O O14 0.313783 0.202072 0.163704
O O15 0.000000 0.313949 0.500000
O O16 0.865599 0.172359 0.020892
O O17 0.401578 0.725775 0.876643
#
# Coordination Sequence:
#
# PCOD9125614 Si02
#       8
#     4   4   4   4   4   4   4   4
#     4   9  20  43  68  93 134 169 224 273 318 400
#     4  12  24  42  70  93 131 183 219 276 338 383
#     4  10  22  40  71  93 131 185 215 267 339 390
#     4  11  24  42  65  99 139 162 224 284 321 391
#     4  11  24  40  66 100 131 171 227 274 326 398
#     4   9  19  40  66 101 129 177 220 268 324 397
#     4  10  24  41  66  98 129 173 220 272 333 389
#     4  10  21  42  67  94 129 174 233 264 318 405
#
# _framework density 21.505960999999999
#
# number of rings (size 3 to 8) (size 9 to 14) (size 15 to 20)
#    0.000    1.750    2.500    0.750    3.500    4.000 
#    0.000    0.000    2.750    0.000    0.000    0.000 
#    0.000    0.000    0.000    0.000    0.000    0.000 
#
# Total GULP energy -89290.195344 kJ/mol
# GULP energy per Si atom -5580.637209 kJ/mol
# Density = 2.145701 g / cm^3
# Si number density = 21.505961 Si / 1000 Ang^3
#
#
#
# Elastic Constant Matrix: (Units=GPa)
#
#
# Indices 1 2 3 4 5 6 
#
# 1 106.5748 25.8816 26.9794 0.0000 -11.1550 0.0000
# 2 25.8816 85.5159 35.3284 0.0000 -16.0602 0.0000
# 3 26.9794 35.3284 80.8711 0.0000 -1.8815 0.0000
# 4 0.0000 0.0000 0.0000 34.8076 0.0000 -4.0675
# 5 -11.1550 -16.0602 -1.8815 0.0000 30.5828 0.0000
# 6 0.0000 0.0000 0.0000 -4.0675 0.0000 19.5274
#
#
#
# Elastic Compliance Matrix: (Units=1/GPa)
#
#
# Indices 1 2 3 4 5 6 
#
# 1 0.010788 -0.001527 -0.002863 0.000000 0.002957 0.000000
# 2 -0.001527 0.016221 -0.006401 0.000000 0.007568 0.000000
# 3 -0.002863 -0.006401 0.016037 0.000000 -0.003419 0.000000
# 4 0.000000 0.000000 0.000000 0.029446 0.000000 0.006134
# 5 0.002957 0.007568 -0.003419 0.000000 0.037541 0.000000
# 6 0.000000 0.000000 0.000000 0.006134 0.000000 0.052488
#
#
# Mechanical properties :
#
#
# Convention : Reuss Voigt Hill
#
# Bulk Modulus (GPa) = 46.58764 49.92672 48.25718
# Shear Modulus (GPa) = 26.14269 29.30171 27.72220
#
# Velocity S-wave (km/s) = 3.49033 3.69520 3.59423
# Velocity P-wave (km/s) = 6.16059 6.43985 6.30177
#
# Compressibility (1/GPa) = 0.02146492
#
# Stress axis : x y z
#
# Youngs Moduli (GPa) = 92.69374 61.64688 62.35501
#
# Poissons Ratio (x) = 0.09413 0.17854
# Poissons Ratio (y) = 0.14153 0.39912
# Poissons Ratio (z) = 0.26540 0.39459
#
# Static dielectric constant tensor:
#      x y z
#    x 1.799230 0.000000 0.022370 
#    y 0.000000 1.783150 0.000000 
#    z 0.022370 0.000000 1.838730 
# 
# From -- ./inp_files/32653.got.cif
#   From: 2010.05.17/outbox.cif.g08.bks.cpg/sg5_17_cif.got.tgz:32653.got - 2010.06.03 18:56:24.
