data_PCOD9125486
_publ_section_title
;
Structure prediction by ZEFSAII (Michael W. Deem and Ramdas Pophale) SiO2 
 PCOD9125486
Probable space group: C 2
;
_chemical_formula_sum "Si O2"
_cell_formula_units_Z 32
_cell_length_a 11.961510
_cell_length_b 15.475677
_cell_length_c 14.307152
_cell_angle_alpha 90.000000
_cell_angle_beta 30.977362
_cell_angle_gamma 90.000000
_cell_volume 1363.146350
_symmetry_space_group_name_H-M "C 2"
_symmetry_group_IT_number 5
_symmetry_cell_setting 'monoclinic'
loop_
_space_group_symop_operation_xyz
x,y,z
-x,y,-z
1/2+x,1/2+y,z
1/2-x,1/2+y,-z
loop_
_atom_site_type_symbol
_atom_site_label
_atom_site_fract_x
_atom_site_fract_y
_atom_site_fract_z
Si Si1 0.173933 0.303250 0.291294
Si Si2 0.450322 0.470988 0.263671
Si Si3 0.171208 0.215618 0.588471
Si Si4 0.557279 0.989251 0.064907
Si Si5 0.230762 0.000630 0.795757
Si Si6 0.493964 0.272161 0.805609
Si Si7 0.982474 0.279796 0.902217
Si Si8 0.343264 0.040507 0.401571
O O1 0.242595 0.397462 0.205566
O O2 0.367501 0.249067 0.201360
O O3 0.000000 0.318664 0.500000
O O4 0.043759 0.255228 0.304426
O O5 0.292506 0.511367 0.298470
O O6 0.503564 0.375560 0.188969
O O7 0.304156 0.459772 0.461002
O O8 0.688887 0.510722 0.101352
O O9 0.374458 0.250321 0.382630
O O10 0.186511 0.115578 0.550369
O O11 0.161466 0.239781 0.704351
O O12 0.521269 0.885044 0.103949
O O13 0.408626 0.037016 0.247395
O O14 0.500000 0.009862 0.000000
O O15 0.432267 0.043380 0.702493
O O16 0.000000 0.030101 0.000000
O O17 0.248811 0.243401 0.968049
O O18 0.000000 0.260903 0.000000
#
# Coordination Sequence:
#
# PCOD9125486 Si02
#       8
#     4   4   4   4   4   4   4   4
#     4   9  19  38  67 100 127 164 232 292 344 395
#     4  10  21  41  69 100 127 174 234 296 344 393
#     4  11  24  40  62  95 142 180 210 276 356 422
#     4  10  22  43  70 100 132 179 236 284 334 410
#     4  11  20  38  72 102 127 169 234 300 340 390
#     4   9  20  41  68  95 128 167 234 294 338 391
#     4  10  22  42  68  98 130 178 236 277 332 407
#     4  12  24  41  63  98 145 178 217 277 361 430
#
# _framework density 23.475103000000001
#
# number of rings (size 3 to 8) (size 9 to 14) (size 15 to 20)
#    0.000    1.750    1.250    4.125    3.500    2.000 
#   11.250    3.750    0.000    0.000    0.000    0.000 
#    0.000    0.000    0.000    0.000    0.000    0.000 
#
# Total GULP energy -89417.011414 kJ/mol
# GULP energy per Si atom -5588.563213 kJ/mol
# Density = 2.342167 g / cm^3
# Si number density = 23.475103 Si / 1000 Ang^3
#
#
#
# Elastic Constant Matrix: (Units=GPa)
#
#
# Indices 1 2 3 4 5 6 
#
# 1 78.8284 25.1763 44.2916 -0.0047 32.0689 -0.0012
# 2 25.1763 33.4902 13.5934 -0.0006 1.8302 -0.0006
# 3 44.2916 13.5934 115.4313 -0.0231 28.0852 0.0066
# 4 -0.0047 -0.0006 -0.0231 2.7153 0.0116 11.8060
# 5 32.0689 1.8302 28.0852 0.0116 40.5169 -0.0034
# 6 -0.0012 -0.0006 0.0066 11.8060 -0.0034 8.8109
#
#
#
# Elastic Compliance Matrix: (Units=1/GPa)
#
#
# Indices 1 2 3 4 5 6 
#
# 1 0.028855 -0.018945 -0.004201 -0.000020 -0.019071 0.000026
# 2 -0.018945 0.043860 -0.001278 0.000025 0.013899 -0.000027
# 3 -0.004201 -0.001278 0.011550 -0.000033 -0.004624 0.000033
# 4 -0.000020 0.000025 -0.000033 -0.076313 0.000068 0.102254
# 5 -0.019071 0.013899 -0.004624 0.000068 0.042353 -0.000073
# 6 0.000026 -0.000027 0.000033 0.102254 -0.000073 -0.023518
#
#
# Mechanical properties :
#
#
# Convention : Reuss Voigt Hill
#
# Bulk Modulus (GPa) = 28.23289 43.76361 35.99825
# Shear Modulus (GPa) = 57.18186 20.05454 38.61820
#
# Velocity S-wave (km/s) = 4.94079 2.92599 4.06035
# Velocity P-wave (km/s) = 6.67843 5.48619 6.11145
#
# Compressibility (1/GPa) = 0.03541968
#
# Stress axis : x y z
#
# Youngs Moduli (GPa) = 34.65599 22.79980 86.57652
#
# Poissons Ratio (x) = 0.43193 0.36369
# Poissons Ratio (y) = 0.65654 0.11061
# Poissons Ratio (z) = 0.14558 0.02913
#
# Static dielectric constant tensor:
#      x y z
#    x 1.920180 0.000000 0.031740 
#    y 0.000000 2.081110 0.000010 
#    z 0.031740 0.000010 1.910300 
# 
# From -- ./inp_files/53446.got.cif
#   From: 2010.05.17/outbox.cif.g08.bks.cpg/sg5_27_cif.got.tgz:53446.got - 2010.06.03 18:56:24.
