data_PCOD9125512
_publ_section_title
;
Structure prediction by ZEFSAII (Michael W. Deem and Ramdas Pophale) SiO2 
 PCOD9125512
Probable space group: C 2
;
_chemical_formula_sum "Si O2"
_cell_formula_units_Z 22
_cell_length_a 15.945667
_cell_length_b 7.366190
_cell_length_c 13.697330
_cell_angle_alpha 90.000000
_cell_angle_beta 35.839531
_cell_angle_gamma 90.000000
_cell_volume 942.022180
_symmetry_space_group_name_H-M "C 2"
_symmetry_group_IT_number 5
_symmetry_cell_setting 'monoclinic'
loop_
_space_group_symop_operation_xyz
x,y,z
-x,y,-z
1/2+x,1/2+y,z
1/2-x,1/2+y,-z
loop_
_atom_site_type_symbol
_atom_site_label
_atom_site_fract_x
_atom_site_fract_y
_atom_site_fract_z
Si Si1 0.240579 0.716220 0.169816
Si Si2 0.327714 0.311049 0.551138
Si Si3 0.960116 0.816427 0.802531
Si Si4 0.513829 0.714798 0.811433
Si Si5 0.698776 0.799178 0.163387
Si Si6 0.500000 0.612607 0.500000
O O1 0.180211 0.716112 0.335601
O O2 0.156003 0.849228 0.175927
O O3 0.220546 0.514296 0.148865
O O4 0.407844 0.754779 0.001419
O O5 0.416168 0.221861 0.378477
O O6 0.413482 0.492774 0.501154
O O7 0.163023 0.317774 0.675334
O O8 0.030914 0.995833 0.783175
O O9 0.856406 0.726842 0.981594
O O10 0.417767 0.764774 0.809633
O O11 0.625671 0.725104 0.329556
#
# Coordination Sequence:
#
# PCOD9125512 Si02
#       6
#     4   4   4   4   4   2
#     4  10  21  41  70  97 128 176 213 264 329 391
#     4  12  22  41  67  98 132 171 217 268 324 379
#     4  10  21  43  66  95 130 170 214 263 327 388
#     4  10  22  42  67  96 133 168 216 270 320 388
#     4  10  23  43  69  94 129 174 218 264 328 391
#     4  12  24  44  66  96 134 176 216 268 322 396
#
# _framework density 23.354015
#
# number of rings (size 3 to 8) (size 9 to 14) (size 15 to 20)
#    0.000    1.455    3.636    0.545    2.545    1.455 
#    0.000    1.818    0.000    0.000    0.000    0.000 
#    0.000    0.000    0.000    0.000    0.000    0.000 
#
# Total GULP energy -61345.430524 kJ/mol
# GULP energy per Si atom -5576.857320 kJ/mol
# Density = 2.330086 g / cm^3
# Si number density = 23.354015 Si / 1000 Ang^3
#
#
#
# Elastic Constant Matrix: (Units=GPa)
#
#
# Indices 1 2 3 4 5 6 
#
# 1 33.5666 18.4976 29.8042 0.0000 -16.5205 0.0000
# 2 18.4976 48.0373 36.6190 0.0000 0.5692 0.0000
# 3 29.8042 36.6190 244.4500 0.0000 -3.7556 0.0000
# 4 0.0000 0.0000 0.0000 34.7278 0.0000 8.7733
# 5 -16.5205 0.5692 -3.7556 0.0000 42.5265 0.0000
# 6 0.0000 0.0000 0.0000 8.7733 0.0000 4.4039
#
#
#
# Elastic Compliance Matrix: (Units=1/GPa)
#
#
# Indices 1 2 3 4 5 6 
#
# 1 0.052799 -0.017956 -0.003433 0.000000 0.020448 0.000000
# 2 -0.017956 0.029624 -0.002365 0.000000 -0.007581 0.000000
# 3 -0.003433 -0.002365 0.004850 0.000000 -0.000874 0.000000
# 4 0.000000 0.000000 0.000000 0.057971 0.000000 -0.115487
# 5 0.020448 -0.007581 -0.000874 0.000000 0.031483 0.000000
# 6 0.000000 0.000000 0.000000 -0.115487 0.000000 0.457137
#
#
# Mechanical properties :
#
#
# Convention : Reuss Voigt Hill
#
# Bulk Modulus (GPa) = 25.14805 55.09949 40.12377
# Shear Modulus (GPa) = 7.19809 32.40721 19.80265
#
# Velocity S-wave (km/s) = 1.75751 3.72916 2.91509
# Velocity P-wave (km/s) = 3.86135 6.49512 5.34306
#
# Compressibility (1/GPa) = 0.03976452
#
# Stress axis : x y z
#
# Youngs Moduli (GPa) = 18.93963 33.75629 206.17381
#
# Poissons Ratio (x) = 0.60614 0.70789
# Poissons Ratio (y) = 0.34008 0.48758
# Poissons Ratio (z) = 0.06503 0.07983
#
# Static dielectric constant tensor:
#      x y z
#    x 1.862540 0.000000 0.044180 
#    y 0.000000 1.912450 0.000000 
#    z 0.044180 0.000000 1.987570 
# 
# From -- ./inp_files/26427.got.cif
#   From: 2010.05.17/outbox.cif.g08.bks.cpg/sg5_14_cif.got.tgz:26427.got - 2010.06.03 18:56:24.
