data_PCOD9125120
_publ_section_title
;
Structure prediction by ZEFSAII (Michael W. Deem and Ramdas Pophale) SiO2 
 PCOD9125120
Probable space group: C 2
;
_chemical_formula_sum "Si O2"
_cell_formula_units_Z 28
_cell_length_a 23.279733
_cell_length_b 11.098206
_cell_length_c 11.979862
_cell_angle_alpha 90.000000
_cell_angle_beta 23.892340
_cell_angle_gamma 90.000000
_cell_volume 1253.598227
_symmetry_space_group_name_H-M "C 2"
_symmetry_group_IT_number 5
_symmetry_cell_setting 'monoclinic'
loop_
_space_group_symop_operation_xyz
x,y,z
-x,y,-z
1/2+x,1/2+y,z
1/2-x,1/2+y,-z
loop_
_atom_site_type_symbol
_atom_site_label
_atom_site_fract_x
_atom_site_fract_y
_atom_site_fract_z
Si Si1 0.658749 0.449030 0.768119
Si Si2 0.737891 0.458840 0.380606
Si Si3 0.947261 0.069943 0.844895
Si Si4 0.586922 0.198369 0.959506
Si Si5 0.000188 0.597277 0.327272
Si Si6 0.264476 0.156661 0.929215
Si Si7 0.088148 0.332551 0.115118
O O1 0.750534 0.442881 0.492307
O O2 0.667196 0.324296 0.819396
O O3 0.500000 0.463210 0.000000
O O4 0.662045 0.550110 0.857535
O O5 0.574719 0.477234 0.633734
O O6 0.810339 0.585770 0.225800
O O7 0.818805 0.364434 0.159258
O O8 0.860611 0.063894 0.883260
O O9 0.996878 0.209670 0.760369
O O10 0.500000 0.200414 0.000000
O O11 0.481371 0.173103 0.248516
O O12 0.157332 0.633922 0.094234
O O13 0.886265 0.633922 0.621087
O O14 0.004919 0.453587 0.295665
O O15 0.191729 0.285581 0.031289
#
# Coordination Sequence:
#
# PCOD9125120 Si02
#       7
#     4   4   4   4   4   4   4
#     4   9  20  34  58  87 120 161 204 252 296 382
#     4  10  21  40  59  89 130 159 207 254 309 367
#     4   9  21  39  59  90 118 167 199 250 317 350
#     4  10  23  37  61  89 124 162 208 259 304 374
#     4  10  21  43  62  96 119 163 215 247 315 368
#     4   9  22  40  68  85 126 163 198 265 303 366
#     4   9  22  41  62  90 130 153 211 257 293 385
#
# _framework density 22.335704
#
# number of rings (size 3 to 8) (size 9 to 14) (size 15 to 20)
#    0.857    1.714    0.000    0.000   10.000    2.286 
#    5.143    7.143    0.000    0.000    0.000    0.000 
#    0.000    0.000    0.000    0.000    0.000    0.000 
#
# Total GULP energy -78016.820217 kJ/mol
# GULP energy per Si atom -5572.630016 kJ/mol
# Density = 2.228487 g / cm^3
# Si number density = 22.335704 Si / 1000 Ang^3
#
#
#
# Elastic Constant Matrix: (Units=GPa)
#
#
# Indices 1 2 3 4 5 6 
#
# 1 56.7358 3.4261 -11.6097 0.0000 3.5979 0.0000
# 2 3.4261 83.8352 -2.2043 0.0000 4.9153 0.0000
# 3 -11.6097 -2.2043 33.4372 0.0000 2.7607 0.0000
# 4 0.0000 0.0000 0.0000 16.7290 0.0000 -0.1791
# 5 3.5979 4.9153 2.7607 0.0000 25.1283 0.0000
# 6 0.0000 0.0000 0.0000 -0.1791 0.0000 30.3863
#
#
#
# Elastic Compliance Matrix: (Units=1/GPa)
#
#
# Indices 1 2 3 4 5 6 
#
# 1 0.019292 -0.000403 0.006956 0.000000 -0.003448 0.000000
# 2 -0.000403 0.012108 0.000857 0.000000 -0.002405 0.000000
# 3 0.006956 0.000857 0.032772 0.000000 -0.004764 0.000000
# 4 0.000000 0.000000 0.000000 0.059780 0.000000 0.000352
# 5 -0.003448 -0.002405 -0.004764 0.000000 0.041283 0.000000
# 6 0.000000 0.000000 0.000000 0.000352 0.000000 0.032912
#
#
# Mechanical properties :
#
#
# Convention : Reuss Voigt Hill
#
# Bulk Modulus (GPa) = 12.65958 17.02583 14.84270
# Shear Modulus (GPa) = 23.84836 26.74180 25.29508
#
# Velocity S-wave (km/s) = 3.27115 3.46391 3.36891
# Velocity P-wave (km/s) = 4.46625 4.86184 4.66824
#
# Compressibility (1/GPa) = 0.07899153
#
# Stress axis : x y z
#
# Youngs Moduli (GPa) = 51.83494 82.58887 30.51395
#
# Poissons Ratio (x) = 0.03331 -0.21227
# Poissons Ratio (y) = 0.02091 -0.02614
# Poissons Ratio (z) = -0.36058 -0.07075
#
# Static dielectric constant tensor:
#      x y z
#    x 1.865930 0.000000 -0.018710 
#    y 0.000000 1.821600 0.000000 
#    z -0.018710 0.000000 1.910780 
# 
# From -- ./inp_files/47436.got.cif
#   From: 2010.05.17/outbox.cif.g08.bks.cpg/sg5_24_cif.got.tgz:47436.got - 2010.06.03 18:56:24.
