data_PCOD9125730
_publ_section_title
;
Structure prediction by ZEFSAII (Michael W. Deem and Ramdas Pophale) SiO2 
 PCOD9125730
Probable space group: C 2
;
_chemical_formula_sum "Si O2"
_cell_formula_units_Z 32
_cell_length_a 23.802930
_cell_length_b 16.714675
_cell_length_c 9.027453
_cell_angle_alpha 90.000000
_cell_angle_beta 27.476760
_cell_angle_gamma 90.000000
_cell_volume 1657.145460
_symmetry_space_group_name_H-M "C 2"
_symmetry_group_IT_number 5
_symmetry_cell_setting 'monoclinic'
loop_
_space_group_symop_operation_xyz
x,y,z
-x,y,-z
1/2+x,1/2+y,z
1/2-x,1/2+y,-z
loop_
_atom_site_type_symbol
_atom_site_label
_atom_site_fract_x
_atom_site_fract_y
_atom_site_fract_z
Si Si1 0.697761 0.610770 0.297407
Si Si2 0.957490 0.033053 0.772150
Si Si3 0.009854 0.852912 0.297737
Si Si4 0.898374 0.471054 0.858124
Si Si5 0.239362 0.819472 0.310899
Si Si6 0.185885 0.728370 0.743287
Si Si7 0.765662 0.155774 0.123937
Si Si8 0.508571 0.091893 0.826121
O O1 0.563671 0.573520 0.618793
O O2 0.722229 0.675673 0.369653
O O3 0.792628 0.536042 0.064999
O O4 0.712891 0.649672 0.100693
O O5 0.000000 0.030741 0.500000
O O6 0.840713 0.089217 0.038792
O O7 0.942271 0.941560 0.855019
O O8 0.886267 0.837418 0.489357
O O9 0.000000 0.850909 0.500000
O O10 0.108087 0.786350 0.029068
O O11 0.000000 0.444805 0.500000
O O12 0.977718 0.525711 0.779732
O O13 0.825525 0.396614 0.097616
O O14 0.220525 0.783637 0.521087
O O15 0.301599 0.744388 0.085438
O O16 0.093660 0.659189 0.908106
O O17 0.626900 0.138126 0.492438
O O18 0.500000 0.045925 0.000000
#
# Coordination Sequence:
#
# PCOD9125730 Si02
#       8
#     4   4   4   4   4   4   4   4
#     4  10  21  43  66  96 127 173 228 267 326 411
#     4   9  21  39  63  95 128 164 213 274 332 389
#     4  11  21  38  66  99 125 168 223 276 324 394
#     4  11  24  40  69  98 129 172 224 280 341 395
#     4  12  24  43  61  99 139 169 216 282 341 396
#     4  11  23  38  65  97 131 173 225 269 336 397
#     4  11  21  40  68  92 133 172 221 275 330 399
#     4  11  21  40  66  96 130 174 226 272 331 401
#
# _framework density 19.310313000000001
#
# number of rings (size 3 to 8) (size 9 to 14) (size 15 to 20)
#    0.000    1.250    5.000    1.125    0.000    2.500 
#    0.000    4.375    0.000    0.000    0.000    0.000 
#    0.000    0.000    0.000    0.000    0.000    0.000 
#
# Total GULP energy -89119.486644 kJ/mol
# GULP energy per Si atom -5569.967915 kJ/mol
# Density = 1.926636 g / cm^3
# Si number density = 19.310313 Si / 1000 Ang^3
#
#
#
# Elastic Constant Matrix: (Units=GPa)
#
#
# Indices 1 2 3 4 5 6 
#
# 1 72.3252 31.2274 29.3958 0.0000 -1.8253 0.0000
# 2 31.2274 127.5725 39.0221 0.0000 5.0440 0.0000
# 3 29.3958 39.0221 42.8359 0.0000 5.1132 0.0000
# 4 0.0000 0.0000 0.0000 22.1885 0.0000 4.3298
# 5 -1.8253 5.0440 5.1132 0.0000 17.7787 0.0000
# 6 0.0000 0.0000 0.0000 4.3298 0.0000 -20.3338
#
#
#
# Elastic Compliance Matrix: (Units=1/GPa)
#
#
# Indices 1 2 3 4 5 6 
#
# 1 0.019893 -0.000988 -0.013492 0.000000 0.006203 0.000000
# 2 -0.000988 0.010917 -0.009201 0.000000 -0.000552 0.000000
# 3 -0.013492 -0.009201 0.042291 0.000000 -0.010938 0.000000
# 4 0.000000 0.000000 0.000000 0.043270 0.000000 0.009214
# 5 0.006203 -0.000552 -0.010938 0.000000 0.060186 0.000000
# 6 0.000000 0.000000 0.000000 0.009214 0.000000 -0.047217
#
#
# Mechanical properties :
#
#
# Convention : Reuss Voigt Hill
#
# Bulk Modulus (GPa) = 38.85112 49.11380 43.98246
# Shear Modulus (GPa) = 26.98587 13.46591 20.22589
#
# Velocity S-wave (km/s) = 3.74235 2.64359 3.23989
# Velocity P-wave (km/s) = 6.23190 5.89977 6.06811
#
# Compressibility (1/GPa) = 0.02573928
#
# Stress axis : x y z
#
# Youngs Moduli (GPa) = 50.26843 91.60271 23.64560
#
# Poissons Ratio (x) = 0.09048 0.31903
# Poissons Ratio (y) = 0.04965 0.21756
# Poissons Ratio (z) = 0.67823 0.84284
#
# Static dielectric constant tensor:
#      x y z
#    x 1.792270 0.000000 0.026580 
#    y 0.000000 1.648750 0.000000 
#    z 0.026580 0.000000 1.714480 
# 
# From -- ./inp_files/31037.got.cif
#   From: 2010.05.17/outbox.cif.g08.bks.cpg/sg5_16_cif.got.tgz:31037.got - 2010.06.03 18:56:24.
