data_PCOD9125037
_publ_section_title
;
Structure prediction by ZEFSAII (Michael W. Deem and Ramdas Pophale) SiO2 
 PCOD9125037
Probable space group: C 2
;
_chemical_formula_sum "Si O2"
_cell_formula_units_Z 28
_cell_length_a 18.235536
_cell_length_b 9.281001
_cell_length_c 16.997765
_cell_angle_alpha 90.000000
_cell_angle_beta 151.548759
_cell_angle_gamma 90.000000
_cell_volume 1370.524139
_symmetry_space_group_name_H-M "C 2"
_symmetry_group_IT_number 5
_symmetry_cell_setting 'monoclinic'
loop_
_space_group_symop_operation_xyz
x,y,z
-x,y,-z
1/2+x,1/2+y,z
1/2-x,1/2+y,-z
loop_
_atom_site_type_symbol
_atom_site_label
_atom_site_fract_x
_atom_site_fract_y
_atom_site_fract_z
Si Si1 0.370631 0.740000 0.609916
Si Si2 0.930820 0.440300 0.048915
Si Si3 0.900251 0.134123 0.034751
Si Si4 0.235321 0.709317 0.167788
Si Si5 0.783694 0.955710 0.430486
Si Si6 0.646818 0.923082 0.845262
Si Si7 0.500000 0.421117 0.000000
Si Si8 0.000000 0.036784 0.500000
O O1 0.494257 0.672787 0.789578
O O2 0.230520 0.820882 0.522562
O O3 0.318122 0.607806 0.506396
O O4 0.469923 0.870969 0.663567
O O5 0.890025 0.283554 0.977701
O O6 0.846385 0.439289 0.054481
O O7 0.111737 0.457768 0.233330
O O8 0.871844 0.573252 0.945520
O O9 0.732947 0.065697 0.894941
O O10 0.988881 0.018643 0.066159
O O11 0.261726 0.792531 0.110318
O O12 0.388658 0.643016 0.347220
O O13 0.150691 0.821924 0.144091
O O14 0.905028 0.944877 0.474196
#
# Coordination Sequence:
#
# PCOD9125037 Si02
#       8
#     4   4   4   4   4   4   2   2
#     4  10  21  41  62  95 130 172 219 270 325 392
#     4  10  21  39  65  92 126 163 219 266 323 383
#     4   9  20  37  64  89 127 163 216 269 321 383
#     4  11  22  39  62  93 127 169 219 258 331 391
#     4  10  23  40  64  90 134 171 219 269 329 383
#     4   9  18  37  61  92 119 159 216 265 309 373
#     4  10  22  38  60  92 120 172 214 266 334 388
#     4  12  24  40  60  96 134 172 208 276 320 400
#
# _framework density 20.430140999999999
#
# number of rings (size 3 to 8) (size 9 to 14) (size 15 to 20)
#    0.000    2.286    1.429    2.571    0.000    6.286 
#    5.143    0.000    0.000    3.429    0.000    0.000 
#    0.000    0.000    0.000    0.000    0.000    0.000 
#
# Total GULP energy -78020.430627 kJ/mol
# GULP energy per Si atom -5572.887902 kJ/mol
# Density = 2.038364 g / cm^3
# Si number density = 20.430141 Si / 1000 Ang^3
#
#
#
# Elastic Constant Matrix: (Units=GPa)
#
#
# Indices 1 2 3 4 5 6 
#
# 1 131.0669 55.3961 22.9600 0.0000 31.2189 0.0000
# 2 55.3961 97.5829 14.3677 0.0000 16.7591 0.0000
# 3 22.9600 14.3677 32.0005 0.0000 13.9979 0.0000
# 4 0.0000 0.0000 0.0000 34.1043 0.0000 9.0581
# 5 31.2189 16.7591 13.9979 0.0000 21.8403 0.0000
# 6 0.0000 0.0000 0.0000 9.0581 0.0000 24.3031
#
#
#
# Elastic Compliance Matrix: (Units=1/GPa)
#
#
# Indices 1 2 3 4 5 6 
#
# 1 0.013394 -0.004930 -0.000940 0.000000 -0.014760 0.000000
# 2 -0.004930 0.013698 -0.001525 0.000000 -0.002486 0.000000
# 3 -0.000940 -0.001525 0.043784 0.000000 -0.025548 0.000000
# 4 0.000000 0.000000 0.000000 0.032543 0.000000 -0.012129
# 5 -0.014760 -0.002486 -0.025548 0.000000 0.085167 0.000000
# 6 0.000000 0.000000 0.000000 -0.012129 0.000000 0.045668
#
#
# Mechanical properties :
#
#
# Convention : Reuss Voigt Hill
#
# Bulk Modulus (GPa) = 17.83010 49.56644 33.69827
# Shear Modulus (GPa) = 18.67487 27.24463 22.95975
#
# Velocity S-wave (km/s) = 3.02666 3.65574 3.35598
# Velocity P-wave (km/s) = 4.57827 6.49102 5.61667
#
# Compressibility (1/GPa) = 0.05608492
#
# Stress axis : x y z
#
# Youngs Moduli (GPa) = 74.66201 73.00319 22.83933
#
# Poissons Ratio (x) = 0.35991 0.02147
# Poissons Ratio (y) = 0.36809 0.03484
# Poissons Ratio (z) = 0.07019 0.11135
#
# Static dielectric constant tensor:
#      x y z
#    x 1.794980 0.000000 -0.000760 
#    y 0.000000 1.741020 0.000000 
#    z -0.000760 0.000000 1.719920 
# 
# From -- ./inp_files/62262.got.cif
#   From: 2010.05.17/outbox.cif.g08.bks.cpg/sg5_32_cif.got.tgz:62262.got - 2010.06.03 18:56:24.
