data_PCOD9125317
_publ_section_title
;
Structure prediction by ZEFSAII (Michael W. Deem and Ramdas Pophale) SiO2 
 PCOD9125317
Probable space group: C 2
;
_chemical_formula_sum "Si O2"
_cell_formula_units_Z 24
_cell_length_a 29.176038
_cell_length_b 5.435823
_cell_length_c 12.595391
_cell_angle_alpha 90.000000
_cell_angle_beta 153.665879
_cell_angle_gamma 90.000000
_cell_volume 886.134613
_symmetry_space_group_name_H-M "C 2"
_symmetry_group_IT_number 5
_symmetry_cell_setting 'monoclinic'
loop_
_space_group_symop_operation_xyz
x,y,z
-x,y,-z
1/2+x,1/2+y,z
1/2-x,1/2+y,-z
loop_
_atom_site_type_symbol
_atom_site_label
_atom_site_fract_x
_atom_site_fract_y
_atom_site_fract_z
Si Si1 0.689036 0.061350 0.247222
Si Si2 0.743067 0.642504 0.054690
Si Si3 0.926961 0.635995 0.609957
Si Si4 0.628076 0.641665 0.487073
Si Si5 0.887857 0.061792 0.820195
Si Si6 0.970105 0.327491 0.320308
O O1 0.897207 0.402694 0.619513
O O2 0.623480 0.297267 0.145655
O O3 0.749926 0.104780 0.262742
O O4 0.634883 0.797804 0.150809
O O5 0.633562 0.674547 0.886290
O O6 0.745424 0.386506 0.994743
O O7 0.835556 0.642834 0.331962
O O8 0.921081 0.890670 0.654794
O O9 0.709818 0.564031 0.464145
O O10 0.028549 0.560109 0.756110
O O11 0.565806 0.673563 0.468981
O O12 0.000000 0.094588 0.000000
O O13 0.000000 0.408928 0.500000
#
# Coordination Sequence:
#
# PCOD9125317 Si02
#       6
#     4   4   4   4   4   4
#     4  10  21  41  63  96 130 158 201 256 298 376
#     4  12  23  38  62  86 113 157 219 266 307 365
#     4  10  22  39  56  86 118 161 206 251 315 353
#     4  10  22  41  60  86 131 160 200 258 316 347
#     4  10  21  40  70  94 124 163 202 242 310 376
#     4  10  22  40  60  83 121 164 209 258 302 357
#
# _framework density 27.083919999999999
#
# number of rings (size 3 to 8) (size 9 to 14) (size 15 to 20)
#    1.000    0.667    1.667    3.500    2.333    0.667 
#    6.000    0.000    0.000    0.000    0.000    0.000 
#    0.000    0.000    0.000    0.000    0.000    0.000 
#
# Total GULP energy -67147.647166 kJ/mol
# GULP energy per Si atom -5595.637264 kJ/mol
# Density = 2.702228 g / cm^3
# Si number density = 27.083920 Si / 1000 Ang^3
#
#
#
# Elastic Constant Matrix: (Units=GPa)
#
#
# Indices 1 2 3 4 5 6 
#
# 1 105.1949 70.2300 54.8574 0.0000 43.5250 0.0000
# 2 70.2300 256.7747 35.7297 0.0000 27.4331 0.0000
# 3 54.8574 35.7297 135.9632 0.0000 23.9452 0.0000
# 4 0.0000 0.0000 0.0000 31.5206 0.0000 14.3613
# 5 43.5250 27.4331 23.9452 0.0000 71.6719 0.0000
# 6 0.0000 0.0000 0.0000 14.3613 0.0000 47.5727
#
#
#
# Elastic Compliance Matrix: (Units=1/GPa)
#
#
# Indices 1 2 3 4 5 6 
#
# 1 0.017369 -0.003261 -0.004795 0.000000 -0.007698 0.000000
# 2 -0.003261 0.004766 0.000038 0.000000 0.000143 0.000000
# 3 -0.004795 0.000038 0.009318 0.000000 -0.000215 0.000000
# 4 0.000000 0.000000 0.000000 0.036785 0.000000 -0.011105
# 5 -0.007698 0.000143 -0.000215 0.000000 0.018644 0.000000
# 6 0.000000 0.000000 0.000000 -0.011105 0.000000 0.024373
#
#
# Mechanical properties :
#
#
# Convention : Reuss Voigt Hill
#
# Bulk Modulus (GPa) = 64.86794 91.06300 77.96547
# Shear Modulus (GPa) = 37.75625 52.62741 45.19183
#
# Velocity S-wave (km/s) = 3.73774 4.41287 4.08926
# Velocity P-wave (km/s) = 6.52919 7.72399 7.15159
#
# Compressibility (1/GPa) = 0.01541593
#
# Stress axis : x y z
#
# Youngs Moduli (GPa) = 57.57482 209.83177 107.32339
#
# Poissons Ratio (x) = 0.68423 0.51464
# Poissons Ratio (y) = 0.18774 -0.00408
# Poissons Ratio (z) = 0.27608 -0.00798
#
# Static dielectric constant tensor:
#      x y z
#    x 2.181590 0.000000 -0.034280 
#    y 0.000000 2.116590 0.000000 
#    z -0.034280 0.000000 2.143910 
# 
# From -- ./inp_files/58011.got.cif
#   From: 2010.05.17/outbox.cif.g08.bks.cpg/sg5_30_cif.got.tgz:58011.got - 2010.06.03 18:56:24.
