data_PCOD9125658
_publ_section_title
;
Structure prediction by ZEFSAII (Michael W. Deem and Ramdas Pophale) SiO2 
 PCOD9125658
Probable space group: C 2
;
_chemical_formula_sum "Si O2"
_cell_formula_units_Z 30
_cell_length_a 13.460234
_cell_length_b 12.937178
_cell_length_c 9.438383
_cell_angle_alpha 90.000000
_cell_angle_beta 70.298701
_cell_angle_gamma 90.000000
_cell_volume 1547.365721
_symmetry_space_group_name_H-M "C 2"
_symmetry_group_IT_number 5
_symmetry_cell_setting 'monoclinic'
loop_
_space_group_symop_operation_xyz
x,y,z
-x,y,-z
1/2+x,1/2+y,z
1/2-x,1/2+y,-z
loop_
_atom_site_type_symbol
_atom_site_label
_atom_site_fract_x
_atom_site_fract_y
_atom_site_fract_z
Si Si1 0.477113 0.781310 0.167064
Si Si2 0.528997 0.977531 0.321146
Si Si3 0.422857 0.181890 0.400784
Si Si4 0.576223 0.552599 0.165670
Si Si5 0.815300 0.168230 0.379121
Si Si6 0.725874 0.502874 0.841447
Si Si7 0.000000 0.101610 0.500000
Si Si8 0.561876 0.351098 0.842898
O O1 0.533143 0.668366 0.152161
O O2 0.354659 0.762064 0.262159
O O3 0.514884 0.867518 0.255940
O O4 0.500000 0.819744 0.000000
O O5 0.500000 0.964667 0.500000
O O6 0.455200 0.073611 0.310807
O O7 0.649247 0.008230 0.232757
O O8 0.500000 0.190676 0.500000
O O9 0.301063 0.178422 0.504903
O O10 0.437492 0.279072 0.292480
O O11 0.566389 0.545847 0.341784
O O12 0.503881 0.456782 0.150960
O O13 0.679548 0.539479 0.016016
O O14 0.815060 0.072358 0.270420
O O15 0.905785 0.158127 0.457124
O O16 0.677563 0.389231 0.834989
O O17 0.500000 0.296203 0.000000
#
# Coordination Sequence:
#
# PCOD9125658 Si02
#       8
#     4   4   4   4   4   4   2   4
#     4  11  22  42  68  94 130 172 224 275 321 388
#     4  11  26  44  64  96 137 183 216 263 338 398
#     4  11  25  45  64  94 140 177 216 264 341 394
#     4  10  21  42  69  99 128 166 223 278 329 384
#     4  11  22  42  70  96 128 176 216 275 324 392
#     4  11  20  46  69  91 136 178 214 264 344 393
#     4  10  22  36  68 104 122 154 228 272 314 370
#     4  10  22  41  68  94 127 174 219 276 323 389
#
# _framework density 19.387789000000001
#
# number of rings (size 3 to 8) (size 9 to 14) (size 15 to 20)
#    0.000    1.333    6.667    0.400    6.533    0.533 
#   14.400    0.000    0.000    0.000    0.000    0.000 
#    0.000    0.000    0.000    0.000    0.000    0.000 
#
# Total GULP energy -83515.914245 kJ/mol
# GULP energy per Si atom -5567.727616 kJ/mol
# Density = 1.934366 g / cm^3
# Si number density = 19.387789 Si / 1000 Ang^3
#
#
#
# Elastic Constant Matrix: (Units=GPa)
#
#
# Indices 1 2 3 4 5 6 
#
# 1 101.5197 27.7963 59.7304 0.0000 -36.9650 0.0000
# 2 27.7963 88.5115 48.0842 0.0000 -8.9000 0.0000
# 3 59.7304 48.0842 168.7521 0.0000 -23.8333 0.0000
# 4 0.0000 0.0000 0.0000 26.1987 0.0000 8.5441
# 5 -36.9650 -8.9000 -23.8333 0.0000 33.4872 0.0000
# 6 0.0000 0.0000 0.0000 8.5441 0.0000 3.8497
#
#
#
# Elastic Compliance Matrix: (Units=1/GPa)
#
#
# Indices 1 2 3 4 5 6 
#
# 1 0.019112 -0.002247 -0.003590 0.000000 0.017944 0.000000
# 2 -0.002247 0.013658 -0.003262 0.000000 -0.001172 0.000000
# 3 -0.003590 -0.003262 0.008276 0.000000 0.001060 0.000000
# 4 0.000000 0.000000 0.000000 0.138204 0.000000 -0.306733
# 5 0.017944 -0.001172 0.001060 0.000000 0.050113 0.000000
# 6 0.000000 0.000000 0.000000 -0.306733 0.000000 0.940529
#
#
# Mechanical properties :
#
#
# Convention : Reuss Voigt Hill
#
# Bulk Modulus (GPa) = 43.76943 70.00056 56.88499
# Shear Modulus (GPa) = 4.18163 27.58529 15.88346
#
# Velocity S-wave (km/s) = 1.47021 3.77612 2.86536
# Velocity P-wave (km/s) = 5.05043 7.42940 6.35227
#
# Compressibility (1/GPa) = 0.02284700
#
# Stress axis : x y z
#
# Youngs Moduli (GPa) = 52.32448 73.21829 120.83594
#
# Poissons Ratio (x) = 0.16454 0.43380
# Poissons Ratio (y) = 0.11758 0.39414
# Poissons Ratio (z) = 0.18784 0.23882
#
# Static dielectric constant tensor:
#      x y z
#    x 1.704010 0.000000 0.010340 
#    y 0.000000 1.686510 0.000000 
#    z 0.010340 0.000000 1.721260 
# 
# From -- ./inp_files/20620.got.cif
#   From: 2010.05.17/outbox.cif.g08.bks.cpg/sg5_11_cif.got.tgz:20620.got - 2010.06.03 18:56:24.
