data_PCOD9125436
_publ_section_title
;
Structure prediction by ZEFSAII (Michael W. Deem and Ramdas Pophale) SiO2 
 PCOD9125436
Probable space group: C 2
;
_chemical_formula_sum "Si O2"
_cell_formula_units_Z 20
_cell_length_a 12.709542
_cell_length_b 5.221338
_cell_length_c 14.692510
_cell_angle_alpha 90.000000
_cell_angle_beta 78.937922
_cell_angle_gamma 90.000000
_cell_volume 956.891179
_symmetry_space_group_name_H-M "C 2"
_symmetry_group_IT_number 5
_symmetry_cell_setting 'monoclinic'
loop_
_space_group_symop_operation_xyz
x,y,z
-x,y,-z
1/2+x,1/2+y,z
1/2-x,1/2+y,-z
loop_
_atom_site_type_symbol
_atom_site_label
_atom_site_fract_x
_atom_site_fract_y
_atom_site_fract_z
Si Si1 0.577645 0.920830 0.069443
Si Si2 0.626427 0.778849 0.823558
Si Si3 0.763484 0.714902 0.620008
Si Si4 0.875138 0.215042 0.542426
Si Si5 0.183002 0.776150 0.930558
O O1 0.499517 0.856029 0.165733
O O2 0.693704 0.799277 0.060619
O O3 0.390723 0.209202 0.968703
O O4 0.500000 0.830177 0.000000
O O5 0.688139 0.742547 0.719543
O O6 0.647139 0.521070 0.878632
O O7 0.672736 0.024952 0.869371
O O8 0.830395 0.453205 0.607337
O O9 0.688989 0.716810 0.542561
O O10 0.844213 0.952763 0.597633
O O11 0.000000 0.235939 0.500000
#
# Coordination Sequence:
#
# PCOD9125436 Si02
#       5
#     4   4   4   4   4
#     4  10  23  41  61  84 118 161 203 249 301 352
#     4  11  25  41  62  93 124 157 204 259 300 352
#     4  10  22  40  63  95 124 155 206 247 296 369
#     4  10  21  41  66  90 125 165 194 243 307 365
#     4  11  24  41  62  88 121 162 208 250 303 362
#
# _framework density 20.901017
#
# number of rings (size 3 to 8) (size 9 to 14) (size 15 to 20)
#    0.000    1.600    0.000    4.200    0.000   18.400 
#    0.000    0.000    0.000    0.000    0.000    0.000 
#    0.000    0.000    0.000    0.000    0.000    0.000 
#
# Total GULP energy -55814.937353 kJ/mol
# GULP energy per Si atom -5581.493735 kJ/mol
# Density = 2.085345 g / cm^3
# Si number density = 20.901017 Si / 1000 Ang^3
#
#
#
# Elastic Constant Matrix: (Units=GPa)
#
#
# Indices 1 2 3 4 5 6 
#
# 1 135.9666 28.4683 18.7609 0.0000 -29.6568 0.0000
# 2 28.4683 134.9675 31.5808 0.0000 0.4813 0.0000
# 3 18.7609 31.5808 81.2389 0.0000 -32.7684 0.0000
# 4 0.0000 0.0000 0.0000 24.9433 0.0000 -8.5684
# 5 -29.6568 0.4813 -32.7684 0.0000 26.5809 0.0000
# 6 0.0000 0.0000 0.0000 -8.5684 0.0000 30.1070
#
#
#
# Elastic Compliance Matrix: (Units=1/GPa)
#
#
# Indices 1 2 3 4 5 6 
#
# 1 0.012783 -0.005018 0.009523 0.000000 0.026093 0.000000
# 2 -0.005018 0.011093 -0.010925 0.000000 -0.019267 0.000000
# 3 0.009523 -0.010925 0.037241 0.000000 0.056733 0.000000
# 4 0.000000 0.000000 0.000000 0.044435 0.000000 0.012646
# 5 0.026093 -0.019267 0.056733 0.000000 0.137022 0.000000
# 6 0.000000 0.000000 0.000000 0.012646 0.000000 0.036814
#
#
# Mechanical properties :
#
#
# Convention : Reuss Voigt Hill
#
# Bulk Modulus (GPa) = 20.71345 56.64369 38.67857
# Shear Modulus (GPa) = 16.21699 34.55045 25.38372
#
# Velocity S-wave (km/s) = 2.78851 4.07018 3.48871
# Velocity P-wave (km/s) = 4.50550 7.01771 5.89694
#
# Compressibility (1/GPa) = 0.04827781
#
# Stress axis : x y z
#
# Youngs Moduli (GPa) = 78.23105 90.15031 26.85216
#
# Poissons Ratio (x) = 0.45234 -0.25573
# Poissons Ratio (y) = 0.39254 0.29336
# Poissons Ratio (z) = -0.74503 0.98489
#
# Static dielectric constant tensor:
#      x y z
#    x 1.757180 0.000000 -0.031150 
#    y 0.000000 1.777820 0.000000 
#    z -0.031150 0.000000 1.803990 
# 
# From -- ./inp_files/51884.got.cif
#   From: 2010.05.17/outbox.cif.g08.bks.cpg/sg5_26_cif.got.tgz:51884.got - 2010.06.03 18:56:24.
