data_PCOD9125464
_publ_section_title
;
Structure prediction by ZEFSAII (Michael W. Deem and Ramdas Pophale) SiO2 
 PCOD9125464
Probable space group: C 2
;
_chemical_formula_sum "Si O2"
_cell_formula_units_Z 24
_cell_length_a 20.293471
_cell_length_b 8.037307
_cell_length_c 9.492586
_cell_angle_alpha 90.000000
_cell_angle_beta 134.709119
_cell_angle_gamma 90.000000
_cell_volume 1100.348153
_symmetry_space_group_name_H-M "C 2"
_symmetry_group_IT_number 5
_symmetry_cell_setting 'monoclinic'
loop_
_space_group_symop_operation_xyz
x,y,z
-x,y,-z
1/2+x,1/2+y,z
1/2-x,1/2+y,-z
loop_
_atom_site_type_symbol
_atom_site_label
_atom_site_fract_x
_atom_site_fract_y
_atom_site_fract_z
Si Si1 0.774773 0.171520 0.255826
Si Si2 0.284057 0.464206 0.995945
Si Si3 0.588541 0.048182 0.039776
Si Si4 0.972229 0.745159 0.297716
Si Si5 0.577477 0.533374 0.309252
Si Si6 0.119960 0.166639 0.081498
O O1 0.677648 0.166430 0.194152
O O2 0.859095 0.123465 0.481012
O O3 0.760624 0.033524 0.112842
O O4 0.786583 0.342848 0.189428
O O5 0.378923 0.357800 0.154211
O O6 0.304895 0.615152 0.920669
O O7 0.619902 0.860481 0.118207
O O8 0.500000 0.091511 0.000000
O O9 0.552496 0.080659 0.826822
O O10 0.000000 0.717664 0.500000
O O11 0.048870 0.853357 0.327475
O O12 0.626245 0.551685 0.230281
O O13 0.480367 0.627936 0.137239
#
# Coordination Sequence:
#
# PCOD9125464 Si02
#       6
#     4   4   4   4   4   4
#     4  11  23  41  66  97 132 172 226 275 332 399
#     4  10  22  41  65  96 132 172 214 282 334 392
#     4  11  24  44  61  93 139 173 222 275 329 400
#     4  10  21  41  67  96 128 177 220 269 339 397
#     4  10  21  41  69  94 128 175 220 269 338 394
#     4  10  22  44  62  95 136 171 219 275 337 395
#
# _framework density 21.811277
#
# number of rings (size 3 to 8) (size 9 to 14) (size 15 to 20)
#    0.000    1.667    3.333    1.000    7.000    1.333 
#    9.000    0.000    0.000    0.000    0.000    0.000 
#    0.000    0.000    0.000    0.000    0.000    0.000 
#
# Total GULP energy -67035.068178 kJ/mol
# GULP energy per Si atom -5586.255682 kJ/mol
# Density = 2.176163 g / cm^3
# Si number density = 21.811277 Si / 1000 Ang^3
#
#
#
# Elastic Constant Matrix: (Units=GPa)
#
#
# Indices 1 2 3 4 5 6 
#
# 1 74.3646 19.6049 28.4828 0.0000 -20.7779 0.0000
# 2 19.6049 53.6940 28.7472 0.0000 -12.8124 0.0000
# 3 28.4828 28.7472 131.2699 0.0000 -16.8749 0.0000
# 4 0.0000 0.0000 0.0000 26.4991 0.0000 0.0159
# 5 -20.7779 -12.8124 -16.8749 0.0000 15.7983 0.0000
# 6 0.0000 0.0000 0.0000 0.0159 0.0000 14.1443
#
#
#
# Elastic Compliance Matrix: (Units=1/GPa)
#
#
# Indices 1 2 3 4 5 6 
#
# 1 0.021460 -0.000996 -0.001059 0.000000 0.026284 0.000000
# 2 -0.000996 0.024259 -0.003171 0.000000 0.014977 0.000000
# 3 -0.001059 -0.003171 0.009311 0.000000 0.005981 0.000000
# 4 0.000000 0.000000 0.000000 0.037737 0.000000 -0.000042
# 5 0.026284 0.014977 0.005981 0.000000 0.116401 0.000000
# 6 0.000000 0.000000 0.000000 -0.000042 0.000000 0.070700
#
#
# Mechanical properties :
#
#
# Convention : Reuss Voigt Hill
#
# Bulk Modulus (GPa) = 22.43338 45.88868 34.16103
# Shear Modulus (GPa) = 16.38373 23.45457 19.91915
#
# Velocity S-wave (km/s) = 2.74370 3.28280 3.02528
# Velocity P-wave (km/s) = 4.51051 5.95430 5.28197
#
# Compressibility (1/GPa) = 0.04457643
#
# Stress axis : x y z
#
# Youngs Moduli (GPa) = 46.59926 41.22117 107.39984
#
# Poissons Ratio (x) = 0.04107 0.11376
# Poissons Ratio (y) = 0.04643 0.34058
# Poissons Ratio (z) = 0.04936 0.13072
#
# Static dielectric constant tensor:
#      x y z
#    x 1.844780 0.000000 -0.005540 
#    y 0.000000 1.801920 0.000000 
#    z -0.005540 0.000000 1.745410 
# 
# From -- ./inp_files/29009.got.cif
#   From: 2010.05.17/outbox.cif.g08.bks.cpg/sg5_15_cif.got.tgz:29009.got - 2010.06.03 18:56:24.
