data_PCOD9125994
_publ_section_title
;
Structure prediction by ZEFSAII (Michael W. Deem and Ramdas Pophale) SiO2 
 PCOD9125994
Probable space group: C 2
;
_chemical_formula_sum "Si O2"
_cell_formula_units_Z 26
_cell_length_a 6.758833
_cell_length_b 19.453721
_cell_length_c 10.905515
_cell_angle_alpha 90.000000
_cell_angle_beta 66.675457
_cell_angle_gamma 90.000000
_cell_volume 1316.722389
_symmetry_space_group_name_H-M "C 2"
_symmetry_group_IT_number 5
_symmetry_cell_setting 'monoclinic'
loop_
_space_group_symop_operation_xyz
x,y,z
-x,y,-z
1/2+x,1/2+y,z
1/2-x,1/2+y,-z
loop_
_atom_site_type_symbol
_atom_site_label
_atom_site_fract_x
_atom_site_fract_y
_atom_site_fract_z
Si Si1 0.392780 0.466640 0.162210
Si Si2 0.855823 0.318597 0.285297
Si Si3 0.305212 0.310348 0.140912
Si Si4 0.014242 0.562907 0.348390
Si Si5 0.344937 0.467236 0.655052
Si Si6 0.457582 0.218615 0.321425
Si Si7 0.000000 0.257373 0.500000
O O1 0.314992 0.387461 0.194330
O O2 0.196643 0.517591 0.238042
O O3 0.548157 0.479414 0.239553
O O4 0.500000 0.475039 0.000000
O O5 0.790823 0.397531 0.293929
O O6 0.642165 0.272068 0.320919
O O7 0.966185 0.304328 0.389670
O O8 0.062346 0.300983 0.149470
O O9 0.376485 0.249297 0.213171
O O10 0.500000 0.312330 0.000000
O O11 0.047916 0.642420 0.307259
O O12 0.000000 0.554587 0.500000
O O13 0.793696 0.532949 0.348619
O O14 0.500000 0.453606 0.500000
O O15 0.224705 0.216218 0.446488
#
# Coordination Sequence:
#
# PCOD9125994 Si02
#       7
#     4   4   4   4   4   4   2
#     4  11  25  48  70 102 141 181 234 290 347 415
#     4  11  22  39  68  98 129 173 230 282 340 401
#     4  10  23  45  68  96 133 181 236 283 334 417
#     4  12  26  44  68 106 143 180 226 290 348 418
#     4  12  24  40  74 100 134 184 233 283 351 408
#     4  11  24  43  66  98 135 177 223 282 348 402
#     4  10  22  36  66  96 134 164 220 280 336 408
#
# _framework density 19.745999000000001
#
# number of rings (size 3 to 8) (size 9 to 14) (size 15 to 20)
#    0.000    0.923    4.615    2.308    4.308    3.692 
#    5.538    0.000    0.000    0.000    0.000    0.000 
#    0.000    0.000    0.000    0.000    0.000    0.000 
#
# Total GULP energy -72455.069822 kJ/mol
# GULP energy per Si atom -5573.466909 kJ/mol
# Density = 1.970106 g / cm^3
# Si number density = 19.745999 Si / 1000 Ang^3
#
#
#
# Elastic Constant Matrix: (Units=GPa)
#
#
# Indices 1 2 3 4 5 6 
#
# 1 99.0596 0.6841 38.3967 0.0000 -3.5136 0.0000
# 2 0.6841 62.8681 37.5206 0.0000 1.3475 0.0000
# 3 38.3967 37.5206 95.2927 0.0000 -7.1550 0.0000
# 4 0.0000 0.0000 0.0000 22.8568 0.0000 -2.3027
# 5 -3.5136 1.3475 -7.1550 0.0000 30.4631 0.0000
# 6 0.0000 0.0000 0.0000 -2.3027 0.0000 28.1203
#
#
#
# Elastic Compliance Matrix: (Units=1/GPa)
#
#
# Indices 1 2 3 4 5 6 
#
# 1 0.012619 0.003810 -0.006605 0.000000 -0.000264 0.000000
# 2 0.003810 0.022196 -0.010501 0.000000 -0.003009 0.000000
# 3 -0.006605 -0.010501 0.017578 0.000000 0.003831 0.000000
# 4 0.000000 0.000000 0.000000 0.044115 0.000000 0.003612
# 5 -0.000264 -0.003009 0.003831 0.000000 0.033829 0.000000
# 6 0.000000 0.000000 0.000000 0.003612 0.000000 0.035857
#
#
# Mechanical properties :
#
#
# Convention : Reuss Voigt Hill
#
# Bulk Modulus (GPa) = 38.75598 45.60255 42.17927
# Shear Modulus (GPa) = 24.82796 28.32931 26.57864
#
# Velocity S-wave (km/s) = 3.54978 3.79183 3.67280
# Velocity P-wave (km/s) = 6.03914 6.50503 6.27641
#
# Compressibility (1/GPa) = 0.02580247
#
# Stress axis : x y z
#
# Youngs Moduli (GPa) = 79.24329 45.05241 56.89076
#
# Poissons Ratio (x) = -0.17166 0.37576
# Poissons Ratio (y) = -0.30194 0.59740
# Poissons Ratio (z) = 0.52339 0.47309
#
# Static dielectric constant tensor:
#      x y z
#    x 1.751150 0.000000 -0.050880 
#    y 0.000000 1.652900 0.000000 
#    z -0.050880 0.000000 1.853240 
# 
# From -- ./inp_files/33731.got.cif
#   From: 2010.05.17/outbox.cif.g08.bks.cpg/sg5_17_cif.got.tgz:33731.got - 2010.06.03 18:56:24.
