data_PCOD9125624
_publ_section_title
;
Structure prediction by ZEFSAII (Michael W. Deem and Ramdas Pophale) SiO2 
 PCOD9125624
Probable space group: C 2
;
_chemical_formula_sum "Si O2"
_cell_formula_units_Z 32
_cell_length_a 17.670614
_cell_length_b 14.698023
_cell_length_c 10.780506
_cell_angle_alpha 90.000000
_cell_angle_beta 147.666306
_cell_angle_gamma 90.000000
_cell_volume 1497.549428
_symmetry_space_group_name_H-M "C 2"
_symmetry_group_IT_number 5
_symmetry_cell_setting 'monoclinic'
loop_
_space_group_symop_operation_xyz
x,y,z
-x,y,-z
1/2+x,1/2+y,z
1/2-x,1/2+y,-z
loop_
_atom_site_type_symbol
_atom_site_label
_atom_site_fract_x
_atom_site_fract_y
_atom_site_fract_z
Si Si1 0.085533 0.260110 0.499056
Si Si2 0.370361 0.962757 0.026004
Si Si3 0.303651 0.766830 0.975580
Si Si4 0.815286 0.401056 0.546691
Si Si5 0.890118 0.066857 0.734931
Si Si6 0.443662 0.141792 0.281376
Si Si7 0.615866 0.556947 0.553535
Si Si8 0.279120 0.238134 0.422798
O O1 0.175916 0.339786 0.565305
O O2 0.156014 0.163662 0.625718
O O3 0.000000 0.293521 0.500000
O O4 0.959952 0.237573 0.228997
O O5 0.297707 0.875128 0.989073
O O6 0.258093 0.999094 0.770432
O O7 0.523028 0.925776 0.191647
O O8 0.402720 0.046669 0.161981
O O9 0.189946 0.708475 0.892011
O O10 0.277752 0.748894 0.795314
O O11 0.731304 0.492828 0.407958
O O12 0.736674 0.335256 0.534340
O O13 0.941384 0.045570 0.665775
O O14 0.817024 0.165577 0.638195
O O15 0.000000 0.062184 0.000000
O O16 0.500000 0.126511 0.500000
O O17 0.565591 0.194686 0.374648
O O18 0.500000 0.535923 0.500000
#
# Coordination Sequence:
#
# PCOD9125624 Si02
#       8
#     4   4   4   4   4   4   4   4
#     4  10  21  42  67  97 139 176 229 285 357 417
#     4  11  24  43  74 105 139 185 241 293 348 433
#     4  10  23  41  71 102 135 190 230 290 353 430
#     4  11  25  47  67 108 134 188 236 294 353 427
#     4  12  26  47  71 103 142 190 235 296 357 427
#     4  10  22  45  70 106 144 185 235 296 359 421
#     4  11  24  45  73 106 141 184 233 295 355 421
#     4  11  23  46  71  97 143 184 239 292 351 432
#
# _framework density 21.368241999999999
#
# number of rings (size 3 to 8) (size 9 to 14) (size 15 to 20)
#    0.000    1.250    2.500    3.000    1.750    8.000 
#    9.000    0.000    0.000    0.000    0.000    0.000 
#    0.000    0.000    0.000    0.000    0.000    0.000 
#
# Total GULP energy -89438.258690 kJ/mol
# GULP energy per Si atom -5589.891168 kJ/mol
# Density = 2.131961 g / cm^3
# Si number density = 21.368242 Si / 1000 Ang^3
#
#
#
# Elastic Constant Matrix: (Units=GPa)
#
#
# Indices 1 2 3 4 5 6 
#
# 1 101.4337 33.3137 14.5236 0.0000 7.4088 0.0000
# 2 33.3137 130.5053 54.0534 0.0000 6.5376 0.0000
# 3 14.5236 54.0534 47.5919 0.0000 2.6142 0.0000
# 4 0.0000 0.0000 0.0000 43.3085 0.0000 3.5324
# 5 7.4088 6.5376 2.6142 0.0000 18.9490 0.0000
# 6 0.0000 0.0000 0.0000 3.5324 0.0000 36.1429
#
#
#
# Elastic Compliance Matrix: (Units=1/GPa)
#
#
# Indices 1 2 3 4 5 6 
#
# 1 0.010972 -0.002495 -0.000328 0.000000 -0.003384 0.000000
# 2 -0.002495 0.015180 -0.016369 0.000000 -0.002003 0.000000
# 3 -0.000328 -0.016369 0.039687 0.000000 0.000301 0.000000
# 4 0.000000 0.000000 0.000000 0.023276 0.000000 -0.002275
# 5 -0.003384 -0.002003 0.000301 0.000000 0.054746 0.000000
# 6 0.000000 0.000000 0.000000 -0.002275 0.000000 0.027890
#
#
# Mechanical properties :
#
#
# Convention : Reuss Voigt Hill
#
# Bulk Modulus (GPa) = 36.42523 53.70138 45.06330
# Shear Modulus (GPa) = 22.80108 31.52275 27.16192
#
# Velocity S-wave (km/s) = 3.27012 3.84502 3.56917
# Velocity P-wave (km/s) = 5.59837 6.70061 6.17414
#
# Compressibility (1/GPa) = 0.02745350
#
# Stress axis : x y z
#
# Youngs Moduli (GPa) = 91.13794 65.87756 25.19710
#
# Poissons Ratio (x) = 0.16439 0.00828
# Poissons Ratio (y) = 0.22742 0.41245
# Poissons Ratio (z) = 0.02993 1.07835
#
# Static dielectric constant tensor:
#      x y z
#    x 1.829200 0.000000 -0.025780 
#    y 0.000000 1.761690 0.000000 
#    z -0.025780 0.000000 1.769620 
# 
# From -- ./inp_files/44980.got.cif
#   From: 2010.05.17/outbox.cif.g08.bks.cpg/sg5_23_cif.got.tgz:44980.got - 2010.06.03 18:56:24.
