data_PCOD9125007
_publ_section_title
;
Structure prediction by ZEFSAII (Michael W. Deem and Ramdas Pophale) SiO2 
 PCOD9125007
Probable space group: C 2
;
_chemical_formula_sum "Si O2"
_cell_formula_units_Z 32
_cell_length_a 14.897980
_cell_length_b 24.493816
_cell_length_c 8.863176
_cell_angle_alpha 90.000000
_cell_angle_beta 150.164211
_cell_angle_gamma 90.000000
_cell_volume 1609.089413
_symmetry_space_group_name_H-M "C 2"
_symmetry_group_IT_number 5
_symmetry_cell_setting 'monoclinic'
loop_
_space_group_symop_operation_xyz
x,y,z
-x,y,-z
1/2+x,1/2+y,z
1/2-x,1/2+y,-z
loop_
_atom_site_type_symbol
_atom_site_label
_atom_site_fract_x
_atom_site_fract_y
_atom_site_fract_z
Si Si1 0.328211 0.721490 0.856897
Si Si2 0.461708 0.942982 0.121787
Si Si3 0.701503 0.340461 0.722857
Si Si4 0.666489 0.641506 0.853676
Si Si5 0.475311 0.204461 0.144506
Si Si6 0.671190 0.512702 0.857152
Si Si7 0.321330 0.434832 0.844507
Si Si8 0.042505 0.825294 0.888305
O O1 0.282593 0.780391 0.863935
O O2 0.163629 0.704584 0.507801
O O3 0.500000 0.727237 0.000000
O O4 0.351278 0.676743 0.020527
O O5 0.645298 0.939441 0.484677
O O6 0.500000 0.949484 0.000000
O O7 0.337677 0.888689 0.959173
O O8 0.345229 0.992681 0.018609
O O9 0.500000 0.345387 0.500000
O O10 0.645165 0.341570 0.464738
O O11 0.500000 0.653000 0.500000
O O12 0.671709 0.576957 0.890877
O O13 0.845028 0.659988 0.025485
O O14 0.396536 0.265011 0.069139
O O15 0.500000 0.198335 0.000000
O O16 0.500000 0.499917 0.500000
O O17 0.666456 0.479327 0.006012
O O18 0.500000 0.437832 0.000000
O O19 0.322912 0.375623 0.928858
O O20 0.000000 0.818984 0.000000
#
# Coordination Sequence:
#
# PCOD9125007 Si02
#       8
#     4   4   4   4   4   4   4   4
#     4  11  23  40  64  94 128 165 205 252 308 369
#     4  12  24  39  64  96 127 165 205 252 311 370
#     4  11  22  39  63  93 129 166 202 249 306 367
#     4  11  25  43  64  89 119 161 212 261 310 365
#     4  10  21  39  64  92 125 162 201 250 309 366
#     4  11  25  45  64  86 120 162 211 263 310 365
#     4  11  23  40  64  93 125 162 204 254 310 367
#     4   9  18  35  58  87 121 155 191 239 295 355
#
# _framework density 19.887024
#
# number of rings (size 3 to 8) (size 9 to 14) (size 15 to 20)
#    0.000    1.250    0.000    7.500    0.000    7.000 
#    0.000    0.000    0.000    0.000    0.000    0.000 
#    0.000    0.000    0.000    0.000    0.000    0.000 
#
# Total GULP energy -89403.654212 kJ/mol
# GULP energy per Si atom -5587.728388 kJ/mol
# Density = 1.984176 g / cm^3
# Si number density = 19.887024 Si / 1000 Ang^3
#
#
#
# Elastic Constant Matrix: (Units=GPa)
#
#
# Indices 1 2 3 4 5 6 
#
# 1 128.7189 41.9339 49.3485 0.0000 -2.9106 0.0000
# 2 41.9339 71.8662 56.8051 0.0000 -15.9682 0.0000
# 3 49.3485 56.8051 131.6233 0.0000 -7.0215 0.0000
# 4 0.0000 0.0000 0.0000 37.4306 0.0000 9.9446
# 5 -2.9106 -15.9682 -7.0215 0.0000 38.6008 0.0000
# 6 0.0000 0.0000 0.0000 9.9446 0.0000 47.6298
#
#
#
# Elastic Compliance Matrix: (Units=1/GPa)
#
#
# Indices 1 2 3 4 5 6 
#
# 1 0.009961 -0.004762 -0.001762 0.000000 -0.001539 0.000000
# 2 -0.004762 0.025547 -0.008781 0.000000 0.008612 0.000000
# 3 -0.001762 -0.008781 0.011963 0.000000 -0.001589 0.000000
# 4 0.000000 0.000000 0.000000 0.028285 0.000000 -0.005906
# 5 -0.001539 0.008612 -0.001589 0.000000 0.029064 0.000000
# 6 0.000000 0.000000 0.000000 -0.005906 0.000000 0.022228
#
#
# Mechanical properties :
#
#
# Convention : Reuss Voigt Hill
#
# Bulk Modulus (GPa) = 59.30311 69.82037 64.56174
# Shear Modulus (GPa) = 30.62281 37.00697 33.81489
#
# Velocity S-wave (km/s) = 3.92833 4.31845 4.12800
# Velocity P-wave (km/s) = 7.10355 7.74920 7.43339
#
# Compressibility (1/GPa) = 0.01686252
#
# Stress axis : x y z
#
# Youngs Moduli (GPa) = 100.39499 39.14291 83.59293
#
# Poissons Ratio (x) = 0.18638 0.14726
# Poissons Ratio (y) = 0.47804 0.73402
# Poissons Ratio (z) = 0.17685 0.34371
#
# Static dielectric constant tensor:
#      x y z
#    x 1.734800 0.000000 -0.018830 
#    y 0.000000 1.711310 0.000000 
#    z -0.018830 0.000000 1.692130 
# 
# From -- ./inp_files/25643.got.cif
#   From: 2010.05.17/outbox.cif.g08.bks.cpg/sg5_13_cif.got.tgz:25643.got - 2010.06.03 18:56:24.
