data_PCOD9125475
_publ_section_title
;
Structure prediction by ZEFSAII (Michael W. Deem and Ramdas Pophale) SiO2 
 PCOD9125475
Probable space group: C 2
;
_chemical_formula_sum "Si O2"
_cell_formula_units_Z 22
_cell_length_a 9.312334
_cell_length_b 10.711415
_cell_length_c 15.998771
_cell_angle_alpha 90.000000
_cell_angle_beta 43.947083
_cell_angle_gamma 90.000000
_cell_volume 1107.509719
_symmetry_space_group_name_H-M "C 2"
_symmetry_group_IT_number 5
_symmetry_cell_setting 'monoclinic'
loop_
_space_group_symop_operation_xyz
x,y,z
-x,y,-z
1/2+x,1/2+y,z
1/2-x,1/2+y,-z
loop_
_atom_site_type_symbol
_atom_site_label
_atom_site_fract_x
_atom_site_fract_y
_atom_site_fract_z
Si Si1 0.000000 0.360380 0.000000
Si Si2 0.070102 0.298356 0.563063
Si Si3 0.152883 0.818442 0.826774
Si Si4 0.577369 0.498109 0.206119
Si Si5 0.729906 0.746071 0.056974
Si Si6 0.857076 0.023184 0.477375
O O1 0.803415 0.436965 0.114512
O O2 0.086613 0.283727 0.041354
O O3 0.203880 0.170574 0.502876
O O4 0.181387 0.417091 0.557417
O O5 0.000000 0.335953 0.500000
O O6 0.854654 0.264766 0.697933
O O7 0.228527 0.851693 0.889208
O O8 0.060277 0.924117 0.805065
O O9 0.960731 0.723944 0.922974
O O10 0.623323 0.633854 0.149940
O O11 0.471343 0.495091 0.341234
O O12 0.000000 0.014440 0.500000
#
# Coordination Sequence:
#
# PCOD9125475 Si02
#       6
#     2   4   4   4   4   4
#     4  10  24  38  64  98 128 164 214 270 328 390
#     4  11  23  46  66  96 131 180 219 276 333 390
#     4  10  21  41  68  90 129 170 219 263 331 390
#     4  11  22  42  66  95 130 172 217 271 327 392
#     4  10  22  41  64  94 127 168 211 274 324 387
#     4  11  26  42  69  98 134 176 226 274 331 393
#
# _framework density 19.864386
#
# number of rings (size 3 to 8) (size 9 to 14) (size 15 to 20)
#    0.000    1.455    3.636    1.091    2.545    3.636 
#    3.273    0.000    0.000    0.000    0.000    0.000 
#    0.000    0.000    0.000    0.000    0.000    0.000 
#
# Total GULP energy -61297.077126 kJ/mol
# GULP energy per Si atom -5572.461557 kJ/mol
# Density = 1.981917 g / cm^3
# Si number density = 19.864386 Si / 1000 Ang^3
#
#
#
# Elastic Constant Matrix: (Units=GPa)
#
#
# Indices 1 2 3 4 5 6 
#
# 1 131.5961 44.7818 22.4591 0.0000 22.6757 0.0000
# 2 44.7818 68.8313 -15.0444 0.0000 4.3144 0.0000
# 3 22.4591 -15.0444 32.0250 0.0000 26.5136 0.0000
# 4 0.0000 0.0000 0.0000 24.4688 0.0000 1.6788
# 5 22.6757 4.3144 26.5136 0.0000 25.8822 0.0000
# 6 0.0000 0.0000 0.0000 1.6788 0.0000 19.9334
#
#
#
# Elastic Compliance Matrix: (Units=1/GPa)
#
#
# Indices 1 2 3 4 5 6 
#
# 1 0.003864 0.014999 0.060626 0.000000 -0.067990 0.000000
# 2 0.014999 -0.044144 -0.174255 0.000000 0.172724 0.000000
# 3 0.060626 -0.174255 -0.482073 0.000000 0.469767 0.000000
# 4 0.000000 0.000000 0.000000 0.041106 0.000000 -0.003462
# 5 -0.067990 0.172724 0.469767 0.000000 -0.411817 0.000000
# 6 0.000000 0.000000 0.000000 -0.003462 0.000000 0.050459
#
#
# Mechanical properties :
#
#
# Convention : Reuss Voigt Hill
#
# Bulk Modulus (GPa) = -1.38963 37.42728 18.01882
# Shear Modulus (GPa) = -5.64834 26.07391 10.21278
#
# Velocity S-wave (km/s) = -1.68808 3.62691 2.26989
# Velocity P-wave (km/s) = 2.12146 6.03503 3.99506
#
# Compressibility (1/GPa) = -0.71961414
#
# Stress axis : x y z
#
# Youngs Moduli (GPa) = 258.82088 -22.65338 -2.07437
#
# Poissons Ratio (x) = 0.33978 0.12576
# Poissons Ratio (y) = -3.88203 -0.36147
# Poissons Ratio (z) = -15.69121 -3.94747
#
# Static dielectric constant tensor:
#      x y z
#    x 1.705750 0.000000 -0.003680 
#    y 0.000000 1.743330 0.000000 
#    z -0.003680 0.000000 1.740540 
# 
# From -- ./inp_files/35478.got.cif
#   From: 2010.05.17/outbox.cif.g08.bks.cpg/sg5_18_cif.got.tgz:35478.got - 2010.06.03 18:56:24.
