data_PCOD9125210
_publ_section_title
;
Structure prediction by ZEFSAII (Michael W. Deem and Ramdas Pophale) SiO2 
 PCOD9125210
Probable space group: C 2
;
_chemical_formula_sum "Si O2"
_cell_formula_units_Z 32
_cell_length_a 15.125072
_cell_length_b 21.512744
_cell_length_c 9.434192
_cell_angle_alpha 90.000000
_cell_angle_beta 32.074341
_cell_angle_gamma 90.000000
_cell_volume 1630.077147
_symmetry_space_group_name_H-M "C 2"
_symmetry_group_IT_number 5
_symmetry_cell_setting 'monoclinic'
loop_
_space_group_symop_operation_xyz
x,y,z
-x,y,-z
1/2+x,1/2+y,z
1/2-x,1/2+y,-z
loop_
_atom_site_type_symbol
_atom_site_label
_atom_site_fract_x
_atom_site_fract_y
_atom_site_fract_z
Si Si1 0.303118 0.829600 0.773048
Si Si2 0.328388 0.967738 0.822420
Si Si3 0.678522 0.260742 0.692009
Si Si4 0.413629 0.571518 0.974996
Si Si5 0.487592 0.262817 0.679222
Si Si6 0.597160 0.123617 0.502326
Si Si7 0.922074 0.545174 0.959810
Si Si8 0.131721 0.140733 0.447021
O O1 0.500000 0.817843 0.500000
O O2 0.268090 0.897121 0.885905
O O3 0.241080 0.819549 0.696756
O O4 0.190495 0.781838 0.015513
O O5 0.500000 0.967695 0.500000
O O6 0.197209 0.016239 0.936765
O O7 0.359504 0.991218 0.940230
O O8 0.634630 0.279927 0.590685
O O9 0.796801 0.202092 0.569720
O O10 0.500000 0.241609 0.000000
O O11 0.287552 0.626033 0.197904
O O12 0.500000 0.548785 0.000000
O O13 0.535744 0.599021 0.692610
O O14 0.500000 0.284955 0.500000
O O15 0.509822 0.188737 0.647149
O O16 0.500000 0.096197 0.500000
O O17 0.567995 0.080445 0.675729
O O18 0.779723 0.597307 0.182581
O O19 0.000000 0.522433 0.000000
O O20 0.000000 0.156369 0.500000
#
# Coordination Sequence:
#
# PCOD9125210 Si02
#       8
#     4   4   4   4   4   4   4   4
#     4  10  23  44  67  86 119 168 225 263 300 368
#     4  11  23  45  64  86 123 175 216 250 312 388
#     4  10  21  40  64  94 125 171 212 244 316 391
#     4  12  23  37  59  96 132 164 202 253 314 378
#     4  10  22  40  65  96 125 165 206 262 320 368
#     4  11  20  40  63  87 132 171 200 239 317 399
#     4  12  21  38  64  92 127 168 209 256 317 376
#     4  12  23  37  62 103 133 156 201 272 316 360
#
# _framework density 19.630972
#
# number of rings (size 3 to 8) (size 9 to 14) (size 15 to 20)
#    0.000    1.000    3.750    4.500    0.000    5.500 
#    2.250    4.375    0.000    0.000    0.000    0.000 
#    0.000    0.000    0.000    0.000    0.000    0.000 
#
# Total GULP energy -89289.462223 kJ/mol
# GULP energy per Si atom -5580.591389 kJ/mol
# Density = 1.958629 g / cm^3
# Si number density = 19.630972 Si / 1000 Ang^3
#
#
#
# Elastic Constant Matrix: (Units=GPa)
#
#
# Indices 1 2 3 4 5 6 
#
# 1 187.7740 29.2164 35.5695 -0.0012 15.4896 0.0011
# 2 29.2164 72.4062 15.6247 -0.0008 -0.9540 0.0004
# 3 35.5695 15.6247 80.1384 -0.0039 3.5400 0.0021
# 4 -0.0012 -0.0008 -0.0039 12.6270 0.0012 10.9193
# 5 15.4896 -0.9540 3.5400 0.0012 33.7397 -0.0009
# 6 0.0011 0.0004 0.0021 10.9193 -0.0009 10.4230
#
#
#
# Elastic Compliance Matrix: (Units=1/GPa)
#
#
# Indices 1 2 3 4 5 6 
#
# 1 0.006305 -0.002090 -0.002271 0.000004 -0.002715 -0.000004
# 2 -0.002090 0.015127 -0.002093 -0.000001 0.001607 0.000002
# 3 -0.002271 -0.002093 0.013916 0.000065 -0.000477 -0.000071
# 4 0.000004 -0.000001 0.000065 0.841941 -0.000062 -0.882031
# 5 -0.002715 0.001607 -0.000477 -0.000062 0.030981 0.000068
# 6 -0.000004 0.000002 -0.000071 -0.882031 0.000068 1.019972
#
#
# Mechanical properties :
#
#
# Convention : Reuss Voigt Hill
#
# Bulk Modulus (GPa) = 44.56282 55.68222 50.12252
# Shear Modulus (GPa) = 2.56591 28.68513 15.62552
#
# Velocity S-wave (km/s) = 1.14451 3.82674 2.82434
# Velocity P-wave (km/s) = 4.94935 6.92468 6.01861
#
# Compressibility (1/GPa) = 0.02244023
#
# Stress axis : x y z
#
# Youngs Moduli (GPa) = 158.60702 66.10701 71.86231
#
# Poissons Ratio (x) = 0.13815 0.16320
# Poissons Ratio (y) = 0.33145 0.15039
# Poissons Ratio (z) = 0.36020 0.13835
#
# Static dielectric constant tensor:
#      x y z
#    x 1.800050 0.000000 0.032520 
#    y 0.000000 1.698210 0.000000 
#    z 0.032520 0.000000 1.725370 
# 
# From -- ./inp_files/25604.got.cif
#   From: 2010.05.17/outbox.cif.g08.bks.cpg/sg5_13_cif.got.tgz:25604.got - 2010.06.03 18:56:24.
