data_PCOD9125265
_publ_section_title
;
Structure prediction by ZEFSAII (Michael W. Deem and Ramdas Pophale) SiO2 
 PCOD9125265
Probable space group: C 2
;
_chemical_formula_sum "Si O2"
_cell_formula_units_Z 26
_cell_length_a 15.497172
_cell_length_b 5.591299
_cell_length_c 12.526985
_cell_angle_alpha 90.000000
_cell_angle_beta 71.328059
_cell_angle_gamma 90.000000
_cell_volume 1028.324211
_symmetry_space_group_name_H-M "C 2"
_symmetry_group_IT_number 5
_symmetry_cell_setting 'monoclinic'
loop_
_space_group_symop_operation_xyz
x,y,z
-x,y,-z
1/2+x,1/2+y,z
1/2-x,1/2+y,-z
loop_
_atom_site_type_symbol
_atom_site_label
_atom_site_fract_x
_atom_site_fract_y
_atom_site_fract_z
Si Si1 0.865065 0.078490 0.975424
Si Si2 0.541738 0.182134 0.194471
Si Si3 0.723442 0.862303 0.159780
Si Si4 0.377116 0.626750 0.621862
Si Si5 0.000000 0.461991 0.000000
Si Si6 0.445324 0.827362 0.372613
Si Si7 0.752812 0.305063 0.432788
O O1 0.786332 0.158861 0.926463
O O2 0.915910 0.302579 0.001111
O O3 0.929848 0.930794 0.871335
O O4 0.821954 0.957802 0.095377
O O5 0.485675 0.083532 0.319746
O O6 0.640553 0.050200 0.171979
O O7 0.481883 0.090319 0.118247
O O8 0.703482 0.754515 0.282461
O O9 0.335476 0.370165 0.604863
O O10 0.406502 0.779651 0.507050
O O11 0.467921 0.644939 0.659508
O O12 0.353604 0.774231 0.341450
O O13 0.739163 0.060592 0.505359
#
# Coordination Sequence:
#
# PCOD9125265 Si02
#       7
#     4   4   4   4   2   4   4
#     4  11  21  41  63  98 128 170 225 290 337 420
#     4  10  21  42  64  94 136 170 230 279 347 423
#     4  10  21  40  66  95 129 174 226 280 350 415
#     4   9  20  43  66  98 134 181 236 280 374 424
#     4  10  24  38  62  96 126 176 218 272 358 400
#     4   9  20  44  66  97 137 185 232 296 355 435
#     4  10  22  46  68 102 144 185 246 302 357 444
#
# _framework density 25.283856
#
# number of rings (size 3 to 8) (size 9 to 14) (size 15 to 20)
#    0.000    2.154    1.538    0.462    0.000    2.462 
#   44.308    1.538    0.000    0.000    0.000    0.000 
#    0.000    0.000    0.000    0.000    0.000    0.000 
#
# Total GULP energy -72399.624439 kJ/mol
# GULP energy per Si atom -5569.201880 kJ/mol
# Density = 2.522631 g / cm^3
# Si number density = 25.283856 Si / 1000 Ang^3
#
#
#
# Elastic Constant Matrix: (Units=GPa)
#
#
# Indices 1 2 3 4 5 6 
#
# 1 81.7260 25.2234 5.7036 0.0000 -16.2928 0.0000
# 2 25.2234 42.7418 -2.0801 0.0000 4.3727 0.0000
# 3 5.7036 -2.0801 126.9237 0.0000 -14.4866 0.0000
# 4 0.0000 0.0000 0.0000 -57.5838 0.0000 21.3251
# 5 -16.2928 4.3727 -14.4866 0.0000 27.6607 0.0000
# 6 0.0000 0.0000 0.0000 21.3251 0.0000 26.6524
#
#
#
# Elastic Compliance Matrix: (Units=1/GPa)
#
#
# Indices 1 2 3 4 5 6 
#
# 1 0.018630 -0.012318 0.000463 0.000000 0.013163 0.000000
# 2 -0.012318 0.031926 -0.000348 0.000000 -0.012485 0.000000
# 3 0.000463 -0.000348 0.008391 0.000000 0.004723 0.000000
# 4 0.000000 0.000000 0.000000 -0.013396 0.000000 0.010719
# 5 0.013163 -0.012485 0.004723 0.000000 0.048353 0.000000
# 6 0.000000 0.000000 0.000000 0.010719 0.000000 0.028944
#
#
# Mechanical properties :
#
#
# Convention : Reuss Voigt Hill
#
# Bulk Modulus (GPa) = 28.95117 34.34280 31.64699
# Shear Modulus (GPa) = 31.49272 14.18217 22.83744
#
# Velocity S-wave (km/s) = 3.53309 2.37094 3.00866
# Velocity P-wave (km/s) = 5.30273 4.59429 4.96117
#
# Compressibility (1/GPa) = 0.03454092
#
# Stress axis : x y z
#
# Youngs Moduli (GPa) = 53.67767 31.32244 119.17181
#
# Poissons Ratio (x) = 0.38583 -0.05522
# Poissons Ratio (y) = 0.66121 0.04150
# Poissons Ratio (z) = -0.02487 0.01091
#
# Static dielectric constant tensor:
#      x y z
#    x 2.150040 0.000000 0.047260 
#    y 0.000000 2.103480 0.000000 
#    z 0.047260 0.000000 1.995910 
# 
# From -- ./inp_files/55242.got.cif
#   From: 2010.05.17/outbox.cif.g08.bks.cpg/sg5_28_cif.got.tgz:55242.got - 2010.06.03 18:56:24.
