data_PCOD9125011
_publ_section_title
;
Structure prediction by ZEFSAII (Michael W. Deem and Ramdas Pophale) SiO2 
 PCOD9125011
Probable space group: C 2
;
_chemical_formula_sum "Si O2"
_cell_formula_units_Z 24
_cell_length_a 5.003150
_cell_length_b 20.109090
_cell_length_c 10.068868
_cell_angle_alpha 90.000000
_cell_angle_beta 87.221449
_cell_angle_gamma 90.000000
_cell_volume 1011.825714
_symmetry_space_group_name_H-M "C 2"
_symmetry_group_IT_number 5
_symmetry_cell_setting 'monoclinic'
loop_
_space_group_symop_operation_xyz
x,y,z
-x,y,-z
1/2+x,1/2+y,z
1/2-x,1/2+y,-z
loop_
_atom_site_type_symbol
_atom_site_label
_atom_site_fract_x
_atom_site_fract_y
_atom_site_fract_z
Si Si1 0.128080 0.968980 0.643659
Si Si2 0.943665 0.116471 0.342012
Si Si3 0.256325 0.754390 0.402773
Si Si4 0.621755 0.893853 0.727207
Si Si5 0.263389 0.810513 0.914474
Si Si6 0.753695 0.164197 0.901418
O O1 0.884701 0.938829 0.738546
O O2 0.000000 0.965356 0.500000
O O3 0.404174 0.928953 0.638621
O O4 0.189186 0.045234 0.678031
O O5 0.187894 0.121419 0.232075
O O6 0.000000 0.117548 0.500000
O O7 0.788523 0.185742 0.321845
O O8 0.500000 0.760250 0.500000
O O9 0.262393 0.822300 0.320329
O O10 0.000000 0.750640 0.500000
O O11 0.411392 0.872275 0.845272
O O12 0.204311 0.740193 0.844208
O O13 0.500000 0.784540 0.000000
O O14 0.000000 0.829956 0.000000
O O15 0.500000 0.149055 0.000000
O O16 0.000000 0.154400 0.000000
#
# Coordination Sequence:
#
# PCOD9125011 Si02
#       6
#     4   4   4   4   4   4
#     4  11  25  41  65  93 139 175 210 269 348 395
#     4  10  24  46  67 102 137 179 224 279 334 397
#     4  11  23  38  63  94 124 162 219 274 316 383
#     4  12  22  42  64  93 127 173 221 268 333 395
#     4  10  21  39  64  93 126 169 219 278 333 386
#     4  10  22  42  69  97 133 174 221 275 338 397
#
# _framework density 23.719497
#
# number of rings (size 3 to 8) (size 9 to 14) (size 15 to 20)
#    0.000    1.333    1.667    4.000    0.000    8.000 
#    0.000    5.000    0.000    0.000    0.000    0.000 
#    0.000    0.000    0.000    0.000    0.000    0.000 
#
# Total GULP energy -66952.941947 kJ/mol
# GULP energy per Si atom -5579.411829 kJ/mol
# Density = 2.366551 g / cm^3
# Si number density = 23.719497 Si / 1000 Ang^3
#
#
#
# Elastic Constant Matrix: (Units=GPa)
#
#
# Indices 1 2 3 4 5 6 
#
# 1 111.0786 27.5769 29.6530 0.0000 -36.4573 0.0000
# 2 27.5769 147.9229 31.2294 0.0000 -12.7656 0.0000
# 3 29.6530 31.2294 117.5214 0.0000 -38.0504 0.0000
# 4 0.0000 0.0000 0.0000 -2.4157 0.0000 8.6866
# 5 -36.4573 -12.7656 -38.0504 0.0000 44.6900 0.0000
# 6 0.0000 0.0000 0.0000 8.6866 0.0000 -19.8983
#
#
#
# Elastic Compliance Matrix: (Units=1/GPa)
#
#
# Indices 1 2 3 4 5 6 
#
# 1 0.012639 -0.001586 0.000585 0.000000 0.010356 0.000000
# 2 -0.001586 0.007372 -0.001789 0.000000 -0.000711 0.000000
# 3 0.000585 -0.001789 0.012185 0.000000 0.010341 0.000000
# 4 0.000000 0.000000 0.000000 0.726499 0.000000 0.317152
# 5 0.010356 -0.000711 0.010341 0.000000 0.039426 0.000000
# 6 0.000000 0.000000 0.000000 0.317152 0.000000 0.088197
#
#
# Mechanical properties :
#
#
# Convention : Reuss Voigt Hill
#
# Bulk Modulus (GPa) = 37.57041 61.49352 49.53196
# Shear Modulus (GPa) = 5.55080 23.67944 14.61512
#
# Velocity S-wave (km/s) = 1.53143 3.16303 2.48496
# Velocity P-wave (km/s) = 4.35900 6.27067 5.40010
#
# Compressibility (1/GPa) = 0.02661669
#
# Stress axis : x y z
#
# Youngs Moduli (GPa) = 79.11922 135.64254 82.06780
#
# Poissons Ratio (x) = 0.21515 -0.04805
# Poissons Ratio (y) = 0.12550 0.14684
# Poissons Ratio (z) = -0.04632 0.24269
#
# Static dielectric constant tensor:
#      x y z
#    x 1.908620 0.000000 0.040560 
#    y 0.000000 1.947330 0.000000 
#    z 0.040560 0.000000 2.014450 
# 
# From -- ./inp_files/33691.got.cif
#   From: 2010.05.17/outbox.cif.g08.bks.cpg/sg5_17_cif.got.tgz:33691.got - 2010.06.03 18:56:24.
