data_PCOD9125584
_publ_section_title
;
Structure prediction by ZEFSAII (Michael W. Deem and Ramdas Pophale) SiO2 
 PCOD9125584
Probable space group: C 2
;
_chemical_formula_sum "Si O2"
_cell_formula_units_Z 24
_cell_length_a 16.342555
_cell_length_b 9.542481
_cell_length_c 7.973177
_cell_angle_alpha 90.000000
_cell_angle_beta 122.223691
_cell_angle_gamma 90.000000
_cell_volume 1051.886889
_symmetry_space_group_name_H-M "C 2"
_symmetry_group_IT_number 5
_symmetry_cell_setting 'monoclinic'
loop_
_space_group_symop_operation_xyz
x,y,z
-x,y,-z
1/2+x,1/2+y,z
1/2-x,1/2+y,-z
loop_
_atom_site_type_symbol
_atom_site_label
_atom_site_fract_x
_atom_site_fract_y
_atom_site_fract_z
Si Si1 0.247700 0.738590 0.519890
Si Si2 0.361841 0.982855 0.093397
Si Si3 0.239906 0.001527 0.665305
Si Si4 0.023207 0.680909 0.223784
Si Si5 0.070451 0.957410 0.718373
Si Si6 0.186293 0.172365 0.037967
O O1 0.295299 0.654642 0.420782
O O2 0.301600 0.703923 0.752156
O O3 0.136444 0.687443 0.392833
O O4 0.245301 0.905751 0.507651
O O5 0.468823 0.042944 0.235804
O O6 0.284354 0.089481 0.092191
O O7 0.337015 0.818242 0.086336
O O8 0.340256 0.005801 0.871423
O O9 0.167227 0.928436 0.715929
O O10 0.974643 0.816485 0.258588
O O11 0.000000 0.696580 0.000000
O O12 0.000000 0.018466 0.500000
O O13 0.101142 0.065004 0.895825
#
# Coordination Sequence:
#
# PCOD9125584 Si02
#       6
#     4   4   4   4   4   4
#     4  11  23  41  66  97 130 179 222 280 338 405
#     4  10  21  42  65  98 135 178 224 278 340 402
#     4  10  22  42  64  96 133 175 221 278 333 406
#     4  12  24  42  71 100 132 180 230 282 339 400
#     4  11  24  45  68  97 136 178 231 280 333 403
#     4  10  24  42  69  94 137 183 225 279 339 407
#
# _framework density 22.816140999999998
#
# number of rings (size 3 to 8) (size 9 to 14) (size 15 to 20)
#    0.000    1.333    3.333    3.000    2.333    2.667 
#    6.000    0.833    0.000    0.000    0.000    0.000 
#    0.000    0.000    0.000    0.000    0.000    0.000 
#
# Total GULP energy -66935.534545 kJ/mol
# GULP energy per Si atom -5577.961212 kJ/mol
# Density = 2.276421 g / cm^3
# Si number density = 22.816141 Si / 1000 Ang^3
#
#
#
# Elastic Constant Matrix: (Units=GPa)
#
#
# Indices 1 2 3 4 5 6 
#
# 1 44.7007 19.7168 12.4761 0.0000 6.2076 0.0000
# 2 19.7168 86.0632 12.7637 0.0000 -10.7006 0.0000
# 3 12.4761 12.7637 89.5148 0.0000 14.7325 0.0000
# 4 0.0000 0.0000 0.0000 32.3423 0.0000 -5.4213
# 5 6.2076 -10.7006 14.7325 0.0000 29.8404 0.0000
# 6 0.0000 0.0000 0.0000 -5.4213 0.0000 33.5761
#
#
#
# Elastic Compliance Matrix: (Units=1/GPa)
#
#
# Indices 1 2 3 4 5 6 
#
# 1 0.026821 -0.006812 -0.001575 0.000000 -0.007245 0.000000
# 2 -0.006812 0.014507 -0.002404 0.000000 0.007806 0.000000
# 3 -0.001575 -0.002404 0.012867 0.000000 -0.006887 0.000000
# 4 0.000000 0.000000 0.000000 0.031779 0.000000 0.005131
# 5 -0.007245 0.007806 -0.006887 0.000000 0.041218 0.000000
# 6 0.000000 0.000000 0.000000 0.005131 0.000000 0.030612
#
#
# Mechanical properties :
#
#
# Convention : Reuss Voigt Hill
#
# Bulk Modulus (GPa) = 30.66110 34.46580 32.56345
# Shear Modulus (GPa) = 26.28033 30.83991 28.56012
#
# Velocity S-wave (km/s) = 3.39754 3.68050 3.54185
# Velocity P-wave (km/s) = 5.37202 5.76195 5.57040
#
# Compressibility (1/GPa) = 0.03261462
#
# Stress axis : x y z
#
# Youngs Moduli (GPa) = 37.28394 68.93212 77.71811
#
# Poissons Ratio (x) = 0.46956 0.12237
# Poissons Ratio (y) = 0.25398 0.18682
# Poissons Ratio (z) = 0.05871 0.16570
#
# Static dielectric constant tensor:
#      x y z
#    x 1.913100 0.000000 0.008500 
#    y 0.000000 1.882870 0.000000 
#    z 0.008500 0.000000 1.860290 
# 
# From -- ./inp_files/26561.got.cif
#   From: 2010.05.17/outbox.cif.g08.bks.cpg/sg5_14_cif.got.tgz:26561.got - 2010.06.03 18:56:24.
