data_PCOD9125063
_publ_section_title
;
Structure prediction by ZEFSAII (Michael W. Deem and Ramdas Pophale) SiO2 
 PCOD9125063
Probable space group: C 2
;
_chemical_formula_sum "Si O2"
_cell_formula_units_Z 20
_cell_length_a 9.848787
_cell_length_b 8.205902
_cell_length_c 10.212910
_cell_angle_alpha 90.000000
_cell_angle_beta 74.495065
_cell_angle_gamma 90.000000
_cell_volume 795.350790
_symmetry_space_group_name_H-M "C 2"
_symmetry_group_IT_number 5
_symmetry_cell_setting 'monoclinic'
loop_
_space_group_symop_operation_xyz
x,y,z
-x,y,-z
1/2+x,1/2+y,z
1/2-x,1/2+y,-z
loop_
_atom_site_type_symbol
_atom_site_label
_atom_site_fract_x
_atom_site_fract_y
_atom_site_fract_z
Si Si1 0.856568 0.968100 0.968697
Si Si2 0.925919 0.594033 0.886673
Si Si3 0.094685 0.432486 0.629597
Si Si4 0.911393 0.119629 0.693664
Si Si5 0.293220 0.605391 0.431340
O O1 0.883257 0.781533 0.921551
O O2 0.829653 0.069401 0.842931
O O3 0.000000 0.028686 0.000000
O O4 0.720872 0.997685 0.093727
O O5 0.040558 0.567678 0.744050
O O6 0.000000 0.530508 0.000000
O O7 0.147820 0.512004 0.480400
O O8 0.215355 0.288762 0.623157
O O9 0.968649 0.302204 0.672746
O O10 0.831779 0.105320 0.577306
O O11 0.064122 0.025818 0.662558
#
# Coordination Sequence:
#
# PCOD9125063 Si02
#       5
#     4   4   4   4   4
#     4  11  25  44  68 101 135 177 223 276 339 398
#     4  11  25  44  68 102 135 176 224 280 335 395
#     4  10  21  39  66  91 129 172 217 270 325 391
#     4   9  21  42  61  91 133 166 217 273 317 397
#     4   9  21  41  62  93 128 173 215 269 326 385
#
# _framework density 25.146137
#
# number of rings (size 3 to 8) (size 9 to 14) (size 15 to 20)
#    1.200    0.800    0.000    2.400    2.800    6.400 
#    3.600    0.000    0.000    0.000    0.000    0.000 
#    0.000    0.000    0.000    0.000    0.000    0.000 
#
# Total GULP energy -55709.943026 kJ/mol
# GULP energy per Si atom -5570.994303 kJ/mol
# Density = 2.508890 g / cm^3
# Si number density = 25.146137 Si / 1000 Ang^3
#
#
#
# Elastic Constant Matrix: (Units=GPa)
#
#
# Indices 1 2 3 4 5 6 
#
# 1 96.1710 10.5608 18.0497 0.0000 -22.7423 0.0000
# 2 10.5608 73.0435 10.8701 0.0000 -19.4530 0.0000
# 3 18.0497 10.8701 105.9380 0.0000 -39.3003 0.0000
# 4 0.0000 0.0000 0.0000 40.4370 0.0000 -10.1058
# 5 -22.7423 -19.4530 -39.3003 0.0000 48.7665 0.0000
# 6 0.0000 0.0000 0.0000 -10.1058 0.0000 23.3090
#
#
#
# Elastic Compliance Matrix: (Units=1/GPa)
#
#
# Indices 1 2 3 4 5 6 
#
# 1 0.011692 -0.000265 0.000027 0.000000 0.005368 0.000000
# 2 -0.000265 0.015397 0.000996 0.000000 0.006821 0.000000
# 3 0.000027 0.000996 0.013530 0.000000 0.011313 0.000000
# 4 0.000000 0.000000 0.000000 0.027735 0.000000 0.012025
# 5 0.005368 0.006821 0.011313 0.000000 0.034847 0.000000
# 6 0.000000 0.000000 0.000000 0.012025 0.000000 0.048115
#
#
# Mechanical properties :
#
#
# Convention : Reuss Voigt Hill
#
# Bulk Modulus (GPa) = 23.73413 39.34597 31.54005
# Shear Modulus (GPa) = 30.51663 38.21396 34.36529
#
# Velocity S-wave (km/s) = 3.48741 3.90253 3.70080
# Velocity P-wave (km/s) = 5.06705 5.99893 5.55258
#
# Compressibility (1/GPa) = 0.04213342
#
# Stress axis : x y z
#
# Youngs Moduli (GPa) = 85.53075 64.94728 73.91220
#
# Poissons Ratio (x) = 0.01719 -0.00197
# Poissons Ratio (y) = 0.02264 -0.07358
# Poissons Ratio (z) = -0.00228 -0.06466
#
# Static dielectric constant tensor:
#      x y z
#    x 2.202540 0.000000 -0.008000 
#    y 0.000000 2.061420 0.000000 
#    z -0.008000 0.000000 1.934860 
# 
# From -- ./inp_files/38033.got.cif
#   From: 2010.05.17/outbox.cif.g08.bks.cpg/sg5_20_cif.got.tgz:38033.got - 2010.06.03 18:56:24.
