data_PCOD9125903
_publ_section_title
;
Structure prediction by ZEFSAII (Michael W. Deem and Ramdas Pophale) SiO2 
 PCOD9125903
Probable space group: C 2
;
_chemical_formula_sum "Si O2"
_cell_formula_units_Z 28
_cell_length_a 10.769334
_cell_length_b 9.093807
_cell_length_c 14.359240
_cell_angle_alpha 90.000000
_cell_angle_beta 49.682968
_cell_angle_gamma 90.000000
_cell_volume 1072.240551
_symmetry_space_group_name_H-M "C 2"
_symmetry_group_IT_number 5
_symmetry_cell_setting 'monoclinic'
loop_
_space_group_symop_operation_xyz
x,y,z
-x,y,-z
1/2+x,1/2+y,z
1/2-x,1/2+y,-z
loop_
_atom_site_type_symbol
_atom_site_label
_atom_site_fract_x
_atom_site_fract_y
_atom_site_fract_z
Si Si1 0.098672 0.210630 0.643045
Si Si2 0.865627 0.629108 0.660489
Si Si3 0.250017 0.339039 0.196929
Si Si4 0.304382 0.010440 0.451634
Si Si5 0.760285 0.833870 0.874062
Si Si6 0.302480 0.544061 0.004001
Si Si7 0.585833 0.050499 0.815588
O O1 0.219451 0.200555 0.671938
O O2 0.127712 0.063650 0.569258
O O3 0.166316 0.340155 0.543849
O O4 0.915788 0.256284 0.755327
O O5 0.806524 0.461307 0.702310
O O6 0.859659 0.723946 0.759094
O O7 0.061497 0.605494 0.555502
O O8 0.327638 0.438397 0.079463
O O9 0.363541 0.212786 0.178672
O O10 0.345800 0.026374 0.322143
O O11 0.663302 0.714403 0.986844
O O12 0.657512 0.935163 0.854348
O O13 0.863617 0.950673 0.885781
O O14 0.107474 0.541237 0.085125
#
# Coordination Sequence:
#
# PCOD9125903 Si02
#       7
#     4   4   4   4   4   4   4
#     4  11  23  44  64  99 136 181 235 279 330 406
#     4  10  21  46  69  95 140 177 224 289 338 395
#     4  10  24  42  67  99 134 180 225 278 339 406
#     4  11  24  42  68  99 137 184 227 280 344 396
#     4  11  22  41  73  95 132 181 220 277 342 406
#     4  11  23  46  67 102 138 177 228 277 343 408
#     4  12  23  43  66  96 142 175 220 284 338 397
#
# _framework density 26.113544000000001
#
# number of rings (size 3 to 8) (size 9 to 14) (size 15 to 20)
#    0.000    1.143    5.714    1.714    2.000    2.857 
#    2.571    5.714    0.000    0.000    0.000    0.000 
#    0.000    0.000    0.000    0.000    0.000    0.000 
#
# Total GULP energy -78316.361107 kJ/mol
# GULP energy per Si atom -5594.025793 kJ/mol
# Density = 2.605411 g / cm^3
# Si number density = 26.113544 Si / 1000 Ang^3
#
#
#
# Elastic Constant Matrix: (Units=GPa)
#
#
# Indices 1 2 3 4 5 6 
#
# 1 87.9787 30.0668 18.9097 0.0000 -5.1338 0.0000
# 2 30.0668 122.7694 -7.3569 0.0000 -13.7791 0.0000
# 3 18.9097 -7.3569 23.6705 0.0000 -8.1238 0.0000
# 4 0.0000 0.0000 0.0000 43.1260 0.0000 8.2422
# 5 -5.1338 -13.7791 -8.1238 0.0000 29.3210 0.0000
# 6 0.0000 0.0000 0.0000 8.2422 0.0000 54.6723
#
#
#
# Elastic Compliance Matrix: (Units=1/GPa)
#
#
# Indices 1 2 3 4 5 6 
#
# 1 0.016513 -0.005498 -0.016349 0.000000 -0.004222 0.000000
# 2 -0.005498 0.010883 0.010166 0.000000 0.006968 0.000000
# 3 -0.016349 0.010166 0.065337 0.000000 0.020017 0.000000
# 4 0.000000 0.000000 0.000000 0.023876 0.000000 -0.003599
# 5 -0.004222 0.006968 0.020017 0.000000 0.042187 0.000000
# 6 0.000000 0.000000 0.000000 -0.003599 0.000000 0.018833
#
#
# Mechanical properties :
#
#
# Convention : Reuss Voigt Hill
#
# Bulk Modulus (GPa) = 14.41521 35.29530 24.85526
# Shear Modulus (GPa) = 22.30994 38.27712 30.29353
#
# Velocity S-wave (km/s) = 2.92609 3.83272 3.40967
# Velocity P-wave (km/s) = 4.11681 5.75602 5.00400
#
# Compressibility (1/GPa) = 0.06937118
#
# Stress axis : x y z
#
# Youngs Moduli (GPa) = 60.55870 91.88583 15.30517
#
# Poissons Ratio (x) = 0.50516 0.25023
# Poissons Ratio (y) = 0.33293 -0.15559
# Poissons Ratio (z) = 0.99010 -0.93411
#
# Static dielectric constant tensor:
#      x y z
#    x 2.039970 0.000000 0.048120 
#    y 0.000000 2.019660 0.000000 
#    z 0.048120 0.000000 2.207130 
# 
# From -- ./inp_files/52389.got.cif
#   From: 2010.05.17/outbox.cif.g08.bks.cpg/sg5_27_cif.got.tgz:52389.got - 2010.06.03 18:56:24.
