data_PCOD9125839
_publ_section_title
;
Structure prediction by ZEFSAII (Michael W. Deem and Ramdas Pophale) SiO2 
 PCOD9125839
Probable space group: C 2
;
_chemical_formula_sum "Si O2"
_cell_formula_units_Z 32
_cell_length_a 15.627662
_cell_length_b 8.444011
_cell_length_c 24.338726
_cell_angle_alpha 90.000000
_cell_angle_beta 152.610855
_cell_angle_gamma 90.000000
_cell_volume 1477.502698
_symmetry_space_group_name_H-M "C 2"
_symmetry_group_IT_number 5
_symmetry_cell_setting 'monoclinic'
loop_
_space_group_symop_operation_xyz
x,y,z
-x,y,-z
1/2+x,1/2+y,z
1/2-x,1/2+y,-z
loop_
_atom_site_type_symbol
_atom_site_label
_atom_site_fract_x
_atom_site_fract_y
_atom_site_fract_z
Si Si1 0.095650 0.239670 0.832482
Si Si2 0.877102 0.365223 0.264407
Si Si3 0.570869 0.379934 0.833579
Si Si4 0.002727 0.172524 0.438807
Si Si5 0.989731 0.910917 0.080231
Si Si6 0.474049 0.780542 0.049704
Si Si7 0.576663 0.131875 0.315669
Si Si8 0.150119 0.454808 0.245624
O O1 0.044552 0.259010 0.739947
O O2 0.913251 0.288197 0.763335
O O3 0.137943 0.059547 0.868373
O O4 0.279832 0.347801 0.949665
O O5 0.654949 0.339939 0.138161
O O6 0.951569 0.304561 0.364912
O O7 0.940962 0.540082 0.279956
O O8 0.466077 0.366793 0.831498
O O9 0.465503 0.315645 0.719938
O O10 0.758922 0.281683 0.943056
O O11 0.210444 0.110298 0.545903
O O12 0.000000 0.235448 0.500000
O O13 0.853728 0.028349 0.354164
O O14 0.022861 0.098220 0.090529
O O15 0.569128 0.921011 0.138989
O O16 0.500000 0.808126 0.000000
O O17 0.561586 0.062760 0.244275
#
# Coordination Sequence:
#
# PCOD9125839 Si02
#       8
#     4   4   4   4   4   4   4   4
#     4  11  24  40  65 105 142 175 231 279 355 421
#     4  11  25  43  69  98 132 184 230 291 346 417
#     4  12  24  40  69 101 140 186 221 287 346 424
#     4  10  23  46  74  91 129 189 240 297 350 409
#     4  12  22  43  64 100 147 186 218 279 351 428
#     4  12  25  39  64 104 144 183 226 281 349 420
#     4  10  24  47  71  97 139 180 239 294 350 411
#     4  10  21  44  68  97 137 186 230 281 349 417
#
# _framework density 21.658166000000001
#
# number of rings (size 3 to 8) (size 9 to 14) (size 15 to 20)
#    0.000    1.000    2.500    4.875    5.250    1.000 
#    2.250    0.000    5.500    0.000    0.000    0.000 
#    0.000    0.000    0.000    0.000    0.000    0.000 
#
# Total GULP energy -89174.772554 kJ/mol
# GULP energy per Si atom -5573.423285 kJ/mol
# Density = 2.160887 g / cm^3
# Si number density = 21.658166 Si / 1000 Ang^3
#
#
#
# Elastic Constant Matrix: (Units=GPa)
#
#
# Indices 1 2 3 4 5 6 
#
# 1 133.9670 29.4298 55.8678 -0.0001 -9.7060 0.0001
# 2 29.4298 62.5324 41.8116 -0.0004 -2.5763 0.0003
# 3 55.8678 41.8116 107.3172 0.0005 5.2827 0.0007
# 4 -0.0001 -0.0004 0.0005 20.7857 0.0002 -6.7889
# 5 -9.7060 -2.5763 5.2827 0.0002 36.9792 0.0001
# 6 0.0001 0.0003 0.0007 -6.7889 0.0001 21.9955
#
#
#
# Elastic Compliance Matrix: (Units=1/GPa)
#
#
# Indices 1 2 3 4 5 6 
#
# 1 0.010016 -0.001336 -0.004852 0.000000 0.003229 0.000000
# 2 -0.001336 0.022081 -0.008022 0.000001 0.002334 0.000000
# 3 -0.004852 -0.008022 0.015167 -0.000001 -0.003999 -0.000001
# 4 0.000000 0.000001 -0.000001 0.053504 0.000000 0.016514
# 5 0.003229 0.002334 -0.003999 0.000000 0.028624 0.000000
# 6 0.000000 0.000000 -0.000001 0.016514 0.000000 0.050561
#
#
# Mechanical properties :
#
#
# Convention : Reuss Voigt Hill
#
# Bulk Modulus (GPa) = 53.07410 62.00390 57.53900
# Shear Modulus (GPa) = 23.29348 27.73255 25.51302
#
# Velocity S-wave (km/s) = 3.28305 3.58224 3.43590
# Velocity P-wave (km/s) = 6.23937 6.76761 6.50885
#
# Compressibility (1/GPa) = 0.01884158
#
# Stress axis : x y z
#
# Youngs Moduli (GPa) = 99.84497 45.28869 65.93470
#
# Poissons Ratio (x) = 0.06051 0.31994
# Poissons Ratio (y) = 0.13341 0.52893
# Poissons Ratio (z) = 0.48448 0.36331
#
# Static dielectric constant tensor:
#      x y z
#    x 1.819780 0.000000 -0.059980 
#    y 0.000000 1.835090 0.000000 
#    z -0.059980 0.000000 1.858250 
# 
# From -- ./inp_files/68779.got.cif
#   From: 2010.05.17/outbox.cif.g08.bks.cpg/sg5_35_cif.got.tgz:68779.got - 2010.06.03 18:56:24.
