data_PCOD9125016
_publ_section_title
;
Structure prediction by ZEFSAII (Michael W. Deem and Ramdas Pophale) SiO2 
 PCOD9125016
Probable space group: C 2
;
_chemical_formula_sum "Si O2"
_cell_formula_units_Z 26
_cell_length_a 12.376596
_cell_length_b 7.734626
_cell_length_c 26.526580
_cell_angle_alpha 90.000000
_cell_angle_beta 26.367941
_cell_angle_gamma 90.000000
_cell_volume 1127.809491
_symmetry_space_group_name_H-M "C 2"
_symmetry_group_IT_number 5
_symmetry_cell_setting 'monoclinic'
loop_
_space_group_symop_operation_xyz
x,y,z
-x,y,-z
1/2+x,1/2+y,z
1/2-x,1/2+y,-z
loop_
_atom_site_type_symbol
_atom_site_label
_atom_site_fract_x
_atom_site_fract_y
_atom_site_fract_z
Si Si1 0.500000 0.004270 0.500000
Si Si2 0.048480 0.338379 0.376800
Si Si3 0.730029 0.831695 0.608021
Si Si4 0.477208 0.110093 0.234296
Si Si5 0.276566 0.938590 0.128294
Si Si6 0.488620 0.571250 0.159865
Si Si7 0.099709 0.454160 0.081152
O O1 0.280811 0.135884 0.604917
O O2 0.439619 0.897388 0.475691
O O3 0.220115 0.176570 0.318971
O O4 0.230923 0.485344 0.278669
O O5 0.853833 0.313522 0.414438
O O6 0.000000 0.913267 0.500000
O O7 0.558191 0.950364 0.713476
O O8 0.601225 0.274229 0.209493
O O9 0.622883 0.054738 0.123578
O O10 0.137245 0.068203 0.149930
O O11 0.395316 0.024442 0.127693
O O12 0.500000 0.873492 0.000000
O O13 0.501121 0.763298 0.133796
O O14 0.646140 0.456099 0.054871
#
# Coordination Sequence:
#
# PCOD9125016 Si02
#       7
#     2   4   4   4   4   4   4
#     4  10  26  42  64  90 120 168 210 268 314 362
#     4  11  24  44  66  91 128 163 213 261 312 372
#     4  10  26  43  63  93 124 160 215 263 317 363
#     4  11  24  39  66  96 120 168 209 248 318 373
#     4   9  20  39  60  93 131 164 202 246 302 369
#     4  10  21  39  64  95 126 167 204 248 311 369
#     4  11  21  40  64  92 135 161 200 252 303 377
#
# _framework density 23.053539000000001
#
# number of rings (size 3 to 8) (size 9 to 14) (size 15 to 20)
#    0.462    1.231    0.000    4.615    3.231    3.692 
#    0.000   10.000    0.000    0.000    0.000    0.000 
#    0.000    0.000    0.000    0.000    0.000    0.000 
#
# Total GULP energy -72645.129827 kJ/mol
# GULP energy per Si atom -5588.086910 kJ/mol
# Density = 2.300107 g / cm^3
# Si number density = 23.053539 Si / 1000 Ang^3
#
#
#
# Elastic Constant Matrix: (Units=GPa)
#
#
# Indices 1 2 3 4 5 6 
#
# 1 113.5665 10.6572 22.2035 -0.0128 4.0742 -0.0207
# 2 10.6572 36.4324 -0.6718 -0.0001 14.3804 -0.0008
# 3 22.2035 -0.6718 63.0842 0.0288 18.8334 0.0840
# 4 -0.0128 -0.0001 0.0288 21.5983 -0.0135 12.5052
# 5 4.0742 14.3804 18.8334 -0.0135 34.3773 -0.0187
# 6 -0.0207 -0.0008 0.0840 12.5052 -0.0187 18.8866
#
#
#
# Elastic Compliance Matrix: (Units=1/GPa)
#
#
# Indices 1 2 3 4 5 6 
#
# 1 0.009959 -0.004182 -0.004447 -0.000009 0.003005 0.000040
# 2 -0.004182 0.036201 0.007449 0.000012 -0.018729 -0.000063
# 3 -0.004447 0.007449 0.021842 0.000043 -0.014555 -0.000144
# 4 -0.000009 0.000012 0.000043 0.075085 -0.000025 -0.049716
# 5 0.003005 -0.018729 -0.014555 -0.000025 0.044541 0.000128
# 6 0.000040 -0.000063 -0.000144 -0.049716 0.000128 0.085866
#
#
# Mechanical properties :
#
#
# Convention : Reuss Voigt Hill
#
# Bulk Modulus (GPa) = 15.23411 30.82898 23.03155
# Shear Modulus (GPa) = 16.79345 27.03205 21.91275
#
# Velocity S-wave (km/s) = 2.70192 3.42801 3.08639
# Velocity P-wave (km/s) = 4.04429 5.39167 4.76584
#
# Compressibility (1/GPa) = 0.06564217
#
# Stress axis : x y z
#
# Youngs Moduli (GPa) = 100.40686 27.62347 45.78378
#
# Poissons Ratio (x) = 0.11551 0.20361
# Poissons Ratio (y) = 0.41986 -0.34103
# Poissons Ratio (z) = 0.44653 -0.20576
#
# Static dielectric constant tensor:
#      x y z
#    x 1.840700 0.000020 -0.012080 
#    y 0.000020 1.846100 -0.000010 
#    z -0.012080 -0.000010 1.909210 
# 
# From -- ./inp_files/47953.got.cif
#   From: 2010.05.17/outbox.cif.g08.bks.cpg/sg5_24_cif.got.tgz:47953.got - 2010.06.03 18:56:24.
