data_PCOD9125572
_publ_section_title
;
Structure prediction by ZEFSAII (Michael W. Deem and Ramdas Pophale) SiO2 
 PCOD9125572
Probable space group: C 2
;
_chemical_formula_sum "Si O2"
_cell_formula_units_Z 32
_cell_length_a 33.765165
_cell_length_b 4.818026
_cell_length_c 17.714909
_cell_angle_alpha 90.000000
_cell_angle_beta 154.292176
_cell_angle_gamma 90.000000
_cell_volume 1250.111053
_symmetry_space_group_name_H-M "C 2"
_symmetry_group_IT_number 5
_symmetry_cell_setting 'monoclinic'
loop_
_space_group_symop_operation_xyz
x,y,z
-x,y,-z
1/2+x,1/2+y,z
1/2-x,1/2+y,-z
loop_
_atom_site_type_symbol
_atom_site_label
_atom_site_fract_x
_atom_site_fract_y
_atom_site_fract_z
Si Si1 0.677724 0.386000 0.074017
Si Si2 0.556873 0.902942 0.884241
Si Si3 0.690863 0.208237 0.406519
Si Si4 0.710714 0.660997 0.974214
Si Si5 0.072094 0.667477 0.457670
Si Si6 0.768378 0.625537 0.362743
Si Si7 0.581750 0.918957 0.094898
Si Si8 0.504540 0.690566 0.593725
O O1 0.735292 0.380994 0.250620
O O2 0.589409 0.584521 0.938879
O O3 0.722549 0.521047 0.076929
O O4 0.642603 0.079111 0.000376
O O5 0.475399 0.989630 0.690434
O O6 0.543024 0.999820 0.946698
O O7 0.780943 0.028253 0.537910
O O8 0.617334 0.150211 0.215464
O O9 0.675138 0.090893 0.463350
O O10 0.607830 0.777531 0.790001
O O11 0.776894 0.911024 0.064838
O O12 0.166408 0.777591 0.584997
O O13 0.016743 0.930000 0.390367
O O14 0.066805 0.439802 0.514835
O O15 0.674411 0.760178 0.230654
O O16 0.500000 0.769624 0.000000
O O17 0.500000 0.601117 0.500000
#
# Coordination Sequence:
#
# PCOD9125572 Si02
#       8
#     4   4   4   4   4   4   4   4
#     4  11  23  43  65  99 134 175 226 274 332 397
#     4  11  21  43  68  94 133 177 224 275 331 396
#     4  10  21  42  64  96 134 172 219 274 331 399
#     4  12  25  43  71 100 136 176 225 278 335 404
#     4  12  24  46  68  98 138 180 224 281 333 402
#     4  10  25  41  70 101 135 180 226 276 338 404
#     4  10  22  43  70 101 137 178 225 282 337 403
#     4  12  28  47  69 100 138 179 225 279 341 400
#
# _framework density 25.597726000000002
#
# number of rings (size 3 to 8) (size 9 to 14) (size 15 to 20)
#    0.000    1.000    2.500    3.375    3.500    4.000 
#    0.000   21.250    0.000    0.000    0.000    0.000 
#    0.000    0.000    0.000    0.000    0.000    0.000 
#
# Total GULP energy -89428.274630 kJ/mol
# GULP energy per Si atom -5589.267164 kJ/mol
# Density = 2.553946 g / cm^3
# Si number density = 25.597726 Si / 1000 Ang^3
#
#
#
# Elastic Constant Matrix: (Units=GPa)
#
#
# Indices 1 2 3 4 5 6 
#
# 1 152.3361 30.4005 41.0122 -0.0001 7.7026 0.0004
# 2 30.4005 86.1997 8.3719 0.0002 8.0007 -0.0007
# 3 41.0122 8.3719 70.5736 -0.0002 4.5414 0.0005
# 4 -0.0001 0.0002 -0.0002 17.9826 0.0003 -3.1170
# 5 7.7026 8.0007 4.5414 0.0003 44.6606 -0.0002
# 6 0.0004 -0.0007 0.0005 -3.1170 -0.0002 12.8271
#
#
#
# Elastic Compliance Matrix: (Units=1/GPa)
#
#
# Indices 1 2 3 4 5 6 
#
# 1 0.008287 -0.002437 -0.004492 0.000000 -0.000536 0.000000
# 2 -0.002437 0.012628 0.000037 0.000000 -0.001846 0.000001
# 3 -0.004492 0.000037 0.016837 0.000000 -0.000944 -0.000001
# 4 0.000000 0.000000 0.000000 0.058055 0.000000 0.014107
# 5 -0.000536 -0.001846 -0.000944 0.000000 0.022910 0.000000
# 6 0.000000 0.000001 -0.000001 0.014107 0.000000 0.081388
#
#
# Mechanical properties :
#
#
# Convention : Reuss Voigt Hill
#
# Bulk Modulus (GPa) = 41.72343 52.07540 46.89942
# Shear Modulus (GPa) = 22.53488 30.38237 26.45863
#
# Velocity S-wave (km/s) = 2.97028 3.44890 3.21850
# Velocity P-wave (km/s) = 5.30080 6.02062 5.67214
#
# Compressibility (1/GPa) = 0.02396735
#
# Stress axis : x y z
#
# Youngs Moduli (GPa) = 120.66734 79.18871 59.39432
#
# Poissons Ratio (x) = 0.19296 0.26682
# Poissons Ratio (y) = 0.29402 -0.00218
# Poissons Ratio (z) = 0.54209 -0.00291
#
# Static dielectric constant tensor:
#      x y z
#    x 2.032040 0.000000 -0.011430 
#    y 0.000000 1.961540 0.000000 
#    z -0.011430 0.000000 2.089500 
# 
# From -- ./inp_files/63748.got.cif
#   From: 2010.05.17/outbox.cif.g08.bks.cpg/sg5_32_cif.got.tgz:63748.got - 2010.06.03 18:56:24.
