data_PCOD9125633
_publ_section_title
;
Structure prediction by ZEFSAII (Michael W. Deem and Ramdas Pophale) SiO2 
 PCOD9125633
Probable space group: C 2
;
_chemical_formula_sum "Si O2"
_cell_formula_units_Z 30
_cell_length_a 20.905503
_cell_length_b 8.559373
_cell_length_c 8.337554
_cell_angle_alpha 90.000000
_cell_angle_beta 61.647265
_cell_angle_gamma 90.000000
_cell_volume 1312.937210
_symmetry_space_group_name_H-M "C 2"
_symmetry_group_IT_number 5
_symmetry_cell_setting 'monoclinic'
loop_
_space_group_symop_operation_xyz
x,y,z
-x,y,-z
1/2+x,1/2+y,z
1/2-x,1/2+y,-z
loop_
_atom_site_type_symbol
_atom_site_label
_atom_site_fract_x
_atom_site_fract_y
_atom_site_fract_z
Si Si1 0.140942 0.375000 0.906749
Si Si2 0.500000 0.404857 0.000000
Si Si3 0.255868 0.626210 0.333609
Si Si4 0.985009 0.197539 0.779820
Si Si5 0.381111 0.229384 0.069891
Si Si6 0.761754 0.364943 0.890123
Si Si7 0.839146 0.893682 0.436076
Si Si8 0.111450 0.174818 0.419020
O O1 0.174664 0.241582 0.754026
O O2 0.133841 0.553361 0.861768
O O3 0.062510 0.317314 0.059822
O O4 0.198791 0.375678 0.986619
O O5 0.501803 0.542921 0.858510
O O6 0.538440 0.271975 0.075239
O O7 0.247787 0.535805 0.176062
O O8 0.188563 0.733961 0.455916
O O9 0.271846 0.494745 0.446430
O O10 0.931797 0.158746 0.694824
O O11 0.058635 0.260008 0.609474
O O12 0.317438 0.286137 0.027949
O O13 0.382294 0.350304 0.221543
O O14 0.814796 0.266154 0.709720
O O15 0.873773 0.005448 0.524977
#
# Coordination Sequence:
#
# PCOD9125633 Si02
#       8
#     4   2   4   4   4   4   4   4
#     4  11  23  41  66  96 128 166 217 266 321 377
#     4  12  24  46  64  94 136 168 218 258 324 386
#     4  11  22  37  63  96 127 164 209 266 323 374
#     4  10  23  42  67  94 126 177 210 261 321 385
#     4  11  24  41  62  95 132 167 213 266 319 381
#     4  10  22  41  67  97 126 165 214 271 319 375
#     4  11  21  39  61  93 129 166 210 262 317 386
#     4  10  21  42  68  93 128 167 220 261 320 380
#
# _framework density 22.849532
#
# number of rings (size 3 to 8) (size 9 to 14) (size 15 to 20)
#    0.000    1.333    1.333    5.600    0.000    4.800 
#    2.400    0.000    0.000    0.000    0.000    0.000 
#    0.000    0.000    0.000    0.000    0.000    0.000 
#
# Total GULP energy -83694.642683 kJ/mol
# GULP energy per Si atom -5579.642846 kJ/mol
# Density = 2.279753 g / cm^3
# Si number density = 22.849532 Si / 1000 Ang^3
#
#
#
# Elastic Constant Matrix: (Units=GPa)
#
#
# Indices 1 2 3 4 5 6 
#
# 1 116.2301 35.1160 26.1612 0.0000 -9.1820 0.0000
# 2 35.1160 131.8969 41.4339 0.0000 -16.2678 0.0000
# 3 26.1612 41.4339 115.3516 0.0000 -47.2529 0.0000
# 4 0.0000 0.0000 0.0000 36.7039 0.0000 0.2130
# 5 -9.1820 -16.2678 -47.2529 0.0000 43.4071 0.0000
# 6 0.0000 0.0000 0.0000 0.2130 0.0000 43.5885
#
#
#
# Elastic Compliance Matrix: (Units=1/GPa)
#
#
# Indices 1 2 3 4 5 6 
#
# 1 0.009563 -0.002099 -0.001640 0.000000 -0.000549 0.000000
# 2 -0.002099 0.009008 -0.002813 0.000000 -0.000130 0.000000
# 3 -0.001640 -0.002813 0.017105 0.000000 0.017220 0.000000
# 4 0.000000 0.000000 0.000000 0.027246 0.000000 -0.000133
# 5 -0.000549 -0.000130 0.017220 0.000000 0.041618 0.000000
# 6 0.000000 0.000000 0.000000 -0.000133 0.000000 0.022942
#
#
# Mechanical properties :
#
#
# Convention : Reuss Voigt Hill
#
# Bulk Modulus (GPa) = 44.29922 63.21120 53.75521
# Shear Modulus (GPa) = 33.75835 42.12439 37.94137
#
# Velocity S-wave (km/s) = 3.84789 4.29832 4.07933
# Velocity P-wave (km/s) = 6.25869 7.23590 6.76496
#
# Compressibility (1/GPa) = 0.02257376
#
# Stress axis : x y z
#
# Youngs Moduli (GPa) = 104.56486 111.01186 58.46074
#
# Poissons Ratio (x) = 0.23298 0.09587
# Poissons Ratio (y) = 0.21945 0.16445
# Poissons Ratio (z) = 0.17147 0.31228
#
# Static dielectric constant tensor:
#      x y z
#    x 1.651410 0.000000 0.129500 
#    y 0.000000 1.791290 0.000000 
#    z 0.129500 0.000000 1.790470 
# 
# From -- ./inp_files/30671.got.cif
#   From: 2010.05.17/outbox.cif.g08.bks.cpg/sg5_16_cif.got.tgz:30671.got - 2010.06.03 18:56:24.
