data_PCOD9125416
_publ_section_title
;
Structure prediction by ZEFSAII (Michael W. Deem and Ramdas Pophale) SiO2 
 PCOD9125416
Probable space group: C 2
;
_chemical_formula_sum "Si O2"
_cell_formula_units_Z 32
_cell_length_a 31.525254
_cell_length_b 7.826158
_cell_length_c 13.073591
_cell_angle_alpha 90.000000
_cell_angle_beta 153.777853
_cell_angle_gamma 90.000000
_cell_volume 1425.212289
_symmetry_space_group_name_H-M "C 2"
_symmetry_group_IT_number 5
_symmetry_cell_setting 'monoclinic'
loop_
_space_group_symop_operation_xyz
x,y,z
-x,y,-z
1/2+x,1/2+y,z
1/2-x,1/2+y,-z
loop_
_atom_site_type_symbol
_atom_site_label
_atom_site_fract_x
_atom_site_fract_y
_atom_site_fract_z
Si Si1 0.784709 0.730880 0.084540
Si Si2 0.300795 0.763321 0.727584
Si Si3 0.529528 0.292095 0.945778
Si Si4 0.470570 0.619055 0.189367
Si Si5 0.650207 0.203995 0.563696
Si Si6 0.244603 0.655134 0.389887
Si Si7 0.392272 0.562613 0.229539
Si Si8 0.183582 0.111470 0.668484
O O1 0.676911 0.724982 0.900267
O O2 0.761754 0.647578 0.924691
O O3 0.839667 0.635601 0.297871
O O4 0.841238 0.903224 0.176193
O O5 0.228414 0.658460 0.645601
O O6 0.304090 0.692686 0.620302
O O7 0.261981 0.952068 0.631074
O O8 0.404178 0.768429 0.003786
O O9 0.518666 0.483918 0.878995
O O10 0.454077 0.187526 0.712247
O O11 0.500000 0.281358 0.000000
O O12 0.638699 0.232696 0.171766
O O13 0.408959 0.530410 0.145913
O O14 0.574752 0.669703 0.455997
O O15 0.672519 0.406829 0.630767
O O16 0.288997 0.704485 0.377319
O O17 0.500000 0.586473 0.500000
#
# Coordination Sequence:
#
# PCOD9125416 Si02
#       8
#     4   4   4   4   4   4   4   4
#     4  12  22  43  71 102 137 186 234 285 351 423
#     4  11  23  40  67  93 131 175 220 287 341 417
#     4  11  22  43  67  94 133 182 228 285 357 416
#     4  11  23  41  67  99 130 183 232 280 356 420
#     4  10  21  41  65  94 133 173 220 278 344 411
#     4  11  24  44  62  97 133 174 228 284 350 412
#     4  12  24  45  71 102 144 187 238 291 358 422
#     4  10  23  42  66  94 132 178 228 279 342 422
#
# _framework density 22.452794000000001
#
# number of rings (size 3 to 8) (size 9 to 14) (size 15 to 20)
#    0.000    1.000    5.000    2.250    3.500    0.000 
#    4.500    0.625    0.000    0.000    0.000    0.000 
#    0.000    0.000    0.000    0.000    0.000    0.000 
#
# Total GULP energy -89253.183648 kJ/mol
# GULP energy per Si atom -5578.323978 kJ/mol
# Density = 2.240169 g / cm^3
# Si number density = 22.452794 Si / 1000 Ang^3
#
#
#
# Elastic Constant Matrix: (Units=GPa)
#
#
# Indices 1 2 3 4 5 6 
#
# 1 154.8191 11.7488 47.8885 0.0000 -16.6727 0.0000
# 2 11.7488 15.8689 7.3975 0.0000 2.4355 0.0000
# 3 47.8885 7.3975 103.8537 0.0000 -15.3315 0.0000
# 4 0.0000 0.0000 0.0000 30.6626 0.0000 0.8906
# 5 -16.6727 2.4355 -15.3315 0.0000 47.8035 0.0000
# 6 0.0000 0.0000 0.0000 0.8906 0.0000 21.6986
#
#
#
# Elastic Compliance Matrix: (Units=1/GPa)
#
#
# Indices 1 2 3 4 5 6 
#
# 1 0.007985 -0.004812 -0.003036 0.000000 0.002057 0.000000
# 2 -0.004812 0.069263 -0.003656 0.000000 -0.006380 0.000000
# 3 -0.003036 -0.003656 0.011715 0.000000 0.002885 0.000000
# 4 0.000000 0.000000 0.000000 0.032652 0.000000 -0.001340
# 5 0.002057 -0.006380 0.002885 0.000000 0.022886 0.000000
# 6 0.000000 0.000000 0.000000 -0.001340 0.000000 0.046141
#
#
# Mechanical properties :
#
#
# Convention : Reuss Voigt Hill
#
# Bulk Modulus (GPa) = 15.16202 45.40128 30.28165
# Shear Modulus (GPa) = 21.21924 33.86673 27.54298
#
# Velocity S-wave (km/s) = 3.07752 3.88797 3.50624
# Velocity P-wave (km/s) = 4.40405 6.35765 5.46879
#
# Compressibility (1/GPa) = 0.06595427
#
# Stress axis : x y z
#
# Youngs Moduli (GPa) = 125.23863 14.43773 85.36086
#
# Poissons Ratio (x) = 0.06948 0.25911
# Poissons Ratio (y) = 0.60268 0.31212
# Poissons Ratio (z) = 0.38016 0.05279
#
# Static dielectric constant tensor:
#      x y z
#    x 1.906800 0.000000 -0.051730 
#    y 0.000000 1.861240 0.000000 
#    z -0.051730 0.000000 1.857650 
# 
# From -- ./inp_files/48404.got.cif
#   From: 2010.05.17/outbox.cif.g08.bks.cpg/sg5_25_cif.got.tgz:48404.got - 2010.06.03 18:56:24.
