data_PCOD9125977
_publ_section_title
;
Structure prediction by ZEFSAII (Michael W. Deem and Ramdas Pophale) SiO2 
 PCOD9125977
Probable space group: C 2
;
_chemical_formula_sum "Si O2"
_cell_formula_units_Z 26
_cell_length_a 5.478970
_cell_length_b 26.985047
_cell_length_c 9.002944
_cell_angle_alpha 90.000000
_cell_angle_beta 82.427496
_cell_angle_gamma 90.000000
_cell_volume 1319.479083
_symmetry_space_group_name_H-M "C 2"
_symmetry_group_IT_number 5
_symmetry_cell_setting 'monoclinic'
loop_
_space_group_symop_operation_xyz
x,y,z
-x,y,-z
1/2+x,1/2+y,z
1/2-x,1/2+y,-z
loop_
_atom_site_type_symbol
_atom_site_label
_atom_site_fract_x
_atom_site_fract_y
_atom_site_fract_z
Si Si1 0.182414 0.930980 0.287832
Si Si2 0.038810 0.042981 0.323650
Si Si3 0.314031 0.345935 0.208093
Si Si4 0.270437 0.162517 0.924669
Si Si5 0.000000 0.377668 0.500000
Si Si6 0.500000 0.259254 0.000000
Si Si7 0.000000 0.404546 0.000000
Si Si8 0.046996 0.594144 0.318967
O O1 0.308887 0.913489 0.430237
O O2 0.013734 0.885416 0.249130
O O3 0.058887 0.983958 0.309127
O O4 0.380406 0.935965 0.140184
O O5 0.296595 0.071098 0.268472
O O6 0.000000 0.054420 0.500000
O O7 0.786787 0.060198 0.266868
O O8 0.122185 0.345136 0.360047
O O9 0.416308 0.294010 0.142428
O O10 0.189174 0.369691 0.072578
O O11 0.294484 0.221116 0.956157
O O12 0.355046 0.146345 0.754027
O O13 0.500000 0.140446 0.000000
O O14 0.000000 0.146243 0.000000
O O15 0.000000 0.596670 0.500000
#
# Coordination Sequence:
#
# PCOD9125977 Si02
#       8
#     4   4   4   4   2   2   2   4
#     4  11  22  39  59  95 134 174 214 260 308 385
#     4  10  22  37  66  92 130 171 211 252 323 377
#     4  11  21  42  60  96 126 174 212 264 314 386
#     4  10  23  43  68  94 121 165 208 271 334 383
#     4  10  24  34  68  88 140 162 220 262 306 372
#     4  10  24  40  71  82 130 167 210 260 342 382
#     4  10  22  36  61  84 136 171 214 258 314 364
#     4  10  22  43  65  94 124 166 212 268 317 383
#
# _framework density 19.704744999999999
#
# number of rings (size 3 to 8) (size 9 to 14) (size 15 to 20)
#    0.462    1.231    1.538    2.308    8.615    0.000 
#    4.154    3.077    0.000    0.000    0.000    0.000 
#    0.000    0.000    0.000    0.000    0.000    0.000 
#
# Total GULP energy -72412.530141 kJ/mol
# GULP energy per Si atom -5570.194626 kJ/mol
# Density = 1.965990 g / cm^3
# Si number density = 19.704745 Si / 1000 Ang^3
#
#
#
# Elastic Constant Matrix: (Units=GPa)
#
#
# Indices 1 2 3 4 5 6 
#
# 1 126.7653 50.9190 35.9365 0.0000 -2.3605 0.0000
# 2 50.9190 88.6831 38.3392 0.0000 -11.4985 0.0000
# 3 35.9365 38.3392 79.2025 0.0000 -5.6487 0.0000
# 4 0.0000 0.0000 0.0000 25.0345 0.0000 -8.4660
# 5 -2.3605 -11.4985 -5.6487 0.0000 36.9614 0.0000
# 6 0.0000 0.0000 0.0000 -8.4660 0.0000 27.0888
#
#
#
# Elastic Compliance Matrix: (Units=1/GPa)
#
#
# Indices 1 2 3 4 5 6 
#
# 1 0.010651 -0.005257 -0.002382 0.000000 -0.001319 0.000000
# 2 -0.005257 0.017295 -0.005689 0.000000 0.004175 0.000000
# 3 -0.002382 -0.005689 0.016503 0.000000 0.000600 0.000000
# 4 0.000000 0.000000 0.000000 0.044665 0.000000 0.013959
# 5 -0.001319 0.004175 0.000600 0.000000 0.028362 0.000000
# 6 0.000000 0.000000 0.000000 0.013959 0.000000 0.041278
#
#
# Mechanical properties :
#
#
# Convention : Reuss Voigt Hill
#
# Bulk Modulus (GPa) = 56.19976 60.56005 58.37990
# Shear Modulus (GPa) = 26.13127 29.11403 27.62265
#
# Velocity S-wave (km/s) = 3.64557 3.84801 3.74816
# Velocity P-wave (km/s) = 6.80464 7.10939 6.95868
#
# Compressibility (1/GPa) = 0.01779367
#
# Stress axis : x y z
#
# Youngs Moduli (GPa) = 93.88977 57.81983 60.59343
#
# Poissons Ratio (x) = 0.30393 0.14434
# Poissons Ratio (y) = 0.49353 0.34472
# Poissons Ratio (z) = 0.22366 0.32895
#
# Static dielectric constant tensor:
#      x y z
#    x 1.780920 0.000000 -0.020480 
#    y 0.000000 1.688210 0.000000 
#    z -0.020480 0.000000 1.712380 
# 
# From -- ./inp_files/13059.got.cif
#   From: 2010.05.17/outbox.cif.g08.bks.cpg/sg5_7_cif.got.tgz:13059.got - 2010.06.03 18:56:24.
