data_PCOD9125823
_publ_section_title
;
Structure prediction by ZEFSAII (Michael W. Deem and Ramdas Pophale) SiO2 
 PCOD9125823
Probable space group: C 2
;
_chemical_formula_sum "Si O2"
_cell_formula_units_Z 26
_cell_length_a 5.279325
_cell_length_b 18.241862
_cell_length_c 13.602721
_cell_angle_alpha 90.000000
_cell_angle_beta 122.033808
_cell_angle_gamma 90.000000
_cell_volume 1110.538461
_symmetry_space_group_name_H-M "C 2"
_symmetry_group_IT_number 5
_symmetry_cell_setting 'monoclinic'
loop_
_space_group_symop_operation_xyz
x,y,z
-x,y,-z
1/2+x,1/2+y,z
1/2-x,1/2+y,-z
loop_
_atom_site_type_symbol
_atom_site_label
_atom_site_fract_x
_atom_site_fract_y
_atom_site_fract_z
Si Si1 0.348691 0.154910 0.263264
Si Si2 0.462479 0.809808 0.604592
Si Si3 0.144804 0.435130 0.306840
Si Si4 0.287925 0.563188 0.223488
Si Si5 0.000000 0.689721 0.500000
Si Si6 0.136770 0.815237 0.806786
Si Si7 0.041505 0.951313 0.895865
O O1 0.518675 0.111601 0.210672
O O2 0.563917 0.152559 0.407001
O O3 0.257713 0.232990 0.194255
O O4 0.056844 0.114052 0.244178
O O5 0.500000 0.794089 0.500000
O O6 0.334501 0.891497 0.588188
O O7 0.250491 0.744852 0.593199
O O8 0.781195 0.806648 0.720345
O O9 0.343624 0.505045 0.323553
O O10 0.233051 0.369703 0.249580
O O11 0.795641 0.455290 0.218688
O O12 0.253512 0.506398 0.125244
O O13 0.160188 0.867447 0.907589
O O14 0.000000 0.971010 0.000000
#
# Coordination Sequence:
#
# PCOD9125823 Si02
#       7
#     4   4   4   4   2   4   4
#     4  12  24  44  66 103 139 186 227 280 349 401
#     4  11  19  37  64 102 130 182 241 273 337 398
#     4  10  21  44  66  99 132 180 228 287 340 406
#     4  11  25  44  68  95 145 181 218 289 352 410
#     4  12  24  38  66 100 138 194 234 278 338 420
#     4  10  22  37  71  98 135 174 229 294 327 405
#     4  10  23  47  76 100 130 185 237 285 356 422
#
# _framework density 23.412064999999998
#
# number of rings (size 3 to 8) (size 9 to 14) (size 15 to 20)
#    0.000    1.231    4.615    0.923    2.154    2.462 
#    1.385    6.154    0.000    0.000    0.000    0.000 
#    0.000    0.000    0.000    0.000    0.000    0.000 
#
# Total GULP energy -72432.981630 kJ/mol
# GULP energy per Si atom -5571.767818 kJ/mol
# Density = 2.335878 g / cm^3
# Si number density = 23.412065 Si / 1000 Ang^3
#
#
#
# Elastic Constant Matrix: (Units=GPa)
#
#
# Indices 1 2 3 4 5 6 
#
# 1 126.8064 56.1521 2.6921 0.0000 -0.2610 0.0000
# 2 56.1521 168.5840 1.2186 0.0000 -10.6029 0.0000
# 3 2.6921 1.2186 33.3338 0.0000 -1.8240 0.0000
# 4 0.0000 0.0000 0.0000 8.0238 0.0000 -9.1828
# 5 -0.2610 -10.6029 -1.8240 0.0000 38.3936 0.0000
# 6 0.0000 0.0000 0.0000 -9.1828 0.0000 27.2800
#
#
#
# Elastic Compliance Matrix: (Units=1/GPa)
#
#
# Indices 1 2 3 4 5 6 
#
# 1 0.009290 -0.003142 -0.000681 0.000000 -0.000837 0.000000
# 2 -0.003142 0.007100 0.000101 0.000000 0.001944 0.000000
# 3 -0.000681 0.000101 0.030130 0.000000 0.001455 0.000000
# 4 0.000000 0.000000 0.000000 0.202725 0.000000 0.068240
# 5 -0.000837 0.001944 0.001455 0.000000 0.026646 0.000000
# 6 0.000000 0.000000 0.000000 0.068240 0.000000 0.059627
#
#
# Mechanical properties :
#
#
# Convention : Reuss Voigt Hill
#
# Bulk Modulus (GPa) = 25.59175 49.87219 37.73197
# Shear Modulus (GPa) = 14.04536 32.65024 23.34780
#
# Velocity S-wave (km/s) = 2.45198 3.73847 3.16136
# Velocity P-wave (km/s) = 4.35557 6.32322 5.42928
#
# Compressibility (1/GPa) = 0.03907509
#
# Stress axis : x y z
#
# Youngs Moduli (GPa) = 107.64092 140.84752 33.18898
#
# Poissons Ratio (x) = 0.44255 0.02261
# Poissons Ratio (y) = 0.33822 -0.00334
# Poissons Ratio (z) = 0.07333 -0.01417
#
# Static dielectric constant tensor:
#      x y z
#    x 1.955120 0.000000 -0.021430 
#    y 0.000000 1.975050 0.000000 
#    z -0.021430 0.000000 1.935360 
# 
# From -- ./inp_files/49067.got.cif
#   From: 2010.05.17/outbox.cif.g08.bks.cpg/sg5_25_cif.got.tgz:49067.got - 2010.06.03 18:56:24.
