data_PCOD9125942
_publ_section_title
;
Structure prediction by ZEFSAII (Michael W. Deem and Ramdas Pophale) SiO2 
 PCOD9125942
Probable space group: C 2
;
_chemical_formula_sum "Si O2"
_cell_formula_units_Z 30
_cell_length_a 5.024096
_cell_length_b 22.824419
_cell_length_c 13.297390
_cell_angle_alpha 90.000000
_cell_angle_beta 78.104096
_cell_angle_gamma 90.000000
_cell_volume 1492.091397
_symmetry_space_group_name_H-M "C 2"
_symmetry_group_IT_number 5
_symmetry_cell_setting 'monoclinic'
loop_
_space_group_symop_operation_xyz
x,y,z
-x,y,-z
1/2+x,1/2+y,z
1/2-x,1/2+y,-z
loop_
_atom_site_type_symbol
_atom_site_label
_atom_site_fract_x
_atom_site_fract_y
_atom_site_fract_z
Si Si1 0.500000 0.132010 0.000000
Si Si2 0.852936 0.325634 0.755115
Si Si3 0.798103 0.419519 0.930165
Si Si4 0.933462 0.212661 0.888177
Si Si5 0.217069 0.177540 0.567159
Si Si6 0.098154 0.804525 0.379974
Si Si7 0.513763 0.045045 0.154943
Si Si8 0.568636 0.603360 0.758986
O O1 0.655076 0.176271 0.916036
O O2 0.343933 0.085550 0.942431
O O3 0.766164 0.376628 0.837980
O O4 0.904523 0.269336 0.822602
O O5 0.632805 0.311490 0.686428
O O6 0.137099 0.339227 0.677966
O O7 0.944540 0.478917 0.881959
O O8 0.500000 0.431229 0.000000
O O9 0.000000 0.393548 0.000000
O O10 0.114624 0.162798 0.821468
O O11 0.000000 0.225178 0.000000
O O12 0.500000 0.153990 0.500000
O O13 0.308281 0.236595 0.617751
O O14 0.070555 0.129871 0.647802
O O15 0.000000 0.196154 0.500000
O O16 0.000000 0.820956 0.500000
O O17 0.680281 0.060470 0.241335
O O18 0.205432 0.068212 0.190151
#
# Coordination Sequence:
#
# PCOD9125942 Si02
#       8
#     2   4   4   4   4   4   4   4
#     4  10  22  34  58  84 128 168 212 244 310 368
#     4  12  26  41  66  96 133 170 219 273 333 393
#     4  12  26  45  67  93 137 181 228 270 318 389
#     4  11  23  35  57  90 136 166 205 253 327 385
#     4  11  22  39  65  97 136 172 210 273 346 405
#     4  11  24  43  67  94 127 168 220 273 335 402
#     4  11  23  40  63  89 127 176 224 258 304 379
#     4  11  23  38  64  96 126 168 217 270 317 391
#
# _framework density 20.106007999999999
#
# number of rings (size 3 to 8) (size 9 to 14) (size 15 to 20)
#    0.000    0.800    3.333    4.800    8.400    0.000 
#    0.000    0.000    0.000    8.000    0.000    0.000 
#    0.000    0.000    0.000    0.000    0.000    0.000 
#
# Total GULP energy -83699.523815 kJ/mol
# GULP energy per Si atom -5579.968254 kJ/mol
# Density = 2.006025 g / cm^3
# Si number density = 20.106008 Si / 1000 Ang^3
#
#
#
# Elastic Constant Matrix: (Units=GPa)
#
#
# Indices 1 2 3 4 5 6 
#
# 1 108.8582 25.1982 50.6950 0.0000 26.0708 0.0000
# 2 25.1982 89.2402 54.4474 0.0000 3.8587 0.0000
# 3 50.6950 54.4474 118.9012 0.0000 12.6038 0.0000
# 4 0.0000 0.0000 0.0000 20.3672 0.0000 -1.8283
# 5 26.0708 3.8587 12.6038 0.0000 33.7883 0.0000
# 6 0.0000 0.0000 0.0000 -1.8283 0.0000 19.1388
#
#
#
# Elastic Compliance Matrix: (Units=1/GPa)
#
#
# Indices 1 2 3 4 5 6 
#
# 1 0.013535 -0.000675 -0.004542 0.000000 -0.008672 0.000000
# 2 -0.000675 0.015611 -0.007004 0.000000 0.001351 0.000000
# 3 -0.004542 -0.007004 0.013637 0.000000 -0.000782 0.000000
# 4 0.000000 0.000000 0.000000 0.049523 0.000000 0.004731
# 5 -0.008672 0.001351 -0.000782 0.000000 0.036425 0.000000
# 6 0.000000 0.000000 0.000000 0.004731 0.000000 0.052702
#
#
# Mechanical properties :
#
#
# Convention : Reuss Voigt Hill
#
# Bulk Modulus (GPa) = 54.52563 64.18675 59.35619
# Shear Modulus (GPa) = 23.58609 27.10281 25.34445
#
# Velocity S-wave (km/s) = 3.42875 3.67549 3.55426
# Velocity P-wave (km/s) = 6.54622 7.07148 6.81391
#
# Compressibility (1/GPa) = 0.01834000
#
# Stress axis : x y z
#
# Youngs Moduli (GPa) = 73.88406 64.05614 73.32916
#
# Poissons Ratio (x) = 0.04327 0.33307
# Poissons Ratio (y) = 0.04991 0.51359
# Poissons Ratio (z) = 0.33559 0.44865
#
# Static dielectric constant tensor:
#      x y z
#    x 1.772530 0.000000 -0.007280 
#    y 0.000000 1.678980 0.000000 
#    z -0.007280 0.000000 1.795630 
# 
# From -- ./inp_files/34204.got.cif
#   From: 2010.05.17/outbox.cif.g08.bks.cpg/sg5_18_cif.got.tgz:34204.got - 2010.06.03 18:56:24.
