data_PCOD9125719
_publ_section_title
;
Structure prediction by ZEFSAII (Michael W. Deem and Ramdas Pophale) SiO2 
 PCOD9125719
Probable space group: C 2
;
_chemical_formula_sum "Si O2"
_cell_formula_units_Z 20
_cell_length_a 11.275491
_cell_length_b 7.248196
_cell_length_c 11.505486
_cell_angle_alpha 90.000000
_cell_angle_beta 95.726655
_cell_angle_gamma 90.000000
_cell_volume 935.615657
_symmetry_space_group_name_H-M "C 2"
_symmetry_group_IT_number 5
_symmetry_cell_setting 'monoclinic'
loop_
_space_group_symop_operation_xyz
x,y,z
-x,y,-z
1/2+x,1/2+y,z
1/2-x,1/2+y,-z
loop_
_atom_site_type_symbol
_atom_site_label
_atom_site_fract_x
_atom_site_fract_y
_atom_site_fract_z
Si Si1 0.672928 0.324890 0.874425
Si Si2 0.115973 0.441466 0.939791
Si Si3 0.362031 0.443960 0.481958
Si Si4 0.312897 0.683405 0.673348
Si Si5 0.585696 0.677611 0.727798
O O1 0.757993 0.214472 0.793168
O O2 0.599876 0.484542 0.800996
O O3 0.595291 0.158673 0.916661
O O4 0.763198 0.416741 0.974566
O O5 0.134049 0.331200 0.820821
O O6 0.000000 0.368645 0.000000
O O7 0.500000 0.380798 0.500000
O O8 0.320673 0.489764 0.607919
O O9 0.272547 0.303631 0.415673
O O10 0.363487 0.621290 0.393981
O O11 0.450464 0.740139 0.691944
#
# Coordination Sequence:
#
# PCOD9125719 Si02
#       5
#     4   4   4   4   4
#     4  11  24  41  65  95 129 167 212 259 311 377
#     4  12  24  40  65  95 126 172 214 252 316 374
#     4   9  21  41  63  93 127 163 211 262 316 376
#     4  10  21  43  65  91 129 165 207 267 314 371
#     4  10  22  44  63  93 131 164 213 264 310 371
#
# _framework density 21.376301000000002
#
# number of rings (size 3 to 8) (size 9 to 14) (size 15 to 20)
#    0.000    1.600    4.000    0.000    2.800    2.400 
#   10.800    0.000    0.000    0.000    0.000    0.000 
#    0.000    0.000    0.000    0.000    0.000    0.000 
#
# Total GULP energy -55743.383336 kJ/mol
# GULP energy per Si atom -5574.338334 kJ/mol
# Density = 2.132765 g / cm^3
# Si number density = 21.376301 Si / 1000 Ang^3
#
#
#
# Elastic Constant Matrix: (Units=GPa)
#
#
# Indices 1 2 3 4 5 6 
#
# 1 75.7711 23.7248 18.6356 0.0000 11.6398 0.0000
# 2 23.7248 72.6854 8.3555 0.0000 8.3021 0.0000
# 3 18.6356 8.3555 63.3378 0.0000 26.0106 0.0000
# 4 0.0000 0.0000 0.0000 41.0769 0.0000 5.3262
# 5 11.6398 8.3021 26.0106 0.0000 35.7844 0.0000
# 6 0.0000 0.0000 0.0000 5.3262 0.0000 15.6938
#
#
#
# Elastic Compliance Matrix: (Units=1/GPa)
#
#
# Indices 1 2 3 4 5 6 
#
# 1 0.015696 -0.004554 -0.003357 0.000000 -0.001609 0.000000
# 2 -0.004554 0.015478 0.000234 0.000000 -0.002280 0.000000
# 3 -0.003357 0.000234 0.023263 0.000000 -0.015872 0.000000
# 4 0.000000 0.000000 0.000000 0.025465 0.000000 -0.008643
# 5 -0.001609 -0.002280 -0.015872 0.000000 0.040534 0.000000
# 6 0.000000 0.000000 0.000000 -0.008643 0.000000 0.066653
#
#
# Mechanical properties :
#
#
# Convention : Reuss Voigt Hill
#
# Bulk Modulus (GPa) = 25.58527 34.80290 30.19408
# Shear Modulus (GPa) = 23.20517 29.24958 26.22737
#
# Velocity S-wave (km/s) = 3.29835 3.70309 3.50657
# Velocity P-wave (km/s) = 5.14786 5.88220 5.52724
#
# Compressibility (1/GPa) = 0.03908499
#
# Stress axis : x y z
#
# Youngs Moduli (GPa) = 63.70970 64.60897 42.98677
#
# Poissons Ratio (x) = 0.29421 0.14429
# Poissons Ratio (y) = 0.29011 -0.01007
# Poissons Ratio (z) = 0.21385 -0.01514
#
# Static dielectric constant tensor:
#      x y z
#    x 1.755680 0.000000 -0.036820 
#    y 0.000000 1.783230 0.000000 
#    z -0.036820 0.000000 1.807860 
# 
# From -- ./inp_files/34726.got.cif
#   From: 2010.05.17/outbox.cif.g08.bks.cpg/sg5_18_cif.got.tgz:34726.got - 2010.06.03 18:56:24.
