data_PCOD9125563
_publ_section_title
;
Structure prediction by ZEFSAII (Michael W. Deem and Ramdas Pophale) SiO2 
 PCOD9125563
Probable space group: C 2
;
_chemical_formula_sum "Si O2"
_cell_formula_units_Z 30
_cell_length_a 11.816051
_cell_length_b 8.412112
_cell_length_c 13.930899
_cell_angle_alpha 90.000000
_cell_angle_beta 108.652651
_cell_angle_gamma 90.000000
_cell_volume 1311.971086
_symmetry_space_group_name_H-M "C 2"
_symmetry_group_IT_number 5
_symmetry_cell_setting 'monoclinic'
loop_
_space_group_symop_operation_xyz
x,y,z
-x,y,-z
1/2+x,1/2+y,z
1/2-x,1/2+y,-z
loop_
_atom_site_type_symbol
_atom_site_label
_atom_site_fract_x
_atom_site_fract_y
_atom_site_fract_z
Si Si1 0.435989 0.628000 0.834478
Si Si2 0.287838 0.710101 0.117775
Si Si3 0.881308 0.323322 0.639894
Si Si4 0.000000 0.775573 0.500000
Si Si5 0.200111 0.984639 0.460407
Si Si6 0.265057 0.082748 0.088783
Si Si7 0.951179 0.594040 0.305981
Si Si8 0.164475 0.796615 0.272519
O O1 0.577421 0.647538 0.858535
O O2 0.376857 0.759208 0.747446
O O3 0.367873 0.640813 0.917384
O O4 0.402025 0.448676 0.793142
O O5 0.238262 0.700373 0.212566
O O6 0.280250 0.895226 0.092789
O O7 0.207654 0.635428 0.011597
O O8 0.795296 0.456934 0.570281
O O9 0.010369 0.409937 0.670056
O O10 0.844053 0.162980 0.572421
O O11 0.085659 0.887533 0.463989
O O12 0.071148 0.667957 0.595258
O O13 0.239415 0.887992 0.375509
O O14 0.348299 0.128478 0.201345
O O15 0.065297 0.682637 0.290608
#
# Coordination Sequence:
#
# PCOD9125563 Si02
#       8
#     4   4   4   2   4   4   4   4
#     4  10  22  46  69  98 138 185 232 298 350 425
#     4  11  24  46  67 101 134 188 234 297 354 416
#     4  11  22  42  68  96 144 182 231 286 356 422
#     4  10  22  42  68 100 142 180 236 284 358 418
#     4  10  21  42  64 104 137 188 231 291 346 427
#     4  11  25  43  71 101 138 180 240 290 359 414
#     4  11  23  44  65 106 137 185 227 295 352 430
#     4   9  23  43  67  96 143 179 237 285 352 426
#
# _framework density 22.866357000000001
#
# number of rings (size 3 to 8) (size 9 to 14) (size 15 to 20)
#    0.000    1.600    1.333    2.800    1.867    4.267 
#   16.800    0.000    0.000    0.000    0.000    0.000 
#    0.000    0.000    0.000    0.000    0.000    0.000 
#
# Total GULP energy -83716.659251 kJ/mol
# GULP energy per Si atom -5581.110617 kJ/mol
# Density = 2.281431 g / cm^3
# Si number density = 22.866357 Si / 1000 Ang^3
#
#
#
# Elastic Constant Matrix: (Units=GPa)
#
#
# Indices 1 2 3 4 5 6 
#
# 1 96.9508 38.0375 33.8350 0.0000 0.8035 0.0000
# 2 38.0375 50.6328 20.3850 0.0000 -9.0855 0.0000
# 3 33.8350 20.3850 92.6846 0.0000 3.3607 0.0000
# 4 0.0000 0.0000 0.0000 -26.7656 0.0000 24.1282
# 5 0.8035 -9.0855 3.3607 0.0000 30.3556 0.0000
# 6 0.0000 0.0000 0.0000 24.1282 0.0000 14.2315
#
#
#
# Elastic Compliance Matrix: (Units=1/GPa)
#
#
# Indices 1 2 3 4 5 6 
#
# 1 0.015874 -0.011255 -0.003195 0.000000 -0.003435 0.000000
# 2 -0.011255 0.031260 -0.003129 0.000000 0.010000 0.000000
# 3 -0.003195 -0.003129 0.012726 0.000000 -0.002261 0.000000
# 4 0.000000 0.000000 0.000000 -0.014777 0.000000 0.025053
# 5 -0.003435 0.010000 -0.002261 0.000000 0.036277 0.000000
# 6 0.000000 0.000000 0.000000 0.025053 0.000000 0.027791
#
#
# Mechanical properties :
#
#
# Convention : Reuss Voigt Hill
#
# Bulk Modulus (GPa) = 40.48410 47.19814 43.84112
# Shear Modulus (GPa) = 32.77767 13.43168 23.10467
#
# Velocity S-wave (km/s) = 3.79019 2.42626 3.18216
# Velocity P-wave (km/s) = 6.07431 5.34178 5.71978
#
# Compressibility (1/GPa) = 0.02470106
#
# Stress axis : x y z
#
# Youngs Moduli (GPa) = 62.99687 31.99005 78.58092
#
# Poissons Ratio (x) = 0.36006 0.25105
# Poissons Ratio (y) = 0.70905 0.24588
# Poissons Ratio (z) = 0.20126 0.10010
#
# Static dielectric constant tensor:
#      x y z
#    x 1.901150 0.000000 0.051730 
#    y 0.000000 1.838810 0.000000 
#    z 0.051730 0.000000 2.083900 
# 
# From -- ./inp_files/52484.got.cif
#   From: 2010.05.17/outbox.cif.g08.bks.cpg/sg5_27_cif.got.tgz:52484.got - 2010.06.03 18:56:24.
