data_PCOD9125467
_publ_section_title
;
Structure prediction by ZEFSAII (Michael W. Deem and Ramdas Pophale) SiO2 
 PCOD9125467
Probable space group: C 2
;
_chemical_formula_sum "Si O2"
_cell_formula_units_Z 18
_cell_length_a 4.918767
_cell_length_b 22.014697
_cell_length_c 8.135950
_cell_angle_alpha 90.000000
_cell_angle_beta 60.297092
_cell_angle_gamma 90.000000
_cell_volume 765.244545
_symmetry_space_group_name_H-M "C 2"
_symmetry_group_IT_number 5
_symmetry_cell_setting 'monoclinic'
loop_
_space_group_symop_operation_xyz
x,y,z
-x,y,-z
1/2+x,1/2+y,z
1/2-x,1/2+y,-z
loop_
_atom_site_type_symbol
_atom_site_label
_atom_site_fract_x
_atom_site_fract_y
_atom_site_fract_z
Si Si1 0.275551 0.706880 0.794096
Si Si2 0.500000 0.537413 0.000000
Si Si3 0.613859 0.131769 0.297799
Si Si4 0.376737 0.461105 0.360376
Si Si5 0.140682 0.824433 0.632238
O O1 0.606700 0.682289 0.762406
O O2 0.179923 0.775068 0.765149
O O3 0.191338 0.667906 0.661966
O O4 0.000000 0.690329 0.000000
O O5 0.218771 0.583103 0.131426
O O6 0.506973 0.497718 0.164181
O O7 0.500000 0.100876 0.500000
O O8 0.500000 0.482931 0.500000
O O9 0.501149 0.391154 0.296166
O O10 0.000000 0.462417 0.500000
O O11 0.500000 0.838812 0.500000
O O12 0.000000 0.800599 0.500000
#
# Coordination Sequence:
#
# PCOD9125467 Si02
#       5
#     4   2   4   4   4
#     4  12  23  42  67 102 136 172 224 280 344 408
#     4  12  26  48  70 100 138 188 234 288 330 412
#     4  12  26  44  67  99 137 180 224 280 340 408
#     4  10  25  46  70 102 135 180 231 284 343 406
#     4  10  21  41  67  97 133 172 220 277 347 407
#
# _framework density 23.521895000000001
#
# number of rings (size 3 to 8) (size 9 to 14) (size 15 to 20)
#    0.000    0.889    2.222    4.667    1.556    6.222 
#    0.000    0.000    0.000    0.000    0.000    0.000 
#    0.000    0.000    0.000    0.000    0.000    0.000 
#
# Total GULP energy -50130.574558 kJ/mol
# GULP energy per Si atom -5570.063840 kJ/mol
# Density = 2.346836 g / cm^3
# Si number density = 23.521895 Si / 1000 Ang^3
#
#
#
# Elastic Constant Matrix: (Units=GPa)
#
#
# Indices 1 2 3 4 5 6 
#
# 1 145.1897 25.8038 39.5031 0.0000 6.0174 0.0000
# 2 25.8038 125.2947 66.4468 0.0000 22.9304 0.0000
# 3 39.5031 66.4468 166.5927 0.0000 10.9646 0.0000
# 4 0.0000 0.0000 0.0000 97.7350 0.0000 10.7311
# 5 6.0174 22.9304 10.9646 0.0000 33.1971 0.0000
# 6 0.0000 0.0000 0.0000 10.7311 0.0000 26.1542
#
#
#
# Elastic Compliance Matrix: (Units=1/GPa)
#
#
# Indices 1 2 3 4 5 6 
#
# 1 0.007423 -0.000681 -0.001463 0.000000 -0.000392 0.000000
# 2 -0.000681 0.011402 -0.003962 0.000000 -0.006444 0.000000
# 3 -0.001463 -0.003962 0.007904 0.000000 0.000391 0.000000
# 4 0.000000 0.000000 0.000000 0.010714 0.000000 -0.004396
# 5 -0.000392 -0.006444 0.000391 0.000000 0.034516 0.000000
# 6 0.000000 0.000000 0.000000 -0.004396 0.000000 0.040039
#
#
# Mechanical properties :
#
#
# Convention : Reuss Voigt Hill
#
# Bulk Modulus (GPa) = 68.88591 77.84271 73.36431
# Shear Modulus (GPa) = 38.74513 51.77215 45.25864
#
# Velocity S-wave (km/s) = 4.06297 4.69659 4.39122
# Velocity P-wave (km/s) = 7.16657 7.91051 7.54771
#
# Compressibility (1/GPa) = 0.01451676
#
# Stress axis : x y z
#
# Youngs Moduli (GPa) = 134.71990 87.70425 126.51757
#
# Poissons Ratio (x) = 0.05976 0.18504
# Poissons Ratio (y) = 0.09179 0.50127
# Poissons Ratio (z) = 0.19704 0.34749
#
# Static dielectric constant tensor:
#      x y z
#    x 1.765380 0.000000 -0.021220 
#    y 0.000000 2.080610 0.000000 
#    z -0.021220 0.000000 1.852240 
# 
# From -- ./inp_files/12375.got.cif
#   From: 2010.05.17/outbox.cif.g08.bks.cpg/sg5_7_cif.got.tgz:12375.got - 2010.06.03 18:56:24.
