data_PCOD9125895
_publ_section_title
;
Structure prediction by ZEFSAII (Michael W. Deem and Ramdas Pophale) SiO2 
 PCOD9125895
Probable space group: C 2
;
_chemical_formula_sum "Si O2"
_cell_formula_units_Z 14
_cell_length_a 8.486796
_cell_length_b 12.717953
_cell_length_c 5.361570
_cell_angle_alpha 90.000000
_cell_angle_beta 103.005400
_cell_angle_gamma 90.000000
_cell_volume 563.855006
_symmetry_space_group_name_H-M "C 2"
_symmetry_group_IT_number 5
_symmetry_cell_setting 'monoclinic'
loop_
_space_group_symop_operation_xyz
x,y,z
-x,y,-z
1/2+x,1/2+y,z
1/2-x,1/2+y,-z
loop_
_atom_site_type_symbol
_atom_site_label
_atom_site_fract_x
_atom_site_fract_y
_atom_site_fract_z
Si Si1 0.822810 0.411340 0.344153
Si Si2 0.822958 0.854996 0.210488
Si Si3 0.500000 0.186238 0.000000
Si Si4 0.166742 0.076232 0.981926
O O1 0.751692 0.346093 0.546853
O O2 0.736802 0.522059 0.257718
O O3 0.000000 0.435394 0.500000
O O4 0.801896 0.352468 0.070462
O O5 0.954553 0.767311 0.202893
O O6 0.886347 0.974228 0.199422
O O7 0.669250 0.122906 0.083932
O O8 0.000000 0.134389 0.000000
#
# Coordination Sequence:
#
# PCOD9125895 Si02
#       4
#     4   4   2   4
#     4  10  21  45  76 104 150 196 238 308 372 428
#     4  10  23  45  71 104 154 189 239 314 361 430
#     4  12  24  48  80 110 150 200 248 306 376 442
#     4  10  24  46  73 112 148 193 251 304 368 445
#
# _framework density 24.829077999999999
#
# number of rings (size 3 to 8) (size 9 to 14) (size 15 to 20)
#    1.714    0.000    1.429    2.571    0.000    6.857 
#   15.429    0.000    0.000    0.000    0.000    0.000 
#    0.000    0.000    0.000    0.000    0.000    0.000 
#
# Total GULP energy -38980.937334 kJ/mol
# GULP energy per Si atom -5568.705333 kJ/mol
# Density = 2.477257 g / cm^3
# Si number density = 24.829078 Si / 1000 Ang^3
#
#
#
# Elastic Constant Matrix: (Units=GPa)
#
#
# Indices 1 2 3 4 5 6 
#
# 1 167.2960 64.5829 73.5689 0.0000 35.6902 0.0000
# 2 64.5829 89.2411 8.9076 0.0000 16.8977 0.0000
# 3 73.5689 8.9076 180.2443 0.0000 8.1467 0.0000
# 4 0.0000 0.0000 0.0000 -18.5302 0.0000 -2.0085
# 5 35.6902 16.8977 8.1467 0.0000 58.9865 0.0000
# 6 0.0000 0.0000 0.0000 -2.0085 0.0000 56.7110
#
#
#
# Elastic Compliance Matrix: (Units=1/GPa)
#
#
# Indices 1 2 3 4 5 6 
#
# 1 0.011433 -0.007042 -0.004123 0.000000 -0.004331 0.000000
# 2 -0.007042 0.016220 0.002103 0.000000 -0.000676 0.000000
# 3 -0.004123 0.002103 0.007086 0.000000 0.000913 0.000000
# 4 0.000000 0.000000 0.000000 -0.053760 0.000000 -0.001904
# 5 -0.004331 -0.000676 0.000913 0.000000 0.019641 0.000000
# 6 0.000000 0.000000 0.000000 -0.001904 0.000000 0.017566
#
#
# Mechanical properties :
#
#
# Convention : Reuss Voigt Hill
#
# Bulk Modulus (GPa) = 60.18574 81.21112 70.69843
# Shear Modulus (GPa) = 119.48130 38.74827 79.11479
#
# Velocity S-wave (km/s) = 6.94449 3.95473 5.65092
# Velocity P-wave (km/s) = 9.41244 7.32340 8.43286
#
# Compressibility (1/GPa) = 0.01661523
#
# Stress axis : x y z
#
# Youngs Moduli (GPa) = 87.46643 61.65170 141.13251
#
# Poissons Ratio (x) = 0.43417 0.58185
# Poissons Ratio (y) = 0.61597 -0.29686
# Poissons Ratio (z) = 0.36060 -0.12968
#
# Static dielectric constant tensor:
#      x y z
#    x 2.133520 0.000000 0.073590 
#    y 0.000000 2.063550 0.000000 
#    z 0.073590 0.000000 2.003980 
# 
# From -- ./inp_files/14477.got.cif
#   From: 2010.05.17/outbox.cif.g08.bks.cpg/sg5_8_cif.got.tgz:14477.got - 2010.06.03 18:56:24.
