data_PCOD9125010
_publ_section_title
;
Structure prediction by ZEFSAII (Michael W. Deem and Ramdas Pophale) SiO2 
 PCOD9125010
Probable space group: C 2
;
_chemical_formula_sum "Si O2"
_cell_formula_units_Z 32
_cell_length_a 9.096266
_cell_length_b 20.490766
_cell_length_c 14.372213
_cell_angle_alpha 90.000000
_cell_angle_beta 37.599577
_cell_angle_gamma 90.000000
_cell_volume 1634.458885
_symmetry_space_group_name_H-M "C 2"
_symmetry_group_IT_number 5
_symmetry_cell_setting 'monoclinic'
loop_
_space_group_symop_operation_xyz
x,y,z
-x,y,-z
1/2+x,1/2+y,z
1/2-x,1/2+y,-z
loop_
_atom_site_type_symbol
_atom_site_label
_atom_site_fract_x
_atom_site_fract_y
_atom_site_fract_z
Si Si1 0.888533 0.952980 0.273149
Si Si2 0.994284 0.812614 0.849395
Si Si3 0.368305 0.183082 0.821059
Si Si4 0.924391 0.449697 0.381517
Si Si5 0.411699 0.814392 0.788410
Si Si6 0.952556 0.183562 0.189041
Si Si7 0.216221 0.065881 0.150305
Si Si8 0.255104 0.068829 0.339995
O O1 0.981210 0.880418 0.214180
O O2 0.686740 0.963557 0.294843
O O3 0.755178 0.953003 0.439959
O O4 0.103100 0.004847 0.152489
O O5 0.228829 0.798713 0.795365
O O6 0.972615 0.754757 0.786385
O O7 0.768484 0.822226 0.032817
O O8 0.549104 0.125636 0.755899
O O9 0.279605 0.173212 0.759671
O O10 0.158292 0.183313 0.004971
O O11 0.844965 0.507582 0.353998
O O12 0.948311 0.379925 0.315061
O O13 0.560796 0.750764 0.746063
O O14 0.044204 0.126483 0.211029
O O15 0.201195 0.045226 0.263984
O O16 0.500000 0.082080 0.000000
O O17 0.000000 0.096540 0.500000
#
# Coordination Sequence:
#
# PCOD9125010 Si02
#       8
#     4   4   4   4   4   4   4   4
#     4  10  22  42  61  90 124 163 203 250 304 366
#     4   9  19  37  62  90 123 157 206 249 299 366
#     4  10  21  40  62  93 124 158 202 258 306 359
#     4  10  22  42  62  87 127 163 201 249 307 365
#     4   9  19  36  64  90 119 163 200 250 306 360
#     4  10  21  39  64  93 123 156 205 257 305 358
#     4  12  24  40  64  91 122 163 207 255 305 359
#     4  12  24  42  62  89 125 166 204 253 307 363
#
# _framework density 19.578344000000001
#
# number of rings (size 3 to 8) (size 9 to 14) (size 15 to 20)
#    0.000    1.750    2.500    1.500    3.500    1.000 
#    9.000    0.000    0.000    0.000    0.000    0.000 
#    0.000    0.000    0.000    0.000    0.000    0.000 
#
# Total GULP energy -89173.095779 kJ/mol
# GULP energy per Si atom -5573.318486 kJ/mol
# Density = 1.953378 g / cm^3
# Si number density = 19.578344 Si / 1000 Ang^3
#
#
#
# Elastic Constant Matrix: (Units=GPa)
#
#
# Indices 1 2 3 4 5 6 
#
# 1 98.2148 79.2468 16.3250 0.0001 3.0346 -0.0001
# 2 79.2468 115.1556 6.9743 0.0022 -3.8959 0.0003
# 3 16.3250 6.9743 10.0261 0.0086 -1.7626 0.0018
# 4 0.0001 0.0022 0.0086 29.6515 -0.0027 9.0857
# 5 3.0346 -3.8959 -1.7626 -0.0027 22.9593 -0.0003
# 6 -0.0001 0.0003 0.0018 9.0857 -0.0003 27.3854
#
#
#
# Elastic Compliance Matrix: (Units=1/GPa)
#
#
# Indices 1 2 3 4 5 6 
#
# 1 0.036596 -0.022821 -0.045864 0.000014 -0.012230 -0.000001
# 2 -0.022821 0.023322 0.022464 -0.000008 0.008698 0.000001
# 3 -0.045864 0.022464 0.162723 -0.000048 0.022366 0.000005
# 4 0.000014 -0.000008 -0.000048 0.037542 -0.000003 -0.012455
# 5 -0.012230 0.008698 0.022366 -0.000003 0.048365 0.000000
# 6 -0.000001 0.000001 0.000005 -0.012455 0.000000 0.040648
#
#
# Mechanical properties :
#
#
# Convention : Reuss Voigt Hill
#
# Bulk Modulus (GPa) = 7.68050 47.60988 27.64519
# Shear Modulus (GPa) = 10.30849 24.05595 17.18222
#
# Velocity S-wave (km/s) = 2.29710 3.50909 2.96567
# Velocity P-wave (km/s) = 3.31165 6.38660 5.08703
#
# Compressibility (1/GPa) = 0.13019985
#
# Stress axis : x y z
#
# Youngs Moduli (GPa) = 27.32513 42.87758 6.14542
#
# Poissons Ratio (x) = 0.97849 0.28185
# Poissons Ratio (y) = 0.62358 -0.13805
# Poissons Ratio (z) = 1.25323 -0.96319
#
# Static dielectric constant tensor:
#      x y z
#    x 1.678410 0.000000 -0.007430 
#    y 0.000000 1.657700 0.000000 
#    z -0.007430 0.000000 1.722480 
# 
# From -- ./inp_files/51551.got.cif
#   From: 2010.05.17/outbox.cif.g08.bks.cpg/sg5_26_cif.got.tgz:51551.got - 2010.06.03 18:56:24.
