data_PCOD9125958
_publ_section_title
;
Structure prediction by ZEFSAII (Michael W. Deem and Ramdas Pophale) SiO2 
 PCOD9125958
Probable space group: C 2
;
_chemical_formula_sum "Si O2"
_cell_formula_units_Z 26
_cell_length_a 11.013281
_cell_length_b 8.750547
_cell_length_c 20.749358
_cell_angle_alpha 90.000000
_cell_angle_beta 35.151784
_cell_angle_gamma 90.000000
_cell_volume 1151.294301
_symmetry_space_group_name_H-M "C 2"
_symmetry_group_IT_number 5
_symmetry_cell_setting 'monoclinic'
loop_
_space_group_symop_operation_xyz
x,y,z
-x,y,-z
1/2+x,1/2+y,z
1/2-x,1/2+y,-z
loop_
_atom_site_type_symbol
_atom_site_label
_atom_site_fract_x
_atom_site_fract_y
_atom_site_fract_z
Si Si1 0.000000 0.115700 0.500000
Si Si2 0.723428 0.326807 0.936475
Si Si3 0.112106 0.158239 0.013172
Si Si4 0.650348 0.329979 0.656548
Si Si5 0.626793 0.677405 0.697236
Si Si6 0.302168 0.893865 0.446522
Si Si7 0.174234 0.625262 0.265846
O O1 0.827348 0.221680 0.611080
O O2 0.868799 0.009824 0.508962
O O3 0.910246 0.256076 0.812921
O O4 0.756411 0.260445 0.994347
O O5 0.500000 0.290708 0.000000
O O6 0.738993 0.510330 0.934151
O O7 0.910791 0.091878 0.140290
O O8 0.000000 0.236412 0.000000
O O9 0.611763 0.494281 0.703334
O O10 0.746743 0.358882 0.543629
O O11 0.439672 0.234189 0.736166
O O12 0.693426 0.743834 0.599805
O O13 0.797807 0.713583 0.678456
O O14 0.524621 0.981398 0.342147
#
# Coordination Sequence:
#
# PCOD9125958 Si02
#       7
#     2   4   4   4   4   4   4
#     4  10  22  36  54  82 116 156 196 236 288 350
#     4  10  23  42  65  93 125 164 208 264 325 380
#     4  10  22  42  64  91 124 161 211 265 320 380
#     4  11  23  38  58  88 122 160 203 246 299 362
#     4  11  23  40  63  91 124 160 206 257 309 370
#     4  11  21  38  61  86 122 161 199 245 299 360
#     4  10  23  40  60  88 122 162 203 253 313 372
#
# _framework density 22.583279999999998
#
# number of rings (size 3 to 8) (size 9 to 14) (size 15 to 20)
#    0.000    1.538    0.000    5.538    0.000    7.385 
#    0.000    7.692    0.000    0.000    0.000    0.000 
#    0.000    0.000    0.000    0.000    0.000    0.000 
#
# Total GULP energy -72726.188307 kJ/mol
# GULP energy per Si atom -5594.322177 kJ/mol
# Density = 2.253188 g / cm^3
# Si number density = 22.583280 Si / 1000 Ang^3
#
#
#
# Elastic Constant Matrix: (Units=GPa)
#
#
# Indices 1 2 3 4 5 6 
#
# 1 127.4370 21.7364 14.9282 0.0000 -11.6693 0.0000
# 2 21.7364 86.3657 13.4933 0.0000 -13.5258 0.0000
# 3 14.9282 13.4933 42.7678 -0.0002 -3.8549 0.0001
# 4 0.0000 0.0000 -0.0002 33.9289 0.0001 11.2417
# 5 -11.6693 -13.5258 -3.8549 0.0001 37.1280 0.0000
# 6 0.0000 0.0000 0.0001 11.2417 0.0000 39.9111
#
#
#
# Elastic Compliance Matrix: (Units=1/GPa)
#
#
# Indices 1 2 3 4 5 6 
#
# 1 0.008549 -0.001488 -0.002343 0.000000 0.001902 0.000000
# 2 -0.001488 0.013081 -0.003251 0.000000 0.003960 0.000000
# 3 -0.002343 -0.003251 0.025289 0.000000 0.000705 0.000000
# 4 0.000000 0.000000 0.000000 0.032507 0.000000 -0.009156
# 5 0.001902 0.003960 0.000705 0.000000 0.029048 0.000000
# 6 0.000000 0.000000 0.000000 -0.009156 0.000000 0.027635
#
#
# Mechanical properties :
#
#
# Convention : Reuss Voigt Hill
#
# Bulk Modulus (GPa) = 30.52891 39.65404 35.09147
# Shear Modulus (GPa) = 31.01894 35.95446 33.48670
#
# Velocity S-wave (km/s) = 3.71014 3.99442 3.85490
# Velocity P-wave (km/s) = 5.64812 6.23466 5.94863
#
# Compressibility (1/GPa) = 0.03275584
#
# Stress axis : x y z
#
# Youngs Moduli (GPa) = 116.96691 76.44530 39.54254
#
# Poissons Ratio (x) = 0.11373 0.09266
# Poissons Ratio (y) = 0.17402 0.12855
# Poissons Ratio (z) = 0.27410 0.24852
#
# Static dielectric constant tensor:
#      x y z
#    x 1.866600 0.000000 0.022650 
#    y 0.000000 1.817390 0.000000 
#    z 0.022650 0.000000 1.853210 
# 
# From -- ./inp_files/52331.got.cif
#   From: 2010.05.17/outbox.cif.g08.bks.cpg/sg5_27_cif.got.tgz:52331.got - 2010.06.03 18:56:24.
