data_PCOD9125780
_publ_section_title
;
Structure prediction by ZEFSAII (Michael W. Deem and Ramdas Pophale) SiO2 
 PCOD9125780
Probable space group: C 2
;
_chemical_formula_sum "Si O2"
_cell_formula_units_Z 32
_cell_length_a 9.110523
_cell_length_b 14.313713
_cell_length_c 22.819713
_cell_angle_alpha 90.000000
_cell_angle_beta 152.388518
_cell_angle_gamma 90.000000
_cell_volume 1379.211316
_symmetry_space_group_name_H-M "C 2"
_symmetry_group_IT_number 5
_symmetry_cell_setting 'monoclinic'
loop_
_space_group_symop_operation_xyz
x,y,z
-x,y,-z
1/2+x,1/2+y,z
1/2-x,1/2+y,-z
loop_
_atom_site_type_symbol
_atom_site_label
_atom_site_fract_x
_atom_site_fract_y
_atom_site_fract_z
Si Si1 0.146858 0.729340 0.957451
Si Si2 0.925393 0.456668 0.326964
Si Si3 0.966674 0.228933 0.183620
Si Si4 0.259484 0.443022 0.042283
Si Si5 0.562669 0.129817 0.453561
Si Si6 0.861592 0.554495 0.112664
Si Si7 0.737007 0.916002 0.315690
Si Si8 0.899743 0.306898 0.531848
O O1 0.154040 0.838910 0.947985
O O2 0.136513 0.665185 0.896849
O O3 0.840796 0.704810 0.887769
O O4 0.433835 0.706172 0.103518
O O5 0.589505 0.487536 0.181254
O O6 0.088399 0.537615 0.423033
O O7 0.148288 0.422644 0.352701
O O8 0.856007 0.368845 0.344771
O O9 0.257323 0.181301 0.318535
O O10 0.005248 0.340436 0.203605
O O11 0.098354 0.504896 0.935469
O O12 0.000000 0.434175 0.000000
O O13 0.500000 0.109775 0.500000
O O14 0.833910 0.207126 0.538720
O O15 0.131765 0.514419 0.250603
O O16 0.500000 0.527484 0.000000
O O17 0.079423 0.870828 0.423958
O O18 0.000000 0.295878 0.500000
#
# Coordination Sequence:
#
# PCOD9125780 Si02
#       8
#     4   4   4   4   4   4   4   4
#     4  11  23  40  68 103 142 184 236 292 357 429
#     4  12  25  48  75 105 144 197 244 299 370 440
#     4  10  21  43  70  99 138 189 230 293 361 422
#     4  12  27  44  70 110 150 186 236 300 362 432
#     4  11  26  47  74 105 148 190 249 300 365 433
#     4  12  24  43  68 102 143 192 238 289 364 434
#     4  11  23  47  72  95 141 193 240 300 367 434
#     4  11  27  48  74 107 141 188 249 309 368 432
#
# _framework density 23.201664999999998
#
# number of rings (size 3 to 8) (size 9 to 14) (size 15 to 20)
#    0.000    0.750    3.750    3.375    5.250    2.000 
#    2.250    0.000    0.000    0.000    0.000    0.000 
#    0.000    0.000    0.000    0.000    0.000    0.000 
#
# Total GULP energy -89503.829357 kJ/mol
# GULP energy per Si atom -5593.989335 kJ/mol
# Density = 2.314886 g / cm^3
# Si number density = 23.201665 Si / 1000 Ang^3
#
#
#
# Elastic Constant Matrix: (Units=GPa)
#
#
# Indices 1 2 3 4 5 6 
#
# 1 91.7339 14.7724 -5.6333 0.0015 -5.0849 -0.0007
# 2 14.7724 117.1715 4.2984 0.0021 -12.9830 -0.0006
# 3 -5.6333 4.2984 43.2131 0.0091 -8.6160 -0.0002
# 4 0.0015 0.0021 0.0091 33.2973 0.0012 -10.7987
# 5 -5.0849 -12.9830 -8.6160 0.0012 35.7257 -0.0009
# 6 -0.0007 -0.0006 -0.0002 -10.7987 -0.0009 22.8888
#
#
#
# Elastic Compliance Matrix: (Units=1/GPa)
#
#
# Indices 1 2 3 4 5 6 
#
# 1 0.011321 -0.001321 0.001925 -0.000001 0.001596 0.000000
# 2 -0.001321 0.009049 -0.000477 0.000000 0.002986 0.000000
# 3 0.001925 -0.000477 0.024645 -0.000008 0.006044 -0.000003
# 4 -0.000001 0.000000 -0.000008 0.035458 -0.000003 0.016729
# 5 0.001596 0.002986 0.006044 -0.000003 0.030761 0.000000
# 6 0.000000 0.000000 -0.000003 0.016729 0.000000 0.051582
#
#
# Mechanical properties :
#
#
# Convention : Reuss Voigt Hill
#
# Bulk Modulus (GPa) = 22.09029 30.99929 26.54479
# Shear Modulus (GPa) = 28.14517 34.29441 31.21979
#
# Velocity S-wave (km/s) = 3.48669 3.84878 3.67220
# Velocity P-wave (km/s) = 5.07454 5.75679 5.42640
#
# Compressibility (1/GPa) = 0.04526875
#
# Stress axis : x y z
#
# Youngs Moduli (GPa) = 88.33526 110.50498 40.57669
#
# Poissons Ratio (x) = 0.14599 -0.07812
# Poissons Ratio (y) = 0.11670 0.01936
# Poissons Ratio (z) = -0.17007 0.05272
#
# Static dielectric constant tensor:
#      x y z
#    x 1.843830 0.000000 -0.006250 
#    y 0.000000 1.902070 0.000000 
#    z -0.006250 0.000000 1.907550 
# 
# From -- ./inp_files/68053.got.cif
#   From: 2010.05.17/outbox.cif.g08.bks.cpg/sg5_35_cif.got.tgz:68053.got - 2010.06.03 18:56:24.
