data_PCOD9125361
_publ_section_title
;
Structure prediction by ZEFSAII (Michael W. Deem and Ramdas Pophale) SiO2 
 PCOD9125361
Probable space group: C 2
;
_chemical_formula_sum "Si O2"
_cell_formula_units_Z 30
_cell_length_a 8.595826
_cell_length_b 11.666546
_cell_length_c 12.811953
_cell_angle_alpha 90.000000
_cell_angle_beta 90.771382
_cell_angle_gamma 90.000000
_cell_volume 1284.712323
_symmetry_space_group_name_H-M "C 2"
_symmetry_group_IT_number 5
_symmetry_cell_setting 'monoclinic'
loop_
_space_group_symop_operation_xyz
x,y,z
-x,y,-z
1/2+x,1/2+y,z
1/2-x,1/2+y,-z
loop_
_atom_site_type_symbol
_atom_site_label
_atom_site_fract_x
_atom_site_fract_y
_atom_site_fract_z
Si Si1 0.834955 0.015990 0.974819
Si Si2 0.372199 0.079197 0.584479
Si Si3 0.205644 0.922653 0.812760
Si Si4 0.277669 0.491277 0.739682
Si Si5 0.461443 0.200942 0.233231
Si Si6 0.515776 0.855606 0.306315
Si Si7 0.440960 0.595258 0.342181
Si Si8 0.500000 0.141536 0.000000
O O1 0.667619 0.077194 0.988032
O O2 0.843001 0.972817 0.856532
O O3 0.000000 0.080615 0.000000
O O4 0.830115 0.921319 0.065491
O O5 0.500000 0.110752 0.500000
O O6 0.406592 0.945033 0.611582
O O7 0.412401 0.161995 0.682188
O O8 0.187638 0.092940 0.568148
O O9 0.114789 0.823708 0.750765
O O10 0.386568 0.891925 0.795706
O O11 0.154163 0.042493 0.759438
O O12 0.172309 0.605213 0.750989
O O13 0.410590 0.512933 0.657118
O O14 0.161651 0.392432 0.707169
O O15 0.517412 0.198352 0.114044
O O16 0.511133 0.721626 0.327856
#
# Coordination Sequence:
#
# PCOD9125361 Si02
#       8
#     4   4   4   4   4   4   4   2
#     4  11  21  36  59  95 138 184 241 282 343 410
#     4  10  24  48  70  99 136 177 229 292 355 417
#     4  11  22  40  62  97 139 182 224 287 341 413
#     4  10  21  41  62  95 134 174 236 285 331 413
#     4  10  22  41  69  93 139 183 224 285 348 406
#     4  10  23  45  68  92 134 179 225 286 354 406
#     4  11  22  41  66  98 126 173 231 276 350 414
#     4  10  22  40  64  96 138 194 232 290 348 412
#
# _framework density 23.351531000000001
#
# number of rings (size 3 to 8) (size 9 to 14) (size 15 to 20)
#    0.000    1.600    2.667    3.200    2.800    0.000 
#    9.600    4.000    1.467    0.800    0.000    0.000 
#    0.000    0.000    0.000    0.000    0.000    0.000 
#
# Total GULP energy -83687.009448 kJ/mol
# GULP energy per Si atom -5579.133963 kJ/mol
# Density = 2.329838 g / cm^3
# Si number density = 23.351531 Si / 1000 Ang^3
#
#
#
# Elastic Constant Matrix: (Units=GPa)
#
#
# Indices 1 2 3 4 5 6 
#
# 1 149.6180 15.3117 22.5585 0.0000 -30.8067 0.0000
# 2 15.3117 77.1749 3.9689 0.0000 4.8747 0.0000
# 3 22.5585 3.9689 71.2416 0.0000 -22.8921 0.0000
# 4 0.0000 0.0000 0.0000 1.9615 0.0000 -2.1030
# 5 -30.8067 4.8747 -22.8921 0.0000 36.6297 0.0000
# 6 0.0000 0.0000 0.0000 -2.1030 0.0000 35.7295
#
#
#
# Elastic Compliance Matrix: (Units=1/GPa)
#
#
# Indices 1 2 3 4 5 6 
#
# 1 0.008422 -0.002115 -0.000228 0.000000 0.007222 0.000000
# 2 -0.002115 0.013748 -0.001571 0.000000 -0.004591 0.000000
# 3 -0.000228 -0.001571 0.017771 0.000000 0.011123 0.000000
# 4 0.000000 0.000000 0.000000 0.544142 0.000000 0.032027
# 5 0.007222 -0.004591 0.011123 0.000000 0.040936 0.000000
# 6 0.000000 0.000000 0.000000 0.032027 0.000000 0.029873
#
#
# Mechanical properties :
#
#
# Convention : Reuss Voigt Hill
#
# Bulk Modulus (GPa) = 31.14215 42.41250 36.77732
# Shear Modulus (GPa) = 7.42473 31.94384 19.68429
#
# Velocity S-wave (km/s) = 1.78506 3.70260 2.90652
# Velocity P-wave (km/s) = 4.19688 6.03995 5.20071
#
# Compressibility (1/GPa) = 0.03211082
#
# Stress axis : x y z
#
# Youngs Moduli (GPa) = 118.74336 72.73775 56.27224
#
# Poissons Ratio (x) = 0.15386 0.01285
# Poissons Ratio (y) = 0.25117 0.08841
# Poissons Ratio (z) = 0.02711 0.11428
#
# Static dielectric constant tensor:
#      x y z
#    x 2.061330 0.000000 0.031110 
#    y 0.000000 1.858700 0.000000 
#    z 0.031110 0.000000 1.924360 
# 
# From -- ./inp_files/50322.got.cif
#   From: 2010.05.17/outbox.cif.g08.bks.cpg/sg5_26_cif.got.tgz:50322.got - 2010.06.03 18:56:24.
