data_PCOD9125230
_publ_section_title
;
Structure prediction by ZEFSAII (Michael W. Deem and Ramdas Pophale) SiO2 
 PCOD9125230
Probable space group: C 2
;
_chemical_formula_sum "Si O2"
_cell_formula_units_Z 32
_cell_length_a 23.715789
_cell_length_b 10.651271
_cell_length_c 18.260967
_cell_angle_alpha 90.000000
_cell_angle_beta 160.188183
_cell_angle_gamma 90.000000
_cell_volume 1563.418743
_symmetry_space_group_name_H-M "C 2"
_symmetry_group_IT_number 5
_symmetry_cell_setting 'monoclinic'
loop_
_space_group_symop_operation_xyz
x,y,z
-x,y,-z
1/2+x,1/2+y,z
1/2-x,1/2+y,-z
loop_
_atom_site_type_symbol
_atom_site_label
_atom_site_fract_x
_atom_site_fract_y
_atom_site_fract_z
Si Si1 0.825024 0.570160 0.289513
Si Si2 0.383194 0.137167 0.102527
Si Si3 0.523251 0.608596 0.703094
Si Si4 0.805227 0.650264 0.418135
Si Si5 0.257348 0.434762 0.312979
Si Si6 0.386194 0.802233 0.293832
Si Si7 0.503164 0.954015 0.879199
Si Si8 0.526788 0.667047 0.194570
O O1 0.803037 0.549879 0.349815
O O2 0.857143 0.446137 0.280147
O O3 0.000000 0.645450 0.500000
O O4 0.658619 0.633025 0.057942
O O5 0.515670 0.171813 0.326011
O O6 0.481947 0.048302 0.168738
O O7 0.220038 0.076230 0.940870
O O8 0.296117 0.243784 0.945601
O O9 0.426102 0.508658 0.534980
O O10 0.518056 0.748626 0.660628
O O11 0.455155 0.614920 0.701700
O O12 0.761549 0.785005 0.329216
O O13 0.666485 0.618846 0.309117
O O14 0.132756 0.482539 0.224698
O O15 0.177307 0.457202 0.136191
O O16 0.500000 0.751489 0.500000
O O17 0.463522 0.817360 0.798483
#
# Coordination Sequence:
#
# PCOD9125230 Si02
#       8
#     4   4   4   4   4   4   4   4
#     4  11  23  41  68  95 135 174 220 276 330 394
#     4  10  23  40  64  97 131 169 220 277 323 397
#     4  10  23  38  65  93 134 171 219 267 335 382
#     4  11  23  43  66 100 133 172 231 270 332 395
#     4  10  21  40  67  92 128 171 216 277 326 394
#     4   9  22  43  65  89 135 172 214 270 327 399
#     4  10  21  40  65  94 129 166 222 269 330 392
#     4  11  23  41  66  98 134 180 218 277 330 395
#
# _framework density 20.467966000000001
#
# number of rings (size 3 to 8) (size 9 to 14) (size 15 to 20)
#    0.750    1.000    1.250    2.625    1.750    5.000 
#    0.000    0.000   22.000    0.000    0.000    0.000 
#    0.000    0.000    0.000    0.000    0.000    0.000 
#
# Total GULP energy -89155.993077 kJ/mol
# GULP energy per Si atom -5572.249567 kJ/mol
# Density = 2.042138 g / cm^3
# Si number density = 20.467966 Si / 1000 Ang^3
#
#
#
# Elastic Constant Matrix: (Units=GPa)
#
#
# Indices 1 2 3 4 5 6 
#
# 1 70.4823 8.6670 -8.4157 0.0001 -2.3663 0.0000
# 2 8.6670 29.5101 -8.8739 0.0001 1.0327 0.0000
# 3 -8.4157 -8.8739 77.4650 0.0001 -4.5271 0.0000
# 4 0.0001 0.0001 0.0001 6.7535 0.0000 1.1609
# 5 -2.3663 1.0327 -4.5271 0.0000 35.6556 0.0000
# 6 0.0000 0.0000 0.0000 1.1609 0.0000 20.6101
#
#
#
# Elastic Compliance Matrix: (Units=1/GPa)
#
#
# Indices 1 2 3 4 5 6 
#
# 1 0.014874 -0.004044 0.001226 0.000000 0.001260 0.000000
# 2 -0.004044 0.036204 0.003658 0.000000 -0.000852 0.000000
# 3 0.001226 0.003658 0.013561 0.000000 0.001697 0.000000
# 4 0.000000 0.000000 0.000000 0.149519 0.000000 -0.008422
# 5 0.001260 -0.000852 0.001697 0.000000 0.028370 0.000000
# 6 0.000000 0.000000 0.000000 -0.008422 0.000000 0.048994
#
#
# Mechanical properties :
#
#
# Convention : Reuss Voigt Hill
#
# Bulk Modulus (GPa) = 15.07836 17.80135 16.43985
# Shear Modulus (GPa) = 16.02834 25.00916 20.51875
#
# Velocity S-wave (km/s) = 2.80142 3.49932 3.16963
# Velocity P-wave (km/s) = 4.22454 5.00430 4.63086
#
# Compressibility (1/GPa) = 0.06632020
#
# Stress axis : x y z
#
# Youngs Moduli (GPa) = 67.23173 27.62108 73.74349
#
# Poissons Ratio (x) = 0.11169 -0.09043
# Poissons Ratio (y) = 0.27187 -0.26977
# Poissons Ratio (z) = -0.08245 -0.10104
#
# Static dielectric constant tensor:
#      x y z
#    x 1.743180 0.000000 0.004470 
#    y 0.000000 1.726980 0.000000 
#    z 0.004470 0.000000 1.761230 
# 
# From -- ./inp_files/63424.got.cif
#   From: 2010.05.17/outbox.cif.g08.bks.cpg/sg5_32_cif.got.tgz:63424.got - 2010.06.03 18:56:24.
