data_PCOD9125104
_publ_section_title
;
Structure prediction by ZEFSAII (Michael W. Deem and Ramdas Pophale) SiO2 
 PCOD9125104
Probable space group: C 2
;
_chemical_formula_sum "Si O2"
_cell_formula_units_Z 30
_cell_length_a 13.346904
_cell_length_b 8.139727
_cell_length_c 22.731781
_cell_angle_alpha 90.000000
_cell_angle_beta 147.611279
_cell_angle_gamma 90.000000
_cell_volume 1322.858894
_symmetry_space_group_name_H-M "C 2"
_symmetry_group_IT_number 5
_symmetry_cell_setting 'monoclinic'
loop_
_space_group_symop_operation_xyz
x,y,z
-x,y,-z
1/2+x,1/2+y,z
1/2-x,1/2+y,-z
loop_
_atom_site_type_symbol
_atom_site_label
_atom_site_fract_x
_atom_site_fract_y
_atom_site_fract_z
Si Si1 0.888307 0.867840 0.631456
Si Si2 0.087864 0.633316 0.456645
Si Si3 0.491148 0.943973 0.931729
Si Si4 0.500000 0.407731 0.500000
Si Si5 0.695246 0.600325 0.111940
Si Si6 0.773353 0.428967 0.262962
Si Si7 0.676872 0.566188 0.694253
Si Si8 0.405157 0.329108 0.140927
O O1 0.857988 0.695676 0.582161
O O2 0.039201 0.960278 0.665805
O O3 0.979783 0.862486 0.741130
O O4 0.707220 0.981044 0.538373
O O5 0.109946 0.787075 0.510552
O O6 0.872034 0.573369 0.348663
O O7 0.378625 0.771341 0.891691
O O8 0.378069 0.030822 0.823849
O O9 0.500000 0.032976 0.000000
O O10 0.709451 0.916240 0.027693
O O11 0.641926 0.512593 0.610112
O O12 0.799159 0.487773 0.209399
O O13 0.818893 0.651877 0.117547
O O14 0.500000 0.516696 0.000000
O O15 0.557744 0.389240 0.169946
O O16 0.870726 0.256525 0.323329
#
# Coordination Sequence:
#
# PCOD9125104 Si02
#       8
#     4   4   4   2   4   4   4   4
#     4  11  21  42  65  90 127 181 224 276 353 409
#     4  11  23  40  65  94 131 178 229 283 352 410
#     4   9  18  40  69  89 126 184 220 281 344 414
#     4  10  24  44  62  90 136 174 228 294 342 412
#     4   9  19  42  66  91 136 182 221 287 351 410
#     4  12  24  39  66 101 136 174 231 292 342 429
#     4  11  23  41  64  96 136 173 223 291 348 415
#     4  10  21  39  70  91 129 179 230 269 354 407
#
# _framework density 22.678155
#
# number of rings (size 3 to 8) (size 9 to 14) (size 15 to 20)
#    0.000    1.867    4.000    2.400    0.000    6.400 
#    2.400    0.000    0.000    0.000    0.000    0.000 
#    0.000    0.000    0.000    0.000    0.000    0.000 
#
# Total GULP energy -83609.101780 kJ/mol
# GULP energy per Si atom -5573.940119 kJ/mol
# Density = 2.262654 g / cm^3
# Si number density = 22.678155 Si / 1000 Ang^3
#
#
#
# Elastic Constant Matrix: (Units=GPa)
#
#
# Indices 1 2 3 4 5 6 
#
# 1 42.2288 -6.4839 27.2152 0.0000 -0.4419 0.0000
# 2 -6.4839 63.9466 42.1556 0.0000 -17.9499 0.0000
# 3 27.2152 42.1556 136.0171 0.0000 -14.2071 0.0000
# 4 0.0000 0.0000 0.0000 8.8922 0.0000 -2.9238
# 5 -0.4419 -17.9499 -14.2071 0.0000 41.4321 0.0000
# 6 0.0000 0.0000 0.0000 -2.9238 0.0000 23.6084
#
#
#
# Elastic Compliance Matrix: (Units=1/GPa)
#
#
# Indices 1 2 3 4 5 6 
#
# 1 0.030920 0.009422 -0.008967 0.000000 0.001337 0.000000
# 2 0.009422 0.024475 -0.008663 0.000000 0.007733 0.000000
# 3 -0.008967 -0.008663 0.011854 0.000000 0.000216 0.000000
# 4 0.000000 0.000000 0.000000 0.117232 0.000000 0.014519
# 5 0.001337 0.007733 0.000216 0.000000 0.027575 0.000000
# 6 0.000000 0.000000 0.000000 0.014519 0.000000 0.044156
#
#
# Mechanical properties :
#
#
# Convention : Reuss Voigt Hill
#
# Bulk Modulus (GPa) = 19.67245 40.88513 30.27879
# Shear Modulus (GPa) = 17.26684 26.74025 22.00354
#
# Velocity S-wave (km/s) = 2.76232 3.43756 3.11827
# Velocity P-wave (km/s) = 4.34365 5.81578 5.13277
#
# Compressibility (1/GPa) = 0.05083250
#
# Stress axis : x y z
#
# Youngs Moduli (GPa) = 32.34122 40.85794 84.36201
#
# Poissons Ratio (x) = -0.38496 0.75649
# Poissons Ratio (y) = -0.30472 0.73082
# Poissons Ratio (z) = 0.29001 0.35395
#
# Static dielectric constant tensor:
#      x y z
#    x 1.877590 0.000000 -0.001200 
#    y 0.000000 1.877130 0.000000 
#    z -0.001200 0.000000 1.892460 
# 
# From -- ./inp_files/68715.got.cif
#   From: 2010.05.17/outbox.cif.g08.bks.cpg/sg5_35_cif.got.tgz:68715.got - 2010.06.03 18:56:24.
