data_PCOD9125800
_publ_section_title
;
Structure prediction by ZEFSAII (Michael W. Deem and Ramdas Pophale) SiO2 
 PCOD9125800
Probable space group: C 2
;
_chemical_formula_sum "Si O2"
_cell_formula_units_Z 28
_cell_length_a 24.901151
_cell_length_b 4.996522
_cell_length_c 18.701128
_cell_angle_alpha 90.000000
_cell_angle_beta 153.890871
_cell_angle_gamma 90.000000
_cell_volume 1023.973881
_symmetry_space_group_name_H-M "C 2"
_symmetry_group_IT_number 5
_symmetry_cell_setting 'monoclinic'
loop_
_space_group_symop_operation_xyz
x,y,z
-x,y,-z
1/2+x,1/2+y,z
1/2-x,1/2+y,-z
loop_
_atom_site_type_symbol
_atom_site_label
_atom_site_fract_x
_atom_site_fract_y
_atom_site_fract_z
Si Si1 0.198388 0.682700 0.176589
Si Si2 0.604865 0.990829 0.676238
Si Si3 0.984489 0.679406 0.151757
Si Si4 0.915055 0.069791 0.840449
Si Si5 0.656033 0.139618 0.474926
Si Si6 0.919786 0.114936 0.527077
Si Si7 0.321648 0.288357 0.093777
O O1 0.273196 0.903165 0.219177
O O2 0.133997 0.828088 0.166707
O O3 0.311778 0.521102 0.344594
O O4 0.101964 0.534976 0.010120
O O5 0.500000 0.111893 0.500000
O O6 0.535314 0.725242 0.622441
O O7 0.634638 0.182194 0.777479
O O8 0.012916 0.946006 0.140341
O O9 0.113680 0.597485 0.342282
O O10 0.898076 0.699241 0.116509
O O11 0.796113 0.200036 0.662549
O O12 0.000000 0.219895 0.000000
O O13 0.622485 0.877360 0.479689
O O14 0.576555 0.384840 0.410260
O O15 0.200200 0.104645 0.937755
#
# Coordination Sequence:
#
# PCOD9125800 Si02
#       7
#     4   4   4   4   4   4   4
#     4   9  20  45  70 105 147 195 240 303 363 448
#     4  10  21  43  76 109 151 194 241 303 370 448
#     4  11  23  44  76 107 147 196 245 312 367 442
#     4   9  22  47  74 102 147 197 256 297 372 435
#     4  11  24  45  72 105 143 186 248 311 357 433
#     4  10  23  44  69 106 145 187 242 295 372 435
#     4  12  27  48  73 115 153 192 245 305 379 443
#
# _framework density 27.344448
#
# number of rings (size 3 to 8) (size 9 to 14) (size 15 to 20)
#    0.000    1.714    2.857    0.000    2.000    2.286 
#    7.714   18.571    0.000    0.000    0.000    0.000 
#    0.000    0.000    0.000    0.000    0.000    0.000 
#
# Total GULP energy -78317.509913 kJ/mol
# GULP energy per Si atom -5594.107851 kJ/mol
# Density = 2.728221 g / cm^3
# Si number density = 27.344448 Si / 1000 Ang^3
#
#
#
# Elastic Constant Matrix: (Units=GPa)
#
#
# Indices 1 2 3 4 5 6 
#
# 1 129.0773 42.5558 29.9570 0.0001 -14.4501 -0.0004
# 2 42.5558 87.4215 15.8742 0.0029 -2.5527 0.0006
# 3 29.9570 15.8742 205.6354 0.0003 -40.0325 0.0002
# 4 0.0001 0.0029 0.0003 31.0426 -0.0003 -5.1456
# 5 -14.4501 -2.5527 -40.0325 -0.0003 43.4996 -0.0004
# 6 -0.0004 0.0006 0.0002 -5.1456 -0.0004 46.9445
#
#
#
# Elastic Compliance Matrix: (Units=1/GPa)
#
#
# Indices 1 2 3 4 5 6 
#
# 1 0.009641 -0.004516 -0.000590 0.000000 0.002395 0.000000
# 2 -0.004516 0.013718 -0.000653 -0.000001 -0.001297 0.000000
# 3 -0.000590 -0.000653 0.006035 0.000000 0.005320 0.000000
# 4 0.000000 -0.000001 0.000000 0.032810 0.000000 0.003596
# 5 0.002395 -0.001297 0.005320 0.000000 0.028604 0.000000
# 6 0.000000 0.000000 0.000000 0.003596 0.000000 0.021696
#
#
# Mechanical properties :
#
#
# Convention : Reuss Voigt Hill
#
# Bulk Modulus (GPa) = 55.94230 66.54535 61.24382
# Shear Modulus (GPa) = 38.46708 46.54717 42.50713
#
# Velocity S-wave (km/s) = 3.75475 4.13031 3.94700
# Velocity P-wave (km/s) = 6.26900 6.86548 6.57401
#
# Compressibility (1/GPa) = 0.01787556
#
# Stress axis : x y z
#
# Youngs Moduli (GPa) = 103.72124 72.89650 165.70156
#
# Poissons Ratio (x) = 0.32922 0.09771
# Poissons Ratio (y) = 0.46843 0.10828
# Poissons Ratio (z) = 0.06116 0.04764
#
# Static dielectric constant tensor:
#      x y z
#    x 2.073220 0.000000 0.060740 
#    y 0.000000 2.094750 0.000000 
#    z 0.060740 0.000000 2.333400 
# 
# From -- ./inp_files/63609.got.cif
#   From: 2010.05.17/outbox.cif.g08.bks.cpg/sg5_32_cif.got.tgz:63609.got - 2010.06.03 18:56:24.
