data_PCOD9125852
_publ_section_title
;
Structure prediction by ZEFSAII (Michael W. Deem and Ramdas Pophale) SiO2 
 PCOD9125852
Probable space group: C 2
;
_chemical_formula_sum "Si O2"
_cell_formula_units_Z 28
_cell_length_a 9.057735
_cell_length_b 17.479386
_cell_length_c 13.455876
_cell_angle_alpha 90.000000
_cell_angle_beta 142.034004
_cell_angle_gamma 90.000000
_cell_volume 1310.598411
_symmetry_space_group_name_H-M "C 2"
_symmetry_group_IT_number 5
_symmetry_cell_setting 'monoclinic'
loop_
_space_group_symop_operation_xyz
x,y,z
-x,y,-z
1/2+x,1/2+y,z
1/2-x,1/2+y,-z
loop_
_atom_site_type_symbol
_atom_site_label
_atom_site_fract_x
_atom_site_fract_y
_atom_site_fract_z
Si Si1 0.591617 0.842490 0.163302
Si Si2 0.223543 0.929321 0.380135
Si Si3 0.490383 0.268788 0.722214
Si Si4 0.770191 0.722451 0.950499
Si Si5 0.898411 0.087575 0.740038
Si Si6 0.763237 0.480057 0.624558
Si Si7 0.051731 0.617519 0.371771
O O1 0.834949 0.795482 0.273593
O O2 0.416426 0.794055 0.142548
O O3 0.653285 0.922593 0.246434
O O4 0.500000 0.851937 0.000000
O O5 0.500000 0.941627 0.500000
O O6 0.228264 0.934658 0.502324
O O7 0.136467 0.844671 0.305874
O O8 0.065220 0.995244 0.241790
O O9 0.339955 0.198899 0.601196
O O10 0.634378 0.226856 0.886227
O O11 0.624226 0.643988 0.853661
O O12 0.000000 0.730898 0.000000
O O13 0.728759 0.092543 0.553417
O O14 0.721268 0.117307 0.733122
O O15 0.500000 0.514125 0.500000
O O16 0.937838 0.551238 0.703980
#
# Coordination Sequence:
#
# PCOD9125852 Si02
#       7
#     4   4   4   4   4   4   4
#     4  10  23  44  67  94 140 180 228 280 345 422
#     4  11  23  41  71 106 138 175 236 296 346 405
#     4  11  24  43  67 101 138 180 229 285 347 418
#     4  11  26  43  67  99 139 183 235 278 351 418
#     4  10  21  44  70  97 140 180 230 282 349 416
#     4  11  22  40  69 103 132 175 229 287 351 405
#     4  10  22  41  71 100 130 180 231 286 346 413
#
# _framework density 21.364287000000001
#
# number of rings (size 3 to 8) (size 9 to 14) (size 15 to 20)
#    0.000    1.429    5.714    0.000    4.000    2.857 
#    5.143    0.000    0.000    0.000    0.000    0.000 
#    0.000    0.000    0.000    0.000    0.000    0.000 
#
# Total GULP energy -78051.954618 kJ/mol
# GULP energy per Si atom -5575.139616 kJ/mol
# Density = 2.131566 g / cm^3
# Si number density = 21.364287 Si / 1000 Ang^3
#
#
#
# Elastic Constant Matrix: (Units=GPa)
#
#
# Indices 1 2 3 4 5 6 
#
# 1 102.5001 42.8998 18.8848 0.0005 19.3109 0.0001
# 2 42.8998 177.4237 38.4747 0.0004 0.9379 0.0045
# 3 18.8848 38.4747 27.9672 0.0071 10.8948 0.0133
# 4 0.0005 0.0004 0.0071 30.9898 0.0020 -0.8702
# 5 19.3109 0.9379 10.8948 0.0020 23.7788 0.0051
# 6 0.0001 0.0045 0.0133 -0.8702 0.0051 27.8539
#
#
#
# Elastic Compliance Matrix: (Units=1/GPa)
#
#
# Indices 1 2 3 4 5 6 
#
# 1 0.013031 -0.002907 -0.000879 0.000001 -0.010065 0.000003
# 2 -0.002907 0.009391 -0.014280 0.000003 0.008533 0.000004
# 3 -0.000879 -0.014280 0.067555 -0.000014 -0.029675 -0.000025
# 4 0.000001 0.000003 -0.000014 0.032297 0.000003 0.001009
# 5 -0.010065 0.008533 -0.029675 0.000003 0.063488 0.000001
# 6 0.000003 0.000004 -0.000025 0.001009 0.000001 0.035933
#
#
# Mechanical properties :
#
#
# Convention : Reuss Voigt Hill
#
# Bulk Modulus (GPa) = 18.57203 56.48996 37.53099
# Shear Modulus (GPa) = 18.13075 30.36661 24.24868
#
# Velocity S-wave (km/s) = 2.91632 3.77420 3.37265
# Velocity P-wave (km/s) = 4.47792 6.74474 5.72465
#
# Compressibility (1/GPa) = 0.05384442
#
# Stress axis : x y z
#
# Youngs Moduli (GPa) = 76.74035 106.48895 14.80279
#
# Poissons Ratio (x) = 0.30956 0.01301
# Poissons Ratio (y) = 0.22308 0.21138
# Poissons Ratio (z) = 0.06746 1.52066
#
# Static dielectric constant tensor:
#      x y z
#    x 1.874570 0.000000 0.025400 
#    y 0.000000 1.826970 0.000000 
#    z 0.025400 0.000000 1.795100 
# 
# From -- ./inp_files/51389.got.cif
#   From: 2010.05.17/outbox.cif.g08.bks.cpg/sg5_26_cif.got.tgz:51389.got - 2010.06.03 18:56:24.
