data_PCOD9125485
_publ_section_title
;
Structure prediction by ZEFSAII (Michael W. Deem and Ramdas Pophale) SiO2 
 PCOD9125485
Probable space group: C 2
;
_chemical_formula_sum "Si O2"
_cell_formula_units_Z 20
_cell_length_a 8.290583
_cell_length_b 22.400514
_cell_length_c 5.134336
_cell_angle_alpha 90.000000
_cell_angle_beta 63.364699
_cell_angle_gamma 90.000000
_cell_volume 852.325898
_symmetry_space_group_name_H-M "C 2"
_symmetry_group_IT_number 5
_symmetry_cell_setting 'monoclinic'
loop_
_space_group_symop_operation_xyz
x,y,z
-x,y,-z
1/2+x,1/2+y,z
1/2-x,1/2+y,-z
loop_
_atom_site_type_symbol
_atom_site_label
_atom_site_fract_x
_atom_site_fract_y
_atom_site_fract_z
Si Si1 0.868713 0.922520 0.347704
Si Si2 0.696373 0.553367 0.507968
Si Si3 0.000000 0.630561 0.000000
Si Si4 0.790660 0.796789 0.564125
Si Si5 0.279367 0.723115 0.902374
Si Si6 0.000000 0.133564 0.000000
O O1 0.752771 0.862854 0.478460
O O2 0.000000 0.924711 0.500000
O O3 0.764459 0.985282 0.438120
O O4 0.000000 0.918310 0.000000
O O5 0.500000 0.553987 0.500000
O O6 0.658247 0.590707 0.794962
O O7 0.853816 0.588009 0.244143
O O8 0.112668 0.678685 0.089983
O O9 0.752421 0.752285 0.353675
O O10 0.000000 0.796967 0.500000
O O11 0.700743 0.774172 0.894696
O O12 0.444225 0.677852 0.811656
#
# Coordination Sequence:
#
# PCOD9125485 Si02
#       6
#     4   4   2   4   4   2
#     4  10  21  41  68  99 138 187 243 296 360 429
#     4  11  24  45  69 103 147 192 241 301 364 431
#     4  12  24  44  72 106 144 192 238 298 362 430
#     4  11  21  40  68 103 136 183 242 300 351 428
#     4  12  25  41  69 103 146 186 238 293 363 431
#     4  12  26  44  68 100 154 194 232 300 370 434
#
# _framework density 23.465202999999999
#
# number of rings (size 3 to 8) (size 9 to 14) (size 15 to 20)
#    0.000    0.800    5.000    3.600    0.000    0.000 
#    0.000    1.000    0.000    7.200    0.000    0.000 
#    0.000    0.000    0.000    0.000    0.000    0.000 
#
# Total GULP energy -55856.750546 kJ/mol
# GULP energy per Si atom -5585.675055 kJ/mol
# Density = 2.341180 g / cm^3
# Si number density = 23.465203 Si / 1000 Ang^3
#
#
#
# Elastic Constant Matrix: (Units=GPa)
#
#
# Indices 1 2 3 4 5 6 
#
# 1 59.7750 43.0607 27.4033 0.0000 10.5782 0.0000
# 2 43.0607 205.5944 60.2644 0.0000 1.6316 0.0000
# 3 27.4033 60.2644 139.2403 0.0000 14.4050 0.0000
# 4 0.0000 0.0000 0.0000 38.9927 0.0000 4.1688
# 5 10.5782 1.6316 14.4050 0.0000 44.4902 0.0000
# 6 0.0000 0.0000 0.0000 4.1688 0.0000 22.9230
#
#
#
# Elastic Compliance Matrix: (Units=1/GPa)
#
#
# Indices 1 2 3 4 5 6 
#
# 1 0.021161 -0.003786 -0.002090 0.000000 -0.004216 0.000000
# 2 -0.003786 0.006263 -0.002106 0.000000 0.001352 0.000000
# 3 -0.002090 -0.002106 0.008738 0.000000 -0.002255 0.000000
# 4 0.000000 0.000000 0.000000 0.026154 0.000000 -0.004756
# 5 -0.004216 0.001352 -0.002255 0.000000 0.024160 0.000000
# 6 0.000000 0.000000 0.000000 -0.004756 0.000000 0.044489
#
#
# Mechanical properties :
#
#
# Convention : Reuss Voigt Hill
#
# Bulk Modulus (GPa) = 49.50717 74.00739 61.75728
# Shear Modulus (GPa) = 32.53907 39.53992 36.03949
#
# Velocity S-wave (km/s) = 3.72787 4.10938 3.92327
# Velocity P-wave (km/s) = 6.29868 7.35688 6.84825
#
# Compressibility (1/GPa) = 0.02019909
#
# Stress axis : x y z
#
# Youngs Moduli (GPa) = 47.25696 159.65800 114.44601
#
# Poissons Ratio (x) = 0.60447 0.23917
# Poissons Ratio (y) = 0.17892 0.24098
# Poissons Ratio (z) = 0.09876 0.33618
#
# Static dielectric constant tensor:
#      x y z
#    x 1.953130 0.000000 -0.057820 
#    y 0.000000 1.918180 0.000000 
#    z -0.057820 0.000000 1.938160 
# 
# From -- ./inp_files/2831.got.cif
#   From: 2010.05.17/outbox.cif.g08.bks.cpg/sg5_2_cif.got.tgz:2831.got - 2010.06.03 18:56:24.
