data_PCOD9125673
_publ_section_title
;
Structure prediction by ZEFSAII (Michael W. Deem and Ramdas Pophale) SiO2 
 PCOD9125673
Probable space group: C 2
;
_chemical_formula_sum "Si O2"
_cell_formula_units_Z 18
_cell_length_a 8.679909
_cell_length_b 12.963757
_cell_length_c 9.124544
_cell_angle_alpha 90.000000
_cell_angle_beta 52.083375
_cell_angle_gamma 90.000000
_cell_volume 809.995075
_symmetry_space_group_name_H-M "C 2"
_symmetry_group_IT_number 5
_symmetry_cell_setting 'monoclinic'
loop_
_space_group_symop_operation_xyz
x,y,z
-x,y,-z
1/2+x,1/2+y,z
1/2-x,1/2+y,-z
loop_
_atom_site_type_symbol
_atom_site_label
_atom_site_fract_x
_atom_site_fract_y
_atom_site_fract_z
Si Si1 0.149355 0.927340 0.034424
Si Si2 0.000000 0.223289 0.000000
Si Si3 0.887694 0.682041 0.919499
Si Si4 0.697648 0.382680 0.321688
Si Si5 0.470988 0.010541 0.345750
O O1 0.104173 0.805138 0.075295
O O2 0.157092 0.953537 0.201684
O O3 0.000000 0.967850 0.000000
O O4 0.358366 0.951642 0.843063
O O5 0.156704 0.164378 0.013994
O O6 0.141911 0.297124 0.819844
O O7 0.005512 0.628067 0.719962
O O8 0.000000 0.642838 0.000000
O O9 0.500000 0.334647 0.500000
O O10 0.777885 0.456202 0.401835
O O11 0.500000 0.999701 0.500000
#
# Coordination Sequence:
#
# PCOD9125673 Si02
#       5
#     4   2   4   4   4
#     4  10  21  42  70  99 138 187 228 297 357 419
#     4  10  22  46  74 102 142 190 234 300 356 426
#     4  10  22  41  71  98 142 186 234 290 360 417
#     4  11  21  42  73 101 141 183 240 290 361 415
#     4  12  24  42  68 109 142 183 241 292 356 427
#
# _framework density 22.222356999999999
#
# number of rings (size 3 to 8) (size 9 to 14) (size 15 to 20)
#    0.000    1.333    4.444    2.667    1.556    3.556 
#    4.000    0.000    0.000    1.333    0.000    0.000 
#    0.000    0.000    0.000    0.000    0.000    0.000 
#
# Total GULP energy -50171.544380 kJ/mol
# GULP energy per Si atom -5574.616042 kJ/mol
# Density = 2.217178 g / cm^3
# Si number density = 22.222357 Si / 1000 Ang^3
#
#
#
# Elastic Constant Matrix: (Units=GPa)
#
#
# Indices 1 2 3 4 5 6 
#
# 1 197.3021 26.9790 44.3744 0.0000 30.9175 0.0000
# 2 26.9790 76.8097 25.4002 0.0000 1.2963 0.0000
# 3 44.3744 25.4002 131.6242 0.0000 11.4094 0.0000
# 4 0.0000 0.0000 0.0000 15.8311 0.0000 10.9104
# 5 30.9175 1.2963 11.4094 0.0000 58.5541 0.0000
# 6 0.0000 0.0000 0.0000 10.9104 0.0000 26.2378
#
#
#
# Elastic Compliance Matrix: (Units=1/GPa)
#
#
# Indices 1 2 3 4 5 6 
#
# 1 0.006073 -0.001591 -0.001490 0.000000 -0.002881 0.000000
# 2 -0.001591 0.014326 -0.002313 0.000000 0.000974 0.000000
# 3 -0.001490 -0.002313 0.008619 0.000000 -0.000841 0.000000
# 4 0.000000 0.000000 0.000000 0.088540 0.000000 -0.036817
# 5 -0.002881 0.000974 -0.000841 0.000000 0.018742 0.000000
# 6 0.000000 0.000000 0.000000 -0.036817 0.000000 0.053423
#
#
# Mechanical properties :
#
#
# Convention : Reuss Voigt Hill
#
# Bulk Modulus (GPa) = 54.85685 66.58256 60.71971
# Shear Modulus (GPa) = 24.20274 40.72343 32.46308
#
# Velocity S-wave (km/s) = 3.30376 4.28547 3.82623
# Velocity P-wave (km/s) = 6.26834 7.38336 6.84858
#
# Compressibility (1/GPa) = 0.01822926
#
# Stress axis : x y z
#
# Youngs Moduli (GPa) = 164.67357 69.80077 116.02222
#
# Poissons Ratio (x) = 0.11109 0.17292
# Poissons Ratio (y) = 0.26208 0.26830
# Poissons Ratio (z) = 0.24543 0.16142
#
# Static dielectric constant tensor:
#      x y z
#    x 1.929510 0.000000 0.003800 
#    y 0.000000 1.885440 0.000000 
#    z 0.003800 0.000000 1.764230 
# 
# From -- ./inp_files/15270.got.cif
#   From: 2010.05.17/outbox.cif.g08.bks.cpg/sg5_8_cif.got.tgz:15270.got - 2010.06.03 18:56:24.
