data_PCOD9125679
_publ_section_title
;
Structure prediction by ZEFSAII (Michael W. Deem and Ramdas Pophale) SiO2 
 PCOD9125679
Probable space group: C 2
;
_chemical_formula_sum "Si O2"
_cell_formula_units_Z 24
_cell_length_a 17.148983
_cell_length_b 8.674698
_cell_length_c 15.063901
_cell_angle_alpha 90.000000
_cell_angle_beta 25.635218
_cell_angle_gamma 90.000000
_cell_volume 969.520181
_symmetry_space_group_name_H-M "C 2"
_symmetry_group_IT_number 5
_symmetry_cell_setting 'monoclinic'
loop_
_space_group_symop_operation_xyz
x,y,z
-x,y,-z
1/2+x,1/2+y,z
1/2-x,1/2+y,-z
loop_
_atom_site_type_symbol
_atom_site_label
_atom_site_fract_x
_atom_site_fract_y
_atom_site_fract_z
Si Si1 0.000000 0.500000 0.000000
Si Si2 0.694030 0.289714 0.338219
Si Si3 0.694553 0.684920 0.314084
Si Si4 0.500000 0.562143 0.000000
Si Si5 0.422655 0.841443 0.401387
Si Si6 0.315940 0.369719 0.032792
Si Si7 0.384707 0.474612 0.401467
O O1 0.867384 0.615363 0.187932
O O2 0.766382 0.718357 0.141687
O O3 0.500000 0.241864 0.500000
O O4 0.835744 0.393567 0.131682
O O5 0.651351 0.389296 0.468763
O O6 0.835822 0.156303 0.212994
O O7 0.500000 0.603038 0.500000
O O8 0.640262 0.828472 0.431275
O O9 0.404801 0.471993 0.018484
O O10 0.619835 0.914944 0.198357
O O11 0.423513 0.658823 0.370660
O O12 0.288882 0.940494 0.480302
O O13 0.452939 0.382238 0.812009
#
# Coordination Sequence:
#
# PCOD9125679 Si02
#       7
#     2   4   4   2   4   4   4
#     4  11  19  38  68 100 133 181 238 280 350 421
#     4  11  27  44  73 103 147 191 243 303 363 435
#     4  10  21  42  71 103 137 190 242 295 351 437
#     4  11  25  50  72 106 145 201 242 294 372 447
#     4  11  26  46  73 107 150 191 247 301 367 433
#     4  11  26  45  75 106 144 190 242 297 372 432
#     4  12  26  47  71 111 146 192 242 310 364 430
#
# _framework density 24.754512999999999
#
# number of rings (size 3 to 8) (size 9 to 14) (size 15 to 20)
#    0.000    1.000    1.667    4.000    2.333   10.000 
#    0.000    0.000    0.000    0.000    0.000    0.000 
#    0.000    0.000    0.000    0.000    0.000    0.000 
#
# Total GULP energy -66890.960303 kJ/mol
# GULP energy per Si atom -5574.246692 kJ/mol
# Density = 2.469817 g / cm^3
# Si number density = 24.754513 Si / 1000 Ang^3
#
#
#
# Elastic Constant Matrix: (Units=GPa)
#
#
# Indices 1 2 3 4 5 6 
#
# 1 99.2685 28.2403 73.2732 0.0000 -14.2088 0.0000
# 2 28.2403 76.8947 62.6805 0.0000 -7.1897 0.0000
# 3 73.2732 62.6805 263.0780 0.0000 -37.1097 0.0000
# 4 0.0000 0.0000 0.0000 24.0726 0.0000 -4.8100
# 5 -14.2088 -7.1897 -37.1097 0.0000 62.3829 0.0000
# 6 0.0000 0.0000 0.0000 -4.8100 0.0000 29.5647
#
#
#
# Elastic Compliance Matrix: (Units=1/GPa)
#
#
# Indices 1 2 3 4 5 6 
#
# 1 0.013041 -0.002295 -0.002951 0.000000 0.000950 0.000000
# 2 -0.002295 0.016556 -0.003395 0.000000 -0.000634 0.000000
# 3 -0.002951 -0.003395 0.005766 0.000000 0.002366 0.000000
# 4 0.000000 0.000000 0.000000 0.042937 0.000000 0.006986
# 5 0.000950 -0.000634 0.002366 0.000000 0.017581 0.000000
# 6 0.000000 0.000000 0.000000 0.006986 0.000000 0.034961
#
#
# Mechanical properties :
#
#
# Convention : Reuss Voigt Hill
#
# Bulk Modulus (GPa) = 55.30838 85.29214 70.30026
# Shear Modulus (GPa) = 32.43598 41.54052 36.98825
#
# Velocity S-wave (km/s) = 3.62374 4.10090 3.86968
# Velocity P-wave (km/s) = 6.31664 7.54674 6.95892
#
# Compressibility (1/GPa) = 0.01808044
#
# Stress axis : x y z
#
# Youngs Moduli (GPa) = 76.68076 60.40277 173.43496
#
# Poissons Ratio (x) = 0.13861 0.51189
# Poissons Ratio (y) = 0.17596 0.58878
# Poissons Ratio (z) = 0.22632 0.20506
#
# Static dielectric constant tensor:
#      x y z
#    x 1.990700 0.000000 -0.009220 
#    y 0.000000 2.202480 0.000000 
#    z -0.009220 0.000000 2.067400 
# 
# From -- ./inp_files/62351.got.cif
#   From: 2010.05.17/outbox.cif.g08.bks.cpg/sg5_32_cif.got.tgz:62351.got - 2010.06.03 18:56:24.
