data_PCOD9125240
_publ_section_title
;
Structure prediction by ZEFSAII (Michael W. Deem and Ramdas Pophale) SiO2 
 PCOD9125240
Probable space group: C 2
;
_chemical_formula_sum "Si O2"
_cell_formula_units_Z 28
_cell_length_a 10.018826
_cell_length_b 9.395580
_cell_length_c 25.739991
_cell_angle_alpha 90.000000
_cell_angle_beta 154.064102
_cell_angle_gamma 90.000000
_cell_volume 1059.724935
_symmetry_space_group_name_H-M "C 2"
_symmetry_group_IT_number 5
_symmetry_cell_setting 'monoclinic'
loop_
_space_group_symop_operation_xyz
x,y,z
-x,y,-z
1/2+x,1/2+y,z
1/2-x,1/2+y,-z
loop_
_atom_site_type_symbol
_atom_site_label
_atom_site_fract_x
_atom_site_fract_y
_atom_site_fract_z
Si Si1 0.456510 0.925590 0.418165
Si Si2 0.500000 0.171021 0.500000
Si Si3 0.641386 0.801459 0.878076
Si Si4 0.115990 0.323047 0.723030
Si Si5 0.824887 0.069453 0.196998
Si Si6 0.500000 0.667175 0.500000
Si Si7 0.461687 0.037713 0.742027
Si Si8 0.406916 0.781029 0.909293
O O1 0.412291 0.889418 0.343112
O O2 0.618786 0.789152 0.501028
O O3 0.620749 0.068929 0.495526
O O4 0.113877 0.973393 0.316178
O O5 0.774141 0.266905 0.615695
O O6 0.581613 0.671169 0.817958
O O7 0.572342 0.751824 0.912393
O O8 0.441413 0.934836 0.785367
O O9 0.000000 0.839556 0.000000
O O10 0.293433 0.179380 0.800560
O O11 0.205568 0.446475 0.793673
O O12 0.600847 0.951969 0.096551
O O13 0.693347 0.567991 0.606308
O O14 0.590016 0.194513 0.795249
O O15 0.500000 0.741214 0.000000
#
# Coordination Sequence:
#
# PCOD9125240 Si02
#       8
#     4   2   4   4   4   2   4   4
#     4  10  21  40  65  97 143 187 244 294 352 434
#     4   9  21  40  56  98 134 184 244 288 338 428
#     4  11  27  50  77 110 153 192 252 321 384 446
#     4  10  22  40  66  93 143 188 236 298 359 425
#     4  10  23  45  69 102 140 188 243 302 374 438
#     4  11  23  42  66 108 148 196 240 294 368 440
#     4  11  25  46  69 111 152 193 252 303 373 456
#     4  12  27  47  80 109 147 195 258 314 386 448
#
# _framework density 26.421949999999999
#
# number of rings (size 3 to 8) (size 9 to 14) (size 15 to 20)
#    0.000    1.429    1.429    2.143    4.000    6.857 
#    2.571    0.000    0.000    0.000    0.000    0.000 
#    0.000    0.000    0.000    0.000    0.000    0.000 
#
# Total GULP energy -78071.367217 kJ/mol
# GULP energy per Si atom -5576.526230 kJ/mol
# Density = 2.636181 g / cm^3
# Si number density = 26.421950 Si / 1000 Ang^3
#
#
#
# Elastic Constant Matrix: (Units=GPa)
#
#
# Indices 1 2 3 4 5 6 
#
# 1 119.1139 31.4717 37.2015 -0.0001 -38.7499 -0.0001
# 2 31.4717 169.3855 26.0237 -0.0001 -13.5201 0.0000
# 3 37.2015 26.0237 128.2384 0.0008 -35.4547 -0.0002
# 4 -0.0001 -0.0001 0.0008 35.2160 -0.0002 -17.6341
# 5 -38.7499 -13.5201 -35.4547 -0.0002 38.2558 -0.0002
# 6 -0.0001 0.0000 -0.0002 -17.6341 -0.0002 41.2908
#
#
#
# Elastic Compliance Matrix: (Units=1/GPa)
#
#
# Indices 1 2 3 4 5 6 
#
# 1 0.012830 -0.001387 0.000023 0.000000 0.012526 0.000000
# 2 -0.001387 0.006296 -0.000872 0.000000 0.000012 0.000000
# 3 0.000023 -0.000872 0.010607 0.000000 0.009546 0.000000
# 4 0.000000 0.000000 0.000000 0.036121 0.000000 0.015426
# 5 0.012526 0.000012 0.009546 0.000000 0.047679 0.000000
# 6 0.000000 0.000000 0.000000 0.015426 0.000000 0.030806
#
#
# Mechanical properties :
#
#
# Convention : Reuss Voigt Hill
#
# Bulk Modulus (GPa) = 39.58747 67.34797 53.46772
# Shear Modulus (GPa) = 31.79994 44.42191 38.11092
#
# Velocity S-wave (km/s) = 3.47297 4.10475 3.80201
# Velocity P-wave (km/s) = 5.57650 6.92893 6.28918
#
# Compressibility (1/GPa) = 0.02526052
#
# Stress axis : x y z
#
# Youngs Moduli (GPa) = 77.94350 158.82123 94.27330
#
# Poissons Ratio (x) = 0.22036 -0.00216
# Poissons Ratio (y) = 0.10814 0.08221
# Poissons Ratio (z) = -0.00178 0.13849
#
# Static dielectric constant tensor:
#      x y z
#    x 2.135060 0.000000 0.012340 
#    y 0.000000 2.082720 0.000000 
#    z 0.012340 0.000000 2.285270 
# 
# From -- ./inp_files/70378.got.cif
#   From: 2010.05.17/outbox.cif.g08.bks.cpg/sg5_36_cif.got.tgz:70378.got - 2010.06.03 18:56:24.
