data_PCOD9125340
_publ_section_title
;
Structure prediction by ZEFSAII (Michael W. Deem and Ramdas Pophale) SiO2 
 PCOD9125340
Probable space group: C 2
;
_chemical_formula_sum "Si O2"
_cell_formula_units_Z 30
_cell_length_a 13.819891
_cell_length_b 17.661044
_cell_length_c 5.603190
_cell_angle_alpha 90.000000
_cell_angle_beta 73.058257
_cell_angle_gamma 90.000000
_cell_volume 1308.239972
_symmetry_space_group_name_H-M "C 2"
_symmetry_group_IT_number 5
_symmetry_cell_setting 'monoclinic'
loop_
_space_group_symop_operation_xyz
x,y,z
-x,y,-z
1/2+x,1/2+y,z
1/2-x,1/2+y,-z
loop_
_atom_site_type_symbol
_atom_site_label
_atom_site_fract_x
_atom_site_fract_y
_atom_site_fract_z
Si Si1 0.755513 0.787450 0.673376
Si Si2 0.379465 0.427300 0.592113
Si Si3 0.216816 0.204115 0.211222
Si Si4 0.555237 0.883915 0.712925
Si Si5 0.745894 0.045091 0.971129
Si Si6 0.500000 0.659870 0.500000
Si Si7 0.597624 0.539986 0.786331
Si Si8 0.481112 0.051316 0.763791
O O1 0.852951 0.840652 0.630325
O O2 0.759044 0.740697 0.424692
O O3 0.663576 0.845849 0.675633
O O4 0.742032 0.744188 0.937829
O O5 0.500000 0.441016 0.500000
O O6 0.349005 0.467889 0.368350
O O7 0.313295 0.475924 0.826349
O O8 0.093788 0.204115 0.319693
O O9 0.256760 0.117337 0.198429
O O10 0.500000 0.863564 0.500000
O O11 0.551869 0.976134 0.713611
O O12 0.500000 0.861975 0.000000
O O13 0.816359 0.079425 0.125369
O O14 0.635323 0.024190 0.138753
O O15 0.552532 0.603268 0.647181
O O16 0.500000 0.512831 0.000000
O O17 0.500000 0.092095 0.500000
O O18 0.500000 0.093111 0.000000
#
# Coordination Sequence:
#
# PCOD9125340 Si02
#       8
#     4   4   4   4   4   2   4   4
#     4  12  30  45  70 107 154 194 241 299 383 445
#     4  12  25  47  76 110 144 198 252 315 368 446
#     4  12  28  48  70 107 149 200 237 302 380 448
#     4  10  21  41  60  95 135 179 230 277 354 419
#     4  12  26  45  80 104 152 188 260 312 367 450
#     4  12  24  46  72 112 150 192 246 318 390 452
#     4  12  21  42  75 116 142 189 249 316 389 427
#     4  10  24  43  70 104 138 185 242 305 359 419
#
# _framework density 22.931574999999999
#
# number of rings (size 3 to 8) (size 9 to 14) (size 15 to 20)
#    0.000    0.533    4.667    3.200   10.267    0.000 
#    0.000    2.000    0.000    0.000    0.000    0.000 
#    0.000    0.000    0.000    0.000    0.000    0.000 
#
# Total GULP energy -83716.407922 kJ/mol
# GULP energy per Si atom -5581.093861 kJ/mol
# Density = 2.287938 g / cm^3
# Si number density = 22.931575 Si / 1000 Ang^3
#
#
#
# Elastic Constant Matrix: (Units=GPa)
#
#
# Indices 1 2 3 4 5 6 
#
# 1 58.6794 4.2471 42.3814 0.0000 1.1021 0.0000
# 2 4.2471 87.0103 36.1820 0.0000 1.0023 0.0000
# 3 42.3814 36.1820 162.4583 0.0000 19.4066 0.0000
# 4 0.0000 0.0000 0.0000 28.4786 0.0000 -16.3641
# 5 1.1021 1.0023 19.4066 0.0000 33.4655 0.0000
# 6 0.0000 0.0000 0.0000 -16.3641 0.0000 7.6085
#
#
#
# Elastic Compliance Matrix: (Units=1/GPa)
#
#
# Indices 1 2 3 4 5 6 
#
# 1 0.021405 0.001529 -0.006269 0.000000 0.002885 0.000000
# 2 0.001529 0.012832 -0.003443 0.000000 0.001562 0.000000
# 3 -0.006269 -0.003443 0.009155 0.000000 -0.004999 0.000000
# 4 0.000000 0.000000 0.000000 -0.148876 0.000000 -0.320199
# 5 0.002885 0.001562 -0.004999 0.000000 0.032639 0.000000
# 6 0.000000 0.000000 0.000000 -0.320199 0.000000 -0.557243
#
#
# Mechanical properties :
#
#
# Convention : Reuss Voigt Hill
#
# Bulk Modulus (GPa) = 37.00311 52.64100 44.82205
# Shear Modulus (GPa) = -8.26839 28.93301 10.33231
#
# Velocity S-wave (km/s) = -1.90092 3.55591 2.12497
# Velocity P-wave (km/s) = 3.36947 6.31386 5.06054
#
# Compressibility (1/GPa) = 0.02702476
#
# Stress axis : x y z
#
# Youngs Moduli (GPa) = 46.71850 77.92927 109.23015
#
# Poissons Ratio (x) = -0.11915 0.68477
# Poissons Ratio (y) = -0.07143 0.37612
# Poissons Ratio (z) = 0.29288 0.26834
#
# Static dielectric constant tensor:
#      x y z
#    x 1.874930 0.000000 0.044640 
#    y 0.000000 1.869840 0.000000 
#    z 0.044640 0.000000 2.036220 
# 
# From -- ./inp_files/7296.got.cif
#   From: 2010.05.17/outbox.cif.g08.bks.cpg/sg5_4_cif.got.tgz:7296.got - 2010.06.03 18:56:24.
