data_PCOD9125394
_publ_section_title
;
Structure prediction by ZEFSAII (Michael W. Deem and Ramdas Pophale) SiO2 
 PCOD9125394
Probable space group: C 2
;
_chemical_formula_sum "Si O2"
_cell_formula_units_Z 32
_cell_length_a 8.602155
_cell_length_b 13.116279
_cell_length_c 14.410263
_cell_angle_alpha 90.000000
_cell_angle_beta 114.704102
_cell_angle_gamma 90.000000
_cell_volume 1477.081148
_symmetry_space_group_name_H-M "C 2"
_symmetry_group_IT_number 5
_symmetry_cell_setting 'monoclinic'
loop_
_space_group_symop_operation_xyz
x,y,z
-x,y,-z
1/2+x,1/2+y,z
1/2-x,1/2+y,-z
loop_
_atom_site_type_symbol
_atom_site_label
_atom_site_fract_x
_atom_site_fract_y
_atom_site_fract_z
Si Si1 0.411559 0.826680 0.379808
Si Si2 0.689017 0.064652 0.871140
Si Si3 0.295032 0.691109 0.076608
Si Si4 0.811810 0.026489 0.705892
Si Si5 0.389219 0.208950 0.781260
Si Si6 0.137626 0.252219 0.270870
Si Si7 0.885808 0.896047 0.212399
Si Si8 0.334155 0.890115 0.006395
O O1 0.500000 0.811471 0.500000
O O2 0.270556 0.738311 0.323588
O O3 0.546459 0.813949 0.330108
O O4 0.324164 0.939039 0.355204
O O5 0.810298 0.029874 0.818364
O O6 0.536590 0.130570 0.788708
O O7 0.777234 0.124679 0.978811
O O8 0.610307 0.967021 0.901166
O O9 0.179822 0.667584 0.137571
O O10 0.485425 0.713420 0.163770
O O11 0.228840 0.801485 0.027070
O O12 0.784487 0.144830 0.672433
O O13 0.994912 0.984037 0.716373
O O14 0.486085 0.317211 0.806328
O O15 0.270759 0.326183 0.251478
O O16 0.769161 0.941488 0.102202
O O17 0.500000 0.842581 0.000000
#
# Coordination Sequence:
#
# PCOD9125394 Si02
#       8
#     4   4   4   4   4   4   4   4
#     4  10  25  52  74  99 135 172 235 303 357 411
#     4  12  23  38  62  98 140 186 236 271 335 422
#     4  11  22  37  61  92 143 186 230 269 335 406
#     4  11  25  44  68 101 134 183 229 287 346 412
#     4  10  21  41  64  93 135 179 228 289 341 403
#     4  11  22  46  68  98 142 184 223 289 343 409
#     4  11  22  39  63  95 144 182 234 277 335 407
#     4  12  22  32  55  91 136 189 227 270 322 393
#
# _framework density 21.664349000000001
#
# number of rings (size 3 to 8) (size 9 to 14) (size 15 to 20)
#    0.000    1.000    3.750    4.125    0.000    3.500 
#    2.250    2.500    0.000    0.000    0.000    0.000 
#    0.000    0.000    0.000    0.000    0.000    0.000 
#
# Total GULP energy -89294.648934 kJ/mol
# GULP energy per Si atom -5580.915558 kJ/mol
# Density = 2.161504 g / cm^3
# Si number density = 21.664349 Si / 1000 Ang^3
#
#
#
# Elastic Constant Matrix: (Units=GPa)
#
#
# Indices 1 2 3 4 5 6 
#
# 1 103.9522 26.5274 37.1831 0.0000 3.1675 0.0000
# 2 26.5274 77.3817 16.9917 0.0000 5.2040 0.0000
# 3 37.1831 16.9917 103.1551 0.0000 5.5171 0.0000
# 4 0.0000 0.0000 0.0000 24.3088 0.0000 1.3931
# 5 3.1675 5.2040 5.5171 0.0000 7.4187 0.0000
# 6 0.0000 0.0000 0.0000 1.3931 0.0000 31.9831
#
#
#
# Elastic Compliance Matrix: (Units=1/GPa)
#
#
# Indices 1 2 3 4 5 6 
#
# 1 0.011769 -0.003219 -0.003712 0.000000 -0.000007 0.000000
# 2 -0.003219 0.014771 -0.000825 0.000000 -0.008373 0.000000
# 3 -0.003712 -0.000825 0.011510 0.000000 -0.006396 0.000000
# 4 0.000000 0.000000 0.000000 0.041240 0.000000 -0.001796
# 5 -0.000007 -0.008373 -0.006396 0.000000 0.145429 0.000000
# 6 0.000000 0.000000 0.000000 -0.001796 0.000000 0.031345
#
#
# Mechanical properties :
#
#
# Convention : Reuss Voigt Hill
#
# Bulk Modulus (GPa) = 44.36833 49.54373 46.95603
# Shear Modulus (GPa) = 17.91550 26.32788 22.12169
#
# Velocity S-wave (km/s) = 2.87881 3.48984 3.19895
# Velocity P-wave (km/s) = 5.61911 6.25756 5.94691
#
# Compressibility (1/GPa) = 0.02253860
#
# Stress axis : x y z
#
# Youngs Moduli (GPa) = 84.96795 67.70138 86.88089
#
# Poissons Ratio (x) = 0.21794 0.32247
# Poissons Ratio (y) = 0.27352 0.07166
# Poissons Ratio (z) = 0.31537 0.05584
#
# Static dielectric constant tensor:
#      x y z
#    x 1.819520 0.000000 0.057890 
#    y 0.000000 1.837020 0.000000 
#    z 0.057890 0.000000 1.773110 
# 
# From -- ./inp_files/50957.got.cif
#   From: 2010.05.17/outbox.cif.g08.bks.cpg/sg5_26_cif.got.tgz:50957.got - 2010.06.03 18:56:24.
