data_PCOD9125537
_publ_section_title
;
Structure prediction by ZEFSAII (Michael W. Deem and Ramdas Pophale) SiO2 
 PCOD9125537
Probable space group: C 2
;
_chemical_formula_sum "Si O2"
_cell_formula_units_Z 20
_cell_length_a 7.830358
_cell_length_b 17.122605
_cell_length_c 11.759699
_cell_angle_alpha 90.000000
_cell_angle_beta 138.547747
_cell_angle_gamma 90.000000
_cell_volume 1043.765213
_symmetry_space_group_name_H-M "C 2"
_symmetry_group_IT_number 5
_symmetry_cell_setting 'monoclinic'
loop_
_space_group_symop_operation_xyz
x,y,z
-x,y,-z
1/2+x,1/2+y,z
1/2-x,1/2+y,-z
loop_
_atom_site_type_symbol
_atom_site_label
_atom_site_fract_x
_atom_site_fract_y
_atom_site_fract_z
Si Si1 0.004625 0.784220 0.639093
Si Si2 0.000000 0.049930 0.500000
Si Si3 0.500000 0.844432 0.500000
Si Si4 0.680645 0.934462 0.191390
Si Si5 0.983119 0.609791 0.354699
Si Si6 0.221322 0.445400 0.811683
O O1 0.179464 0.854460 0.773082
O O2 0.000000 0.793320 0.500000
O O3 0.715285 0.794786 0.541641
O O4 0.104900 0.697622 0.716593
O O5 0.238239 0.096944 0.565732
O O6 0.108764 0.994995 0.655680
O O7 0.653238 0.899760 0.663507
O O8 0.493450 0.920577 0.204426
O O9 0.500000 0.965028 0.000000
O O10 0.000000 0.603842 0.500000
O O11 0.810490 0.538075 0.225340
O O12 0.500000 0.427241 0.000000
#
# Coordination Sequence:
#
# PCOD9125537 Si02
#       6
#     4   2   2   4   4   4
#     4  11  21  39  60  89 118 158 192 238 300 344
#     4  10  21  42  59  88 114 156 196 242 291 342
#     4  12  21  40  65  86 120 154 196 248 281 356
#     4  11  22  38  64  87 121 152 200 245 287 347
#     4  10  22  37  62  85 119 156 191 240 294 349
#     4  11  23  38  62  91 115 157 200 241 292 344
#
# _framework density 19.161396
#
# number of rings (size 3 to 8) (size 9 to 14) (size 15 to 20)
#    0.000    1.200    4.000    3.000    2.800    0.800 
#    0.000    0.000    0.000    2.400    0.000    0.000 
#    0.000    0.000    0.000    0.000    0.000    0.000 
#
# Total GULP energy -55857.816766 kJ/mol
# GULP energy per Si atom -5585.781677 kJ/mol
# Density = 1.911778 g / cm^3
# Si number density = 19.161396 Si / 1000 Ang^3
#
#
#
# Elastic Constant Matrix: (Units=GPa)
#
#
# Indices 1 2 3 4 5 6 
#
# 1 82.0367 13.2941 -0.9407 -0.0001 -8.3554 0.0002
# 2 13.2941 85.8567 22.6763 0.0000 -1.9900 0.0001
# 3 -0.9407 22.6763 92.4334 -0.0001 -8.2505 0.0001
# 4 -0.0001 0.0000 -0.0001 -4.6399 -0.0001 11.3268
# 5 -8.3554 -1.9900 -8.2505 -0.0001 23.7323 0.0001
# 6 0.0002 0.0001 0.0001 11.3268 0.0001 -5.0370
#
#
#
# Elastic Compliance Matrix: (Units=1/GPa)
#
#
# Indices 1 2 3 4 5 6 
#
# 1 0.013047 -0.002200 0.001100 0.000000 0.004791 0.000000
# 2 -0.002200 0.012825 -0.003242 0.000000 -0.000826 0.000000
# 3 0.001100 -0.003242 0.012008 0.000000 0.004290 0.000000
# 4 0.000000 0.000000 0.000000 0.048006 0.000000 0.107951
# 5 0.004791 -0.000826 0.004290 0.000000 0.045246 0.000000
# 6 0.000000 0.000000 0.000000 0.107951 0.000000 0.044221
#
#
# Mechanical properties :
#
#
# Convention : Reuss Voigt Hill
#
# Bulk Modulus (GPa) = 34.25134 36.70959 35.48046
# Shear Modulus (GPa) = 25.80398 17.83089 21.81744
#
# Velocity S-wave (km/s) = 3.67367 3.05382 3.37800
# Velocity P-wave (km/s) = 5.99237 5.62442 5.81131
#
# Compressibility (1/GPa) = 0.02919594
#
# Stress axis : x y z
#
# Youngs Moduli (GPa) = 76.64763 77.97177 83.27652
#
# Poissons Ratio (x) = 0.17151 -0.09161
# Poissons Ratio (y) = 0.16860 0.27002
# Poissons Ratio (z) = -0.08432 0.25282
#
# Static dielectric constant tensor:
#      x y z
#    x 1.676570 0.000000 0.002060 
#    y 0.000000 1.657680 0.000000 
#    z 0.002060 0.000000 1.667220 
# 
# From -- ./inp_files/14877.got.cif
#   From: 2010.05.17/outbox.cif.g08.bks.cpg/sg5_8_cif.got.tgz:14877.got - 2010.06.03 18:56:24.
