data_PCOD9125086
_publ_section_title
;
Structure prediction by ZEFSAII (Michael W. Deem and Ramdas Pophale) SiO2 
 PCOD9125086
Probable space group: C 2
;
_chemical_formula_sum "Si O2"
_cell_formula_units_Z 28
_cell_length_a 12.806166
_cell_length_b 16.154709
_cell_length_c 8.868402
_cell_angle_alpha 90.000000
_cell_angle_beta 135.603653
_cell_angle_gamma 90.000000
_cell_volume 1283.584546
_symmetry_space_group_name_H-M "C 2"
_symmetry_group_IT_number 5
_symmetry_cell_setting 'monoclinic'
loop_
_space_group_symop_operation_xyz
x,y,z
-x,y,-z
1/2+x,1/2+y,z
1/2-x,1/2+y,-z
loop_
_atom_site_type_symbol
_atom_site_label
_atom_site_fract_x
_atom_site_fract_y
_atom_site_fract_z
Si Si1 0.359958 0.407260 0.464213
Si Si2 0.492488 0.718010 0.661374
Si Si3 0.242028 0.583997 0.411720
Si Si4 0.442654 0.312326 0.108766
Si Si5 0.648463 0.863153 0.978932
Si Si6 0.797929 0.631976 0.961124
Si Si7 0.522192 0.015113 0.690375
O O1 0.500000 0.423350 0.500000
O O2 0.325138 0.495471 0.503738
O O3 0.421300 0.338904 0.643152
O O4 0.224373 0.374822 0.220029
O O5 0.500000 0.758149 0.500000
O O6 0.342634 0.666093 0.534439
O O7 0.547892 0.782740 0.842762
O O8 0.623896 0.651245 0.785486
O O9 0.112211 0.574121 0.398073
O O10 0.175793 0.590469 0.174124
O O11 0.392268 0.216556 0.066158
O O12 0.500000 0.330291 0.000000
O O13 0.291540 0.358389 0.010968
O O14 0.545451 0.939835 0.827831
O O15 0.835144 0.572584 0.137114
O O16 0.500000 0.984331 0.500000
#
# Coordination Sequence:
#
# PCOD9125086 Si02
#       7
#     4   4   4   4   4   4   4
#     4  10  21  39  68 100 132 169 219 270 327 393
#     4   9  20  40  71  95 128 171 222 268 329 393
#     4  11  22  42  69  95 124 181 223 262 328 402
#     4  10  22  39  69 102 133 173 221 268 330 394
#     4  10  22  41  65  98 136 174 217 280 330 385
#     4  10  21  43  69  93 130 175 220 266 326 404
#     4  12  26  40  63  95 136 172 224 278 329 381
#
# _framework density 21.81391
#
# number of rings (size 3 to 8) (size 9 to 14) (size 15 to 20)
#    0.000    1.714    1.429    3.000    4.000    2.857 
#    2.571    0.714    6.286    0.000    0.000    0.000 
#    0.000    0.000    0.000    0.000    0.000    0.000 
#
# Total GULP energy -78193.265335 kJ/mol
# GULP energy per Si atom -5585.233238 kJ/mol
# Density = 2.176426 g / cm^3
# Si number density = 21.813910 Si / 1000 Ang^3
#
#
#
# Elastic Constant Matrix: (Units=GPa)
#
#
# Indices 1 2 3 4 5 6 
#
# 1 43.0911 12.7521 11.1881 0.0000 6.9767 0.0000
# 2 12.7521 47.5171 23.0933 0.0000 13.6773 0.0000
# 3 11.1881 23.0933 109.0186 0.0000 11.9700 0.0000
# 4 0.0000 0.0000 0.0000 36.0836 0.0000 3.7261
# 5 6.9767 13.6773 11.9700 0.0000 11.1167 0.0000
# 6 0.0000 0.0000 0.0000 3.7261 0.0000 20.3710
#
#
#
# Elastic Compliance Matrix: (Units=1/GPa)
#
#
# Indices 1 2 3 4 5 6 
#
# 1 0.026262 -0.003373 -0.000711 0.000000 -0.011566 0.000000
# 2 -0.003373 0.033810 -0.002813 0.000000 -0.036451 0.000000
# 3 -0.000711 -0.002813 0.010675 0.000000 -0.007587 0.000000
# 4 0.000000 0.000000 0.000000 0.028247 0.000000 -0.005167
# 5 -0.011566 -0.036451 -0.007587 0.000000 0.150229 0.000000
# 6 0.000000 0.000000 0.000000 -0.005167 0.000000 0.050034
#
#
# Mechanical properties :
#
#
# Convention : Reuss Voigt Hill
#
# Bulk Modulus (GPa) = 17.55882 32.63264 25.09573
# Shear Modulus (GPa) = 15.05864 23.68714 19.37289
#
# Velocity S-wave (km/s) = 2.63025 3.29883 2.98333
# Velocity P-wave (km/s) = 4.15826 5.43155 4.83699
#
# Compressibility (1/GPa) = 0.05695144
#
# Stress axis : x y z
#
# Youngs Moduli (GPa) = 38.07769 29.57736 93.68007
#
# Poissons Ratio (x) = 0.09978 0.06657
# Poissons Ratio (y) = 0.12845 0.26356
# Poissons Ratio (z) = 0.02706 0.08321
#
# Static dielectric constant tensor:
#      x y z
#    x 1.850450 0.000000 -0.015930 
#    y 0.000000 1.791010 0.000000 
#    z -0.015930 0.000000 1.858220 
# 
# From -- ./inp_files/25215.got.cif
#   From: 2010.05.17/outbox.cif.g08.bks.cpg/sg5_13_cif.got.tgz:25215.got - 2010.06.03 18:56:24.
