data_PCOD9125350
_publ_section_title
;
Structure prediction by ZEFSAII (Michael W. Deem and Ramdas Pophale) SiO2 
 PCOD9125350
Probable space group: C 2
;
_chemical_formula_sum "Si O2"
_cell_formula_units_Z 28
_cell_length_a 13.701410
_cell_length_b 12.190167
_cell_length_c 7.785793
_cell_angle_alpha 90.000000
_cell_angle_beta 63.195728
_cell_angle_gamma 90.000000
_cell_volume 1160.677043
_symmetry_space_group_name_H-M "C 2"
_symmetry_group_IT_number 5
_symmetry_cell_setting 'monoclinic'
loop_
_space_group_symop_operation_xyz
x,y,z
-x,y,-z
1/2+x,1/2+y,z
1/2-x,1/2+y,-z
loop_
_atom_site_type_symbol
_atom_site_label
_atom_site_fract_x
_atom_site_fract_y
_atom_site_fract_z
Si Si1 0.765475 0.618420 0.705321
Si Si2 0.536482 0.606522 0.777764
Si Si3 0.000000 0.502198 0.000000
Si Si4 0.709586 0.288323 0.597354
Si Si5 0.523520 0.383324 0.184945
Si Si6 0.168512 0.681252 0.994953
Si Si7 0.422444 0.851474 0.327556
Si Si8 0.000000 0.513583 0.500000
O O1 0.660123 0.558645 0.707338
O O2 0.756258 0.730731 0.607170
O O3 0.752742 0.634332 0.919784
O O4 0.889557 0.582165 0.568554
O O5 0.466168 0.507177 0.754561
O O6 0.539925 0.725544 0.688779
O O7 0.500000 0.632678 0.000000
O O8 0.085701 0.415758 0.846499
O O9 0.927168 0.591425 0.952753
O O10 0.588233 0.330235 0.660926
O O11 0.813323 0.367984 0.527900
O O12 0.707825 0.213214 0.771270
O O13 0.618815 0.293910 0.115247
O O14 0.500000 0.397473 0.000000
O O15 0.515013 0.929371 0.332683
#
# Coordination Sequence:
#
# PCOD9125350 Si02
#       8
#     4   4   2   4   4   4   4   2
#     4  11  23  39  71 102 131 176 232 287 339 414
#     4  10  22  43  62  90 135 186 217 271 352 412
#     4  12  20  44  66 100 140 180 220 294 356 402
#     4  10  21  41  62 101 133 172 224 284 344 404
#     4   9  18  38  64  88 128 177 219 276 340 401
#     4  11  21  41  73 100 129 179 235 289 338 406
#     4  11  24  38  65  94 142 180 216 286 351 412
#     4  12  22  40  64 106 134 176 236 288 340 416
#
# _framework density 24.123850999999998
#
# number of rings (size 3 to 8) (size 9 to 14) (size 15 to 20)
#    0.000    1.429    4.286    2.571    0.000    2.286 
#    0.000    7.143    0.000    5.143    0.000    0.000 
#    0.000    0.000    0.000    0.000    0.000    0.000 
#
# Total GULP energy -77959.081331 kJ/mol
# GULP energy per Si atom -5568.505809 kJ/mol
# Density = 2.406894 g / cm^3
# Si number density = 24.123851 Si / 1000 Ang^3
#
#
#
# Elastic Constant Matrix: (Units=GPa)
#
#
# Indices 1 2 3 4 5 6 
#
# 1 41.9947 11.4210 -2.1856 0.0000 -0.6005 0.0000
# 2 11.4210 108.7104 10.2850 0.0000 -2.6116 0.0000
# 3 -2.1856 10.2850 62.1925 0.0000 -9.9845 0.0000
# 4 0.0000 0.0000 0.0000 35.1380 0.0000 -12.7144
# 5 -0.6005 -2.6116 -9.9845 0.0000 30.1625 0.0000
# 6 0.0000 0.0000 0.0000 -12.7144 0.0000 13.8771
#
#
#
# Elastic Compliance Matrix: (Units=1/GPa)
#
#
# Indices 1 2 3 4 5 6 
#
# 1 0.024633 -0.002706 0.001430 0.000000 0.000730 0.000000
# 2 -0.002706 0.009645 -0.001653 0.000000 0.000234 0.000000
# 3 0.001430 -0.001653 0.017304 0.000000 0.005613 0.000000
# 4 0.000000 0.000000 0.000000 0.042573 0.000000 0.039006
# 5 0.000730 0.000234 0.005613 0.000000 0.035047 0.000000
# 6 0.000000 0.000000 0.000000 0.039006 0.000000 0.107799
#
#
# Mechanical properties :
#
#
# Convention : Reuss Voigt Hill
#
# Bulk Modulus (GPa) = 21.86935 27.99316 24.93126
# Shear Modulus (GPa) = 19.37235 28.72732 24.04983
#
# Velocity S-wave (km/s) = 2.83687 3.45458 3.16085
# Velocity P-wave (km/s) = 4.45146 5.24798 4.86605
#
# Compressibility (1/GPa) = 0.04572609
#
# Stress axis : x y z
#
# Youngs Moduli (GPa) = 40.59548 103.68082 57.79071
#
# Poissons Ratio (x) = 0.28053 -0.08266
# Poissons Ratio (y) = 0.10984 0.09550
# Poissons Ratio (z) = -0.05806 0.17133
#
# Static dielectric constant tensor:
#      x y z
#    x 2.107090 0.000000 0.114280 
#    y 0.000000 1.955040 0.000000 
#    z 0.114280 0.000000 2.220250 
# 
# From -- ./inp_files/23807.got.cif
#   From: 2010.05.17/outbox.cif.g08.bks.cpg/sg5_12_cif.got.tgz:23807.got - 2010.06.03 18:56:24.
