data_PCOD9125824
_publ_section_title
;
Structure prediction by ZEFSAII (Michael W. Deem and Ramdas Pophale) SiO2 
 PCOD9125824
Probable space group: C 2
;
_chemical_formula_sum "Si O2"
_cell_formula_units_Z 24
_cell_length_a 9.528545
_cell_length_b 15.181519
_cell_length_c 18.126436
_cell_angle_alpha 90.000000
_cell_angle_beta 151.003108
_cell_angle_gamma 90.000000
_cell_volume 1271.109501
_symmetry_space_group_name_H-M "C 2"
_symmetry_group_IT_number 5
_symmetry_cell_setting 'monoclinic'
loop_
_space_group_symop_operation_xyz
x,y,z
-x,y,-z
1/2+x,1/2+y,z
1/2-x,1/2+y,-z
loop_
_atom_site_type_symbol
_atom_site_label
_atom_site_fract_x
_atom_site_fract_y
_atom_site_fract_z
Si Si1 0.176812 0.540930 0.649867
Si Si2 0.831659 0.686428 0.130151
Si Si3 0.738293 0.340692 0.325432
Si Si4 0.345401 0.020480 0.650822
Si Si5 0.783678 0.164623 0.090198
Si Si6 0.809879 0.345613 0.181133
O O1 0.295359 0.445261 0.679361
O O2 0.450968 0.599128 0.796282
O O3 0.000000 0.579570 0.500000
O O4 0.961917 0.530443 0.620379
O O5 0.973467 0.777038 0.223442
O O6 0.015013 0.602471 0.241260
O O7 0.500000 0.675911 0.000000
O O8 0.829643 0.692064 0.041447
O O9 0.796569 0.333838 0.263932
O O10 0.000000 0.313685 0.500000
O O11 0.000000 0.021955 0.500000
O O12 0.475515 0.926557 0.736545
O O13 0.886390 0.251624 0.180964
O O14 0.500000 0.126253 0.000000
O O15 0.500000 0.367986 0.000000
#
# Coordination Sequence:
#
# PCOD9125824 Si02
#       6
#     4   4   4   4   4   4
#     4  10  24  44  63  94 129 167 213 266 317 381
#     4  12  23  41  65  97 127 167 218 264 318 378
#     4  10  22  43  65  91 133 165 210 268 320 371
#     4  11  25  42  66  93 129 173 211 260 323 382
#     4  11  23  41  68  95 125 169 213 264 319 379
#     4  10  21  44  67  92 126 171 215 260 317 385
#
# _framework density 18.881143000000002
#
# number of rings (size 3 to 8) (size 9 to 14) (size 15 to 20)
#    0.000    1.333    5.000    1.000    4.667    2.667 
#    9.000    0.000    0.000    0.000    0.000    0.000 
#    0.000    0.000    0.000    0.000    0.000    0.000 
#
# Total GULP energy -66945.521245 kJ/mol
# GULP energy per Si atom -5578.793437 kJ/mol
# Density = 1.883817 g / cm^3
# Si number density = 18.881143 Si / 1000 Ang^3
#
#
#
# Elastic Constant Matrix: (Units=GPa)
#
#
# Indices 1 2 3 4 5 6 
#
# 1 64.3063 12.6848 43.2682 0.0003 8.8056 -0.0004
# 2 12.6848 80.1393 58.9971 -0.0004 23.8744 -0.0004
# 3 43.2682 58.9971 143.3145 0.0004 16.4162 -0.0030
# 4 0.0003 -0.0004 0.0004 38.3751 0.0004 10.1698
# 5 8.8056 23.8744 16.4162 0.0004 47.1896 -0.0003
# 6 -0.0004 -0.0004 -0.0030 10.1698 -0.0003 59.2076
#
#
#
# Elastic Compliance Matrix: (Units=1/GPa)
#
#
# Indices 1 2 3 4 5 6 
#
# 1 0.019984 0.002663 -0.006820 0.000000 -0.002704 0.000000
# 2 0.002663 0.020603 -0.008368 0.000000 -0.008010 0.000000
# 3 -0.006820 -0.008368 0.012343 0.000000 0.001213 0.000001
# 4 0.000000 0.000000 0.000000 0.027301 0.000000 -0.004689
# 5 -0.002704 -0.008010 0.001213 0.000000 0.025326 0.000000
# 6 0.000000 0.000000 0.000001 -0.004689 0.000000 0.017695
#
#
# Mechanical properties :
#
#
# Convention : Reuss Voigt Hill
#
# Bulk Modulus (GPa) = 35.86780 57.51781 46.69281
# Shear Modulus (GPa) = 31.72656 40.47513 36.10085
#
# Velocity S-wave (km/s) = 4.10363 4.63501 4.37739
# Velocity P-wave (km/s) = 6.44134 7.69244 7.09453
#
# Compressibility (1/GPa) = 0.02788016
#
# Stress axis : x y z
#
# Youngs Moduli (GPa) = 50.03915 48.53568 81.01966
#
# Poissons Ratio (x) = -0.12926 0.55256
# Poissons Ratio (y) = -0.13326 0.67799
# Poissons Ratio (z) = 0.34127 0.40616
#
# Static dielectric constant tensor:
#      x y z
#    x 1.399700 0.000000 0.144950 
#    y 0.000000 1.652010 0.000000 
#    z 0.144950 0.000000 1.548470 
# 
# From -- ./inp_files/14959.got.cif
#   From: 2010.05.17/outbox.cif.g08.bks.cpg/sg5_8_cif.got.tgz:14959.got - 2010.06.03 18:56:24.
