data_PCOD9125113
_publ_section_title
;
Structure prediction by ZEFSAII (Michael W. Deem and Ramdas Pophale) SiO2 
 PCOD9125113
Probable space group: C 2
;
_chemical_formula_sum "Si O2"
_cell_formula_units_Z 18
_cell_length_a 17.416496
_cell_length_b 9.233857
_cell_length_c 13.078027
_cell_angle_alpha 90.000000
_cell_angle_beta 20.536308
_cell_angle_gamma 90.000000
_cell_volume 737.813888
_symmetry_space_group_name_H-M "C 2"
_symmetry_group_IT_number 5
_symmetry_cell_setting 'monoclinic'
loop_
_space_group_symop_operation_xyz
x,y,z
-x,y,-z
1/2+x,1/2+y,z
1/2-x,1/2+y,-z
loop_
_atom_site_type_symbol
_atom_site_label
_atom_site_fract_x
_atom_site_fract_y
_atom_site_fract_z
Si Si1 0.000000 0.540140 0.500000
Si Si2 0.473059 0.904240 0.312846
Si Si3 0.245135 0.776638 0.301737
Si Si4 0.764836 0.066530 0.796204
Si Si5 0.678306 0.168261 0.600491
O O1 0.998270 0.446664 0.399081
O O2 0.810871 0.659477 0.715283
O O3 0.379667 0.744952 0.405831
O O4 0.292677 0.003348 0.476150
O O5 0.691935 0.964419 0.983934
O O6 0.210133 0.942979 0.319535
O O7 0.127434 0.741299 0.554318
O O8 0.500000 0.760090 0.000000
O O9 0.000000 0.140839 0.500000
O O10 0.550837 0.165751 0.052113
#
# Coordination Sequence:
#
# PCOD9125113 Si02
#       5
#     2   4   4   4   4
#     4  10  22  40  78 118 158 206 260 332 390 470
#     4   9  20  42  77 120 151 205 267 322 391 476
#     4  11  19  40  79 114 149 209 264 319 395 467
#     4  10  21  39  79 118 150 201 270 319 390 471
#     4   9  20  40  78 119 147 211 260 318 394 476
#
# _framework density 24.396395999999999
#
# number of rings (size 3 to 8) (size 9 to 14) (size 15 to 20)
#    1.333    0.889    3.333    0.000    0.000    0.000 
#    0.000    6.667   14.667   40.000    0.000    0.000 
#    0.000    0.000    0.000    0.000    0.000    0.000 
#
# Total GULP energy -50132.547508 kJ/mol
# GULP energy per Si atom -5570.283056 kJ/mol
# Density = 2.434087 g / cm^3
# Si number density = 24.396396 Si / 1000 Ang^3
#
#
#
# Elastic Constant Matrix: (Units=GPa)
#
#
# Indices 1 2 3 4 5 6 
#
# 1 114.7408 45.0358 37.3880 -0.0002 5.8124 -0.0003
# 2 45.0358 82.2113 34.8850 -0.0001 3.1607 -0.0003
# 3 37.3880 34.8850 111.4042 -0.0007 2.5192 -0.0006
# 4 -0.0002 -0.0001 -0.0007 34.5853 0.0002 9.9478
# 5 5.8124 3.1607 2.5192 0.0002 28.4552 0.0001
# 6 -0.0003 -0.0003 -0.0006 9.9478 0.0001 68.9633
#
#
#
# Elastic Compliance Matrix: (Units=1/GPa)
#
#
# Indices 1 2 3 4 5 6 
#
# 1 0.011616 -0.005378 -0.002179 0.000000 -0.001583 0.000000
# 2 -0.005378 0.016557 -0.003370 0.000000 -0.000442 0.000000
# 3 -0.002179 -0.003370 0.010766 0.000000 -0.000134 0.000000
# 4 0.000000 0.000000 0.000000 0.030166 0.000000 -0.004351
# 5 -0.001583 -0.000442 -0.000134 0.000000 0.035527 0.000000
# 6 0.000000 0.000000 0.000000 -0.004351 0.000000 0.015128
#
#
# Mechanical properties :
#
#
# Convention : Reuss Voigt Hill
#
# Bulk Modulus (GPa) = 58.52759 60.33042 59.42900
# Shear Modulus (GPa) = 33.94253 39.13726 36.53989
#
# Velocity S-wave (km/s) = 3.73405 4.00962 3.87429
# Velocity P-wave (km/s) = 6.52941 6.79845 6.66529
#
# Compressibility (1/GPa) = 0.01708596
#
# Stress axis : x y z
#
# Youngs Moduli (GPa) = 86.08603 60.39812 92.88788
#
# Poissons Ratio (x) = 0.32483 0.20237
# Poissons Ratio (y) = 0.46298 0.31300
# Poissons Ratio (z) = 0.18755 0.20352
#
# Static dielectric constant tensor:
#      x y z
#    x 1.810350 0.000000 -0.038550 
#    y 0.000000 2.028360 0.000000 
#    z -0.038550 0.000000 1.993450 
# 
# From -- ./inp_files/56769.got.cif
#   From: 2010.05.17/outbox.cif.g08.bks.cpg/sg5_29_cif.got.tgz:56769.got - 2010.06.03 18:56:24.
