data_PCOD9125569
_publ_section_title
;
Structure prediction by ZEFSAII (Michael W. Deem and Ramdas Pophale) SiO2 
 PCOD9125569
Probable space group: C 2
;
_chemical_formula_sum "Si O2"
_cell_formula_units_Z 32
_cell_length_a 11.106729
_cell_length_b 8.830533
_cell_length_c 25.381216
_cell_angle_alpha 90.000000
_cell_angle_beta 39.469477
_cell_angle_gamma 90.000000
_cell_volume 1582.396190
_symmetry_space_group_name_H-M "C 2"
_symmetry_group_IT_number 5
_symmetry_cell_setting 'monoclinic'
loop_
_space_group_symop_operation_xyz
x,y,z
-x,y,-z
1/2+x,1/2+y,z
1/2-x,1/2+y,-z
loop_
_atom_site_type_symbol
_atom_site_label
_atom_site_fract_x
_atom_site_fract_y
_atom_site_fract_z
Si Si1 0.816074 0.310210 0.209418
Si Si2 0.891357 0.399903 0.483759
Si Si3 0.718884 0.129238 0.343032
Si Si4 0.319045 0.147844 0.217876
Si Si5 0.512862 0.266338 0.058008
Si Si6 0.379914 0.657918 0.396645
Si Si7 0.863342 0.067986 0.928388
Si Si8 0.555238 0.398792 0.200246
O O1 0.714233 0.239230 0.294747
O O2 0.892070 0.476672 0.197822
O O3 0.676805 0.339380 0.207622
O O4 0.979075 0.194480 0.136944
O O5 0.703768 0.492025 0.562807
O O6 0.852868 0.269161 0.454993
O O7 0.000000 0.345031 0.500000
O O8 0.033280 0.525992 0.411303
O O9 0.764685 0.208928 0.383289
O O10 0.895924 0.015984 0.273737
O O11 0.337071 0.206278 0.151569
O O12 0.444627 0.261899 0.209547
O O13 0.102065 0.152894 0.309015
O O14 0.558566 0.435936 0.060857
O O15 0.500000 0.262015 0.000000
O O16 0.684628 0.152474 0.013171
O O17 0.823761 0.982826 0.886150
#
# Coordination Sequence:
#
# PCOD9125569 Si02
#       8
#     4   4   4   4   4   4   4   4
#     4  11  23  39  67  96 128 170 220 265 325 386
#     4  10  24  44  65  93 133 171 212 268 330 387
#     4  10  22  41  66  93 129 168 212 268 325 385
#     4  11  23  41  67  97 127 175 218 265 330 385
#     4  11  24  42  66  93 134 173 219 273 323 384
#     4  11  23  44  68  94 133 168 216 270 324 389
#     4  10  24  41  62  94 128 173 222 265 328 382
#     4  10  21  42  64  93 132 170 216 271 323 383
#
# _framework density 20.222494999999999
#
# number of rings (size 3 to 8) (size 9 to 14) (size 15 to 20)
#    0.000    1.500    2.500    1.500    3.500    4.000 
#    2.250    0.625    0.000    0.000    0.000    0.000 
#    0.000    0.000    0.000    0.000    0.000    0.000 
#
# Total GULP energy -89439.234182 kJ/mol
# GULP energy per Si atom -5589.952136 kJ/mol
# Density = 2.017647 g / cm^3
# Si number density = 20.222495 Si / 1000 Ang^3
#
#
#
# Elastic Constant Matrix: (Units=GPa)
#
#
# Indices 1 2 3 4 5 6 
#
# 1 96.7546 49.3596 22.2074 0.0000 25.2153 0.0000
# 2 49.3596 89.5213 18.8629 0.0000 12.1347 0.0000
# 3 22.2074 18.8629 84.3292 0.0000 8.6956 0.0000
# 4 0.0000 0.0000 0.0000 34.8218 0.0000 11.5430
# 5 25.2153 12.1347 8.6956 0.0000 31.1418 0.0000
# 6 0.0000 0.0000 0.0000 11.5430 0.0000 33.6145
#
#
#
# Elastic Compliance Matrix: (Units=1/GPa)
#
#
# Indices 1 2 3 4 5 6 
#
# 1 0.017511 -0.007843 -0.001761 0.000000 -0.010631 0.000000
# 2 -0.007843 0.015728 -0.001519 0.000000 0.000646 0.000000
# 3 -0.001761 -0.001519 0.012823 0.000000 -0.001563 0.000000
# 4 0.000000 0.000000 0.000000 0.032406 0.000000 -0.011128
# 5 -0.010631 0.000646 -0.001563 0.000000 0.040904 0.000000
# 6 0.000000 0.000000 0.000000 -0.011128 0.000000 0.033570
#
#
# Mechanical properties :
#
#
# Convention : Reuss Voigt Hill
#
# Bulk Modulus (GPa) = 41.98974 50.16278 46.07626
# Shear Modulus (GPa) = 27.30342 31.92730 29.61536
#
# Velocity S-wave (km/s) = 3.67843 3.97772 3.83100
# Velocity P-wave (km/s) = 6.23298 6.77906 6.51175
#
# Compressibility (1/GPa) = 0.02381534
#
# Stress axis : x y z
#
# Youngs Moduli (GPa) = 57.10571 63.58271 77.98511
#
# Poissons Ratio (x) = 0.49869 0.13732
# Poissons Ratio (y) = 0.44789 0.11847
# Poissons Ratio (z) = 0.10056 0.09659
#
# Static dielectric constant tensor:
#      x y z
#    x 1.712820 0.000000 0.016180 
#    y 0.000000 1.686810 0.000000 
#    z 0.016180 0.000000 1.738130 
# 
# From -- ./inp_files/70317.got.cif
#   From: 2010.05.17/outbox.cif.g08.bks.cpg/sg5_36_cif.got.tgz:70317.got - 2010.06.03 18:56:24.
