data_PCOD9125877
_publ_section_title
;
Structure prediction by ZEFSAII (Michael W. Deem and Ramdas Pophale) SiO2 
 PCOD9125877
Probable space group: C 2
;
_chemical_formula_sum "Si O2"
_cell_formula_units_Z 30
_cell_length_a 7.673547
_cell_length_b 11.610108
_cell_length_c 23.878374
_cell_angle_alpha 90.000000
_cell_angle_beta 143.901887
_cell_angle_gamma 90.000000
_cell_volume 1253.365122
_symmetry_space_group_name_H-M "C 2"
_symmetry_group_IT_number 5
_symmetry_cell_setting 'monoclinic'
loop_
_space_group_symop_operation_xyz
x,y,z
-x,y,-z
1/2+x,1/2+y,z
1/2-x,1/2+y,-z
loop_
_atom_site_type_symbol
_atom_site_label
_atom_site_fract_x
_atom_site_fract_y
_atom_site_fract_z
Si Si1 0.666480 0.301540 0.679392
Si Si2 0.657351 0.644658 0.830146
Si Si3 0.000000 0.807177 0.000000
Si Si4 0.389505 0.981204 0.320219
Si Si5 0.997089 0.769874 0.758587
Si Si6 0.247576 0.151729 0.515491
Si Si7 0.783284 0.049288 0.318668
Si Si8 0.011190 0.434674 0.936230
O O1 0.550412 0.242684 0.706748
O O2 0.439498 0.268048 0.571293
O O3 0.658612 0.432698 0.698811
O O4 0.981386 0.241061 0.747988
O O5 0.403112 0.550000 0.775187
O O6 0.926358 0.557817 0.886516
O O7 0.768865 0.723605 0.909583
O O8 0.173573 0.887048 0.001508
O O9 0.281107 0.854932 0.307633
O O10 0.530212 0.049512 0.408820
O O11 0.625151 0.990621 0.331676
O O12 0.273415 0.836649 0.856610
O O13 0.921202 0.644409 0.762852
O O14 0.000000 0.159704 0.500000
O O15 0.075796 0.115178 0.415400
O O16 0.000000 0.450168 0.000000
#
# Coordination Sequence:
#
# PCOD9125877 Si02
#       8
#     4   4   2   4   4   4   4   4
#     4  11  22  42  71  92 136 184 217 281 343 399
#     4  10  21  45  67  92 142 172 224 288 350 403
#     4  12  22  46  72 106 136 178 236 292 350 424
#     4   9  20  40  66  88 135 178 210 276 335 394
#     4  11  22  45  64  98 135 171 226 278 344 408
#     4   9  18  38  65  92 132 182 212 269 339 389
#     4  11  22  40  68  97 133 178 226 274 336 403
#     4  11  25  47  73 102 140 186 230 294 356 413
#
# _framework density 23.935561
#
# number of rings (size 3 to 8) (size 9 to 14) (size 15 to 20)
#    0.000    1.600    6.000    0.000    1.867    2.133 
#   15.600    0.000    0.000    0.000    0.000    0.000 
#    0.000    0.000    0.000    0.000    0.000    0.000 
#
# Total GULP energy -83736.551563 kJ/mol
# GULP energy per Si atom -5582.436771 kJ/mol
# Density = 2.388108 g / cm^3
# Si number density = 23.935561 Si / 1000 Ang^3
#
#
#
# Elastic Constant Matrix: (Units=GPa)
#
#
# Indices 1 2 3 4 5 6 
#
# 1 54.8516 20.7679 16.2852 0.0000 -5.4687 0.0000
# 2 20.7679 154.7837 19.5227 0.0000 7.4041 0.0000
# 3 16.2852 19.5227 75.8755 0.0000 0.8642 0.0001
# 4 0.0000 0.0000 0.0000 20.8879 0.0000 -5.0957
# 5 -5.4687 7.4041 0.8642 0.0000 15.5795 0.0000
# 6 0.0000 0.0000 0.0001 -5.0957 0.0000 23.5822
#
#
#
# Elastic Compliance Matrix: (Units=1/GPa)
#
#
# Indices 1 2 3 4 5 6 
#
# 1 0.021372 -0.002800 -0.003970 0.000000 0.009053 0.000000
# 2 -0.002800 0.007195 -0.001201 0.000000 -0.004336 0.000000
# 3 -0.003970 -0.001201 0.014359 0.000000 -0.001619 0.000000
# 4 0.000000 0.000000 0.000000 0.050539 0.000000 0.010920
# 5 0.009053 -0.004336 -0.001619 0.000000 0.069515 0.000000
# 6 0.000000 0.000000 0.000000 0.010920 0.000000 0.044765
#
#
# Mechanical properties :
#
#
# Convention : Reuss Voigt Hill
#
# Bulk Modulus (GPa) = 37.05768 44.29583 40.67676
# Shear Modulus (GPa) = 21.48862 27.27225 24.38044
#
# Velocity S-wave (km/s) = 2.99953 3.37917 3.19499
# Velocity P-wave (km/s) = 5.24520 5.81132 5.53550
#
# Compressibility (1/GPa) = 0.02698496
#
# Stress axis : x y z
#
# Youngs Moduli (GPa) = 46.78950 138.98185 69.64284
#
# Poissons Ratio (x) = 0.38914 0.27647
# Poissons Ratio (y) = 0.13101 0.08364
# Poissons Ratio (z) = 0.18575 0.16691
#
# Static dielectric constant tensor:
#      x y z
#    x 1.949560 0.000000 0.030700 
#    y 0.000000 1.939490 0.000000 
#    z 0.030700 0.000000 1.925180 
# 
# From -- ./inp_files/71563.got.cif
#   From: 2010.05.17/outbox.cif.g08.bks.cpg/sg5_36_cif.got.tgz:71563.got - 2010.06.03 18:56:24.
