data_PCOD9125190
_publ_section_title
;
Structure prediction by ZEFSAII (Michael W. Deem and Ramdas Pophale) SiO2 
 PCOD9125190
Probable space group: C 2
;
_chemical_formula_sum "Si O2"
_cell_formula_units_Z 24
_cell_length_a 24.558452
_cell_length_b 10.915174
_cell_length_c 11.298900
_cell_angle_alpha 90.000000
_cell_angle_beta 21.946695
_cell_angle_gamma 90.000000
_cell_volume 1131.988060
_symmetry_space_group_name_H-M "C 2"
_symmetry_group_IT_number 5
_symmetry_cell_setting 'monoclinic'
loop_
_space_group_symop_operation_xyz
x,y,z
-x,y,-z
1/2+x,1/2+y,z
1/2-x,1/2+y,-z
loop_
_atom_site_type_symbol
_atom_site_label
_atom_site_fract_x
_atom_site_fract_y
_atom_site_fract_z
Si Si1 0.672386 0.660550 0.671119
Si Si2 0.606681 0.323258 0.672844
Si Si3 0.832096 0.579498 0.564273
Si Si4 0.066812 0.465891 0.239362
Si Si5 0.574038 0.681013 0.228323
Si Si6 0.322485 0.577196 0.585992
O O1 0.731171 0.788240 0.605346
O O2 0.737785 0.563010 0.633979
O O3 0.740845 0.636827 0.405223
O O4 0.500000 0.653836 0.000000
O O5 0.579960 0.204965 0.643614
O O6 0.611204 0.447703 0.591510
O O7 0.500000 0.328602 0.000000
O O8 0.943414 0.479733 0.386871
O O9 0.715159 0.607484 0.902348
O O10 0.112178 0.324303 0.158665
O O11 0.000000 0.504122 0.500000
O O12 0.201651 0.547709 0.926682
O O13 0.500000 0.641336 0.500000
O O14 0.450443 0.660041 0.379251
#
# Coordination Sequence:
#
# PCOD9125190 Si02
#       6
#     4   4   4   4   4   4
#     4  10  21  40  63  96 130 168 206 263 324 380
#     4  10  22  39  62  97 137 158 214 264 320 390
#     4  10  22  45  63  96 132 165 214 265 318 382
#     4  11  24  44  68  94 129 174 216 264 316 379
#     4  11  24  45  66  94 130 170 221 266 313 378
#     4  12  22  42  67  94 130 171 213 264 324 383
#
# _framework density 21.201637000000002
#
# number of rings (size 3 to 8) (size 9 to 14) (size 15 to 20)
#    1.000    0.333    3.333    2.500    0.000    1.333 
#    3.000    0.833    0.000    0.000    0.000    0.000 
#    0.000    0.000    0.000    0.000    0.000    0.000 
#
# Total GULP energy -66965.945680 kJ/mol
# GULP energy per Si atom -5580.495473 kJ/mol
# Density = 2.115338 g / cm^3
# Si number density = 21.201637 Si / 1000 Ang^3
#
#
#
# Elastic Constant Matrix: (Units=GPa)
#
#
# Indices 1 2 3 4 5 6 
#
# 1 64.3219 -9.3956 -2.8933 0.0000 6.8311 0.0000
# 2 -9.3956 21.9454 -4.1394 0.0000 4.2683 0.0000
# 3 -2.8933 -4.1394 87.6759 0.0000 13.2223 0.0000
# 4 0.0000 0.0000 0.0000 24.9065 0.0000 -3.7711
# 5 6.8311 4.2683 13.2223 0.0000 42.7950 0.0000
# 6 0.0000 0.0000 0.0000 -3.7711 0.0000 23.6234
#
#
#
# Elastic Compliance Matrix: (Units=1/GPa)
#
#
# Indices 1 2 3 4 5 6 
#
# 1 0.017296 0.008502 0.001591 0.000000 -0.004100 0.000000
# 2 0.008502 0.051431 0.003867 0.000000 -0.007682 0.000000
# 3 0.001591 0.003867 0.012311 0.000000 -0.004443 0.000000
# 4 0.000000 0.000000 0.000000 0.041145 0.000000 0.006568
# 5 -0.004100 -0.007682 -0.004443 0.000000 0.026161 0.000000
# 6 0.000000 0.000000 0.000000 0.006568 0.000000 0.043379
#
#
# Mechanical properties :
#
#
# Convention : Reuss Voigt Hill
#
# Bulk Modulus (GPa) = 9.17780 15.67628 12.42704
# Shear Modulus (GPa) = 24.98479 30.95642 27.97061
#
# Velocity S-wave (km/s) = 3.43656 3.82527 3.63611
# Velocity P-wave (km/s) = 4.48161 5.18846 4.84794
#
# Compressibility (1/GPa) = 0.10895856
#
# Stress axis : x y z
#
# Youngs Moduli (GPa) = 57.81764 19.44335 81.22954
#
# Poissons Ratio (x) = -0.16532 -0.12920
# Poissons Ratio (y) = -0.49159 -0.31414
# Poissons Ratio (z) = -0.09196 -0.07519
#
# Static dielectric constant tensor:
#      x y z
#    x 1.793690 0.000000 0.014220 
#    y 0.000000 1.751900 0.000000 
#    z 0.014220 0.000000 1.775310 
# 
# From -- ./inp_files/47999.got.cif
#   From: 2010.05.17/outbox.cif.g08.bks.cpg/sg5_24_cif.got.tgz:47999.got - 2010.06.03 18:56:24.
