data_PCOD9125342
_publ_section_title
;
Structure prediction by ZEFSAII (Michael W. Deem and Ramdas Pophale) SiO2 
 PCOD9125342
Probable space group: C 2
;
_chemical_formula_sum "Si O2"
_cell_formula_units_Z 28
_cell_length_a 9.714764
_cell_length_b 9.672038
_cell_length_c 20.331396
_cell_angle_alpha 90.000000
_cell_angle_beta 43.913499
_cell_angle_gamma 90.000000
_cell_volume 1324.978199
_symmetry_space_group_name_H-M "C 2"
_symmetry_group_IT_number 5
_symmetry_cell_setting 'monoclinic'
loop_
_space_group_symop_operation_xyz
x,y,z
-x,y,-z
1/2+x,1/2+y,z
1/2-x,1/2+y,-z
loop_
_atom_site_type_symbol
_atom_site_label
_atom_site_fract_x
_atom_site_fract_y
_atom_site_fract_z
Si Si1 0.117828 0.185620 0.694621
Si Si2 0.931827 0.833922 0.957340
Si Si3 0.784369 0.414135 0.601942
Si Si4 0.262568 0.481960 0.854018
Si Si5 0.829821 0.419224 0.743649
Si Si6 0.098240 0.736767 0.280627
Si Si7 0.657143 0.053271 0.039031
O O1 0.263877 0.239572 0.701578
O O2 0.943646 0.087724 0.783414
O O3 0.002065 0.312474 0.702837
O O4 0.228194 0.076052 0.608610
O O5 0.803248 0.714539 0.967181
O O6 0.120731 0.881461 0.850619
O O7 0.712690 0.991474 0.947954
O O8 0.797883 0.956517 0.032636
O O9 0.794232 0.407562 0.677842
O O10 0.616065 0.308477 0.634456
O O11 0.000000 0.382360 0.500000
O O12 0.314600 0.331792 0.807791
O O13 0.076635 0.531538 0.874002
O O14 0.898666 0.574591 0.737754
O O15 0.500000 0.254994 0.000000
#
# Coordination Sequence:
#
# PCOD9125342 Si02
#       7
#     4   4   4   4   4   4   4
#     4  10  21  43  68  93 126 170 210 266 326 385
#     4  12  25  40  59  91 131 172 224 272 311 376
#     4  10  24  46  69  97 131 164 208 268 331 398
#     4  10  21  41  61  85 130 173 214 266 320 367
#     4  11  24  42  65  96 134 166 220 271 318 383
#     4  10  23  40  68  95 127 168 214 265 327 392
#     4  11  23  39  59  86 127 175 222 266 312 368
#
# _framework density 21.132424
#
# number of rings (size 3 to 8) (size 9 to 14) (size 15 to 20)
#    0.000    1.429    2.857    2.571    6.000    6.857 
#    0.000    0.714    0.000    0.000    0.000    0.000 
#    0.000    0.000    0.000    0.000    0.000    0.000 
#
# Total GULP energy -78148.008678 kJ/mol
# GULP energy per Si atom -5582.000620 kJ/mol
# Density = 2.108433 g / cm^3
# Si number density = 21.132424 Si / 1000 Ang^3
#
#
#
# Elastic Constant Matrix: (Units=GPa)
#
#
# Indices 1 2 3 4 5 6 
#
# 1 96.4704 70.4134 37.0454 0.0000 -24.9451 0.0000
# 2 70.4134 185.9554 34.1619 0.0000 -22.8759 0.0000
# 3 37.0454 34.1619 84.8025 0.0000 -25.8305 0.0000
# 4 0.0000 0.0000 0.0000 14.1309 0.0000 -9.9606
# 5 -24.9451 -22.8759 -25.8305 0.0000 28.3440 0.0000
# 6 0.0000 0.0000 0.0000 -9.9606 0.0000 49.3057
#
#
#
# Elastic Compliance Matrix: (Units=1/GPa)
#
#
# Indices 1 2 3 4 5 6 
#
# 1 0.017345 -0.004971 -0.002972 0.000000 0.008545 0.000000
# 2 -0.004971 0.007500 -0.000469 0.000000 0.001251 0.000000
# 3 -0.002972 -0.000469 0.017119 0.000000 0.012607 0.000000
# 4 0.000000 0.000000 0.000000 0.082517 0.000000 0.016670
# 5 0.008545 0.001251 0.012607 0.000000 0.055300 0.000000
# 6 0.000000 0.000000 0.000000 0.016670 0.000000 0.023649
#
#
# Mechanical properties :
#
#
# Convention : Reuss Voigt Hill
#
# Bulk Modulus (GPa) = 39.77487 72.27443 56.02465
# Shear Modulus (GPa) = 21.86912 33.39661 27.63286
#
# Velocity S-wave (km/s) = 3.22042 3.97967 3.62001
# Velocity P-wave (km/s) = 5.71758 7.44258 6.63637
#
# Compressibility (1/GPa) = 0.02514150
#
# Stress axis : x y z
#
# Youngs Moduli (GPa) = 57.65507 133.33687 58.41355
#
# Poissons Ratio (x) = 0.66275 0.17359
# Poissons Ratio (y) = 0.28658 0.02738
# Poissons Ratio (z) = 0.17134 0.06250
#
# Static dielectric constant tensor:
#      x y z
#    x 1.837180 0.000000 -0.023250 
#    y 0.000000 1.795320 0.000000 
#    z -0.023250 0.000000 1.768270 
# 
# From -- ./inp_files/64368.got.cif
#   From: 2010.05.17/outbox.cif.g08.bks.cpg/sg5_33_cif.got.tgz:64368.got - 2010.06.03 18:56:24.
