data_PCOD9125039
_publ_section_title
;
Structure prediction by ZEFSAII (Michael W. Deem and Ramdas Pophale) SiO2 
 PCOD9125039
Probable space group: C 2
;
_chemical_formula_sum "Si O2"
_cell_formula_units_Z 28
_cell_length_a 9.942140
_cell_length_b 15.427500
_cell_length_c 11.651340
_cell_angle_alpha 90.000000
_cell_angle_beta 51.673812
_cell_angle_gamma 90.000000
_cell_volume 1401.975365
_symmetry_space_group_name_H-M "C 2"
_symmetry_group_IT_number 5
_symmetry_cell_setting 'monoclinic'
loop_
_space_group_symop_operation_xyz
x,y,z
-x,y,-z
1/2+x,1/2+y,z
1/2-x,1/2+y,-z
loop_
_atom_site_type_symbol
_atom_site_label
_atom_site_fract_x
_atom_site_fract_y
_atom_site_fract_z
Si Si1 0.210873 0.101270 0.025031
Si Si2 0.825491 0.468178 0.652334
Si Si3 0.074249 0.853836 0.646087
Si Si4 0.903207 0.773731 0.938182
Si Si5 0.633769 0.921307 0.101630
Si Si6 0.765347 0.340136 0.309201
Si Si7 0.170846 0.138956 0.774731
O O1 0.330327 0.179167 0.002725
O O2 0.186629 0.118356 0.901520
O O3 0.297811 0.008130 0.995814
O O4 0.017443 0.112938 0.171747
O O5 0.660438 0.425959 0.679996
O O6 0.832590 0.439244 0.780909
O O7 0.805093 0.571679 0.650359
O O8 0.000000 0.438702 0.500000
O O9 0.208203 0.836743 0.472862
O O10 0.024217 0.777621 0.762161
O O11 0.896697 0.875574 0.676242
O O12 0.745593 0.839442 0.001885
O O13 0.000000 0.806189 0.000000
O O14 0.434597 0.896381 0.196385
O O15 0.798024 0.240197 0.258349
#
# Coordination Sequence:
#
# PCOD9125039 Si02
#       7
#     4   4   4   4   4   4   4
#     4  10  22  40  61  97 127 159 220 264 313 377
#     4  11  22  40  66  92 126 168 217 261 318 385
#     4  11  24  40  64  96 129 164 208 262 320 379
#     4  12  23  41  65  92 131 172 210 263 318 378
#     4  11  23  41  68  92 127 173 212 264 321 375
#     4  11  23  42  66  94 131 166 210 263 323 374
#     4  10  21  39  65  93 121 167 214 266 304 380
#
# _framework density 19.971820000000001
#
# number of rings (size 3 to 8) (size 9 to 14) (size 15 to 20)
#    0.000    1.143    5.714    0.857    4.000    0.571 
#    5.143    0.000    0.000    0.000    0.000    0.000 
#    0.000    0.000    0.000    0.000    0.000    0.000 
#
# Total GULP energy -78155.157573 kJ/mol
# GULP energy per Si atom -5582.511255 kJ/mol
# Density = 1.992636 g / cm^3
# Si number density = 19.971820 Si / 1000 Ang^3
#
#
#
# Elastic Constant Matrix: (Units=GPa)
#
#
# Indices 1 2 3 4 5 6 
#
# 1 88.4671 33.0888 11.8081 0.0000 -23.1052 0.0000
# 2 33.0888 104.8136 1.9410 0.0000 -23.2028 0.0000
# 3 11.8081 1.9410 47.9308 0.0000 -13.6629 0.0000
# 4 0.0000 0.0000 0.0000 23.3676 0.0000 -5.5106
# 5 -23.1052 -23.2028 -13.6629 0.0000 31.9371 0.0000
# 6 0.0000 0.0000 0.0000 -5.5106 0.0000 28.1655
#
#
#
# Elastic Compliance Matrix: (Units=1/GPa)
#
#
# Indices 1 2 3 4 5 6 
#
# 1 0.014609 -0.002817 -0.001202 0.000000 0.008008 0.000000
# 2 -0.002817 0.012112 0.002427 0.000000 0.007800 0.000000
# 3 -0.001202 0.002427 0.024276 0.000000 0.011279 0.000000
# 4 0.000000 0.000000 0.000000 0.044864 0.000000 0.008778
# 5 0.008008 0.007800 0.011279 0.000000 0.047597 0.000000
# 6 0.000000 0.000000 0.000000 0.008778 0.000000 0.037222
#
#
# Mechanical properties :
#
#
# Convention : Reuss Voigt Hill
#
# Bulk Modulus (GPa) = 20.91489 37.20969 29.06229
# Shear Modulus (GPa) = 25.02466 29.65227 27.33847
#
# Velocity S-wave (km/s) = 3.54361 3.85737 3.70381
# Velocity P-wave (km/s) = 5.21899 6.20569 5.73360
#
# Compressibility (1/GPa) = 0.04781282
#
# Stress axis : x y z
#
# Youngs Moduli (GPa) = 68.44962 82.56475 41.19219
#
# Poissons Ratio (x) = 0.23258 0.04952
# Poissons Ratio (y) = 0.19282 -0.09997
# Poissons Ratio (z) = 0.08229 -0.20037
#
# Static dielectric constant tensor:
#      x y z
#    x 1.716710 0.000000 0.002480 
#    y 0.000000 1.684790 0.000000 
#    z 0.002480 0.000000 1.712010 
# 
# From -- ./inp_files/36291.got.cif
#   From: 2010.05.17/outbox.cif.g08.bks.cpg/sg5_19_cif.got.tgz:36291.got - 2010.06.03 18:56:24.
