data_PCOD9125803
_publ_section_title
;
Structure prediction by ZEFSAII (Michael W. Deem and Ramdas Pophale) SiO2 
 PCOD9125803
Probable space group: C 2
;
_chemical_formula_sum "Si O2"
_cell_formula_units_Z 20
_cell_length_a 5.097588
_cell_length_b 13.939334
_cell_length_c 10.877855
_cell_angle_alpha 90.000000
_cell_angle_beta 101.340872
_cell_angle_gamma 90.000000
_cell_volume 757.855458
_symmetry_space_group_name_H-M "C 2"
_symmetry_group_IT_number 5
_symmetry_cell_setting 'monoclinic'
loop_
_space_group_symop_operation_xyz
x,y,z
-x,y,-z
1/2+x,1/2+y,z
1/2-x,1/2+y,-z
loop_
_atom_site_type_symbol
_atom_site_label
_atom_site_fract_x
_atom_site_fract_y
_atom_site_fract_z
Si Si1 0.727219 0.525110 0.921608
Si Si2 0.794959 0.301808 0.370071
Si Si3 0.433946 0.108097 0.633718
Si Si4 0.718718 0.752138 0.911405
Si Si5 0.071197 0.998755 0.320630
O O1 0.760313 0.637340 0.884877
O O2 0.624313 0.460255 0.802488
O O3 0.500000 0.525848 0.000000
O O4 0.000000 0.488765 0.000000
O O5 0.565277 0.221483 0.352785
O O6 0.865057 0.298569 0.229082
O O7 0.694168 0.407089 0.395850
O O8 0.000000 0.275065 0.500000
O O9 0.500000 0.084109 0.500000
O O10 0.685707 0.057198 0.721213
O O11 0.138090 0.067809 0.630841
O O12 0.500000 0.758503 0.000000
O O13 0.000000 0.784643 0.000000
#
# Coordination Sequence:
#
# PCOD9125803 Si02
#       5
#     4   4   4   4   4
#     4  10  21  43  78 110 152 210 265 325 398 479
#     4  12  29  52  84 124 163 216 277 334 407 494
#     4  12  28  49  77 110 160 214 263 337 407 470
#     4  10  24  46  81 114 158 211 265 328 404 479
#     4  12  27  50  80 114 159 211 274 332 405 485
#
# _framework density 26.390256999999998
#
# number of rings (size 3 to 8) (size 9 to 14) (size 15 to 20)
#    0.000    0.800    2.000    3.600    5.600    7.200 
#    0.000    2.000    0.000    0.000    0.000    0.000 
#    0.000    0.000    0.000    0.000    0.000    0.000 
#
# Total GULP energy -55949.985179 kJ/mol
# GULP energy per Si atom -5594.998518 kJ/mol
# Density = 2.633019 g / cm^3
# Si number density = 26.390257 Si / 1000 Ang^3
#
#
#
# Elastic Constant Matrix: (Units=GPa)
#
#
# Indices 1 2 3 4 5 6 
#
# 1 161.3107 43.8903 39.9509 0.0000 17.6400 0.0000
# 2 43.8903 128.8636 -3.2095 0.0000 -4.6696 0.0000
# 3 39.9509 -3.2095 154.1054 0.0000 14.1097 0.0000
# 4 0.0000 0.0000 0.0000 31.8018 0.0000 3.3510
# 5 17.6400 -4.6696 14.1097 0.0000 37.5558 0.0000
# 6 0.0000 0.0000 0.0000 3.3510 0.0000 20.4665
#
#
#
# Elastic Compliance Matrix: (Units=1/GPa)
#
#
# Indices 1 2 3 4 5 6 
#
# 1 0.007766 -0.002810 -0.001767 0.000000 -0.003333 0.000000
# 2 -0.002810 0.008813 0.000715 0.000000 0.002147 0.000000
# 3 -0.001767 0.000715 0.007123 0.000000 -0.001757 0.000000
# 4 0.000000 0.000000 0.000000 0.031997 0.000000 -0.005239
# 5 -0.003333 0.002147 -0.001757 0.000000 0.029120 0.000000
# 6 0.000000 0.000000 0.000000 -0.005239 0.000000 0.049718
#
#
# Mechanical properties :
#
#
# Convention : Reuss Voigt Hill
#
# Bulk Modulus (GPa) = 62.58018 67.28256 64.93137
# Shear Modulus (GPa) = 33.87893 42.20801 38.04347
#
# Velocity S-wave (km/s) = 3.58686 4.00356 3.80092
# Velocity P-wave (km/s) = 6.39679 6.84996 6.62725
#
# Compressibility (1/GPa) = 0.01597950
#
# Stress axis : x y z
#
# Youngs Moduli (GPa) = 128.77096 113.47206 140.39359
#
# Poissons Ratio (x) = 0.31883 0.24801
# Poissons Ratio (y) = 0.36181 -0.10044
# Poissons Ratio (z) = 0.22748 -0.08118
#
# Static dielectric constant tensor:
#      x y z
#    x 2.108500 0.000000 0.015730 
#    y 0.000000 2.008190 0.000000 
#    z 0.015730 0.000000 2.228060 
# 
# From -- ./inp_files/33156.got.cif
#   From: 2010.05.17/outbox.cif.g08.bks.cpg/sg5_17_cif.got.tgz:33156.got - 2010.06.03 18:56:24.
