data_PCOD9125972
_publ_section_title
;
Structure prediction by ZEFSAII (Michael W. Deem and Ramdas Pophale) SiO2 
 PCOD9125972
Probable space group: C 2
;
_chemical_formula_sum "Si O2"
_cell_formula_units_Z 28
_cell_length_a 8.167968
_cell_length_b 12.131395
_cell_length_c 14.311651
_cell_angle_alpha 90.000000
_cell_angle_beta 118.159059
_cell_angle_gamma 90.000000
_cell_volume 1250.276974
_symmetry_space_group_name_H-M "C 2"
_symmetry_group_IT_number 5
_symmetry_cell_setting 'monoclinic'
loop_
_space_group_symop_operation_xyz
x,y,z
-x,y,-z
1/2+x,1/2+y,z
1/2-x,1/2+y,-z
loop_
_atom_site_type_symbol
_atom_site_label
_atom_site_fract_x
_atom_site_fract_y
_atom_site_fract_z
Si Si1 0.904454 0.633260 0.799586
Si Si2 0.565910 0.474163 0.661660
Si Si3 0.922382 0.236977 0.187850
Si Si4 0.994764 0.998395 0.855577
Si Si5 0.193703 0.164263 0.417279
Si Si6 0.503086 0.228498 0.631635
Si Si7 0.183609 0.455806 0.921165
O O1 0.755378 0.544199 0.718076
O O2 0.787513 0.712852 0.835018
O O3 0.993480 0.697590 0.737007
O O4 0.054753 0.562084 0.894898
O O5 0.495902 0.460816 0.749638
O O6 0.408556 0.553550 0.576607
O O7 0.578974 0.350565 0.629430
O O8 0.982818 0.130781 0.144502
O O9 0.934814 0.347027 0.131622
O O10 0.042572 0.232581 0.316118
O O11 0.813175 0.971452 0.865016
O O12 0.174288 0.948390 0.955232
O O13 0.298339 0.219692 0.531781
O O14 0.357977 0.146264 0.385354
#
# Coordination Sequence:
#
# PCOD9125972 Si02
#       7
#     4   4   4   4   4   4   4
#     4  10  22  36  60  88 110 148 194 226 278 344
#     4  10  22  40  56  83 121 145 183 242 278 327
#     4  10  22  40  56  83 121 145 183 242 278 327
#     4   9  22  39  56  85 116 146 191 231 277 342
#     4   9  22  39  56  85 116 146 191 231 277 342
#     4  11  21  38  62  82 112 155 187 230 284 330
#     4  11  21  38  62  82 112 155 187 230 284 330
#
# _framework density 22.395036000000001
#
# number of rings (size 3 to 8) (size 9 to 14) (size 15 to 20)
#    0.000    2.286    0.000    3.429    0.000   11.429 
#    0.000    8.571    0.000    0.000    0.000    0.000 
#    0.000    0.000    0.000    0.000    0.000    0.000 
#
# Total GULP energy -78235.168112 kJ/mol
# GULP energy per Si atom -5588.226294 kJ/mol
# Density = 2.234406 g / cm^3
# Si number density = 22.395036 Si / 1000 Ang^3
#
#
#
# Elastic Constant Matrix: (Units=GPa)
#
#
# Indices 1 2 3 4 5 6 
#
# 1 48.0206 8.2471 -7.6283 0.0000 8.4192 0.0000
# 2 8.2471 72.5797 5.0793 0.0000 -1.0153 0.0000
# 3 -7.6283 5.0793 36.1062 0.0000 5.6179 0.0000
# 4 0.0000 0.0000 0.0000 12.6167 0.0000 3.1588
# 5 8.4192 -1.0153 5.6179 0.0000 30.5482 0.0000
# 6 0.0000 0.0000 0.0000 3.1588 0.0000 13.2302
#
#
#
# Elastic Compliance Matrix: (Units=1/GPa)
#
#
# Indices 1 2 3 4 5 6 
#
# 1 0.023848 -0.003292 0.006734 0.000000 -0.007920 0.000000
# 2 -0.003292 0.014391 -0.003022 0.000000 0.001941 0.000000
# 3 0.006734 -0.003022 0.030728 0.000000 -0.007607 0.000000
# 4 0.000000 0.000000 0.000000 0.084299 0.000000 -0.020127
# 5 -0.007920 0.001941 -0.007607 0.000000 0.036382 0.000000
# 6 0.000000 0.000000 0.000000 -0.020127 0.000000 0.080390
#
#
# Mechanical properties :
#
#
# Convention : Reuss Voigt Hill
#
# Bulk Modulus (GPa) = 14.32533 18.67807 16.50170
# Shear Modulus (GPa) = 17.09601 21.34623 19.22112
#
# Velocity S-wave (km/s) = 2.76594 3.09069 2.93281
# Velocity P-wave (km/s) = 4.07567 4.59292 4.34200
#
# Compressibility (1/GPa) = 0.06980642
#
# Stress axis : x y z
#
# Youngs Moduli (GPa) = 41.93208 69.48957 32.54413
#
# Poissons Ratio (x) = 0.22875 -0.21915
# Poissons Ratio (y) = 0.13803 0.09835
# Poissons Ratio (z) = -0.28237 0.21000
#
# Static dielectric constant tensor:
#      x y z
#    x 1.827090 0.000000 0.023980 
#    y 0.000000 1.837800 0.000000 
#    z 0.023980 0.000000 1.835740 
# 
# From -- ./inp_files/50372.got.cif
#   From: 2010.05.17/outbox.cif.g08.bks.cpg/sg5_26_cif.got.tgz:50372.got - 2010.06.03 18:56:24.
