data_PCOD9125159
_publ_section_title
;
Structure prediction by ZEFSAII (Michael W. Deem and Ramdas Pophale) SiO2 
 PCOD9125159
Probable space group: C 2
;
_chemical_formula_sum "Si O2"
_cell_formula_units_Z 32
_cell_length_a 26.869604
_cell_length_b 6.954397
_cell_length_c 9.237363
_cell_angle_alpha 90.000000
_cell_angle_beta 84.486136
_cell_angle_gamma 90.000000
_cell_volume 1718.124385
_symmetry_space_group_name_H-M "C 2"
_symmetry_group_IT_number 5
_symmetry_cell_setting 'monoclinic'
loop_
_space_group_symop_operation_xyz
x,y,z
-x,y,-z
1/2+x,1/2+y,z
1/2-x,1/2+y,-z
loop_
_atom_site_type_symbol
_atom_site_label
_atom_site_fract_x
_atom_site_fract_y
_atom_site_fract_z
Si Si1 0.811684 0.170240 0.075240
Si Si2 0.705821 0.993952 0.155105
Si Si3 0.632950 0.280245 0.002256
Si Si4 0.989574 0.439386 0.171952
Si Si5 0.054465 0.750478 0.276055
Si Si6 0.872567 0.462765 0.575946
Si Si7 0.375343 0.969808 0.240253
Si Si8 0.043131 0.180255 0.373263
O O1 0.838214 0.316680 0.177689
O O2 0.761981 0.070471 0.151566
O O3 0.797125 0.300004 0.940017
O O4 0.848813 0.997171 0.023816
O O5 0.677049 0.961165 0.313216
O O6 0.674521 0.157361 0.077922
O O7 0.583828 0.273584 0.115860
O O8 0.625583 0.164599 0.854884
O O9 0.004491 0.632036 0.254778
O O10 0.026603 0.280293 0.228071
O O11 0.931999 0.391629 0.213929
O O12 0.000000 0.462888 0.000000
O O13 0.090111 0.623228 0.368544
O O14 0.045210 0.954391 0.349573
O O15 0.862713 0.499503 0.411016
O O16 0.904242 0.267034 0.589989
O O17 0.000000 0.232616 0.500000
#
# Coordination Sequence:
#
# PCOD9125159 Si02
#       8
#     4   4   4   4   4   4   4   4
#     4  11  22  40  67  90 116 158 206 260 308 365
#     4  10  21  42  67  86 117 155 207 256 309 361
#     4  10  21  40  62  91 115 154 206 254 301 359
#     4  11  23  41  58  87 131 161 201 256 297 356
#     4  10  23  37  64  89 118 168 210 239 301 365
#     4  10  23  44  59  89 130 162 197 261 305 364
#     4  11  24  40  58  90 129 160 196 253 311 361
#     4  11  23  38  64  91 120 171 207 241 305 368
#
# _framework density 18.624960000000002
#
# number of rings (size 3 to 8) (size 9 to 14) (size 15 to 20)
#    0.000    1.500    3.750    0.750    5.250    2.500 
#    2.250    0.000    0.000    0.000    0.000    0.000 
#    0.000    0.000    0.000    0.000    0.000    0.000 
#
# Total GULP energy -89383.722516 kJ/mol
# GULP energy per Si atom -5586.482657 kJ/mol
# Density = 1.858257 g / cm^3
# Si number density = 18.624960 Si / 1000 Ang^3
#
#
#
# Elastic Constant Matrix: (Units=GPa)
#
#
# Indices 1 2 3 4 5 6 
#
# 1 74.9053 8.7676 33.1335 0.0000 -2.3054 0.0000
# 2 8.7676 87.3507 28.5676 0.0000 3.7817 0.0000
# 3 33.1335 28.5676 122.4164 0.0000 -7.5020 0.0000
# 4 0.0000 0.0000 0.0000 17.6885 0.0000 -6.2382
# 5 -2.3054 3.7817 -7.5020 0.0000 18.7465 0.0000
# 6 0.0000 0.0000 0.0000 -6.2382 0.0000 25.6646
#
#
#
# Elastic Compliance Matrix: (Units=1/GPa)
#
#
# Indices 1 2 3 4 5 6 
#
# 1 0.015171 -0.000215 -0.004038 0.000000 0.000293 0.000000
# 2 -0.000215 0.012660 -0.003131 0.000000 -0.003833 0.000000
# 3 -0.004038 -0.003131 0.010252 0.000000 0.004238 0.000000
# 4 0.000000 0.000000 0.000000 0.061834 0.000000 0.015030
# 5 0.000293 -0.003833 0.004238 0.000000 0.055848 0.000000
# 6 0.000000 0.000000 0.000000 0.015030 0.000000 0.042617
#
#
# Mechanical properties :
#
#
# Convention : Reuss Voigt Hill
#
# Bulk Modulus (GPa) = 42.89164 47.28997 45.09081
# Shear Modulus (GPa) = 22.63245 26.70019 24.66632
#
# Velocity S-wave (km/s) = 3.48971 3.79036 3.64314
# Velocity P-wave (km/s) = 6.27029 6.67844 6.47758
#
# Compressibility (1/GPa) = 0.02331456
#
# Stress axis : x y z
#
# Youngs Moduli (GPa) = 65.91736 78.99134 97.54038
#
# Poissons Ratio (x) = 0.01697 0.39387
# Poissons Ratio (y) = 0.01416 0.30541
# Poissons Ratio (z) = 0.26617 0.24733
#
# Static dielectric constant tensor:
#      x y z
#    x 1.630330 0.000000 -0.002510 
#    y 0.000000 1.626680 0.000000 
#    z -0.002510 0.000000 1.629930 
# 
# From -- ./inp_files/32276.got.cif
#   From: 2010.05.17/outbox.cif.g08.bks.cpg/sg5_17_cif.got.tgz:32276.got - 2010.06.03 18:56:24.
