data_PCOD9125717
_publ_section_title
;
Structure prediction by ZEFSAII (Michael W. Deem and Ramdas Pophale) SiO2 
 PCOD9125717
Probable space group: C 2
;
_chemical_formula_sum "Si O2"
_cell_formula_units_Z 20
_cell_length_a 25.684691
_cell_length_b 4.846316
_cell_length_c 6.490525
_cell_angle_alpha 90.000000
_cell_angle_beta 122.404535
_cell_angle_gamma 90.000000
_cell_volume 682.111290
_symmetry_space_group_name_H-M "C 2"
_symmetry_group_IT_number 5
_symmetry_cell_setting 'monoclinic'
loop_
_space_group_symop_operation_xyz
x,y,z
-x,y,-z
1/2+x,1/2+y,z
1/2-x,1/2+y,-z
loop_
_atom_site_type_symbol
_atom_site_label
_atom_site_fract_x
_atom_site_fract_y
_atom_site_fract_z
Si Si1 0.049576 0.273010 0.946975
Si Si2 0.774592 0.958664 0.787627
Si Si3 0.876991 0.798083 0.751075
Si Si4 0.172749 0.458592 0.856632
Si Si5 0.049848 0.674755 0.479409
O O1 0.000054 0.469953 0.727651
O O2 0.098374 0.493971 0.144172
O O3 0.000000 0.142118 0.000000
O O4 0.091968 0.001787 0.012930
O O5 0.804457 0.859802 0.635899
O O6 0.702896 0.916252 0.694842
O O7 0.806527 0.755163 0.020488
O O8 0.797307 0.253462 0.915570
O O9 0.905909 0.839790 0.584815
O O10 0.099301 0.471785 0.694819
O O11 0.000000 0.860149 0.500000
#
# Coordination Sequence:
#
# PCOD9125717 Si02
#       5
#     4   4   4   4   4
#     4  10  22  39  60  89 127 168 206 254 323 384
#     4  10  21  43  65  90 131 173 215 261 329 387
#     4  11  22  40  64  90 128 174 209 257 323 385
#     4  10  23  41  67  96 126 169 217 272 319 378
#     4  11  23  41  67 101 133 166 220 272 317 384
#
# _framework density 29.320730000000001
#
# number of rings (size 3 to 8) (size 9 to 14) (size 15 to 20)
#    0.000    1.600    0.000    5.400    0.000    4.800 
#    0.000   22.000    0.000    0.000    0.000    0.000 
#    0.000    0.000    0.000    0.000    0.000    0.000 
#
# Total GULP energy -55867.237473 kJ/mol
# GULP energy per Si atom -5586.723747 kJ/mol
# Density = 2.925399 g / cm^3
# Si number density = 29.320730 Si / 1000 Ang^3
#
#
#
# Elastic Constant Matrix: (Units=GPa)
#
#
# Indices 1 2 3 4 5 6 
#
# 1 321.1903 10.9080 20.1759 0.0000 8.9156 0.0000
# 2 10.9080 92.0129 10.0320 0.0000 12.6404 0.0000
# 3 20.1759 10.0320 86.7293 0.0000 18.7454 0.0000
# 4 0.0000 0.0000 0.0000 28.6653 0.0000 -1.6293
# 5 8.9156 12.6404 18.7454 0.0000 43.7454 0.0000
# 6 0.0000 0.0000 0.0000 -1.6293 0.0000 36.0162
#
#
#
# Elastic Compliance Matrix: (Units=1/GPa)
#
#
# Indices 1 2 3 4 5 6 
#
# 1 0.003171 -0.000265 -0.000643 0.000000 -0.000294 0.000000
# 2 -0.000265 0.011374 -0.000612 0.000000 -0.002970 0.000000
# 3 -0.000643 -0.000612 0.012877 0.000000 -0.005210 0.000000
# 4 0.000000 0.000000 0.000000 0.034975 0.000000 0.001582
# 5 -0.000294 -0.002970 -0.005210 0.000000 0.026010 0.000000
# 6 0.000000 0.000000 0.000000 0.001582 0.000000 0.027837
#
#
# Mechanical properties :
#
#
# Convention : Reuss Voigt Hill
#
# Bulk Modulus (GPa) = 41.01663 64.68493 52.85078
# Shear Modulus (GPa) = 39.24258 52.27316 45.75787
#
# Velocity S-wave (km/s) = 3.66237 4.22691 3.95473
# Velocity P-wave (km/s) = 5.64830 6.77727 6.23838
#
# Compressibility (1/GPa) = 0.02438035
#
# Stress axis : x y z
#
# Youngs Moduli (GPa) = 315.35705 87.91768 77.66000
#
# Poissons Ratio (x) = 0.02333 0.04997
# Poissons Ratio (y) = 0.08369 0.04752
# Poissons Ratio (z) = 0.20292 0.05380
#
# Static dielectric constant tensor:
#      x y z
#    x 2.498610 0.000000 -0.245570 
#    y 0.000000 2.141310 0.000000 
#    z -0.245570 0.000000 2.568290 
# 
# From -- ./inp_files/31310.got.cif
#   From: 2010.05.17/outbox.cif.g08.bks.cpg/sg5_16_cif.got.tgz:31310.got - 2010.06.03 18:56:24.
