data_PCOD9125435
_publ_section_title
;
Structure prediction by ZEFSAII (Michael W. Deem and Ramdas Pophale) SiO2 
 PCOD9125435
Probable space group: C 2
;
_chemical_formula_sum "Si O2"
_cell_formula_units_Z 30
_cell_length_a 11.393125
_cell_length_b 8.564727
_cell_length_c 14.985519
_cell_angle_alpha 90.000000
_cell_angle_beta 113.187262
_cell_angle_gamma 90.000000
_cell_volume 1344.153940
_symmetry_space_group_name_H-M "C 2"
_symmetry_group_IT_number 5
_symmetry_cell_setting 'monoclinic'
loop_
_space_group_symop_operation_xyz
x,y,z
-x,y,-z
1/2+x,1/2+y,z
1/2-x,1/2+y,-z
loop_
_atom_site_type_symbol
_atom_site_label
_atom_site_fract_x
_atom_site_fract_y
_atom_site_fract_z
Si Si1 0.511052 0.415870 0.854536
Si Si2 0.146798 0.442816 0.576823
Si Si3 0.541119 0.664182 0.730113
Si Si4 0.000000 0.170803 0.000000
Si Si5 0.732607 0.886867 0.806170
Si Si6 0.728758 0.773307 0.366928
Si Si7 0.354414 0.595694 0.424803
Si Si8 0.747876 0.240086 0.841773
O O1 0.474514 0.519186 0.757400
O O2 0.543134 0.546643 0.937141
O O3 0.379400 0.330910 0.842035
O O4 0.632395 0.319537 0.859564
O O5 0.169670 0.423056 0.690321
O O6 0.211847 0.610962 0.577746
O O7 0.193715 0.268264 0.560194
O O8 0.000000 0.453463 0.500000
O O9 0.636941 0.763014 0.820163
O O10 0.422868 0.767695 0.664003
O O11 0.629831 0.604729 0.677388
O O12 0.886590 0.273661 0.924739
O O13 0.735813 0.054234 0.852093
O O14 0.752229 0.771979 0.265361
O O15 0.780860 0.936092 0.421626
O O16 0.500000 0.579140 0.500000
#
# Coordination Sequence:
#
# PCOD9125435 Si02
#       8
#     4   4   4   2   4   4   4   4
#     4  11  21  42  66  87 126 166 202 268 323 383
#     4   9  18  36  60  86 132 163 209 274 310 367
#     4  11  21  40  64  89 126 167 211 266 316 381
#     4  10  22  40  60  98 128 154 214 266 322 390
#     4   9  21  38  60  89 120 163 214 254 315 387
#     4  11  20  40  66  92 123 178 216 259 336 383
#     4  10  22  40  59  97 134 163 226 266 310 392
#     4  10  21  41  66  90 123 167 207 263 329 383
#
# _framework density 22.318873
#
# number of rings (size 3 to 8) (size 9 to 14) (size 15 to 20)
#    0.000    1.867    5.333    0.400    0.000    4.267 
#    7.200    0.000    0.000    0.000    0.000    0.000 
#    0.000    0.000    0.000    0.000    0.000    0.000 
#
# Total GULP energy -83624.825029 kJ/mol
# GULP energy per Si atom -5574.988335 kJ/mol
# Density = 2.226807 g / cm^3
# Si number density = 22.318873 Si / 1000 Ang^3
#
#
#
# Elastic Constant Matrix: (Units=GPa)
#
#
# Indices 1 2 3 4 5 6 
#
# 1 116.3598 80.1206 31.2874 0.0000 17.4150 0.0000
# 2 80.1206 146.8974 34.5502 0.0000 22.9567 0.0000
# 3 31.2874 34.5502 71.2458 0.0000 20.2534 0.0000
# 4 0.0000 0.0000 0.0000 18.1293 0.0000 2.9825
# 5 17.4150 22.9567 20.2534 0.0000 37.5049 0.0000
# 6 0.0000 0.0000 0.0000 2.9825 0.0000 52.3014
#
#
#
# Elastic Compliance Matrix: (Units=1/GPa)
#
#
# Indices 1 2 3 4 5 6 
#
# 1 0.014269 -0.007028 -0.002596 0.000000 -0.000922 0.000000
# 2 -0.007028 0.011480 -0.001667 0.000000 -0.002863 0.000000
# 3 -0.002596 -0.001667 0.018136 0.000000 -0.007568 0.000000
# 4 0.000000 0.000000 0.000000 0.055682 0.000000 -0.003175
# 5 -0.000922 -0.002863 -0.007568 0.000000 0.032931 0.000000
# 6 0.000000 0.000000 0.000000 -0.003175 0.000000 0.019301
#
#
# Mechanical properties :
#
#
# Convention : Reuss Voigt Hill
#
# Bulk Modulus (GPa) = 46.94117 69.60217 58.27167
# Shear Modulus (GPa) = 27.55097 34.15677 30.85387
#
# Velocity S-wave (km/s) = 3.51725 3.91627 3.72211
# Velocity P-wave (km/s) = 6.12964 7.19046 6.68113
#
# Compressibility (1/GPa) = 0.02130326
#
# Stress axis : x y z
#
# Youngs Moduli (GPa) = 70.08054 87.10598 55.14001
#
# Poissons Ratio (x) = 0.61219 0.14314
# Poissons Ratio (y) = 0.49253 0.09191
# Poissons Ratio (z) = 0.18193 0.14520
#
# Static dielectric constant tensor:
#      x y z
#    x 1.834880 0.000000 -0.041150 
#    y 0.000000 1.851160 0.000000 
#    z -0.041150 0.000000 1.944190 
# 
# From -- ./inp_files/60306.got.cif
#   From: 2010.05.17/outbox.cif.g08.bks.cpg/sg5_31_cif.got.tgz:60306.got - 2010.06.03 18:56:24.
