data_PCOD9125854
_publ_section_title
;
Structure prediction by ZEFSAII (Michael W. Deem and Ramdas Pophale) SiO2 
 PCOD9125854
Probable space group: C 2
;
_chemical_formula_sum "Si O2"
_cell_formula_units_Z 20
_cell_length_a 6.897476
_cell_length_b 7.683700
_cell_length_c 15.103038
_cell_angle_alpha 90.000000
_cell_angle_beta 121.692478
_cell_angle_gamma 90.000000
_cell_volume 681.072388
_symmetry_space_group_name_H-M "C 2"
_symmetry_group_IT_number 5
_symmetry_cell_setting 'monoclinic'
loop_
_space_group_symop_operation_xyz
x,y,z
-x,y,-z
1/2+x,1/2+y,z
1/2-x,1/2+y,-z
loop_
_atom_site_type_symbol
_atom_site_label
_atom_site_fract_x
_atom_site_fract_y
_atom_site_fract_z
Si Si1 0.250031 0.425470 0.908226
Si Si2 0.960971 0.642084 0.662754
Si Si3 0.190598 0.981334 0.467268
Si Si4 0.123871 0.140935 0.742679
Si Si5 0.286904 0.806974 0.861136
O O1 0.188203 0.325244 0.801901
O O2 0.246495 0.634500 0.908373
O O3 0.047691 0.362250 0.921933
O O4 0.500000 0.371020 0.000000
O O5 0.823639 0.800979 0.586559
O O6 0.926349 0.505852 0.576356
O O7 0.827622 0.598398 0.721320
O O8 0.204932 0.718741 0.747705
O O9 0.000000 0.977701 0.500000
O O10 0.098307 0.117828 0.371748
O O11 0.144636 0.988331 0.823463
#
# Coordination Sequence:
#
# PCOD9125854 Si02
#       5
#     4   4   4   4   4
#     4  12  30  48  80 111 147 208 264 328 402 464
#     4  10  21  44  71 106 156 203 256 317 392 470
#     4   9  21  38  65 107 153 201 251 314 388 473
#     4  10  24  48  71 109 157 198 259 326 390 466
#     4  11  26  48  73 109 153 194 258 325 391 465
#
# _framework density 29.365454
#
# number of rings (size 3 to 8) (size 9 to 14) (size 15 to 20)
#    0.000    1.600    2.000    0.000   11.200    0.800 
#    0.000    0.000    0.000    0.000    0.000    0.000 
#    0.000    0.000    0.000    0.000    0.000    0.000 
#
# Total GULP energy -56037.363077 kJ/mol
# GULP energy per Si atom -5603.736308 kJ/mol
# Density = 2.929862 g / cm^3
# Si number density = 29.365454 Si / 1000 Ang^3
#
#
#
# Elastic Constant Matrix: (Units=GPa)
#
#
# Indices 1 2 3 4 5 6 
#
# 1 113.1256 43.4683 47.8153 0.0000 7.8712 0.0000
# 2 43.4683 198.1231 54.4640 0.0000 -4.5406 0.0000
# 3 47.8153 54.4640 130.6857 0.0000 25.2334 0.0000
# 4 0.0000 0.0000 0.0000 70.0559 0.0000 -5.4330
# 5 7.8712 -4.5406 25.2334 0.0000 62.5844 0.0000
# 6 0.0000 0.0000 0.0000 -5.4330 0.0000 51.3150
#
#
#
# Elastic Compliance Matrix: (Units=1/GPa)
#
#
# Indices 1 2 3 4 5 6 
#
# 1 0.010815 -0.001462 -0.003323 0.000000 -0.000126 0.000000
# 2 -0.001462 0.006029 -0.002275 0.000000 0.001538 0.000000
# 3 -0.003323 -0.002275 0.010591 0.000000 -0.004017 0.000000
# 4 0.000000 0.000000 0.000000 0.014392 0.000000 0.001524
# 5 -0.000126 0.001538 -0.004017 0.000000 0.017726 0.000000
# 6 0.000000 0.000000 0.000000 0.001524 0.000000 0.019649
#
#
# Mechanical properties :
#
#
# Convention : Reuss Voigt Hill
#
# Bulk Modulus (GPa) = 75.10154 81.49219 78.29687
# Shear Modulus (GPa) = 51.14541 56.53686 53.84113
#
# Velocity S-wave (km/s) = 4.17788 4.39257 4.28657
# Velocity P-wave (km/s) = 6.99308 7.31693 7.15684
#
# Compressibility (1/GPa) = 0.01331531
#
# Stress axis : x y z
#
# Youngs Moduli (GPa) = 92.46416 165.87336 94.41547
#
# Poissons Ratio (x) = 0.24253 0.31376
# Poissons Ratio (y) = 0.13520 0.21475
# Poissons Ratio (z) = 0.30728 0.37729
#
# Static dielectric constant tensor:
#      x y z
#    x 2.299810 0.000000 0.014010 
#    y 0.000000 2.245100 0.000000 
#    z 0.014010 0.000000 2.400830 
# 
# From -- ./inp_files/59379.got.cif
#   From: 2010.05.17/outbox.cif.g08.bks.cpg/sg5_30_cif.got.tgz:59379.got - 2010.06.03 18:56:24.
