data_PCOD9125609
_publ_section_title
;
Structure prediction by ZEFSAII (Michael W. Deem and Ramdas Pophale) SiO2 
 PCOD9125609
Probable space group: C 2
;
_chemical_formula_sum "Si O2"
_cell_formula_units_Z 22
_cell_length_a 26.354569
_cell_length_b 6.510537
_cell_length_c 16.594518
_cell_angle_alpha 90.000000
_cell_angle_beta 159.198121
_cell_angle_gamma 90.000000
_cell_volume 1011.192993
_symmetry_space_group_name_H-M "C 2"
_symmetry_group_IT_number 5
_symmetry_cell_setting 'monoclinic'
loop_
_space_group_symop_operation_xyz
x,y,z
-x,y,-z
1/2+x,1/2+y,z
1/2-x,1/2+y,-z
loop_
_atom_site_type_symbol
_atom_site_label
_atom_site_fract_x
_atom_site_fract_y
_atom_site_fract_z
Si Si1 0.866066 0.920950 0.262159
Si Si2 0.937981 0.455081 0.732759
Si Si3 0.668901 0.607961 0.064888
Si Si4 0.500000 0.941496 0.000000
Si Si5 0.837768 0.037571 0.766237
Si Si6 0.613054 0.224173 0.868734
O O1 0.781836 0.771400 0.197980
O O2 0.930650 0.791152 0.284723
O O3 0.000000 0.032674 0.500000
O O4 0.752144 0.084394 0.063297
O O5 0.771204 0.450585 0.461497
O O6 0.003756 0.593812 0.759620
O O7 0.019431 0.235109 0.852526
O O8 0.981947 0.543621 0.885936
O O9 0.710893 0.513625 0.213708
O O10 0.649264 0.426720 0.972779
O O11 0.636295 0.784604 0.203146
O O12 0.000000 0.956034 0.000000
#
# Coordination Sequence:
#
# PCOD9125609 Si02
#       6
#     4   4   4   2   4   4
#     4  11  23  41  67  95 130 170 209 264 319 376
#     4  10  21  42  67  90 135 172 209 269 320 380
#     4  10  22  42  62  96 132 165 219 264 320 381
#     4   8  20  42  62  96 130 164 216 262 316 374
#     4   9  20  41  64  94 130 170 209 268 321 371
#     4  11  23  41  65  98 128 168 218 257 321 385
#
# _framework density 21.756481000000001
#
# number of rings (size 3 to 8) (size 9 to 14) (size 15 to 20)
#    0.545    1.455    1.818    1.091    0.000    3.636 
#    4.909    0.000    0.000    0.000    0.000    0.000 
#    0.000    0.000    0.000    0.000    0.000    0.000 
#
# Total GULP energy -61366.286356 kJ/mol
# GULP energy per Si atom -5578.753305 kJ/mol
# Density = 2.170696 g / cm^3
# Si number density = 21.756481 Si / 1000 Ang^3
#
#
#
# Elastic Constant Matrix: (Units=GPa)
#
#
# Indices 1 2 3 4 5 6 
#
# 1 107.9006 2.5126 37.0157 0.0000 -19.4395 0.0000
# 2 2.5126 45.1519 22.9319 0.0000 1.4933 0.0000
# 3 37.0157 22.9319 125.4528 0.0000 -22.8209 0.0000
# 4 0.0000 0.0000 0.0000 -0.3191 0.0000 -9.6706
# 5 -19.4395 1.4933 -22.8209 0.0000 19.2371 0.0000
# 6 0.0000 0.0000 0.0000 -9.6706 0.0000 28.6004
#
#
#
# Elastic Compliance Matrix: (Units=1/GPa)
#
#
# Indices 1 2 3 4 5 6 
#
# 1 0.011591 -0.000154 -0.001605 0.000000 0.009821 0.000000
# 2 -0.000154 0.025753 -0.006445 0.000000 -0.009801 0.000000
# 3 -0.001605 -0.006445 0.012011 0.000000 0.013126 0.000000
# 4 0.000000 0.000000 0.000000 -0.278628 0.000000 -0.094212
# 5 0.009821 -0.009801 0.013126 0.000000 0.078240 0.000000
# 6 0.000000 0.000000 0.000000 -0.094212 0.000000 0.003109
#
#
# Mechanical properties :
#
#
# Convention : Reuss Voigt Hill
#
# Bulk Modulus (GPa) = 30.35254 44.82508 37.58881
# Shear Modulus (GPa) = -41.48259 23.90668 -8.78796
#
# Velocity S-wave (km/s) = -4.37129 3.31846 -2.01197
# Velocity P-wave (km/s) = 3.39061 5.94396 3.45213
#
# Compressibility (1/GPa) = 0.03294618
#
# Stress axis : x y z
#
# Youngs Moduli (GPa) = 86.27017 38.82992 83.25970
#
# Poissons Ratio (x) = 0.00600 0.13366
# Poissons Ratio (y) = 0.01333 0.53659
# Poissons Ratio (z) = 0.13850 0.25025
#
# Static dielectric constant tensor:
#      x y z
#    x 1.832360 0.000000 0.010400 
#    y 0.000000 1.806890 0.000000 
#    z 0.010400 0.000000 1.775730 
# 
# From -- ./inp_files/63720.got.cif
#   From: 2010.05.17/outbox.cif.g08.bks.cpg/sg5_32_cif.got.tgz:63720.got - 2010.06.03 18:56:24.
