data_PCOD9125214
_publ_section_title
;
Structure prediction by ZEFSAII (Michael W. Deem and Ramdas Pophale) SiO2 
 PCOD9125214
Probable space group: C 2
;
_chemical_formula_sum "Si O2"
_cell_formula_units_Z 24
_cell_length_a 26.788459
_cell_length_b 4.867987
_cell_length_c 17.663833
_cell_angle_alpha 90.000000
_cell_angle_beta 157.014302
_cell_angle_gamma 90.000000
_cell_volume 899.507157
_symmetry_space_group_name_H-M "C 2"
_symmetry_group_IT_number 5
_symmetry_cell_setting 'monoclinic'
loop_
_space_group_symop_operation_xyz
x,y,z
-x,y,-z
1/2+x,1/2+y,z
1/2-x,1/2+y,-z
loop_
_atom_site_type_symbol
_atom_site_label
_atom_site_fract_x
_atom_site_fract_y
_atom_site_fract_z
Si Si1 0.128573 0.244910 0.660473
Si Si2 0.241702 0.409232 0.674845
Si Si3 0.591928 0.878843 0.061994
Si Si4 0.809711 0.775792 0.546199
Si Si5 0.163260 0.484540 0.862417
Si Si6 0.570577 0.144496 0.886565
O O1 0.129241 0.298236 0.571547
O O2 0.117984 0.473837 0.712638
O O3 0.000000 0.073348 0.500000
O O4 0.277204 0.162836 0.883516
O O5 0.304526 0.650199 0.812239
O O6 0.216702 0.582274 0.564050
O O7 0.343408 0.158633 0.815712
O O8 0.500000 0.772924 0.000000
O O9 0.527206 0.937036 0.891779
O O10 0.734665 0.061505 0.450628
O O11 0.958651 0.862101 0.746383
O O12 0.067691 0.580735 0.794193
O O13 0.285373 0.686428 0.040037
#
# Coordination Sequence:
#
# PCOD9125214 Si02
#       6
#     4   4   4   4   4   4
#     4  10  22  43  68  97 130 170 216 268 322 382
#     4  11  23  41  64  95 129 170 213 264 321 382
#     4  11  22  40  65  95 130 171 216 264 317 380
#     4  12  26  44  67  97 132 171 215 265 321 384
#     4  10  21  40  64  95 130 170 214 264 319 380
#     4  10  23  42  67  97 131 172 215 265 322 382
#
# _framework density 26.681274999999999
#
# number of rings (size 3 to 8) (size 9 to 14) (size 15 to 20)
#    0.000    1.333    0.000    5.500    0.000    6.667 
#    0.000   28.333    0.000    0.000    0.000    0.000 
#    0.000    0.000    0.000    0.000    0.000    0.000 
#
# Total GULP energy -66875.440874 kJ/mol
# GULP energy per Si atom -5572.953406 kJ/mol
# Density = 2.662055 g / cm^3
# Si number density = 26.681275 Si / 1000 Ang^3
#
#
#
# Elastic Constant Matrix: (Units=GPa)
#
#
# Indices 1 2 3 4 5 6 
#
# 1 124.4879 11.7734 12.3232 0.0009 12.1887 -0.0001
# 2 11.7734 79.5417 16.4616 0.0023 -14.1764 -0.0002
# 3 12.3232 16.4616 116.4360 0.0007 21.1924 0.0001
# 4 0.0009 0.0023 0.0007 33.2784 0.0000 -9.1365
# 5 12.1887 -14.1764 21.1924 0.0000 36.0142 0.0001
# 6 -0.0001 -0.0002 0.0001 -9.1365 0.0001 9.1751
#
#
#
# Elastic Compliance Matrix: (Units=1/GPa)
#
#
# Indices 1 2 3 4 5 6 
#
# 1 0.008573 -0.001933 0.000036 0.000000 -0.003684 0.000000
# 2 -0.001933 0.015132 -0.003514 -0.000001 0.008679 -0.000001
# 3 0.000036 -0.003514 0.010455 0.000000 -0.007548 0.000000
# 4 0.000000 -0.000001 0.000000 0.041356 -0.000001 0.041182
# 5 -0.003684 0.008679 -0.007548 -0.000001 0.036871 -0.000001
# 6 0.000000 -0.000001 0.000000 0.041182 -0.000001 0.150000
#
#
# Mechanical properties :
#
#
# Convention : Reuss Voigt Hill
#
# Bulk Modulus (GPa) = 42.84797 44.62024 43.73411
# Shear Modulus (GPa) = 17.79432 34.35403 26.07418
#
# Velocity S-wave (km/s) = 2.58528 3.59217 3.12949
# Velocity P-wave (km/s) = 5.00056 5.82792 5.43002
#
# Compressibility (1/GPa) = 0.02333833
#
# Stress axis : x y z
#
# Youngs Moduli (GPa) = 116.64813 66.08399 95.64591
#
# Poissons Ratio (x) = 0.12774 -0.00349
# Poissons Ratio (y) = 0.22548 0.33614
# Poissons Ratio (z) = -0.00425 0.23225
#
# Static dielectric constant tensor:
#      x y z
#    x 2.116050 0.000000 -0.044640 
#    y 0.000000 2.060360 0.000000 
#    z -0.044640 0.000000 2.308980 
# 
# From -- ./inp_files/67682.got.cif
#   From: 2010.05.17/outbox.cif.g08.bks.cpg/sg5_34_cif.got.tgz:67682.got - 2010.06.03 18:56:24.
