data_PCOD9125667
_publ_section_title
;
Structure prediction by ZEFSAII (Michael W. Deem and Ramdas Pophale) SiO2 
 PCOD9125667
Probable space group: C 2
;
_chemical_formula_sum "Si O2"
_cell_formula_units_Z 26
_cell_length_a 9.879140
_cell_length_b 9.927067
_cell_length_c 23.215247
_cell_angle_alpha 90.000000
_cell_angle_beta 32.684971
_cell_angle_gamma 90.000000
_cell_volume 1229.484052
_symmetry_space_group_name_H-M "C 2"
_symmetry_group_IT_number 5
_symmetry_cell_setting 'monoclinic'
loop_
_space_group_symop_operation_xyz
x,y,z
-x,y,-z
1/2+x,1/2+y,z
1/2-x,1/2+y,-z
loop_
_atom_site_type_symbol
_atom_site_label
_atom_site_fract_x
_atom_site_fract_y
_atom_site_fract_z
Si Si1 0.571144 0.568970 0.868812
Si Si2 0.268062 0.635655 0.802403
Si Si3 0.000000 0.542893 0.500000
Si Si4 0.480258 0.172647 0.794962
Si Si5 0.260656 0.184555 0.687964
Si Si6 0.294103 0.296463 0.973024
Si Si7 0.003126 0.876656 0.308008
O O1 0.793220 0.560204 0.836331
O O2 0.686868 0.571984 0.763087
O O3 0.365628 0.452945 0.954126
O O4 0.447894 0.718259 0.917726
O O5 0.512370 0.708809 0.738955
O O6 0.319557 0.478147 0.791804
O O7 0.210745 0.639169 0.754291
O O8 0.027563 0.708926 0.914895
O O9 0.964512 0.629986 0.570331
O O10 0.747368 0.456134 0.586390
O O11 0.313268 0.262650 0.898319
O O12 0.566782 0.255405 0.709167
O O13 0.358920 0.313162 0.686908
#
# Coordination Sequence:
#
# PCOD9125667 Si02
#       7
#     4   4   2   4   4   4   4
#     4  11  23  42  65  96 132 177 215 262 314 388
#     4   9  22  38  63  94 128 166 206 264 312 378
#     4  10  22  42  62  96 124 162 214 272 326 372
#     4   9  22  41  63  89 130 166 215 261 318 373
#     4  10  23  43  64  96 128 164 217 266 321 377
#     4  10  23  39  65  94 134 171 218 255 315 381
#     4  10  21  42  70  87 127 165 213 268 324 381
#
# _framework density 21.147082000000001
#
# number of rings (size 3 to 8) (size 9 to 14) (size 15 to 20)
#    0.923    1.231    0.000    2.308    6.462    3.077 
#    5.538    0.000    0.000    0.000    0.000    0.000 
#    0.000    0.000    0.000    0.000    0.000    0.000 
#
# Total GULP energy -72407.047547 kJ/mol
# GULP energy per Si atom -5569.772888 kJ/mol
# Density = 2.109895 g / cm^3
# Si number density = 21.147082 Si / 1000 Ang^3
#
#
#
# Elastic Constant Matrix: (Units=GPa)
#
#
# Indices 1 2 3 4 5 6 
#
# 1 122.5252 17.6815 8.5562 -0.0001 -1.4402 0.0001
# 2 17.6815 80.5044 12.8544 0.0001 -0.2786 0.0000
# 3 8.5562 12.8544 55.5272 -0.0005 13.1348 0.0003
# 4 -0.0001 0.0001 -0.0005 30.8349 0.0002 -3.3250
# 5 -1.4402 -0.2786 13.1348 0.0002 26.5999 -0.0001
# 6 0.0001 0.0000 0.0003 -3.3250 -0.0001 29.3410
#
#
#
# Elastic Compliance Matrix: (Units=1/GPa)
#
#
# Indices 1 2 3 4 5 6 
#
# 1 0.008497 -0.001677 -0.001161 0.000000 0.001016 0.000000
# 2 -0.001677 0.013308 -0.003209 0.000000 0.001633 0.000000
# 3 -0.001161 -0.003209 0.021460 0.000000 -0.010693 0.000000
# 4 0.000000 0.000000 0.000000 0.032832 0.000000 0.003721
# 5 0.001016 0.001633 -0.010693 0.000000 0.042947 0.000000
# 6 0.000000 0.000000 0.000000 0.003721 0.000000 0.034504
#
#
# Mechanical properties :
#
#
# Convention : Reuss Voigt Hill
#
# Bulk Modulus (GPa) = 32.08120 37.41565 34.74842
# Shear Modulus (GPa) = 28.40397 31.98615 30.19506
#
# Velocity S-wave (km/s) = 3.66889 3.89338 3.78280
# Velocity P-wave (km/s) = 5.75770 6.15976 5.96212
#
# Compressibility (1/GPa) = 0.03117091
#
# Stress axis : x y z
#
# Youngs Moduli (GPa) = 117.69329 75.14256 46.59742
#
# Poissons Ratio (x) = 0.12603 0.05411
# Poissons Ratio (y) = 0.19740 0.14951
# Poissons Ratio (z) = 0.13667 0.24110
#
# Static dielectric constant tensor:
#      x y z
#    x 1.793250 0.000000 -0.023960 
#    y 0.000000 1.788840 0.000000 
#    z -0.023960 0.000000 1.780850 
# 
# From -- ./inp_files/70307.got.cif
#   From: 2010.05.17/outbox.cif.g08.bks.cpg/sg5_36_cif.got.tgz:70307.got - 2010.06.03 18:56:24.
