data_PCOD9125059
_publ_section_title
;
Structure prediction by ZEFSAII (Michael W. Deem and Ramdas Pophale) SiO2 
 PCOD9125059
Probable space group: C 2
;
_chemical_formula_sum "Si O2"
_cell_formula_units_Z 28
_cell_length_a 10.176561
_cell_length_b 18.002363
_cell_length_c 8.864791
_cell_angle_alpha 90.000000
_cell_angle_beta 120.335176
_cell_angle_gamma 90.000000
_cell_volume 1401.693135
_symmetry_space_group_name_H-M "C 2"
_symmetry_group_IT_number 5
_symmetry_cell_setting 'monoclinic'
loop_
_space_group_symop_operation_xyz
x,y,z
-x,y,-z
1/2+x,1/2+y,z
1/2-x,1/2+y,-z
loop_
_atom_site_type_symbol
_atom_site_label
_atom_site_fract_x
_atom_site_fract_y
_atom_site_fract_z
Si Si1 0.271130 0.876550 0.433859
Si Si2 0.056507 0.470499 0.235199
Si Si3 0.855507 0.335889 0.157368
Si Si4 0.829957 0.783814 0.359633
Si Si5 0.917298 0.900764 0.171587
Si Si6 0.221982 0.539044 0.038315
Si Si7 0.348075 0.686978 0.989932
O O1 0.342258 0.947014 0.563655
O O2 0.359470 0.854260 0.334993
O O3 0.261259 0.806925 0.543801
O O4 0.097005 0.892774 0.284942
O O5 0.148941 0.512318 0.156171
O O6 0.973424 0.392129 0.145941
O O7 0.903999 0.519746 0.162734
O O8 0.682162 0.353707 0.005193
O O9 0.891797 0.253602 0.127490
O O10 0.853974 0.863599 0.289342
O O11 0.751122 0.726826 0.199381
O O12 0.000000 0.757578 0.500000
O O13 0.866207 0.984643 0.111650
O O14 0.264674 0.623598 0.036682
O O15 0.500000 0.656216 0.000000
#
# Coordination Sequence:
#
# PCOD9125059 Si02
#       7
#     4   4   4   4   4   4   4
#     4  11  19  36  70 102 120 157 222 274 303 370
#     4  10  21  39  66  88 124 167 218 260 307 381
#     4  10  22  38  67 100 123 168 218 264 311 384
#     4   9  19  38  65  96 128 164 211 268 315 374
#     4   9  19  37  65  93 128 163 215 259 318 372
#     4  10  22  41  62  91 126 174 207 260 323 384
#     4  11  24  42  66  90 131 173 210 260 329 387
#
# _framework density 19.975842
#
# number of rings (size 3 to 8) (size 9 to 14) (size 15 to 20)
#    0.000    2.000    1.429    1.714    6.000    2.286 
#   15.429    4.286    9.429    0.000    0.000    0.000 
#    0.000    0.000    0.000    0.000    0.000    0.000 
#
# Total GULP energy -78024.865285 kJ/mol
# GULP energy per Si atom -5573.204663 kJ/mol
# Density = 1.993038 g / cm^3
# Si number density = 19.975842 Si / 1000 Ang^3
#
#
#
# Elastic Constant Matrix: (Units=GPa)
#
#
# Indices 1 2 3 4 5 6 
#
# 1 84.3250 43.5887 58.1189 0.0000 -6.8787 0.0000
# 2 43.5887 108.2414 18.3184 0.0000 -6.0131 0.0000
# 3 58.1189 18.3184 116.1469 0.0000 -0.2950 0.0000
# 4 0.0000 0.0000 0.0000 11.5250 0.0000 -8.2669
# 5 -6.8787 -6.0131 -0.2950 0.0000 46.4962 0.0000
# 6 0.0000 0.0000 0.0000 -8.2669 0.0000 22.4737
#
#
#
# Elastic Compliance Matrix: (Units=1/GPa)
#
#
# Indices 1 2 3 4 5 6 
#
# 1 0.022988 -0.007376 -0.010334 0.000000 0.002381 0.000000
# 2 -0.007376 0.011928 0.001811 0.000000 0.000463 0.000000
# 3 -0.010334 0.001811 0.013492 0.000000 -0.001209 0.000000
# 4 0.000000 0.000000 0.000000 0.117868 0.000000 0.043357
# 5 0.002381 0.000463 -0.001209 0.000000 0.021912 0.000000
# 6 0.000000 0.000000 0.000000 0.043357 0.000000 0.060445
#
#
# Mechanical properties :
#
#
# Convention : Reuss Voigt Hill
#
# Bulk Modulus (GPa) = 60.20321 60.97391 60.58856
# Shear Modulus (GPa) = 17.48444 28.67815 23.08130
#
# Velocity S-wave (km/s) = 2.96172 3.79310 3.40289
# Velocity P-wave (km/s) = 6.47296 7.05504 6.77025
#
# Compressibility (1/GPa) = 0.01661041
#
# Stress axis : x y z
#
# Youngs Moduli (GPa) = 43.50053 83.83459 74.11802
#
# Poissons Ratio (x) = 0.61838 0.76591
# Poissons Ratio (y) = 0.32087 -0.13422
# Poissons Ratio (z) = 0.44952 -0.15181
#
# Static dielectric constant tensor:
#      x y z
#    x 1.760050 0.000000 0.001810 
#    y 0.000000 1.696260 0.000000 
#    z 0.001810 0.000000 1.771430 
# 
# From -- ./inp_files/20720.got.cif
#   From: 2010.05.17/outbox.cif.g08.bks.cpg/sg5_11_cif.got.tgz:20720.got - 2010.06.03 18:56:24.
