data_PCOD9125886
_publ_section_title
;
Structure prediction by ZEFSAII (Michael W. Deem and Ramdas Pophale) SiO2 
 PCOD9125886
Probable space group: C 2
;
_chemical_formula_sum "Si O2"
_cell_formula_units_Z 24
_cell_length_a 24.228454
_cell_length_b 7.520283
_cell_length_c 11.674222
_cell_angle_alpha 90.000000
_cell_angle_beta 30.114713
_cell_angle_gamma 90.000000
_cell_volume 1067.235837
_symmetry_space_group_name_H-M "C 2"
_symmetry_group_IT_number 5
_symmetry_cell_setting 'monoclinic'
loop_
_space_group_symop_operation_xyz
x,y,z
-x,y,-z
1/2+x,1/2+y,z
1/2-x,1/2+y,-z
loop_
_atom_site_type_symbol
_atom_site_label
_atom_site_fract_x
_atom_site_fract_y
_atom_site_fract_z
Si Si1 0.159876 0.425340 0.696702
Si Si2 0.518035 0.412287 0.662544
Si Si3 0.405509 0.312583 0.245159
Si Si4 0.155255 0.007957 0.199653
Si Si5 0.486256 0.792479 0.838407
Si Si6 0.903880 0.416281 0.749629
O O1 0.290688 0.414788 0.459669
O O2 0.122423 0.629387 0.769129
O O3 0.101242 0.350610 0.688203
O O4 0.106333 0.317694 0.897881
O O5 0.550156 0.278957 0.705974
O O6 0.614530 0.437937 0.395984
O O7 0.407976 0.393525 0.784326
O O8 0.500547 0.595154 0.764135
O O9 0.500000 0.404303 0.000000
O O10 0.114861 0.211060 0.257309
O O11 0.285156 0.003260 0.952950
O O12 0.447033 0.907596 0.801103
O O13 0.000000 0.497801 0.500000
#
# Coordination Sequence:
#
# PCOD9125886 Si02
#       6
#     4   4   4   4   4   4
#     4  11  25  44  66 100 135 174 229 273 331 398
#     4  10  22  44  71  95 137 176 220 274 335 389
#     4  12  26  45  68 101 133 178 226 275 333 396
#     4  10  22  46  67 100 133 173 220 271 328 399
#     4  10  21  45  70  93 137 178 216 278 330 391
#     4  11  22  44  68  97 135 173 217 273 331 387
#
# _framework density 22.488002000000002
#
# number of rings (size 3 to 8) (size 9 to 14) (size 15 to 20)
#    0.000    1.333    5.000    2.000    4.667    2.667 
#   12.000    0.000    0.000    0.000    0.000    0.000 
#    0.000    0.000    0.000    0.000    0.000    0.000 
#
# Total GULP energy -67130.315772 kJ/mol
# GULP energy per Si atom -5594.192981 kJ/mol
# Density = 2.243682 g / cm^3
# Si number density = 22.488002 Si / 1000 Ang^3
#
#
#
# Elastic Constant Matrix: (Units=GPa)
#
#
# Indices 1 2 3 4 5 6 
#
# 1 133.2347 16.0878 92.4432 0.0000 7.3715 0.0000
# 2 16.0878 29.7678 32.3956 0.0000 -8.9767 0.0000
# 3 92.4432 32.3956 188.0441 0.0000 -20.0125 0.0000
# 4 0.0000 0.0000 0.0000 18.8077 0.0000 -19.0217
# 5 7.3715 -8.9767 -20.0125 0.0000 30.8947 0.0000
# 6 0.0000 0.0000 0.0000 -19.0217 0.0000 9.4862
#
#
#
# Elastic Compliance Matrix: (Units=1/GPa)
#
#
# Indices 1 2 3 4 5 6 
#
# 1 0.012992 -0.001950 -0.006918 0.000000 -0.008147 0.000000
# 2 -0.001950 0.043538 -0.005527 0.000000 0.009535 0.000000
# 3 -0.006918 -0.005527 0.010392 0.000000 0.006776 0.000000
# 4 0.000000 0.000000 0.000000 -0.051721 0.000000 -0.103710
# 5 -0.008147 0.009535 0.006776 0.000000 0.041472 0.000000
# 6 0.000000 0.000000 0.000000 -0.103710 0.000000 -0.102544
#
#
# Mechanical properties :
#
#
# Convention : Reuss Voigt Hill
#
# Bulk Modulus (GPa) = 26.22483 70.32218 48.27350
# Shear Modulus (GPa) = -1144.06348 25.84572 -559.10888
#
# Velocity S-wave (km/s) = -22.57982 3.39383 -15.78497
# Velocity P-wave (km/s) = 25.84784 6.83347 17.62689
#
# Compressibility (1/GPa) = 0.03813180
#
# Stress axis : x y z
#
# Youngs Moduli (GPa) = 76.97231 22.96862 96.22588
#
# Poissons Ratio (x) = 0.04478 0.66569
# Poissons Ratio (y) = 0.15006 0.53188
# Poissons Ratio (z) = 0.53249 0.12696
#
# Static dielectric constant tensor:
#      x y z
#    x 1.833650 0.000000 -0.014990 
#    y 0.000000 1.894700 0.000000 
#    z -0.014990 0.000000 1.801490 
# 
# From -- ./inp_files/47226.got.cif
#   From: 2010.05.17/outbox.cif.g08.bks.cpg/sg5_24_cif.got.tgz:47226.got - 2010.06.03 18:56:24.
