data_PCOD9125311
_publ_section_title
;
Structure prediction by ZEFSAII (Michael W. Deem and Ramdas Pophale) SiO2 
 PCOD9125311
Probable space group: C 2
;
_chemical_formula_sum "Si O2"
_cell_formula_units_Z 32
_cell_length_a 12.905513
_cell_length_b 15.078672
_cell_length_c 17.659251
_cell_angle_alpha 90.000000
_cell_angle_beta 28.507898
_cell_angle_gamma 90.000000
_cell_volume 1640.150833
_symmetry_space_group_name_H-M "C 2"
_symmetry_group_IT_number 5
_symmetry_cell_setting 'monoclinic'
loop_
_space_group_symop_operation_xyz
x,y,z
-x,y,-z
1/2+x,1/2+y,z
1/2-x,1/2+y,-z
loop_
_atom_site_type_symbol
_atom_site_label
_atom_site_fract_x
_atom_site_fract_y
_atom_site_fract_z
Si Si1 0.257732 0.254710 0.122782
Si Si2 0.361311 0.036373 0.924434
Si Si3 0.271431 0.258870 0.765321
Si Si4 0.469163 0.086536 0.432222
Si Si5 0.180662 0.958968 0.319583
Si Si6 0.241106 0.446990 0.160206
Si Si7 0.793776 0.225184 0.021296
Si Si8 0.962724 0.068339 0.731100
O O1 0.179015 0.344773 0.213235
O O2 0.119765 0.168255 0.230611
O O3 0.500000 0.239297 0.000000
O O4 0.247334 0.264480 0.036853
O O5 0.335859 0.132429 0.900877
O O6 0.596313 0.011024 0.805430
O O7 0.315123 0.965850 0.890051
O O8 0.176226 0.037381 0.107059
O O9 0.459496 0.188074 0.628582
O O10 0.283936 0.354274 0.717626
O O11 0.266581 0.272310 0.860156
O O12 0.052206 0.213397 0.871317
O O13 0.500000 0.067537 0.500000
O O14 0.218483 0.071557 0.576252
O O15 0.618353 0.018990 0.289181
O O16 0.000000 0.970529 0.500000
O O17 0.092835 0.002593 0.300176
O O18 0.500000 0.456057 0.000000
#
# Coordination Sequence:
#
# PCOD9125311 Si02
#       8
#     4   4   4   4   4   4   4   4
#     4  10  22  42  67  94 129 176 232 277 337 408
#     4  11  22  42  69  94 136 173 223 277 335 410
#     4  11  24  41  69 105 136 177 228 287 345 410
#     4  12  24  42  65  96 138 169 220 283 342 408
#     4  12  27  43  67 102 140 180 226 283 348 408
#     4  11  22  39  67  95 128 173 220 277 336 399
#     4  10  21  40  70 102 131 175 229 278 343 407
#     4  11  25  42  66  95 130 181 221 278 340 404
#
# _framework density 19.510401000000002
#
# number of rings (size 3 to 8) (size 9 to 14) (size 15 to 20)
#    0.000    1.000    1.250    6.750    5.250    2.000 
#    0.000    0.625    0.000    0.000    0.000    0.000 
#    0.000    0.000    0.000    0.000    0.000    0.000 
#
# Total GULP energy -89323.995324 kJ/mol
# GULP energy per Si atom -5582.749708 kJ/mol
# Density = 1.946599 g / cm^3
# Si number density = 19.510401 Si / 1000 Ang^3
#
#
#
# Elastic Constant Matrix: (Units=GPa)
#
#
# Indices 1 2 3 4 5 6 
#
# 1 101.6185 17.0761 32.6343 0.0076 -19.8612 -0.0236
# 2 17.0761 114.6658 38.5907 -0.0127 -5.6737 -0.0024
# 3 32.6343 38.5907 93.1974 -0.0026 -6.5032 -0.0106
# 4 0.0076 -0.0127 -0.0026 12.2552 -0.0188 9.4193
# 5 -19.8612 -5.6737 -6.5032 -0.0188 35.4627 0.0194
# 6 -0.0236 -0.0024 -0.0106 9.4193 0.0194 18.0203
#
#
#
# Elastic Compliance Matrix: (Units=1/GPa)
#
#
# Indices 1 2 3 4 5 6 
#
# 1 0.012298 -0.000258 -0.003770 -0.000008 0.006155 0.000011
# 2 -0.000258 0.010165 -0.004067 0.000021 0.000736 -0.000013
# 3 -0.003770 -0.004067 0.013717 -0.000002 -0.000247 0.000004
# 4 -0.000008 0.000021 -0.000002 0.136396 0.000110 -0.071295
# 5 0.006155 0.000736 -0.000247 0.000110 0.031718 -0.000083
# 6 0.000011 -0.000013 0.000004 -0.071295 -0.000083 0.092759
#
#
# Mechanical properties :
#
#
# Convention : Reuss Voigt Hill
#
# Bulk Modulus (GPa) = 50.02766 54.00932 52.01849
# Shear Modulus (GPa) = 15.62958 27.89300 21.76129
#
# Velocity S-wave (km/s) = 2.83342 3.78517 3.34334
# Velocity P-wave (km/s) = 6.03337 6.84440 6.45164
#
# Compressibility (1/GPa) = 0.01998894
#
# Stress axis : x y z
#
# Youngs Moduli (GPa) = 81.31589 98.38010 72.90285
#
# Poissons Ratio (x) = 0.02539 0.27483
# Poissons Ratio (y) = 0.02099 0.29651
# Poissons Ratio (z) = 0.30655 0.40013
#
# Static dielectric constant tensor:
#      x y z
#    x 1.696270 0.000010 0.042860 
#    y 0.000010 1.692050 0.000010 
#    z 0.042860 0.000010 1.661910 
# 
# From -- ./inp_files/60687.got.cif
#   From: 2010.05.17/outbox.cif.g08.bks.cpg/sg5_31_cif.got.tgz:60687.got - 2010.06.03 18:56:24.
