data_PCOD9125060
_publ_section_title
;
Structure prediction by ZEFSAII (Michael W. Deem and Ramdas Pophale) SiO2 
 PCOD9125060
Probable space group: C 2
;
_chemical_formula_sum "Si O2"
_cell_formula_units_Z 28
_cell_length_a 23.208875
_cell_length_b 13.680287
_cell_length_c 9.606400
_cell_angle_alpha 90.000000
_cell_angle_beta 25.002516
_cell_angle_gamma 90.000000
_cell_volume 1289.137136
_symmetry_space_group_name_H-M "C 2"
_symmetry_group_IT_number 5
_symmetry_cell_setting 'monoclinic'
loop_
_space_group_symop_operation_xyz
x,y,z
-x,y,-z
1/2+x,1/2+y,z
1/2-x,1/2+y,-z
loop_
_atom_site_type_symbol
_atom_site_label
_atom_site_fract_x
_atom_site_fract_y
_atom_site_fract_z
Si Si1 0.739834 0.894660 0.792090
Si Si2 0.229182 0.969537 0.738695
Si Si3 0.124094 0.163254 0.815714
Si Si4 0.462835 0.852284 0.293490
Si Si5 0.642141 0.306467 0.745387
Si Si6 0.158620 0.029795 0.195040
Si Si7 0.659688 0.748389 0.192853
O O1 0.803271 0.870949 0.504623
O O2 0.813412 0.975234 0.722697
O O3 0.579105 0.914193 0.117549
O O4 0.739622 0.800490 0.894133
O O5 0.187602 0.074962 0.766309
O O6 0.377322 0.921891 0.378024
O O7 0.130096 0.883936 0.897586
O O8 0.228824 0.986428 0.904622
O O9 0.248315 0.220159 0.468011
O O10 0.000000 0.117839 0.000000
O O11 0.044460 0.255624 0.062128
O O12 0.349824 0.807498 0.644209
O O13 0.500000 0.265242 0.000000
O O14 0.208252 0.139651 0.106342
O O15 0.000000 0.028677 0.500000
O O16 0.500000 0.743856 0.500000
#
# Coordination Sequence:
#
# PCOD9125060 Si02
#       7
#     4   4   4   4   4   4   4
#     4  10  21  39  66  88 134 174 218 285 342 409
#     4  12  23  40  71 100 134 180 236 284 344 422
#     4  11  23  44  70 100 139 185 234 285 350 420
#     4  10  21  42  69  98 130 177 232 285 349 411
#     4  11  24  44  62  97 140 178 231 290 346 407
#     4  11  21  36  63  98 126 174 228 277 349 411
#     4   9  18  37  64  89 122 165 218 278 333 406
#
# _framework density 21.719956
#
# number of rings (size 3 to 8) (size 9 to 14) (size 15 to 20)
#    0.000    1.429    2.857    4.714    0.000    1.143 
#    5.143    0.000    6.286    0.000    0.000    0.000 
#    0.000    0.000    0.000    0.000    0.000    0.000 
#
# Total GULP energy -78071.525104 kJ/mol
# GULP energy per Si atom -5576.537507 kJ/mol
# Density = 2.167052 g / cm^3
# Si number density = 21.719956 Si / 1000 Ang^3
#
#
#
# Elastic Constant Matrix: (Units=GPa)
#
#
# Indices 1 2 3 4 5 6 
#
# 1 70.6706 18.3275 12.7057 0.0000 -15.7912 0.0000
# 2 18.3275 92.4839 21.9268 0.0000 -19.6073 0.0000
# 3 12.7057 21.9268 42.3494 0.0000 -6.3986 0.0000
# 4 0.0000 0.0000 0.0000 21.3781 0.0000 -6.3204
# 5 -15.7912 -19.6073 -6.3986 0.0000 35.8360 0.0000
# 6 0.0000 0.0000 0.0000 -6.3204 0.0000 41.5690
#
#
#
# Elastic Compliance Matrix: (Units=1/GPa)
#
#
# Indices 1 2 3 4 5 6 
#
# 1 0.016403 -0.001175 -0.003410 0.000000 0.005976 0.000000
# 2 -0.001175 0.013687 -0.005838 0.000000 0.005928 0.000000
# 3 -0.003410 -0.005838 0.027696 0.000000 0.000248 0.000000
# 4 0.000000 0.000000 0.000000 0.048978 0.000000 0.007447
# 5 0.005976 0.005928 0.000248 0.000000 0.033826 0.000000
# 6 0.000000 0.000000 0.000000 0.007447 0.000000 0.025189
#
#
# Mechanical properties :
#
#
# Convention : Reuss Voigt Hill
#
# Bulk Modulus (GPa) = 27.07092 34.60265 30.83679
# Shear Modulus (GPa) = 25.13327 29.92621 27.52974
#
# Velocity S-wave (km/s) = 3.40538 3.71593 3.56404
# Velocity P-wave (km/s) = 5.28705 5.86316 5.58254
#
# Compressibility (1/GPa) = 0.03694001
#
# Stress axis : x y z
#
# Youngs Moduli (GPa) = 60.96297 73.06453 36.10577
#
# Poissons Ratio (x) = 0.08586 0.12312
# Poissons Ratio (y) = 0.07164 0.21079
# Poissons Ratio (z) = 0.20788 0.42656
#
# Static dielectric constant tensor:
#      x y z
#    x 1.894280 0.000000 0.016650 
#    y 0.000000 1.809280 0.000000 
#    z 0.016650 0.000000 1.881800 
# 
# From -- ./inp_files/29896.got.cif
#   From: 2010.05.17/outbox.cif.g08.bks.cpg/sg5_15_cif.got.tgz:29896.got - 2010.06.03 18:56:24.
