data_PCOD9125625
_publ_section_title
;
Structure prediction by ZEFSAII (Michael W. Deem and Ramdas Pophale) SiO2 
 PCOD9125625
Probable space group: C 2
;
_chemical_formula_sum "Si O2"
_cell_formula_units_Z 24
_cell_length_a 17.721575
_cell_length_b 5.040337
_cell_length_c 22.093641
_cell_angle_alpha 90.000000
_cell_angle_beta 27.565317
_cell_angle_gamma 90.000000
_cell_volume 913.239169
_symmetry_space_group_name_H-M "C 2"
_symmetry_group_IT_number 5
_symmetry_cell_setting 'monoclinic'
loop_
_space_group_symop_operation_xyz
x,y,z
-x,y,-z
1/2+x,1/2+y,z
1/2-x,1/2+y,-z
loop_
_atom_site_type_symbol
_atom_site_label
_atom_site_fract_x
_atom_site_fract_y
_atom_site_fract_z
Si Si1 0.549181 0.990940 0.090260
Si Si2 0.585263 0.683524 0.186603
Si Si3 0.678783 0.434682 0.516164
Si Si4 0.500000 0.923179 0.500000
Si Si5 0.823197 0.827102 0.318332
Si Si6 0.860089 0.174730 0.724004
Si Si7 0.500000 0.949510 0.000000
O O1 0.541570 0.853246 0.159731
O O2 0.420316 0.227767 0.190203
O O3 0.516681 0.814310 0.053681
O O4 0.730774 0.093407 0.953870
O O5 0.463775 0.437459 0.262269
O O6 0.585762 0.823164 0.251970
O O7 0.753223 0.157783 0.484432
O O8 0.741661 0.575710 0.409850
O O9 0.483051 0.423919 0.645743
O O10 0.671383 0.020982 0.408591
O O11 0.415786 0.787630 0.619708
O O12 0.670327 0.108151 0.868854
#
# Coordination Sequence:
#
# PCOD9125625 Si02
#       7
#     4   4   4   2   4   4   2
#     4  11  22  41  66  97 135 175 226 296 353 425
#     4  11  22  40  68 100 128 176 236 289 348 424
#     4  11  23  42  69 103 137 183 240 296 349 422
#     4  10  22  42  64  92 136 184 220 288 356 434
#     4  11  22  41  66  94 133 178 231 282 353 423
#     4  10  21  42  67  97 139 183 235 290 361 424
#     4  10  22  42  68 100 144 180 228 300 364 428
#
# _framework density 26.280082
#
# number of rings (size 3 to 8) (size 9 to 14) (size 15 to 20)
#    0.000    1.333    5.000    1.000    0.000    0.000 
#    0.000    6.667    0.000    0.000    0.000    0.000 
#    0.000    0.000    0.000    0.000    0.000    0.000 
#
# Total GULP energy -66823.578559 kJ/mol
# GULP energy per Si atom -5568.631547 kJ/mol
# Density = 2.622027 g / cm^3
# Si number density = 26.280082 Si / 1000 Ang^3
#
#
#
# Elastic Constant Matrix: (Units=GPa)
#
#
# Indices 1 2 3 4 5 6 
#
# 1 173.7898 17.6236 53.7679 -0.0021 23.2780 0.0040
# 2 17.6236 58.3511 30.7659 -0.0141 12.4830 0.0093
# 3 53.7679 30.7659 206.4419 0.0036 -25.3978 -0.0066
# 4 -0.0021 -0.0141 0.0036 10.9054 -0.0079 9.6893
# 5 23.2780 12.4830 -25.3978 -0.0079 60.3575 0.0066
# 6 0.0040 0.0093 -0.0066 9.6893 0.0066 14.9868
#
#
#
# Elastic Compliance Matrix: (Units=1/GPa)
#
#
# Indices 1 2 3 4 5 6 
#
# 1 0.006937 -0.000157 -0.002224 0.000001 -0.003579 -0.000002
# 2 -0.000157 0.020353 -0.003694 0.000079 -0.005703 -0.000063
# 3 -0.002224 -0.003694 0.006510 -0.000018 0.004361 0.000015
# 4 0.000001 0.000079 -0.000018 0.215470 0.000019 -0.139306
# 5 -0.003579 -0.005703 0.004361 0.000019 0.020963 -0.000015
# 6 -0.000002 -0.000063 0.000015 -0.139306 -0.000015 0.156791
#
#
# Mechanical properties :
#
#
# Convention : Reuss Voigt Hill
#
# Bulk Modulus (GPa) = 46.18773 71.43305 58.81039
# Shear Modulus (GPa) = 11.20098 39.67829 25.43964
#
# Velocity S-wave (km/s) = 2.06674 3.88986 3.11468
# Velocity P-wave (km/s) = 4.82789 6.88587 5.94658
#
# Compressibility (1/GPa) = 0.02165077
#
# Stress axis : x y z
#
# Youngs Moduli (GPa) = 144.14755 49.13339 153.60664
#
# Poissons Ratio (x) = 0.00773 0.34157
# Poissons Ratio (y) = 0.02266 0.56740
# Poissons Ratio (z) = 0.32054 0.18149
#
# Static dielectric constant tensor:
#      x y z
#    x 2.181060 0.000000 0.066960 
#    y 0.000000 2.204030 -0.000010 
#    z 0.066960 -0.000010 2.145070 
# 
# From -- ./inp_files/43807.got.cif
#   From: 2010.05.17/outbox.cif.g08.bks.cpg/sg5_22_cif.got.tgz:43807.got - 2010.06.03 18:56:24.
