data_PCOD9125310
_publ_section_title
;
Structure prediction by ZEFSAII (Michael W. Deem and Ramdas Pophale) SiO2 
 PCOD9125310
Probable space group: C 2
;
_chemical_formula_sum "Si O2"
_cell_formula_units_Z 26
_cell_length_a 14.709165
_cell_length_b 7.987359
_cell_length_c 15.927937
_cell_angle_alpha 90.000000
_cell_angle_beta 39.252611
_cell_angle_gamma 90.000000
_cell_volume 1184.067518
_symmetry_space_group_name_H-M "C 2"
_symmetry_group_IT_number 5
_symmetry_cell_setting 'monoclinic'
loop_
_space_group_symop_operation_xyz
x,y,z
-x,y,-z
1/2+x,1/2+y,z
1/2-x,1/2+y,-z
loop_
_atom_site_type_symbol
_atom_site_label
_atom_site_fract_x
_atom_site_fract_y
_atom_site_fract_z
Si Si1 0.659613 0.983120 0.141778
Si Si2 0.084139 0.206082 0.081648
Si Si3 0.959374 0.441758 0.436198
Si Si4 0.860202 0.990810 0.335379
Si Si5 0.892314 0.632448 0.232554
Si Si6 0.093152 0.041372 0.513969
Si Si7 0.500000 0.967707 0.000000
O O1 0.663232 0.797352 0.101979
O O2 0.588257 0.986514 0.283163
O O3 0.542149 0.080099 0.168358
O O4 0.815504 0.060481 0.023970
O O5 0.067655 0.341147 0.019603
O O6 0.938416 0.135025 0.226476
O O7 0.806536 0.525429 0.525029
O O8 0.938482 0.240014 0.449310
O O9 0.000000 0.491954 0.500000
O O10 0.866269 0.824993 0.274151
O O11 0.931475 0.962103 0.376411
O O12 0.759720 0.530360 0.367504
O O13 0.899930 0.585996 0.128871
O O14 0.000000 0.985047 0.500000
#
# Coordination Sequence:
#
# PCOD9125310 Si02
#       7
#     4   4   4   4   4   4   2
#     4  11  22  44  64  95 136 178 228 280 341 401
#     4  11  25  42  70  96 137 181 233 284 339 409
#     4  10  22  41  67  98 138 175 225 280 339 404
#     4  11  22  43  72 102 133 184 231 279 352 405
#     4  10  23  42  67  95 139 179 223 286 338 403
#     4  10  21  40  69  99 133 177 225 284 337 409
#     4  10  26  46  62  96 144 178 234 288 338 402
#
# _framework density 21.958206000000001
#
# number of rings (size 3 to 8) (size 9 to 14) (size 15 to 20)
#    0.000    1.538    3.077    0.923    2.154    4.308 
#   11.077    0.769    0.000    0.000    0.000    0.000 
#    0.000    0.000    0.000    0.000    0.000    0.000 
#
# Total GULP energy -72619.277618 kJ/mol
# GULP energy per Si atom -5586.098278 kJ/mol
# Density = 2.190823 g / cm^3
# Si number density = 21.958206 Si / 1000 Ang^3
#
#
#
# Elastic Constant Matrix: (Units=GPa)
#
#
# Indices 1 2 3 4 5 6 
#
# 1 83.0054 10.4365 42.0146 0.0000 25.3950 0.0000
# 2 10.4365 54.0742 36.5287 0.0000 13.9343 0.0000
# 3 42.0146 36.5287 149.1785 0.0000 36.0128 0.0000
# 4 0.0000 0.0000 0.0000 6.8510 0.0000 34.4426
# 5 25.3950 13.9343 36.0128 0.0000 38.8423 0.0000
# 6 0.0000 0.0000 0.0000 34.4426 0.0000 -8.9884
#
#
#
# Elastic Compliance Matrix: (Units=1/GPa)
#
#
# Indices 1 2 3 4 5 6 
#
# 1 0.015792 0.000870 -0.002697 0.000000 -0.008137 0.000000
# 2 0.000870 0.022641 -0.004755 0.000000 -0.004282 0.000000
# 3 -0.002697 -0.004755 0.010036 0.000000 -0.005836 0.000000
# 4 0.000000 0.000000 0.000000 0.007203 0.000000 0.027601
# 5 -0.008137 -0.004282 -0.005836 0.000000 0.038012 0.000000
# 6 0.000000 0.000000 0.000000 0.027601 0.000000 -0.005490
#
#
# Mechanical properties :
#
#
# Convention : Reuss Voigt Hill
#
# Bulk Modulus (GPa) = 28.32328 51.57973 39.95151
# Shear Modulus (GPa) = 44.19833 20.49288 32.34561
#
# Velocity S-wave (km/s) = 4.49133 3.05826 3.84220
# Velocity P-wave (km/s) = 6.31053 6.00096 6.15769
#
# Compressibility (1/GPa) = 0.03530664
#
# Stress axis : x y z
#
# Youngs Moduli (GPa) = 63.32173 44.16769 99.64000
#
# Poissons Ratio (x) = -0.03845 0.26868
# Poissons Ratio (y) = -0.05512 0.47382
# Poissons Ratio (z) = 0.17075 0.21003
#
# Static dielectric constant tensor:
#      x y z
#    x 1.828170 0.000000 -0.009500 
#    y 0.000000 1.840240 0.000000 
#    z -0.009500 0.000000 1.894180 
# 
# From -- ./inp_files/29098.got.cif
#   From: 2010.05.17/outbox.cif.g08.bks.cpg/sg5_15_cif.got.tgz:29098.got - 2010.06.03 18:56:24.
