data_PCOD9125318
_publ_section_title
;
Structure prediction by ZEFSAII (Michael W. Deem and Ramdas Pophale) SiO2 
 PCOD9125318
Probable space group: C 2
;
_chemical_formula_sum "Si O2"
_cell_formula_units_Z 28
_cell_length_a 29.787482
_cell_length_b 5.525186
_cell_length_c 8.843961
_cell_angle_alpha 90.000000
_cell_angle_beta 112.215773
_cell_angle_gamma 90.000000
_cell_volume 1347.500675
_symmetry_space_group_name_H-M "C 2"
_symmetry_group_IT_number 5
_symmetry_cell_setting 'monoclinic'
loop_
_space_group_symop_operation_xyz
x,y,z
-x,y,-z
1/2+x,1/2+y,z
1/2-x,1/2+y,-z
loop_
_atom_site_type_symbol
_atom_site_label
_atom_site_fract_x
_atom_site_fract_y
_atom_site_fract_z
Si Si1 0.564414 0.797990 0.940156
Si Si2 0.626299 0.415560 0.874066
Si Si3 0.024716 0.674816 0.689574
Si Si4 0.630148 0.178962 0.196202
Si Si5 0.731985 0.432465 0.897088
Si Si6 0.232920 0.489644 0.402974
Si Si7 0.536474 0.400085 0.154156
O O1 0.599739 0.669284 0.865092
O O2 0.523742 0.936771 0.793229
O O3 0.546588 0.611570 0.044978
O O4 0.597852 0.977274 0.075861
O O5 0.581561 0.248178 0.761751
O O6 0.673608 0.417337 0.832597
O O7 0.643481 0.343819 0.067196
O O8 0.000000 0.627508 0.500000
O O9 0.993822 0.889620 0.730733
O O10 0.676696 0.067994 0.332478
O O11 0.590830 0.307800 0.253109
O O12 0.750626 0.455211 0.749624
O O13 0.747961 0.680529 0.004499
O O14 0.240831 0.229167 0.493938
O O15 0.500000 0.242311 0.000000
#
# Coordination Sequence:
#
# PCOD9125318 Si02
#       7
#     4   4   4   4   4   4   4
#     4  10  21  40  70  94 135 182 241 267 347 426
#     4  10  22  41  71  98 133 184 238 288 338 437
#     4  11  25  43  63 106 144 171 224 300 356 405
#     4  10  22  42  69  97 131 184 239 279 338 435
#     4  12  25  46  80 105 137 193 252 291 358 435
#     4  12  28  48  70 108 152 180 231 309 373 416
#     4  11  21  39  70  97 129 182 235 271 336 428
#
# _framework density 20.779211
#
# number of rings (size 3 to 8) (size 9 to 14) (size 15 to 20)
#    0.000    1.143    5.714    1.714    8.000    1.714 
#    2.571    0.000    0.000    0.000    0.000    0.000 
#    0.000    0.000    0.000    0.000    0.000    0.000 
#
# Total GULP energy -77981.555265 kJ/mol
# GULP energy per Si atom -5570.111090 kJ/mol
# Density = 2.073192 g / cm^3
# Si number density = 20.779211 Si / 1000 Ang^3
#
#
#
# Elastic Constant Matrix: (Units=GPa)
#
#
# Indices 1 2 3 4 5 6 
#
# 1 136.9562 26.7992 27.2815 0.0000 5.3298 0.0000
# 2 26.7992 106.8798 49.1041 0.0000 -14.5513 0.0000
# 3 27.2815 49.1041 98.2794 0.0000 -1.0858 0.0000
# 4 0.0000 0.0000 0.0000 22.3239 0.0000 2.3224
# 5 5.3298 -14.5513 -1.0858 0.0000 20.5664 0.0000
# 6 0.0000 0.0000 0.0000 2.3224 0.0000 22.0360
#
#
#
# Elastic Compliance Matrix: (Units=1/GPa)
#
#
# Indices 1 2 3 4 5 6 
#
# 1 0.008073 -0.001886 -0.001337 0.000000 -0.003497 0.000000
# 2 -0.001886 0.014177 -0.006448 0.000000 0.010179 0.000000
# 3 -0.001337 -0.006448 0.013729 0.000000 -0.003490 0.000000
# 4 0.000000 0.000000 0.000000 0.045292 0.000000 -0.004773
# 5 -0.003497 0.010179 -0.003490 0.000000 0.056547 0.000000
# 6 0.000000 0.000000 0.000000 -0.004773 0.000000 0.045883
#
#
# Mechanical properties :
#
#
# Convention : Reuss Voigt Hill
#
# Bulk Modulus (GPa) = 60.10382 60.94279 60.52330
# Shear Modulus (GPa) = 23.97055 28.91396 26.44225
#
# Velocity S-wave (km/s) = 3.40013 3.73431 3.57113
# Velocity P-wave (km/s) = 6.66350 6.92718 6.79662
#
# Compressibility (1/GPa) = 0.01663788
#
# Stress axis : x y z
#
# Youngs Moduli (GPa) = 123.86751 70.53556 72.83753
#
# Poissons Ratio (x) = 0.13303 0.09741
# Poissons Ratio (y) = 0.23361 0.46962
# Poissons Ratio (z) = 0.16566 0.45478
#
# Static dielectric constant tensor:
#      x y z
#    x 1.799230 0.000000 -0.006940 
#    y 0.000000 1.892320 0.000000 
#    z -0.006940 0.000000 1.730600 
# 
# From -- ./inp_files/32333.got.cif
#   From: 2010.05.17/outbox.cif.g08.bks.cpg/sg5_17_cif.got.tgz:32333.got - 2010.06.03 18:56:24.
