data_PCOD9125900
_publ_section_title
;
Structure prediction by ZEFSAII (Michael W. Deem and Ramdas Pophale) SiO2 
 PCOD9125900
Probable space group: C 2
;
_chemical_formula_sum "Si O2"
_cell_formula_units_Z 28
_cell_length_a 7.441738
_cell_length_b 9.436354
_cell_length_c 20.133591
_cell_angle_alpha 90.000000
_cell_angle_beta 54.865075
_cell_angle_gamma 90.000000
_cell_volume 1156.235911
_symmetry_space_group_name_H-M "C 2"
_symmetry_group_IT_number 5
_symmetry_cell_setting 'monoclinic'
loop_
_space_group_symop_operation_xyz
x,y,z
-x,y,-z
1/2+x,1/2+y,z
1/2-x,1/2+y,-z
loop_
_atom_site_type_symbol
_atom_site_label
_atom_site_fract_x
_atom_site_fract_y
_atom_site_fract_z
Si Si1 0.512656 0.512270 0.073014
Si Si2 0.474912 0.659640 0.427637
Si Si3 0.231248 0.867299 0.698206
Si Si4 0.602657 0.377928 0.350614
Si Si5 0.135581 0.723734 0.848923
Si Si6 0.000000 0.687373 0.500000
Si Si7 0.000000 0.538611 0.000000
Si Si8 0.108071 0.159333 0.775986
O O1 0.356360 0.376676 0.116551
O O2 0.434216 0.638660 0.137223
O O3 0.500000 0.554610 0.000000
O O4 0.759484 0.466755 0.044705
O O5 0.500000 0.688022 0.500000
O O6 0.538890 0.795000 0.369860
O O7 0.636528 0.535531 0.369894
O O8 0.227452 0.608166 0.465408
O O9 0.096408 0.773797 0.781471
O O10 0.093324 0.872916 0.660561
O O11 0.252386 0.026417 0.721265
O O12 0.539762 0.283757 0.427212
O O13 0.801080 0.306381 0.268995
O O14 0.367774 0.644156 0.795258
O O15 0.002538 0.630678 0.930791
#
# Coordination Sequence:
#
# PCOD9125900 Si02
#       8
#     4   4   4   4   4   2   2   4
#     4  10  22  44  71 105 142 191 236 292 354 417
#     4  12  27  50  73 107 142 187 238 298 357 420
#     4  11  24  45  74 103 141 190 239 288 358 421
#     4  12  25  45  72 109 139 189 237 291 361 421
#     4  10  21  46  68 102 145 183 236 299 346 419
#     4  12  26  46  74 104 146 180 240 300 350 428
#     4  10  22  42  68 104 144 180 240 294 350 416
#     4  10  25  47  71 104 146 189 235 296 349 427
#
# _framework density 24.21651
#
# number of rings (size 3 to 8) (size 9 to 14) (size 15 to 20)
#    0.000    1.143    2.857    2.571    2.000    5.714 
#   12.857    0.000    0.000    0.857    0.000    0.000 
#    0.000    0.000    0.000    0.000    0.000    0.000 
#
# Total GULP energy -78241.720781 kJ/mol
# GULP energy per Si atom -5588.694342 kJ/mol
# Density = 2.416139 g / cm^3
# Si number density = 24.216510 Si / 1000 Ang^3
#
#
#
# Elastic Constant Matrix: (Units=GPa)
#
#
# Indices 1 2 3 4 5 6 
#
# 1 66.3462 6.8789 44.7957 0.0000 12.5693 0.0000
# 2 6.8789 65.3957 41.9166 0.0000 -7.3089 0.0000
# 3 44.7957 41.9166 137.6413 0.0000 24.0112 0.0000
# 4 0.0000 0.0000 0.0000 18.8512 0.0000 -11.1141
# 5 12.5693 -7.3089 24.0112 0.0000 52.1625 0.0000
# 6 0.0000 0.0000 0.0000 -11.1141 0.0000 18.4266
#
#
#
# Elastic Compliance Matrix: (Units=1/GPa)
#
#
# Indices 1 2 3 4 5 6 
#
# 1 0.019720 0.002175 -0.006855 0.000000 -0.001292 0.000000
# 2 0.002175 0.020998 -0.008181 0.000000 0.006184 0.000000
# 3 -0.006855 -0.008181 0.012939 0.000000 -0.005450 0.000000
# 4 0.000000 0.000000 0.000000 0.082321 0.000000 0.049652
# 5 -0.001292 0.006184 -0.005450 0.000000 0.022857 0.000000
# 6 0.000000 0.000000 0.000000 0.049652 0.000000 0.084218
#
#
# Mechanical properties :
#
#
# Convention : Reuss Voigt Hill
#
# Bulk Modulus (GPa) = 35.79854 50.72950 43.26402
# Shear Modulus (GPa) = 17.98008 29.60752 23.79380
#
# Velocity S-wave (km/s) = 2.72779 3.50039 3.13796
# Velocity P-wave (km/s) = 4.97352 6.10989 5.57076
#
# Compressibility (1/GPa) = 0.02793410
#
# Stress axis : x y z
#
# Youngs Moduli (GPa) = 50.70993 47.62402 77.28856
#
# Poissons Ratio (x) = -0.10359 0.52982
# Poissons Ratio (y) = -0.11030 0.63232
# Poissons Ratio (z) = 0.34762 0.38962
#
# Static dielectric constant tensor:
#      x y z
#    x 1.939480 0.000000 -0.026680 
#    y 0.000000 1.886790 0.000000 
#    z -0.026680 0.000000 1.938060 
# 
# From -- ./inp_files/64395.got.cif
#   From: 2010.05.17/outbox.cif.g08.bks.cpg/sg5_33_cif.got.tgz:64395.got - 2010.06.03 18:56:24.
