data_PCOD9125395
_publ_section_title
;
Structure prediction by ZEFSAII (Michael W. Deem and Ramdas Pophale) SiO2 
 PCOD9125395
Probable space group: C 2
;
_chemical_formula_sum "Si O2"
_cell_formula_units_Z 30
_cell_length_a 8.223670
_cell_length_b 10.415596
_cell_length_c 14.895174
_cell_angle_alpha 90.000000
_cell_angle_beta 82.394736
_cell_angle_gamma 90.000000
_cell_volume 1264.614503
_symmetry_space_group_name_H-M "C 2"
_symmetry_group_IT_number 5
_symmetry_cell_setting 'monoclinic'
loop_
_space_group_symop_operation_xyz
x,y,z
-x,y,-z
1/2+x,1/2+y,z
1/2-x,1/2+y,-z
loop_
_atom_site_type_symbol
_atom_site_label
_atom_site_fract_x
_atom_site_fract_y
_atom_site_fract_z
Si Si1 0.830171 0.437620 0.566862
Si Si2 0.180739 0.162867 0.349174
Si Si3 0.000000 0.995312 0.500000
Si Si4 0.965462 0.687409 0.609140
Si Si5 0.078447 0.796828 0.201632
Si Si6 0.202348 0.258581 0.169172
Si Si7 0.244052 0.022630 0.072708
Si Si8 0.611484 0.021998 0.122839
O O1 0.828208 0.313315 0.627888
O O2 0.669929 0.429883 0.516686
O O3 0.832241 0.574419 0.616099
O O4 0.000000 0.432837 0.500000
O O5 0.051875 0.085428 0.414685
O O6 0.365482 0.127039 0.364540
O O7 0.149611 0.154679 0.247352
O O8 0.919985 0.795050 0.687810
O O9 0.000000 0.715243 0.500000
O O10 0.160952 0.911414 0.138939
O O11 0.149755 0.656323 0.168621
O O12 0.889273 0.792738 0.182616
O O13 0.107287 0.391460 0.179555
O O14 0.180787 0.170376 0.083290
O O15 0.430079 0.035654 0.095498
O O16 0.260168 0.990456 0.966386
#
# Coordination Sequence:
#
# PCOD9125395 Si02
#       8
#     4   4   2   4   4   4   4   4
#     4  11  23  40  62  89 126 169 228 283 330 391
#     4  11  23  41  62  92 128 175 222 274 342 393
#     4  12  24  38  64  92 120 182 224 270 342 390
#     4  10  21  42  61  90 132 169 222 282 324 387
#     4  10  22  40  66  95 129 175 218 270 339 391
#     4  10  23  41  64  96 134 164 219 275 323 405
#     4  10  22  40  64  95 129 171 216 268 341 401
#     4  10  21  41  64  94 131 168 215 277 333 402
#
# _framework density 23.722643000000001
#
# number of rings (size 3 to 8) (size 9 to 14) (size 15 to 20)
#    0.000    1.600    3.333    1.600    0.933    5.867 
#    0.000    0.000    0.000    0.000    0.000    0.000 
#    0.000    0.000    0.000    0.000    0.000    0.000 
#
# Total GULP energy -83714.942152 kJ/mol
# GULP energy per Si atom -5580.996143 kJ/mol
# Density = 2.366865 g / cm^3
# Si number density = 23.722643 Si / 1000 Ang^3
#
#
#
# Elastic Constant Matrix: (Units=GPa)
#
#
# Indices 1 2 3 4 5 6 
#
# 1 56.0648 18.8968 9.1583 0.0000 -6.5718 0.0000
# 2 18.8968 108.3592 18.3645 0.0000 -4.0099 0.0000
# 3 9.1583 18.3645 85.2300 0.0000 -7.7529 0.0000
# 4 0.0000 0.0000 0.0000 39.1907 0.0000 -8.4066
# 5 -6.5718 -4.0099 -7.7529 0.0000 28.1838 0.0000
# 6 0.0000 0.0000 0.0000 -8.4066 0.0000 22.1941
#
#
#
# Elastic Compliance Matrix: (Units=1/GPa)
#
#
# Indices 1 2 3 4 5 6 
#
# 1 0.019497 -0.003075 -0.001086 0.000000 0.003810 0.000000
# 2 -0.003075 0.010082 -0.001822 0.000000 0.000216 0.000000
# 3 -0.001086 -0.001822 0.012509 0.000000 0.002928 0.000000
# 4 0.000000 0.000000 0.000000 0.027773 0.000000 0.010520
# 5 0.003810 0.000216 0.002928 0.000000 0.037206 0.000000
# 6 0.000000 0.000000 0.000000 0.010520 0.000000 0.049042
#
#
# Mechanical properties :
#
#
# Convention : Reuss Voigt Hill
#
# Bulk Modulus (GPa) = 33.19945 38.05481 35.62713
# Shear Modulus (GPa) = 28.07187 31.46269 29.76728
#
# Velocity S-wave (km/s) = 3.44370 3.64575 3.54616
# Velocity P-wave (km/s) = 5.46235 5.81364 5.64073
#
# Compressibility (1/GPa) = 0.03012098
#
# Stress axis : x y z
#
# Youngs Moduli (GPa) = 51.29012 99.19011 79.94465
#
# Poissons Ratio (x) = 0.30502 0.08681
# Poissons Ratio (y) = 0.15772 0.14568
# Poissons Ratio (z) = 0.05569 0.18075
#
# Static dielectric constant tensor:
#      x y z
#    x 1.870810 0.000000 0.037780 
#    y 0.000000 1.926260 0.000000 
#    z 0.037780 0.000000 2.433590 
# 
# From -- ./inp_files/50311.got.cif
#   From: 2010.05.17/outbox.cif.g08.bks.cpg/sg5_26_cif.got.tgz:50311.got - 2010.06.03 18:56:24.
