data_PCOD9125680
_publ_section_title
;
Structure prediction by ZEFSAII (Michael W. Deem and Ramdas Pophale) SiO2 
 PCOD9125680
Probable space group: C 2
;
_chemical_formula_sum "Si O2"
_cell_formula_units_Z 26
_cell_length_a 11.798934
_cell_length_b 12.802129
_cell_length_c 8.025656
_cell_angle_alpha 90.000000
_cell_angle_beta 119.893199
_cell_angle_gamma 90.000000
_cell_volume 1050.999537
_symmetry_space_group_name_H-M "C 2"
_symmetry_group_IT_number 5
_symmetry_cell_setting 'monoclinic'
loop_
_space_group_symop_operation_xyz
x,y,z
-x,y,-z
1/2+x,1/2+y,z
1/2-x,1/2+y,-z
loop_
_atom_site_type_symbol
_atom_site_label
_atom_site_fract_x
_atom_site_fract_y
_atom_site_fract_z
Si Si1 0.653546 0.876350 0.952999
Si Si2 0.000000 0.732338 0.000000
Si Si3 0.607980 0.409247 0.301096
Si Si4 0.128313 0.396140 0.327146
Si Si5 0.277579 0.682407 0.161833
Si Si6 0.000000 0.562045 0.500000
Si Si7 0.500000 0.559348 0.500000
Si Si8 0.246929 0.070834 0.165168
O O1 0.507897 0.836084 0.798616
O O2 0.736089 0.804918 0.887134
O O3 0.681013 0.989556 0.901754
O O4 0.672944 0.894137 0.164605
O O5 0.975172 0.813210 0.830062
O O6 0.873137 0.658336 0.909995
O O7 0.742160 0.363703 0.479534
O O8 0.529184 0.479603 0.373170
O O9 0.654078 0.499865 0.207175
O O10 0.071318 0.490477 0.406898
O O11 0.376325 0.633351 0.365999
O O12 0.324433 0.646711 0.012516
O O13 0.127609 0.624532 0.655279
#
# Coordination Sequence:
#
# PCOD9125680 Si02
#       8
#     4   2   4   4   4   2   2   4
#     4  10  21  42  71 105 143 196 243 308 370 443
#     4  12  28  48  76 108 158 192 250 310 376 440
#     4  11  24  48  76 104 145 207 241 309 378 444
#     4   9  20  37  72 101 137 188 248 288 370 437
#     4  12  28  46  73 111 148 195 253 311 368 452
#     4   8  18  37  67 104 138 192 236 303 359 446
#     4  12  30  47  79 110 152 190 264 305 381 446
#     4  10  21  44  71 101 150 192 244 304 377 435
#
# _framework density 24.738356
#
# number of rings (size 3 to 8) (size 9 to 14) (size 15 to 20)
#    0.000    1.538    1.538    1.846    4.308    9.231 
#    2.769    0.000    0.000    0.000    0.000    0.000 
#    0.000    0.000    0.000    0.000    0.000    0.000 
#
# Total GULP energy -72380.900936 kJ/mol
# GULP energy per Si atom -5567.761610 kJ/mol
# Density = 2.468205 g / cm^3
# Si number density = 24.738356 Si / 1000 Ang^3
#
#
#
# Elastic Constant Matrix: (Units=GPa)
#
#
# Indices 1 2 3 4 5 6 
#
# 1 101.3878 14.8479 36.7819 0.0000 8.8453 0.0000
# 2 14.8479 64.6457 23.5577 0.0000 4.4182 0.0000
# 3 36.7819 23.5577 104.9903 0.0000 26.0634 0.0000
# 4 0.0000 0.0000 0.0000 22.6320 0.0000 -0.2375
# 5 8.8453 4.4182 26.0634 0.0000 41.7639 0.0000
# 6 0.0000 0.0000 0.0000 -0.2375 0.0000 18.6466
#
#
#
# Elastic Compliance Matrix: (Units=1/GPa)
#
#
# Indices 1 2 3 4 5 6 
#
# 1 0.011394 -0.001265 -0.003718 0.000000 0.000041 0.000000
# 2 -0.001265 0.017003 -0.003541 0.000000 0.000679 0.000000
# 3 -0.003718 -0.003541 0.013411 0.000000 -0.007207 0.000000
# 4 0.000000 0.000000 0.000000 0.044191 0.000000 0.000563
# 5 0.000041 0.000679 -0.007207 0.000000 0.028361 0.000000
# 6 0.000000 0.000000 0.000000 0.000563 0.000000 0.053636
#
#
# Mechanical properties :
#
#
# Convention : Reuss Voigt Hill
#
# Bulk Modulus (GPa) = 40.38604 46.82209 43.60407
# Shear Modulus (GPa) = 25.86697 29.66426 27.76562
#
# Velocity S-wave (km/s) = 3.23712 3.46659 3.35382
# Velocity P-wave (km/s) = 5.50750 5.91532 5.71505
#
# Compressibility (1/GPa) = 0.02476103
#
# Stress axis : x y z
#
# Youngs Moduli (GPa) = 87.76865 58.81222 74.56664
#
# Poissons Ratio (x) = 0.07439 0.27724
# Poissons Ratio (y) = 0.11101 0.26401
# Poissons Ratio (z) = 0.32632 0.20823
#
# Static dielectric constant tensor:
#      x y z
#    x 2.083680 0.000000 0.038240 
#    y 0.000000 2.028890 0.000000 
#    z 0.038240 0.000000 2.182790 
# 
# From -- ./inp_files/20506.got.cif
#   From: 2010.05.17/outbox.cif.g08.bks.cpg/sg5_11_cif.got.tgz:20506.got - 2010.06.03 18:56:24.
