data_PCOD9125468
_publ_section_title
;
Structure prediction by ZEFSAII (Michael W. Deem and Ramdas Pophale) SiO2 
 PCOD9125468
Probable space group: C 2
;
_chemical_formula_sum "Si O2"
_cell_formula_units_Z 28
_cell_length_a 5.091038
_cell_length_b 30.813042
_cell_length_c 9.743379
_cell_angle_alpha 90.000000
_cell_angle_beta 60.781812
_cell_angle_gamma 90.000000
_cell_volume 1333.978748
_symmetry_space_group_name_H-M "C 2"
_symmetry_group_IT_number 5
_symmetry_cell_setting 'monoclinic'
loop_
_space_group_symop_operation_xyz
x,y,z
-x,y,-z
1/2+x,1/2+y,z
1/2-x,1/2+y,-z
loop_
_atom_site_type_symbol
_atom_site_label
_atom_site_fract_x
_atom_site_fract_y
_atom_site_fract_z
Si Si1 0.000000 0.650430 0.500000
Si Si2 0.819422 0.624102 0.837529
Si Si3 0.644267 0.218530 0.103525
Si Si4 0.000000 0.212659 0.500000
Si Si5 0.861702 0.528554 0.893157
Si Si6 0.856631 0.365058 0.385830
Si Si7 0.206574 0.273483 0.670753
Si Si8 0.141697 0.461012 0.613605
O O1 0.174555 0.625957 0.331443
O O2 0.235687 0.681309 0.517221
O O3 0.977348 0.669304 0.842617
O O4 0.965169 0.578378 0.840825
O O5 0.500000 0.622716 0.000000
O O6 0.665389 0.250766 0.226928
O O7 0.500000 0.235861 0.000000
O O8 0.000000 0.210634 0.000000
O O9 0.977391 0.243582 0.640687
O O10 0.992377 0.498023 0.742404
O O11 0.500000 0.527164 0.000000
O O12 0.000000 0.513307 0.000000
O O13 0.500000 0.367566 0.500000
O O14 0.921077 0.321978 0.281054
O O15 0.936116 0.412651 0.309549
O O16 0.000000 0.358620 0.500000
O O17 0.500000 0.277154 0.500000
O O18 0.500000 0.466143 0.500000
O O19 0.000000 0.462426 0.500000
#
# Coordination Sequence:
#
# PCOD9125468 Si02
#       8
#     2   4   4   2   4   4   4   4
#     4  12  26  40  66  97 132 173 230 268 326 396
#     4  10  24  44  65  94 134 177 216 275 327 394
#     4  11  25  39  59  86 128 173 207 261 323 379
#     4  12  22  38  62  99 124 171 224 274 318 382
#     4  11  24  43  68  95 128 173 219 264 337 399
#     4   9  19  34  61  95 124 160 208 265 329 385
#     4  11  22  38  66  90 126 167 220 267 317 389
#     4  10  21  41  67  98 130 164 214 274 332 395
#
# _framework density 20.989840000000001
#
# number of rings (size 3 to 8) (size 9 to 14) (size 15 to 20)
#    0.000    1.429    2.857    1.286    5.000    2.286 
#    1.286    0.714    0.000    1.714    0.000    0.000 
#    0.000    0.000    0.000    0.000    0.000    0.000 
#
# Total GULP energy -78063.962246 kJ/mol
# GULP energy per Si atom -5575.997303 kJ/mol
# Density = 2.094207 g / cm^3
# Si number density = 20.989840 Si / 1000 Ang^3
#
#
#
# Elastic Constant Matrix: (Units=GPa)
#
#
# Indices 1 2 3 4 5 6 
#
# 1 128.8604 23.0448 24.2041 0.0000 25.3431 0.0000
# 2 23.0448 151.5349 60.9442 0.0000 10.6737 0.0000
# 3 24.2041 60.9442 116.0063 0.0000 15.5845 0.0000
# 4 0.0000 0.0000 0.0000 22.7080 0.0000 -1.0259
# 5 25.3431 10.6737 15.5845 0.0000 32.6265 0.0000
# 6 0.0000 0.0000 0.0000 -1.0259 0.0000 15.8888
#
#
#
# Elastic Compliance Matrix: (Units=1/GPa)
#
#
# Indices 1 2 3 4 5 6 
#
# 1 0.009327 -0.000667 -0.000696 0.000000 -0.006694 0.000000
# 2 -0.000667 0.008429 -0.004262 0.000000 -0.000204 0.000000
# 3 -0.000696 -0.004262 0.011481 0.000000 -0.003549 0.000000
# 4 0.000000 0.000000 0.000000 0.044166 0.000000 0.002852
# 5 -0.006694 -0.000204 -0.003549 0.000000 0.037612 0.000000
# 6 0.000000 0.000000 0.000000 0.002852 0.000000 0.063122
#
#
# Mechanical properties :
#
#
# Convention : Reuss Voigt Hill
#
# Bulk Modulus (GPa) = 55.59485 68.08753 61.84119
# Shear Modulus (GPa) = 26.12579 33.45854 29.79217
#
# Velocity S-wave (km/s) = 3.53184 3.99687 3.77153
# Velocity P-wave (km/s) = 6.57084 7.33544 6.96364
#
# Compressibility (1/GPa) = 0.01798728
#
# Stress axis : x y z
#
# Youngs Moduli (GPa) = 107.21656 118.64041 87.09936
#
# Poissons Ratio (x) = 0.07911 0.06066
# Poissons Ratio (y) = 0.07149 0.37118
# Poissons Ratio (z) = 0.07467 0.50560
#
# Static dielectric constant tensor:
#      x y z
#    x 1.793270 0.000000 -0.058130 
#    y 0.000000 1.812440 0.000000 
#    z -0.058130 0.000000 1.787550 
# 
# From -- ./inp_files/13202.got.cif
#   From: 2010.05.17/outbox.cif.g08.bks.cpg/sg5_7_cif.got.tgz:13202.got - 2010.06.03 18:56:24.
