data_PCOD9125411
_publ_section_title
;
Structure prediction by ZEFSAII (Michael W. Deem and Ramdas Pophale) SiO2 
 PCOD9125411
Probable space group: C 2
;
_chemical_formula_sum "Si O2"
_cell_formula_units_Z 30
_cell_length_a 12.237197
_cell_length_b 8.564667
_cell_length_c 14.541290
_cell_angle_alpha 90.000000
_cell_angle_beta 62.749548
_cell_angle_gamma 90.000000
_cell_volume 1354.889071
_symmetry_space_group_name_H-M "C 2"
_symmetry_group_IT_number 5
_symmetry_cell_setting 'monoclinic'
loop_
_space_group_symop_operation_xyz
x,y,z
-x,y,-z
1/2+x,1/2+y,z
1/2-x,1/2+y,-z
loop_
_atom_site_type_symbol
_atom_site_label
_atom_site_fract_x
_atom_site_fract_y
_atom_site_fract_z
Si Si1 0.562993 0.738420 0.565936
Si Si2 0.921674 0.139584 0.937601
Si Si3 0.500000 0.212200 0.000000
Si Si4 0.767914 0.971931 0.495754
Si Si5 0.904135 0.912877 0.209862
Si Si6 0.378952 0.981896 0.711260
Si Si7 0.420063 0.209991 0.384795
Si Si8 0.665064 0.989803 0.060890
O O1 0.500000 0.666738 0.500000
O O2 0.657008 0.873008 0.492444
O O3 0.645914 0.605873 0.581208
O O4 0.460608 0.826151 0.664691
O O5 0.867894 0.309409 0.939407
O O6 0.011967 0.066645 0.827648
O O7 0.000000 0.150924 0.000000
O O8 0.808922 0.021417 0.993826
O O9 0.563742 0.315964 0.895763
O O10 0.404360 0.099631 0.984726
O O11 0.862109 0.831366 0.480417
O O12 0.684407 0.076978 0.595911
O O13 0.760461 0.955484 0.264921
O O14 0.934876 0.809642 0.286668
O O15 0.374120 0.028006 0.820264
O O16 0.456777 0.120772 0.634395
#
# Coordination Sequence:
#
# PCOD9125411 Si02
#       8
#     4   4   2   4   4   4   4   4
#     4  10  21  41  65  92 128 173 213 281 340 403
#     4  12  25  44  68  96 140 186 230 280 341 404
#     4  12  24  46  72 100 152 184 226 288 348 402
#     4   9  20  42  64  92 128 170 218 276 338 396
#     4  12  23  43  68 103 136 187 220 282 341 410
#     4  11  22  39  68  97 131 172 231 272 338 409
#     4  10  22  40  69  95 135 173 227 281 340 410
#     4  12  25  45  68 101 139 186 233 286 341 412
#
# _framework density 22.142033999999999
#
# number of rings (size 3 to 8) (size 9 to 14) (size 15 to 20)
#    0.000    1.067    4.000    3.200    1.867    0.000 
#    0.000    8.667    0.000    0.000    0.000    0.000 
#    0.000    0.000    0.000    0.000    0.000    0.000 
#
# Total GULP energy -83722.055893 kJ/mol
# GULP energy per Si atom -5581.470393 kJ/mol
# Density = 2.209164 g / cm^3
# Si number density = 22.142034 Si / 1000 Ang^3
#
#
#
# Elastic Constant Matrix: (Units=GPa)
#
#
# Indices 1 2 3 4 5 6 
#
# 1 124.0879 66.0020 32.4064 0.0000 -37.7794 0.0000
# 2 66.0020 142.9187 30.6803 0.0000 -27.4049 0.0000
# 3 32.4064 30.6803 66.2653 0.0000 -22.9552 0.0000
# 4 0.0000 0.0000 0.0000 32.3596 0.0000 -11.2158
# 5 -37.7794 -27.4049 -22.9552 0.0000 43.0427 0.0000
# 6 0.0000 0.0000 0.0000 -11.2158 0.0000 46.0861
#
#
#
# Elastic Compliance Matrix: (Units=1/GPa)
#
#
# Indices 1 2 3 4 5 6 
#
# 1 0.013159 -0.004176 -0.001744 0.000000 0.007961 0.000000
# 2 -0.004176 0.009611 -0.001910 0.000000 0.001435 0.000000
# 3 -0.001744 -0.001910 0.019474 0.000000 0.007639 0.000000
# 4 0.000000 0.000000 0.000000 0.033750 0.000000 0.008214
# 5 0.007961 0.001435 0.007639 0.000000 0.035208 0.000000
# 6 0.000000 0.000000 0.000000 0.008214 0.000000 0.023697
#
#
# Mechanical properties :
#
#
# Convention : Reuss Voigt Hill
#
# Bulk Modulus (GPa) = 37.61757 65.71661 51.66709
# Shear Modulus (GPa) = 31.36331 37.90991 34.63661
#
# Velocity S-wave (km/s) = 3.76767 4.14227 3.95940
# Velocity P-wave (km/s) = 5.99610 7.25409 6.65489
#
# Compressibility (1/GPa) = 0.02658333
#
# Stress axis : x y z
#
# Youngs Moduli (GPa) = 75.99102 104.04892 51.34935
#
# Poissons Ratio (x) = 0.43454 0.08956
# Poissons Ratio (y) = 0.31736 0.09810
# Poissons Ratio (z) = 0.13253 0.19877
#
# Static dielectric constant tensor:
#      x y z
#    x 1.807700 0.000000 -0.009710 
#    y 0.000000 1.822280 0.000000 
#    z -0.009710 0.000000 1.831340 
# 
# From -- ./inp_files/52421.got.cif
#   From: 2010.05.17/outbox.cif.g08.bks.cpg/sg5_27_cif.got.tgz:52421.got - 2010.06.03 18:56:24.
