data_PCOD9125206
_publ_section_title
;
Structure prediction by ZEFSAII (Michael W. Deem and Ramdas Pophale) SiO2 
 PCOD9125206
Probable space group: C 2
;
_chemical_formula_sum "Si O2"
_cell_formula_units_Z 26
_cell_length_a 13.406270
_cell_length_b 13.962183
_cell_length_c 11.307520
_cell_angle_alpha 90.000000
_cell_angle_beta 38.093337
_cell_angle_gamma 90.000000
_cell_volume 1305.793940
_symmetry_space_group_name_H-M "C 2"
_symmetry_group_IT_number 5
_symmetry_cell_setting 'monoclinic'
loop_
_space_group_symop_operation_xyz
x,y,z
-x,y,-z
1/2+x,1/2+y,z
1/2-x,1/2+y,-z
loop_
_atom_site_type_symbol
_atom_site_label
_atom_site_fract_x
_atom_site_fract_y
_atom_site_fract_z
Si Si1 0.500000 0.441310 0.000000
Si Si2 0.000000 0.318243 0.000000
Si Si3 0.337294 0.261361 0.268171
Si Si4 0.203115 0.710646 0.947639
Si Si5 0.000000 0.716822 0.500000
Si Si6 0.921623 0.047046 0.850977
Si Si7 0.303221 0.360945 0.851252
Si Si8 0.800572 0.186783 0.367160
O O1 0.608407 0.368784 0.819892
O O2 0.399988 0.507823 0.004426
O O3 0.138947 0.378767 0.933450
O O4 0.085540 0.249118 0.824996
O O5 0.249259 0.219532 0.234362
O O6 0.243153 0.249507 0.477150
O O7 0.507913 0.205694 0.127501
O O8 0.291813 0.625836 0.932565
O O9 0.238776 0.807883 0.986622
O O10 0.907515 0.785343 0.679043
O O11 0.861690 0.662827 0.555111
O O12 0.097078 0.095794 0.686778
O O13 0.901593 0.956230 0.785186
#
# Coordination Sequence:
#
# PCOD9125206 Si02
#       8
#     2   2   4   4   2   4   4   4
#     4  10  21  40  67  96 128 178 225 272 321 406
#     4  10  23  40  65  96 134 170 225 266 347 384
#     4  10  21  44  65  87 139 187 213 267 354 389
#     4  10  21  40  64  92 132 176 214 280 333 392
#     4  10  22  40  68  86 136 172 218 272 348 378
#     4  12  23  37  69  99 130 173 233 268 334 396
#     4  11  21  43  63  96 130 177 211 286 331 393
#     4  11  22  38  69  99 129 180 223 274 331 407
#
# _framework density 19.911258
#
# number of rings (size 3 to 8) (size 9 to 14) (size 15 to 20)
#    0.000    1.538    6.154    0.462    2.154    3.077 
#    0.000    3.077    0.000    5.538    0.000    0.000 
#    0.000    0.000    0.000    0.000    0.000    0.000 
#
# Total GULP energy -72562.536892 kJ/mol
# GULP energy per Si atom -5581.733607 kJ/mol
# Density = 1.986594 g / cm^3
# Si number density = 19.911258 Si / 1000 Ang^3
#
#
#
# Elastic Constant Matrix: (Units=GPa)
#
#
# Indices 1 2 3 4 5 6 
#
# 1 177.8953 69.9652 50.2160 0.0002 -8.6714 -0.0001
# 2 69.9652 88.6044 17.2250 0.0002 -6.5672 -0.0001
# 3 50.2160 17.2250 89.6113 0.0002 18.8069 -0.0002
# 4 0.0002 0.0002 0.0002 14.9632 -0.0002 -1.1727
# 5 -8.6714 -6.5672 18.8069 -0.0002 38.5080 0.0001
# 6 -0.0001 -0.0001 -0.0002 -1.1727 0.0001 32.9406
#
#
#
# Elastic Compliance Matrix: (Units=1/GPa)
#
#
# Indices 1 2 3 4 5 6 
#
# 1 0.009729 -0.006462 -0.004946 0.000000 0.003504 0.000000
# 2 -0.006462 0.016443 0.000197 0.000000 0.001253 0.000000
# 3 -0.004946 0.000197 0.015732 0.000000 -0.008763 0.000000
# 4 0.000000 0.000000 0.000000 0.067017 0.000000 0.002386
# 5 0.003504 0.001253 -0.008763 0.000000 0.031251 0.000000
# 6 0.000000 0.000000 0.000000 0.002386 0.000000 0.030443
#
#
# Mechanical properties :
#
#
# Convention : Reuss Voigt Hill
#
# Bulk Modulus (GPa) = 51.32234 70.10258 60.71246
# Shear Modulus (GPa) = 25.05891 31.86271 28.46081
#
# Velocity S-wave (km/s) = 3.55142 4.00463 3.78482
# Velocity P-wave (km/s) = 6.53057 7.52773 7.04681
#
# Compressibility (1/GPa) = 0.01948469
#
# Stress axis : x y z
#
# Youngs Moduli (GPa) = 102.78137 60.81673 63.56505
#
# Poissons Ratio (x) = 0.39297 0.31436
# Poissons Ratio (y) = 0.66412 -0.01254
# Poissons Ratio (z) = 0.50831 -0.01200
#
# Static dielectric constant tensor:
#      x y z
#    x 1.756620 0.000000 0.009370 
#    y 0.000000 1.687880 0.000000 
#    z 0.009370 0.000000 1.717430 
# 
# From -- ./inp_files/43047.got.cif
#   From: 2010.05.17/outbox.cif.g08.bks.cpg/sg5_22_cif.got.tgz:43047.got - 2010.06.03 18:56:24.
