data_PCOD9125508
_publ_section_title
;
Structure prediction by ZEFSAII (Michael W. Deem and Ramdas Pophale) SiO2 
 PCOD9125508
Probable space group: C 2
;
_chemical_formula_sum "Si O2"
_cell_formula_units_Z 22
_cell_length_a 17.099977
_cell_length_b 7.883386
_cell_length_c 13.494614
_cell_angle_alpha 90.000000
_cell_angle_beta 151.019834
_cell_angle_gamma 90.000000
_cell_volume 881.391147
_symmetry_space_group_name_H-M "C 2"
_symmetry_group_IT_number 5
_symmetry_cell_setting 'monoclinic'
loop_
_space_group_symop_operation_xyz
x,y,z
-x,y,-z
1/2+x,1/2+y,z
1/2-x,1/2+y,-z
loop_
_atom_site_type_symbol
_atom_site_label
_atom_site_fract_x
_atom_site_fract_y
_atom_site_fract_z
Si Si1 0.376375 0.173810 0.651101
Si Si2 0.082648 0.377485 0.805410
Si Si3 0.623615 0.285003 0.558784
Si Si4 0.308694 0.087506 0.784437
Si Si5 0.448913 0.487948 0.204502
Si Si6 0.000000 0.290775 0.500000
O O1 0.313526 0.185630 0.468334
O O2 0.269392 0.119295 0.623882
O O3 0.442777 0.363784 0.743473
O O4 0.511336 0.028051 0.792849
O O5 0.055187 0.188227 0.816212
O O6 0.000767 0.382134 0.606606
O O7 0.268940 0.417581 0.996949
O O8 0.500000 0.203884 0.500000
O O9 0.771252 0.390916 0.767175
O O10 0.507369 0.428071 0.378687
O O11 0.174279 0.193319 0.694464
O O12 0.500000 0.127673 0.000000
#
# Coordination Sequence:
#
# PCOD9125508 Si02
#       6
#     4   4   4   4   4   2
#     4  10  26  40  71 105 143 188 246 303 364 429
#     4  12  22  43  75 107 143 197 240 303 373 430
#     4  10  22  44  70 104 149 184 246 302 359 441
#     4  12  25  46  75 107 147 198 247 303 375 440
#     4  10  21  41  70 107 147 188 243 297 367 438
#     4  12  26  46  70 112 148 188 252 306 366 446
#
# _framework density 24.960542
#
# number of rings (size 3 to 8) (size 9 to 14) (size 15 to 20)
#    1.091    0.000    4.545    1.091    6.364    0.000 
#    0.000    0.000    0.000    2.182    0.000    0.000 
#    0.000    0.000    0.000    0.000    0.000    0.000 
#
# Total GULP energy -61376.031962 kJ/mol
# GULP energy per Si atom -5579.639269 kJ/mol
# Density = 2.490373 g / cm^3
# Si number density = 24.960542 Si / 1000 Ang^3
#
#
#
# Elastic Constant Matrix: (Units=GPa)
#
#
# Indices 1 2 3 4 5 6 
#
# 1 126.2455 29.4494 3.2176 0.0000 14.0841 0.0000
# 2 29.4494 135.5037 17.6435 0.0000 0.6325 0.0000
# 3 3.2176 17.6435 96.3231 0.0000 14.7029 0.0000
# 4 0.0000 0.0000 0.0000 29.6747 0.0000 -3.2004
# 5 14.0841 0.6325 14.7029 0.0000 25.7829 0.0000
# 6 0.0000 0.0000 0.0000 -3.2004 0.0000 36.9200
#
#
#
# Elastic Compliance Matrix: (Units=1/GPa)
#
#
# Indices 1 2 3 4 5 6 
#
# 1 0.008972 -0.002041 0.000892 0.000000 -0.005360 0.000000
# 2 -0.002041 0.008035 -0.001691 0.000000 0.001882 0.000000
# 3 0.000892 -0.001691 0.011753 0.000000 -0.007148 0.000000
# 4 0.000000 0.000000 0.000000 0.034017 0.000000 0.002949
# 5 -0.005360 0.001882 -0.007148 0.000000 0.045743 0.000000
# 6 0.000000 0.000000 0.000000 0.002949 0.000000 0.027341
#
#
# Mechanical properties :
#
#
# Convention : Reuss Voigt Hill
#
# Bulk Modulus (GPa) = 43.32638 50.96593 47.14616
# Shear Modulus (GPa) = 33.50435 38.99296 36.24866
#
# Velocity S-wave (km/s) = 3.66771 3.95674 3.81496
# Velocity P-wave (km/s) = 5.94405 6.42941 6.19149
#
# Compressibility (1/GPa) = 0.02308063
#
# Stress axis : x y z
#
# Youngs Moduli (GPa) = 111.45222 124.45762 85.08674
#
# Poissons Ratio (x) = 0.25404 -0.07592
# Poissons Ratio (y) = 0.22749 0.14387
# Poissons Ratio (z) = -0.09945 0.21044
#
# Static dielectric constant tensor:
#      x y z
#    x 1.930460 0.000000 -0.069750 
#    y 0.000000 2.006630 0.000000 
#    z -0.069750 0.000000 2.056060 
# 
# From -- ./inp_files/55804.got.cif
#   From: 2010.05.17/outbox.cif.g08.bks.cpg/sg5_28_cif.got.tgz:55804.got - 2010.06.03 18:56:24.
