data_PCOD9125819
_publ_section_title
;
Structure prediction by ZEFSAII (Michael W. Deem and Ramdas Pophale) SiO2 
 PCOD9125819
Probable space group: C 2
;
_chemical_formula_sum "Si O2"
_cell_formula_units_Z 22
_cell_length_a 6.022213
_cell_length_b 23.328659
_cell_length_c 7.792148
_cell_angle_alpha 90.000000
_cell_angle_beta 116.791404
_cell_angle_gamma 90.000000
_cell_volume 977.205649
_symmetry_space_group_name_H-M "C 2"
_symmetry_group_IT_number 5
_symmetry_cell_setting 'monoclinic'
loop_
_space_group_symop_operation_xyz
x,y,z
-x,y,-z
1/2+x,1/2+y,z
1/2-x,1/2+y,-z
loop_
_atom_site_type_symbol
_atom_site_label
_atom_site_fract_x
_atom_site_fract_y
_atom_site_fract_z
Si Si1 0.539337 0.208340 0.813292
Si Si2 0.745317 0.313294 0.700518
Si Si3 0.000000 0.241908 0.500000
Si Si4 0.000000 0.129458 0.000000
Si Si5 0.989343 0.051626 0.693679
Si Si6 0.323445 0.944825 0.784796
Si Si7 0.000000 0.499835 0.500000
O O1 0.662775 0.270211 0.820404
O O2 0.264368 0.208491 0.625679
O O3 0.500000 0.200064 0.000000
O O4 0.766586 0.165697 0.843978
O O5 0.500000 0.319376 0.500000
O O6 0.799290 0.376756 0.783378
O O7 0.948155 0.282318 0.648473
O O8 0.896350 0.091498 0.121856
O O9 0.000000 0.072473 0.500000
O O10 0.705861 0.042519 0.643621
O O11 0.089621 0.986447 0.728176
O O12 0.418963 0.960974 0.629778
O O13 0.500000 0.963128 0.000000
#
# Coordination Sequence:
#
# PCOD9125819 Si02
#       7
#     4   4   2   2   4   4   2
#     4  11  26  47  70 102 149 189 243 300 357 434
#     4  10  22  44  68 105 142 183 234 292 363 432
#     4  10  23  46  72 102 152 188 239 294 370 426
#     4  12  26  50  72 104 148 188 254 298 354 434
#     4  10  24  47  70 103 137 186 241 296 361 424
#     4  11  23  39  73 104 141 181 230 293 363 430
#     4  10  21  44  66 102 140 180 233 290 362 426
#
# _framework density 22.513173999999999
#
# number of rings (size 3 to 8) (size 9 to 14) (size 15 to 20)
#    0.000    1.455    0.000    4.364    3.818    5.091 
#   22.909    0.000    0.000    0.000    0.000    0.000 
#    0.000    0.000    0.000    0.000    0.000    0.000 
#
# Total GULP energy -61401.146780 kJ/mol
# GULP energy per Si atom -5581.922435 kJ/mol
# Density = 2.246193 g / cm^3
# Si number density = 22.513174 Si / 1000 Ang^3
#
#
#
# Elastic Constant Matrix: (Units=GPa)
#
#
# Indices 1 2 3 4 5 6 
#
# 1 80.1186 38.3611 16.5972 0.0000 18.4908 0.0000
# 2 38.3611 113.0806 40.7318 0.0000 9.5368 0.0000
# 3 16.5972 40.7318 92.2224 0.0000 11.9103 0.0000
# 4 0.0000 0.0000 0.0000 40.3266 0.0000 8.3636
# 5 18.4908 9.5368 11.9103 0.0000 31.3674 0.0000
# 6 0.0000 0.0000 0.0000 8.3636 0.0000 3.0498
#
#
#
# Elastic Compliance Matrix: (Units=1/GPa)
#
#
# Indices 1 2 3 4 5 6 
#
# 1 0.016817 -0.005106 0.000324 0.000000 -0.008484 0.000000
# 2 -0.005106 0.012135 -0.004577 0.000000 0.001059 0.000000
# 3 0.000324 -0.004577 0.013304 0.000000 -0.003851 0.000000
# 4 0.000000 0.000000 0.000000 0.057503 0.000000 -0.157696
# 5 -0.008484 0.001059 -0.003851 0.000000 0.038022 0.000000
# 6 0.000000 0.000000 0.000000 -0.157696 0.000000 0.760355
#
#
# Mechanical properties :
#
#
# Convention : Reuss Voigt Hill
#
# Bulk Modulus (GPa) = 42.48501 52.97800 47.73151
# Shear Modulus (GPa) = 5.40715 27.59751 16.50233
#
# Velocity S-wave (km/s) = 1.55145 3.50500 2.71035
# Velocity P-wave (km/s) = 4.70335 6.32164 5.57156
#
# Compressibility (1/GPa) = 0.02353771
#
# Stress axis : x y z
#
# Youngs Moduli (GPa) = 59.46229 82.40609 75.16527
#
# Poissons Ratio (x) = 0.42080 -0.02439
# Poissons Ratio (y) = 0.30364 0.34406
# Poissons Ratio (z) = -0.01929 0.37721
#
# Static dielectric constant tensor:
#      x y z
#    x 1.958280 0.000000 0.117380 
#    y 0.000000 1.847630 0.000000 
#    z 0.117380 0.000000 1.916690 
# 
# From -- ./inp_files/12593.got.cif
#   From: 2010.05.17/outbox.cif.g08.bks.cpg/sg5_7_cif.got.tgz:12593.got - 2010.06.03 18:56:24.
