data_PCOD9125747
_publ_section_title
;
Structure prediction by ZEFSAII (Michael W. Deem and Ramdas Pophale) SiO2 
 PCOD9125747
Probable space group: C 2
;
_chemical_formula_sum "Si O2"
_cell_formula_units_Z 20
_cell_length_a 13.956934
_cell_length_b 4.894643
_cell_length_c 19.125179
_cell_angle_alpha 90.000000
_cell_angle_beta 34.224710
_cell_angle_gamma 90.000000
_cell_volume 734.839970
_symmetry_space_group_name_H-M "C 2"
_symmetry_group_IT_number 5
_symmetry_cell_setting 'monoclinic'
loop_
_space_group_symop_operation_xyz
x,y,z
-x,y,-z
1/2+x,1/2+y,z
1/2-x,1/2+y,-z
loop_
_atom_site_type_symbol
_atom_site_label
_atom_site_fract_x
_atom_site_fract_y
_atom_site_fract_z
Si Si1 0.756769 0.309410 0.038125
Si Si2 0.420556 0.543587 0.114993
Si Si3 0.376777 0.352556 0.634196
Si Si4 0.351629 0.612313 0.426548
Si Si5 0.593687 0.225666 0.734622
O O1 0.600007 0.156251 0.171141
O O2 0.721531 0.623362 0.044334
O O3 0.936680 0.279902 0.966377
O O4 0.443509 0.351600 0.167225
O O5 0.235001 0.667752 0.245467
O O6 0.500000 0.393318 0.000000
O O7 0.500000 0.217448 0.500000
O O8 0.493902 0.540814 0.614455
O O9 0.243981 0.521794 0.666007
O O10 0.189503 0.433219 0.553359
O O11 0.362090 0.470025 0.344939
#
# Coordination Sequence:
#
# PCOD9125747 Si02
#       5
#     4   4   4   4   4
#     4  10  21  43  68 100 146 194 249 317 386 457
#     4  11  25  46  74 112 153 210 268 334 402 484
#     4  12  25  48  80 116 158 210 266 338 407 493
#     4  12  28  49  77 114 163 215 267 335 410 484
#     4  11  25  47  74 114 157 211 270 332 404 491
#
# _framework density 27.216809000000001
#
# number of rings (size 3 to 8) (size 9 to 14) (size 15 to 20)
#    0.000    0.800    4.000    2.400    2.800    1.600 
#   14.400    0.000    0.000    0.000    0.000    0.000 
#    0.000    0.000    0.000    0.000    0.000    0.000 
#
# Total GULP energy -55775.004192 kJ/mol
# GULP energy per Si atom -5577.500419 kJ/mol
# Density = 2.715486 g / cm^3
# Si number density = 27.216809 Si / 1000 Ang^3
#
#
#
# Elastic Constant Matrix: (Units=GPa)
#
#
# Indices 1 2 3 4 5 6 
#
# 1 129.8803 18.6417 51.8779 -0.0247 16.0385 0.0404
# 2 18.6417 78.4027 13.2447 -0.0673 -15.0741 -0.0031
# 3 51.8779 13.2447 181.4780 -0.0042 -2.1108 0.0017
# 4 -0.0247 -0.0673 -0.0042 35.1943 0.0083 -8.1445
# 5 16.0385 -15.0741 -2.1108 0.0083 59.3927 -0.0176
# 6 0.0404 -0.0031 0.0017 -8.1445 -0.0176 23.9348
#
#
#
# Elastic Compliance Matrix: (Units=1/GPa)
#
#
# Indices 1 2 3 4 5 6 
#
# 1 0.009482 -0.002450 -0.002570 -0.000002 -0.003274 -0.000019
# 2 -0.002450 0.014204 -0.000287 0.000029 0.004256 0.000019
# 3 -0.002570 -0.000287 0.006276 -0.000001 0.000844 0.000004
# 4 -0.000002 0.000029 -0.000001 0.030842 0.000007 0.010495
# 5 -0.003274 0.004256 0.000844 0.000007 0.018831 0.000022
# 6 -0.000019 0.000019 0.000004 0.010495 0.000022 0.045351
#
#
# Mechanical properties :
#
#
# Convention : Reuss Voigt Hill
#
# Bulk Modulus (GPa) = 51.68317 61.92106 56.80212
# Shear Modulus (GPa) = 35.19920 44.10415 39.65167
#
# Velocity S-wave (km/s) = 3.60013 4.02988 3.82105
# Velocity P-wave (km/s) = 6.02594 6.66736 6.35475
#
# Compressibility (1/GPa) = 0.01934866
#
# Stress axis : x y z
#
# Youngs Moduli (GPa) = 105.46656 70.40293 159.34575
#
# Poissons Ratio (x) = 0.17247 0.40948
# Poissons Ratio (y) = 0.25836 0.04571
# Poissons Ratio (z) = 0.27102 0.02019
#
# Static dielectric constant tensor:
#      x y z
#    x 2.352910 -0.000010 0.012970 
#    y -0.000010 2.093520 0.000020 
#    z 0.012970 0.000020 2.462500 
# 
# From -- ./inp_files/40947.got.cif
#   From: 2010.05.17/outbox.cif.g08.bks.cpg/sg5_21_cif.got.tgz:40947.got - 2010.06.03 18:56:24.
