data_PCOD9125081
_publ_section_title
;
Structure prediction by ZEFSAII (Michael W. Deem and Ramdas Pophale) SiO2 
 PCOD9125081
Probable space group: C 2
;
_chemical_formula_sum "Si O2"
_cell_formula_units_Z 32
_cell_length_a 10.039167
_cell_length_b 10.618631
_cell_length_c 13.535665
_cell_angle_alpha 90.000000
_cell_angle_beta 86.726837
_cell_angle_gamma 90.000000
_cell_volume 1440.577903
_symmetry_space_group_name_H-M "C 2"
_symmetry_group_IT_number 5
_symmetry_cell_setting 'monoclinic'
loop_
_space_group_symop_operation_xyz
x,y,z
-x,y,-z
1/2+x,1/2+y,z
1/2-x,1/2+y,-z
loop_
_atom_site_type_symbol
_atom_site_label
_atom_site_fract_x
_atom_site_fract_y
_atom_site_fract_z
Si Si1 0.687751 0.576540 0.678094
Si Si2 0.111016 0.241148 0.069321
Si Si3 0.603617 0.238556 0.923446
Si Si4 0.536111 0.787918 0.597818
Si Si5 0.964602 0.976524 0.822491
Si Si6 0.308703 0.054959 0.253977
Si Si7 0.907125 0.431369 0.755628
Si Si8 0.350757 0.049824 0.471704
O O1 0.616450 0.710196 0.674731
O O2 0.572048 0.490062 0.729238
O O3 0.812218 0.550268 0.744285
O O4 0.748322 0.561220 0.565748
O O5 0.259671 0.243346 0.018450
O O6 0.055254 0.106591 0.113069
O O7 0.128529 0.342492 0.154568
O O8 0.000000 0.288300 0.000000
O O9 0.524146 0.363686 0.888017
O O10 0.657569 0.164808 0.825262
O O11 0.500000 0.169301 0.000000
O O12 0.500000 0.712555 0.500000
O O13 0.407376 0.846545 0.656639
O O14 0.624240 0.903262 0.554671
O O15 0.819478 0.974850 0.775746
O O16 0.441673 0.973132 0.242980
O O17 0.301293 0.102577 0.368100
O O18 0.500000 0.096376 0.500000
#
# Coordination Sequence:
#
# PCOD9125081 Si02
#       8
#     4   4   4   4   4   4   4   4
#     4  12  22  37  74  99 132 193 231 281 359 415
#     4  11  25  46  72  99 134 181 234 292 360 425
#     4  11  26  48  70 100 146 182 231 306 356 417
#     4  10  21  39  67  96 141 184 226 287 351 413
#     4  11  25  44  68 104 140 178 239 294 349 431
#     4  10  25  43  67 100 147 178 231 291 353 413
#     4  11  22  45  68  97 134 184 231 283 351 427
#     4  10  21  43  64 101 144 189 237 288 344 425
#
# _framework density 22.213308999999999
#
# number of rings (size 3 to 8) (size 9 to 14) (size 15 to 20)
#    0.000    1.250    6.250    0.375    3.500    4.500 
#    2.250    0.000    0.000    0.000    0.000    0.000 
#    0.000    0.000    0.000    0.000    0.000    0.000 
#
# Total GULP energy -89145.839788 kJ/mol
# GULP energy per Si atom -5571.614987 kJ/mol
# Density = 2.216275 g / cm^3
# Si number density = 22.213309 Si / 1000 Ang^3
#
#
#
# Elastic Constant Matrix: (Units=GPa)
#
#
# Indices 1 2 3 4 5 6 
#
# 1 150.3625 11.9715 37.7769 0.0000 2.4309 0.0000
# 2 11.9715 39.1964 7.2453 0.0000 13.1112 0.0000
# 3 37.7769 7.2453 76.4618 0.0000 4.6256 0.0000
# 4 0.0000 0.0000 0.0000 17.7310 0.0000 20.5164
# 5 2.4309 13.1112 4.6256 0.0000 40.3301 0.0000
# 6 0.0000 0.0000 0.0000 20.5164 0.0000 24.1215
#
#
#
# Elastic Compliance Matrix: (Units=1/GPa)
#
#
# Indices 1 2 3 4 5 6 
#
# 1 0.007711 -0.001865 -0.003667 0.000000 0.000562 0.000000
# 2 -0.001865 0.029437 -0.001305 0.000000 -0.009308 0.000000
# 3 -0.003667 -0.001305 0.015079 0.000000 -0.001084 0.000000
# 4 0.000000 0.000000 0.000000 3.559793 0.000000 -3.027754
# 5 0.000562 -0.009308 -0.001084 0.000000 0.027912 0.000000
# 6 0.000000 0.000000 0.000000 -3.027754 0.000000 2.616689
#
#
# Mechanical properties :
#
#
# Convention : Reuss Voigt Hill
#
# Bulk Modulus (GPa) = 25.93811 42.22311 34.08061
# Shear Modulus (GPa) = 0.79578 30.37166 15.58372
#
# Velocity S-wave (km/s) = 0.59918 3.70168 2.65155
# Velocity P-wave (km/s) = 3.49011 6.10894 4.97494
#
# Compressibility (1/GPa) = 0.03855332
#
# Stress axis : x y z
#
# Youngs Moduli (GPa) = 129.67893 33.97096 66.31544
#
# Poissons Ratio (x) = 0.06337 0.24319
# Poissons Ratio (y) = 0.24191 0.08652
# Poissons Ratio (z) = 0.47555 0.04432
#
# Static dielectric constant tensor:
#      x y z
#    x 1.877820 0.000000 0.007280 
#    y 0.000000 1.851650 0.000000 
#    z 0.007280 0.000000 1.880800 
# 
# From -- ./inp_files/50502.got.cif
#   From: 2010.05.17/outbox.cif.g08.bks.cpg/sg5_26_cif.got.tgz:50502.got - 2010.06.03 18:56:24.
