data_PCOD9125628
_publ_section_title
;
Structure prediction by ZEFSAII (Michael W. Deem and Ramdas Pophale) SiO2 
 PCOD9125628
Probable space group: C 2
;
_chemical_formula_sum "Si O2"
_cell_formula_units_Z 28
_cell_length_a 22.467862
_cell_length_b 8.983064
_cell_length_c 9.235618
_cell_angle_alpha 90.000000
_cell_angle_beta 137.496218
_cell_angle_gamma 90.000000
_cell_volume 1259.409113
_symmetry_space_group_name_H-M "C 2"
_symmetry_group_IT_number 5
_symmetry_cell_setting 'monoclinic'
loop_
_space_group_symop_operation_xyz
x,y,z
-x,y,-z
1/2+x,1/2+y,z
1/2-x,1/2+y,-z
loop_
_atom_site_type_symbol
_atom_site_label
_atom_site_fract_x
_atom_site_fract_y
_atom_site_fract_z
Si Si1 0.000000 0.079751 0.500000
Si Si2 0.000000 0.461992 0.500000
Si Si3 0.304221 0.581727 0.767274
Si Si4 0.388156 0.406819 0.507576
Si Si5 0.831616 0.761795 0.672223
Si Si6 0.709318 0.050260 0.162395
Si Si7 0.089670 0.272771 0.865046
Si Si8 0.178199 0.649004 0.803133
O O1 0.915526 0.173297 0.291154
O O2 0.970631 0.988190 0.587083
O O3 0.006369 0.371977 0.665014
O O4 0.088268 0.555813 0.648407
O O5 0.250684 0.694086 0.566432
O O6 0.311552 0.416681 0.717465
O O7 0.247335 0.580488 0.813852
O O8 0.396604 0.659387 0.978217
O O9 0.401783 0.304414 0.673003
O O10 0.306973 0.516941 0.396578
O O11 0.350526 0.307068 0.310022
O O12 0.848668 0.634430 0.821233
O O13 0.714686 0.151395 0.029946
O O14 0.664685 0.895292 0.031223
#
# Coordination Sequence:
#
# PCOD9125628 Si02
#       8
#     2   2   4   4   4   4   4   4
#     4  11  25  40  72 103 148 167 230 285 350 409
#     4   9  21  40  62  99 136 165 218 277 346 397
#     4  11  21  41  67  98 129 172 236 275 337 397
#     4  11  23  42  67 105 137 180 221 290 348 399
#     4  11  23  41  68  99 140 174 232 287 333 399
#     4  11  22  40  71 102 131 178 240 279 330 405
#     4  10  21  42  67  98 131 177 222 281 332 402
#     4  10  22  37  68  98 132 173 225 286 337 399
#
# _framework density 22.232645999999999
#
# number of rings (size 3 to 8) (size 9 to 14) (size 15 to 20)
#    0.000    1.429    4.286    1.286    4.000    2.286 
#    0.000    0.714   12.571    0.000    0.000    0.000 
#    0.000    0.000    0.000    0.000    0.000    0.000 
#
# Total GULP energy -77963.045629 kJ/mol
# GULP energy per Si atom -5568.788973 kJ/mol
# Density = 2.218204 g / cm^3
# Si number density = 22.232646 Si / 1000 Ang^3
#
#
#
# Elastic Constant Matrix: (Units=GPa)
#
#
# Indices 1 2 3 4 5 6 
#
# 1 77.6679 35.6914 33.0639 0.0000 -16.3355 0.0000
# 2 35.6914 88.6940 32.1399 0.0000 -9.1572 0.0000
# 3 33.0639 32.1399 85.9649 0.0000 -15.3601 0.0000
# 4 0.0000 0.0000 0.0000 25.6314 0.0000 -14.8465
# 5 -16.3355 -9.1572 -15.3601 0.0000 32.1348 0.0000
# 6 0.0000 0.0000 0.0000 -14.8465 0.0000 28.1591
#
#
#
# Elastic Compliance Matrix: (Units=1/GPa)
#
#
# Indices 1 2 3 4 5 6 
#
# 1 0.018236 -0.005288 -0.003991 0.000000 0.005856 0.000000
# 2 -0.005288 0.014643 -0.003472 0.000000 -0.000175 0.000000
# 3 -0.003991 -0.003472 0.015227 0.000000 0.004260 0.000000
# 4 0.000000 0.000000 0.000000 0.056168 0.000000 0.029614
# 5 0.005856 -0.000175 0.004260 0.000000 0.036082 0.000000
# 6 0.000000 0.000000 0.000000 0.029614 0.000000 0.051126
#
#
# Mechanical properties :
#
#
# Convention : Reuss Voigt Hill
#
# Bulk Modulus (GPa) = 44.23867 50.45746 47.34807
# Shear Modulus (GPa) = 22.27009 27.28050 24.77530
#
# Velocity S-wave (km/s) = 3.16837 3.50672 3.34183
# Velocity P-wave (km/s) = 5.77287 6.25625 6.01941
#
# Compressibility (1/GPa) = 0.02260466
#
# Stress axis : x y z
#
# Youngs Moduli (GPa) = 54.83769 68.29397 65.67345
#
# Poissons Ratio (x) = 0.36111 0.26208
# Poissons Ratio (y) = 0.28996 0.22802
# Poissons Ratio (z) = 0.21884 0.23712
#
# Static dielectric constant tensor:
#      x y z
#    x 1.827120 0.000000 -0.003670 
#    y 0.000000 1.902990 0.000000 
#    z -0.003670 0.000000 1.840040 
# 
# From -- ./inp_files/31798.got.cif
#   From: 2010.05.17/outbox.cif.g08.bks.cpg/sg5_16_cif.got.tgz:31798.got - 2010.06.03 18:56:24.
