data_PCOD9125870
_publ_section_title
;
Structure prediction by ZEFSAII (Michael W. Deem and Ramdas Pophale) SiO2 
 PCOD9125870
Probable space group: C 2
;
_chemical_formula_sum "Si O2"
_cell_formula_units_Z 30
_cell_length_a 14.858840
_cell_length_b 5.775294
_cell_length_c 13.061985
_cell_angle_alpha 90.000000
_cell_angle_beta 87.206590
_cell_angle_gamma 90.000000
_cell_volume 1119.571481
_symmetry_space_group_name_H-M "C 2"
_symmetry_group_IT_number 5
_symmetry_cell_setting 'monoclinic'
loop_
_space_group_symop_operation_xyz
x,y,z
-x,y,-z
1/2+x,1/2+y,z
1/2-x,1/2+y,-z
loop_
_atom_site_type_symbol
_atom_site_label
_atom_site_fract_x
_atom_site_fract_y
_atom_site_fract_z
Si Si1 0.894195 0.639340 0.971369
Si Si2 0.352214 0.682500 0.539886
Si Si3 0.431194 0.630494 0.904492
Si Si4 0.190001 0.718259 0.815135
Si Si5 0.500000 0.329863 0.500000
Si Si6 0.710744 0.881783 0.649859
Si Si7 0.855003 0.513306 0.716808
Si Si8 0.512590 0.350921 0.728078
O O1 0.824087 0.649926 0.068255
O O2 0.887562 0.383480 0.922343
O O3 0.000000 0.648952 0.000000
O O4 0.875610 0.892135 0.922451
O O5 0.421131 0.480174 0.554347
O O6 0.353350 0.742961 0.421224
O O7 0.254808 0.585203 0.577122
O O8 0.381733 0.894745 0.607666
O O9 0.465409 0.581986 0.784189
O O10 0.500000 0.626097 0.000000
O O11 0.169409 0.489480 0.751452
O O12 0.282820 0.832860 0.771555
O O13 0.105382 0.871916 0.785849
O O14 0.540199 0.265404 0.610083
O O15 0.790321 0.722528 0.686566
O O16 0.942954 0.640295 0.759154
#
# Coordination Sequence:
#
# PCOD9125870 Si02
#       8
#     4   4   4   4   2   4   4   4
#     4  10  21  44  78 118 142 197 282 335 397 515
#     4  11  24  43  65 100 149 208 264 327 401 489
#     4  10  22  45  78 114 152 201 274 339 406 490
#     4  11  26  45  78 112 146 217 266 340 433 489
#     4  12  28  40  70 116 154 202 274 326 412 502
#     4  11  23  44  68  97 151 207 259 330 400 495
#     4  11  26  45  69 108 161 201 269 340 407 503
#     4  12  26  48  75 117 160 210 270 344 411 508
#
# _framework density 26.795966
#
# number of rings (size 3 to 8) (size 9 to 14) (size 15 to 20)
#    0.000    1.067    5.333    0.800    7.467    3.200 
#    0.000    0.000    2.933    0.000    0.000    0.000 
#    0.000    0.000    0.000    0.000    0.000    0.000 
#
# Total GULP energy -83595.787867 kJ/mol
# GULP energy per Si atom -5573.052524 kJ/mol
# Density = 2.673498 g / cm^3
# Si number density = 26.795966 Si / 1000 Ang^3
#
#
#
# Elastic Constant Matrix: (Units=GPa)
#
#
# Indices 1 2 3 4 5 6 
#
# 1 75.8760 -21.4728 -21.3408 0.0000 9.3064 0.0000
# 2 -21.4728 87.4825 5.7855 0.0000 -4.5091 0.0000
# 3 -21.3408 5.7855 82.8202 0.0000 -0.7069 0.0000
# 4 0.0000 0.0000 0.0000 49.6909 0.0000 -7.0026
# 5 9.3064 -4.5091 -0.7069 0.0000 36.0543 0.0000
# 6 0.0000 0.0000 0.0000 -7.0026 0.0000 29.0093
#
#
#
# Elastic Compliance Matrix: (Units=1/GPa)
#
#
# Indices 1 2 3 4 5 6 
#
# 1 0.015635 0.003407 0.003761 0.000000 -0.003536 0.000000
# 2 0.003407 0.012299 0.000024 0.000000 0.000659 0.000000
# 3 0.003761 0.000024 0.013036 0.000000 -0.000712 0.000000
# 4 0.000000 0.000000 0.000000 0.020833 0.000000 0.005029
# 5 -0.003536 0.000659 -0.000712 0.000000 0.028717 0.000000
# 6 0.000000 0.000000 0.000000 0.005029 0.000000 0.035686
#
#
# Mechanical properties :
#
#
# Convention : Reuss Voigt Hill
#
# Bulk Modulus (GPa) = 18.06590 19.12471 18.59531
# Shear Modulus (GPa) = 38.38072 41.83136 40.10604
#
# Velocity S-wave (km/s) = 3.78872 3.95537 3.87294
# Velocity P-wave (km/s) = 5.08880 5.29269 5.19175
#
# Compressibility (1/GPa) = 0.05535290
#
# Stress axis : x y z
#
# Youngs Moduli (GPa) = 63.95959 81.30463 76.71310
#
# Poissons Ratio (x) = -0.27698 -0.28849
# Poissons Ratio (y) = -0.21789 -0.00186
# Poissons Ratio (z) = -0.24053 -0.00197
#
# Static dielectric constant tensor:
#      x y z
#    x 2.128070 0.000000 0.103070 
#    y 0.000000 2.105710 0.000000 
#    z 0.103070 0.000000 2.284570 
# 
# From -- ./inp_files/55293.got.cif
#   From: 2010.05.17/outbox.cif.g08.bks.cpg/sg5_28_cif.got.tgz:55293.got - 2010.06.03 18:56:24.
