data_PCOD9125326
_publ_section_title
;
Structure prediction by ZEFSAII (Michael W. Deem and Ramdas Pophale) SiO2 
 PCOD9125326
Probable space group: C 2
;
_chemical_formula_sum "Si O2"
_cell_formula_units_Z 30
_cell_length_a 18.431017
_cell_length_b 4.948074
_cell_length_c 15.266906
_cell_angle_alpha 90.000000
_cell_angle_beta 112.861744
_cell_angle_gamma 90.000000
_cell_volume 1282.938808
_symmetry_space_group_name_H-M "C 2"
_symmetry_group_IT_number 5
_symmetry_cell_setting 'monoclinic'
loop_
_space_group_symop_operation_xyz
x,y,z
-x,y,-z
1/2+x,1/2+y,z
1/2-x,1/2+y,-z
loop_
_atom_site_type_symbol
_atom_site_label
_atom_site_fract_x
_atom_site_fract_y
_atom_site_fract_z
Si Si1 0.636220 0.666480 0.296700
Si Si2 0.200585 0.151505 0.499288
Si Si3 0.240873 0.319099 0.944791
Si Si4 0.784097 0.942265 0.306816
Si Si5 0.897257 0.955826 0.204997
Si Si6 0.489587 0.926839 0.189802
Si Si7 0.351877 0.289780 0.851975
Si Si8 0.500000 0.976716 0.000000
O O1 0.635112 0.574202 0.396558
O O2 0.729162 0.706146 0.319124
O O3 0.582698 0.930580 0.256078
O O4 0.611985 0.471657 0.206965
O O5 0.225366 0.456640 0.488458
O O6 0.184298 0.102678 0.593605
O O7 0.169468 0.130755 0.877967
O O8 0.299951 0.444843 0.900500
O O9 0.211898 0.584500 0.981434
O O10 0.853069 0.866244 0.272825
O O11 0.717742 0.106440 0.221401
O O12 0.961235 0.192195 0.242033
O O13 0.941529 0.700069 0.183971
O O14 0.479398 0.836052 0.083025
O O15 0.423338 0.145414 0.934888
#
# Coordination Sequence:
#
# PCOD9125326 Si02
#       8
#     4   4   4   4   4   4   4   2
#     4  11  24  43  74 100 140 177 237 284 349 409
#     4  10  21  40  73 107 133 169 229 290 347 405
#     4  11  24  40  63  94 136 182 240 287 338 405
#     4  10  23  44  72 102 137 175 234 289 346 416
#     4  11  26  43  67  98 140 183 224 284 357 403
#     4  12  27  45  66  99 141 186 230 284 341 418
#     4  11  23  40  68  97 136 181 232 285 338 405
#     4  12  24  44  64  98 140 184 232 274 348 398
#
# _framework density 23.383813
#
# number of rings (size 3 to 8) (size 9 to 14) (size 15 to 20)
#    0.000    1.067    2.667    3.200    7.467    3.200 
#    0.000    0.667    0.000    3.200    0.000    0.000 
#    0.000    0.000    0.000    0.000    0.000    0.000 
#
# Total GULP energy -83676.526441 kJ/mol
# GULP energy per Si atom -5578.435096 kJ/mol
# Density = 2.333059 g / cm^3
# Si number density = 23.383813 Si / 1000 Ang^3
#
#
#
# Elastic Constant Matrix: (Units=GPa)
#
#
# Indices 1 2 3 4 5 6 
#
# 1 119.5734 26.3981 45.1760 0.0000 -9.7366 0.0000
# 2 26.3981 79.6882 14.1990 0.0001 2.2699 0.0000
# 3 45.1760 14.1990 131.1244 0.0000 2.3474 0.0000
# 4 0.0000 0.0001 0.0000 33.6271 0.0000 0.5056
# 5 -9.7366 2.2699 2.3474 0.0000 21.1539 0.0000
# 6 0.0000 0.0000 0.0000 0.5056 0.0000 30.4317
#
#
#
# Elastic Compliance Matrix: (Units=1/GPa)
#
#
# Indices 1 2 3 4 5 6 
#
# 1 0.010841 -0.003131 -0.003498 0.000000 0.005714 0.000000
# 2 -0.003131 0.013732 -0.000357 0.000000 -0.002875 0.000000
# 3 -0.003498 -0.000357 0.008916 0.000000 -0.002561 0.000000
# 4 0.000000 0.000000 0.000000 0.029745 0.000000 -0.000494
# 5 0.005714 -0.002875 -0.002561 0.000000 0.050495 0.000000
# 6 0.000000 0.000000 0.000000 -0.000494 0.000000 0.032869
#
#
# Mechanical properties :
#
#
# Convention : Reuss Voigt Hill
#
# Bulk Modulus (GPa) = 51.23764 55.77026 53.50395
# Shear Modulus (GPa) = 29.92651 33.35006 31.63829
#
# Velocity S-wave (km/s) = 3.58130 3.78061 3.68230
# Velocity P-wave (km/s) = 6.24981 6.55431 6.40387
#
# Compressibility (1/GPa) = 0.01951690
#
# Stress axis : x y z
#
# Youngs Moduli (GPa) = 92.24025 72.82525 112.15627
#
# Poissons Ratio (x) = 0.22800 0.39237
# Poissons Ratio (y) = 0.28878 0.04002
# Poissons Ratio (z) = 0.32269 0.02599
#
# Static dielectric constant tensor:
#      x y z
#    x 1.992090 0.000000 0.005440 
#    y 0.000000 1.911290 0.000000 
#    z 0.005440 0.000000 1.991070 
# 
# From -- ./inp_files/55350.got.cif
#   From: 2010.05.17/outbox.cif.g08.bks.cpg/sg5_28_cif.got.tgz:55350.got - 2010.06.03 18:56:24.
