data_PCOD9125457
_publ_section_title
;
Structure prediction by ZEFSAII (Michael W. Deem and Ramdas Pophale) SiO2 
 PCOD9125457
Probable space group: C 2
;
_chemical_formula_sum "Si O2"
_cell_formula_units_Z 28
_cell_length_a 9.432710
_cell_length_b 25.858224
_cell_length_c 9.729105
_cell_angle_alpha 90.000000
_cell_angle_beta 33.678004
_cell_angle_gamma 90.000000
_cell_volume 1315.919113
_symmetry_space_group_name_H-M "C 2"
_symmetry_group_IT_number 5
_symmetry_cell_setting 'monoclinic'
loop_
_space_group_symop_operation_xyz
x,y,z
-x,y,-z
1/2+x,1/2+y,z
1/2-x,1/2+y,-z
loop_
_atom_site_type_symbol
_atom_site_label
_atom_site_fract_x
_atom_site_fract_y
_atom_site_fract_z
Si Si1 0.500000 0.314040 0.000000
Si Si2 0.000000 0.987068 0.000000
Si Si3 0.710634 0.899971 0.722229
Si Si4 0.881736 0.404131 0.730347
Si Si5 0.280239 0.066997 0.575912
Si Si6 0.078659 0.714032 0.086629
Si Si7 0.585362 0.667061 0.593913
Si Si8 0.796005 0.524171 0.274937
O O1 0.261482 0.352096 0.197591
O O2 0.528012 0.275085 0.105630
O O3 0.821779 0.947000 0.057535
O O4 0.868874 0.024352 0.215771
O O5 0.596430 0.891050 0.664946
O O6 0.000000 0.880563 0.500000
O O7 0.716172 0.962346 0.733403
O O8 0.500000 0.879761 0.000000
O O9 0.000000 0.428992 0.500000
O O10 0.500000 0.087226 0.500000
O O11 0.107475 0.112829 0.654866
O O12 0.389238 0.039390 0.351420
O O13 0.872989 0.690624 0.356481
O O14 0.377935 0.700817 0.845819
O O15 0.000000 0.691385 0.000000
O O16 0.500000 0.664094 0.500000
O O17 0.500000 0.541786 0.500000
O O18 0.000000 0.545110 0.000000
#
# Coordination Sequence:
#
# PCOD9125457 Si02
#       8
#     2   2   4   4   4   4   4   4
#     4   9  22  38  76 102 130 166 236 301 358 404
#     4  11  26  42  62  98 154 192 238 283 334 414
#     4  10  23  40  61  89 135 180 214 276 336 394
#     4  11  24  41  70 103 134 187 240 281 341 422
#     4  12  27  40  64  95 143 189 229 282 348 421
#     4   8  19  39  65 100 123 155 212 304 337 387
#     4  10  21  41  67  94 128 168 225 281 344 398
#     4  10  23  40  63  87 125 180 238 276 321 384
#
# _framework density 21.277905000000001
#
# number of rings (size 3 to 8) (size 9 to 14) (size 15 to 20)
#    0.429    1.429    0.000    2.571   16.000    1.714 
#    0.000    0.000    0.000    2.571    0.000    0.000 
#    0.000    0.000    0.000    0.000    0.000    0.000 
#
# Total GULP energy -78079.075211 kJ/mol
# GULP energy per Si atom -5577.076801 kJ/mol
# Density = 2.122948 g / cm^3
# Si number density = 21.277905 Si / 1000 Ang^3
#
#
#
# Elastic Constant Matrix: (Units=GPa)
#
#
# Indices 1 2 3 4 5 6 
#
# 1 97.3912 17.3208 61.2622 0.0000 -10.9253 0.0000
# 2 17.3208 93.7283 41.4015 0.0000 -13.3029 0.0000
# 3 61.2622 41.4015 141.6144 0.0000 -11.4513 0.0000
# 4 0.0000 0.0000 0.0000 28.8417 0.0000 -3.3936
# 5 -10.9253 -13.3029 -11.4513 0.0000 33.5484 0.0000
# 6 0.0000 0.0000 0.0000 -3.3936 0.0000 16.5071
#
#
#
# Elastic Compliance Matrix: (Units=1/GPa)
#
#
# Indices 1 2 3 4 5 6 
#
# 1 0.014343 0.000440 -0.006110 0.000000 0.002760 0.000000
# 2 0.000440 0.012738 -0.003594 0.000000 0.003968 0.000000
# 3 -0.006110 -0.003594 0.010777 0.000000 0.000264 0.000000
# 4 0.000000 0.000000 0.000000 0.035531 0.000000 0.007305
# 5 0.002760 0.003968 0.000264 0.000000 0.032370 0.000000
# 6 0.000000 0.000000 0.000000 0.007305 0.000000 0.062082
#
#
# Mechanical properties :
#
#
# Convention : Reuss Voigt Hill
#
# Bulk Modulus (GPa) = 51.73225 63.63366 57.68295
# Shear Modulus (GPa) = 25.93210 29.96274 27.94742
#
# Velocity S-wave (km/s) = 3.49482 3.75662 3.62808
# Velocity P-wave (km/s) = 6.37577 6.98478 6.68721
#
# Compressibility (1/GPa) = 0.01933030
#
# Stress axis : x y z
#
# Youngs Moduli (GPa) = 69.72209 78.50317 92.79353
#
# Poissons Ratio (x) = -0.03455 0.56698
# Poissons Ratio (y) = -0.03069 0.33347
# Poissons Ratio (z) = 0.42601 0.28211
#
# Static dielectric constant tensor:
#      x y z
#    x 1.791410 0.000000 -0.032960 
#    y 0.000000 1.756310 0.000000 
#    z -0.032960 0.000000 1.739150 
# 
# From -- ./inp_files/17530.got.cif
#   From: 2010.05.17/outbox.cif.g08.bks.cpg/sg5_9_cif.got.tgz:17530.got - 2010.06.03 18:56:24.
