data_PCOD9125028
_publ_section_title
;
Structure prediction by ZEFSAII (Michael W. Deem and Ramdas Pophale) SiO2 
 PCOD9125028
Probable space group: C 2
;
_chemical_formula_sum "Si O2"
_cell_formula_units_Z 30
_cell_length_a 9.292667
_cell_length_b 22.388253
_cell_length_c 7.489359
_cell_angle_alpha 90.000000
_cell_angle_beta 59.041337
_cell_angle_gamma 90.000000
_cell_volume 1336.161451
_symmetry_space_group_name_H-M "C 2"
_symmetry_group_IT_number 5
_symmetry_cell_setting 'monoclinic'
loop_
_space_group_symop_operation_xyz
x,y,z
-x,y,-z
1/2+x,1/2+y,z
1/2-x,1/2+y,-z
loop_
_atom_site_type_symbol
_atom_site_label
_atom_site_fract_x
_atom_site_fract_y
_atom_site_fract_z
Si Si1 0.500000 0.730021 0.000000
Si Si2 0.195374 0.021252 0.948458
Si Si3 0.686878 0.633193 0.425524
Si Si4 0.111375 0.302828 0.587819
Si Si5 0.494989 0.931938 0.785162
Si Si6 0.204898 0.650943 0.039430
Si Si7 0.912842 0.731770 0.377220
Si Si8 0.822573 0.002111 0.615515
O O1 0.587747 0.770747 0.793770
O O2 0.629422 0.687406 0.017455
O O3 0.327793 0.966966 0.823127
O O4 0.281717 0.086944 0.865984
O O5 0.191071 0.016552 0.166543
O O6 0.000000 0.017800 0.000000
O O7 0.500000 0.652186 0.500000
O O8 0.780341 0.677860 0.496225
O O9 0.668131 0.564854 0.495278
O O10 0.789100 0.636228 0.174687
O O11 0.299017 0.288180 0.395082
O O12 0.000000 0.277266 0.500000
O O13 0.038273 0.368626 0.670625
O O14 0.659857 0.971030 0.645887
O O15 0.500000 0.925365 0.000000
O O16 0.056655 0.697792 0.175239
O O17 0.000000 0.751922 0.500000
O O18 0.000000 0.968160 0.500000
#
# Coordination Sequence:
#
# PCOD9125028 Si02
#       8
#     2   4   4   4   4   4   4   4
#     4  12  22  44  70 100 138 186 220 292 366 410
#     4  10  21  40  70 105 136 179 232 291 364 425
#     4  10  21  39  64  99 140 181 221 286 365 432
#     4  12  27  47  68  96 138 192 245 293 347 426
#     4  10  22  45  68  94 137 189 241 296 352 417
#     4  11  22  39  69 100 142 179 225 290 359 431
#     4  12  24  39  61  97 131 174 232 286 344 424
#     4   9  20  38  65  96 137 180 227 288 359 421
#
# _framework density 22.452376999999998
#
# number of rings (size 3 to 8) (size 9 to 14) (size 15 to 20)
#    0.000    1.333    2.667    3.200    0.000    4.800 
#    0.000    4.000    0.000    0.000    0.000    0.000 
#    0.000    0.000    0.000    0.000    0.000    0.000 
#
# Total GULP energy -83612.345557 kJ/mol
# GULP energy per Si atom -5574.156370 kJ/mol
# Density = 2.240127 g / cm^3
# Si number density = 22.452377 Si / 1000 Ang^3
#
#
#
# Elastic Constant Matrix: (Units=GPa)
#
#
# Indices 1 2 3 4 5 6 
#
# 1 103.4400 25.9473 17.0716 0.0000 -16.5317 0.0000
# 2 25.9473 127.2169 28.1053 0.0000 -16.4820 0.0000
# 3 17.0716 28.1053 67.7848 0.0000 -15.8911 0.0000
# 4 0.0000 0.0000 0.0000 65.8279 0.0000 8.8322
# 5 -16.5317 -16.4820 -15.8911 0.0000 42.4139 0.0000
# 6 0.0000 0.0000 0.0000 8.8322 0.0000 23.3168
#
#
#
# Elastic Compliance Matrix: (Units=1/GPa)
#
#
# Indices 1 2 3 4 5 6 
#
# 1 0.010763 -0.001492 -0.001364 0.000000 0.003104 0.000000
# 2 -0.001492 0.009054 -0.002949 0.000000 0.001832 0.000000
# 3 -0.001364 -0.002949 0.017459 0.000000 0.004864 0.000000
# 4 0.000000 0.000000 0.000000 0.016005 0.000000 -0.006062
# 5 0.003104 0.001832 0.004864 0.000000 0.027321 0.000000
# 6 0.000000 0.000000 0.000000 -0.006062 0.000000 0.045184
#
#
# Mechanical properties :
#
#
# Convention : Reuss Voigt Hill
#
# Bulk Modulus (GPa) = 38.96197 48.96557 43.96377
# Shear Modulus (GPa) = 34.25826 41.46620 37.86223
#
# Velocity S-wave (km/s) = 3.91041 4.30216 4.11096
# Velocity P-wave (km/s) = 6.14648 6.82159 6.49282
#
# Compressibility (1/GPa) = 0.02566605
#
# Stress axis : x y z
#
# Youngs Moduli (GPa) = 92.91182 110.45309 57.27692
#
# Poissons Ratio (x) = 0.16475 0.07815
# Poissons Ratio (y) = 0.13859 0.16889
# Poissons Ratio (z) = 0.12677 0.32569
#
# Static dielectric constant tensor:
#      x y z
#    x 1.844520 0.000000 -0.019410 
#    y 0.000000 1.865400 0.000000 
#    z -0.019410 0.000000 1.868630 
# 
# From -- ./inp_files/17312.got.cif
#   From: 2010.05.17/outbox.cif.g08.bks.cpg/sg5_9_cif.got.tgz:17312.got - 2010.06.03 18:56:24.
