data_PCOD9125315
_publ_section_title
;
Structure prediction by ZEFSAII (Michael W. Deem and Ramdas Pophale) SiO2 
 PCOD9125315
Probable space group: C 2
;
_chemical_formula_sum "Si O2"
_cell_formula_units_Z 20
_cell_length_a 18.090979
_cell_length_b 5.337831
_cell_length_c 8.092745
_cell_angle_alpha 90.000000
_cell_angle_beta 70.433382
_cell_angle_gamma 90.000000
_cell_volume 736.359937
_symmetry_space_group_name_H-M "C 2"
_symmetry_group_IT_number 5
_symmetry_cell_setting 'monoclinic'
loop_
_space_group_symop_operation_xyz
x,y,z
-x,y,-z
1/2+x,1/2+y,z
1/2-x,1/2+y,-z
loop_
_atom_site_type_symbol
_atom_site_label
_atom_site_fract_x
_atom_site_fract_y
_atom_site_fract_z
Si Si1 0.914613 0.569350 0.431742
Si Si2 0.630293 0.593721 0.970586
Si Si3 0.265543 0.033860 0.385808
Si Si4 0.804506 0.368808 0.803095
Si Si5 0.021380 0.068332 0.728364
O O1 0.858564 0.565126 0.310339
O O2 0.860945 0.504522 0.629887
O O3 0.974828 0.343718 0.354416
O O4 0.945850 0.849111 0.410499
O O5 0.654916 0.847509 0.049959
O O6 0.564693 0.489129 0.146210
O O7 0.716060 0.473985 0.881225
O O8 0.580908 0.591411 0.839460
O O9 0.244896 0.261656 0.527235
O O10 0.286946 0.595438 0.732592
#
# Coordination Sequence:
#
# PCOD9125315 Si02
#       5
#     4   4   4   4   4
#     4  11  24  48  80 107 145 217 263 311 371 490
#     4  11  28  47  73 121 159 203 247 340 393 463
#     4  10  21  40  70 106 139 190 253 311 360 442
#     4  11  26  44  78 114 155 194 274 315 382 448
#     4  11  27  52  78 107 163 208 254 308 418 461
#
# _framework density 27.160630999999999
#
# number of rings (size 3 to 8) (size 9 to 14) (size 15 to 20)
#    0.000    1.200    2.000    2.400    8.400    7.200 
#    0.000    4.000    0.000    0.000    0.000    0.000 
#    0.000    0.000    0.000    0.000    0.000    0.000 
#
# Total GULP energy -55925.284354 kJ/mol
# GULP energy per Si atom -5592.528435 kJ/mol
# Density = 2.709881 g / cm^3
# Si number density = 27.160631 Si / 1000 Ang^3
#
#
#
# Elastic Constant Matrix: (Units=GPa)
#
#
# Indices 1 2 3 4 5 6 
#
# 1 172.0062 26.3120 85.1688 0.0000 3.8402 0.0000
# 2 26.3120 100.0427 40.6835 0.0000 -11.5905 0.0000
# 3 85.1688 40.6835 130.7503 0.0000 -2.2881 0.0000
# 4 0.0000 0.0000 0.0000 41.6733 0.0000 13.7645
# 5 3.8402 -11.5905 -2.2881 0.0000 71.1294 0.0000
# 6 0.0000 0.0000 0.0000 13.7645 0.0000 -128.9475
#
#
#
# Elastic Compliance Matrix: (Units=1/GPa)
#
#
# Indices 1 2 3 4 5 6 
#
# 1 0.008611 -0.000063 -0.005601 0.000000 -0.000655 0.000000
# 2 -0.000063 0.011666 -0.003558 0.000000 0.001790 0.000000
# 3 -0.005601 -0.003558 0.012406 0.000000 0.000122 0.000000
# 4 0.000000 0.000000 0.000000 0.023179 0.000000 0.002474
# 5 -0.000655 0.001790 0.000122 0.000000 0.014390 0.000000
# 6 0.000000 0.000000 0.000000 0.002474 0.000000 -0.007491
#
#
# Mechanical properties :
#
#
# Convention : Reuss Voigt Hill
#
# Bulk Modulus (GPa) = 70.22531 78.56978 74.39754
# Shear Modulus (GPa) = 58.17186 13.48003 35.82595
#
# Velocity S-wave (km/s) = 4.63295 2.23021 3.63580
# Velocity P-wave (km/s) = 7.38449 5.96845 6.71391
#
# Compressibility (1/GPa) = 0.01423988
#
# Stress axis : x y z
#
# Youngs Moduli (GPa) = 116.12420 85.71573 80.60702
#
# Poissons Ratio (x) = 0.00540 0.45150
# Poissons Ratio (y) = 0.00732 0.28678
# Poissons Ratio (z) = 0.65044 0.30495
#
# Static dielectric constant tensor:
#      x y z
#    x 2.169180 0.000000 0.040470 
#    y 0.000000 2.188000 0.000000 
#    z 0.040470 0.000000 2.168920 
# 
# From -- ./inp_files/28146.got.cif
#   From: 2010.05.17/outbox.cif.g08.bks.cpg/sg5_15_cif.got.tgz:28146.got - 2010.06.03 18:56:24.
