data_PCOD9125954
_publ_section_title
;
Structure prediction by ZEFSAII (Michael W. Deem and Ramdas Pophale) SiO2 
 PCOD9125954
Probable space group: C 2
;
_chemical_formula_sum "Si O2"
_cell_formula_units_Z 24
_cell_length_a 10.074343
_cell_length_b 16.750702
_cell_length_c 8.542070
_cell_angle_alpha 90.000000
_cell_angle_beta 70.258060
_cell_angle_gamma 90.000000
_cell_volume 1356.768190
_symmetry_space_group_name_H-M "C 2"
_symmetry_group_IT_number 5
_symmetry_cell_setting 'monoclinic'
loop_
_space_group_symop_operation_xyz
x,y,z
-x,y,-z
1/2+x,1/2+y,z
1/2-x,1/2+y,-z
loop_
_atom_site_type_symbol
_atom_site_label
_atom_site_fract_x
_atom_site_fract_y
_atom_site_fract_z
Si Si1 0.140309 0.484590 0.838624
Si Si2 0.084304 0.189107 0.316002
Si Si3 0.136153 0.057544 0.033892
Si Si4 0.636476 0.146785 0.648906
Si Si5 0.407578 0.807261 0.194557
Si Si6 0.183127 0.669016 0.264354
O O1 0.273158 0.495757 0.901223
O O2 0.143559 0.558023 0.717372
O O3 0.136728 0.398258 0.760081
O O4 0.000000 0.492670 0.000000
O O5 0.081985 0.126422 0.174611
O O6 0.245942 0.197599 0.305572
O O7 0.000000 0.156812 0.500000
O O8 0.004434 0.268011 0.290058
O O9 0.238362 0.102314 0.870200
O O10 0.000000 0.024026 0.000000
O O11 0.673876 0.145457 0.450652
O O12 0.477274 0.177992 0.729966
O O13 0.274680 0.749408 0.221618
O O14 0.500000 0.806208 0.000000
#
# Coordination Sequence:
#
# PCOD9125954 Si02
#       6
#     4   4   4   4   4   4
#     4  10  22  38  57  87 121 151 193 245 300 335
#     4  11  19  35  60  90 110 152 202 236 283 352
#     4  11  19  36  63  86 113 158 198 238 282 357
#     4  10  22  35  61  86 114 157 196 241 280 353
#     4  11  21  39  59  85 119 153 189 252 292 339
#     4  11  19  38  60  86 117 152 201 237 287 344
#
# _framework density 17.689094999999998
#
# number of rings (size 3 to 8) (size 9 to 14) (size 15 to 20)
#    0.000    1.333    6.667    0.000    0.000    0.000 
#    3.000    3.333   22.000    0.000    0.000    0.000 
#    0.000    0.000    0.000    0.000    0.000    0.000 
#
# Total GULP energy -66966.358089 kJ/mol
# GULP energy per Si atom -5580.529841 kJ/mol
# Density = 1.764883 g / cm^3
# Si number density = 17.689095 Si / 1000 Ang^3
#
#
#
# Elastic Constant Matrix: (Units=GPa)
#
#
# Indices 1 2 3 4 5 6 
#
# 1 175.5555 65.7695 23.5219 0.0000 7.0601 0.0000
# 2 65.7695 98.8948 17.7429 0.0000 0.8057 0.0000
# 3 23.5219 17.7429 60.0236 0.0000 -8.1003 0.0000
# 4 0.0000 0.0000 0.0000 13.4019 0.0000 3.0044
# 5 7.0601 0.8057 -8.1003 0.0000 25.4705 0.0000
# 6 0.0000 0.0000 0.0000 3.0044 0.0000 24.3519
#
#
#
# Elastic Compliance Matrix: (Units=1/GPa)
#
#
# Indices 1 2 3 4 5 6 
#
# 1 0.007898 -0.004869 -0.002017 0.000000 -0.002677 0.000000
# 2 -0.004869 0.013728 -0.002117 0.000000 0.000242 0.000000
# 3 -0.002017 -0.002117 0.018975 0.000000 0.006661 0.000000
# 4 0.000000 0.000000 0.000000 0.076739 0.000000 -0.009468
# 5 -0.002677 0.000242 0.006661 0.000000 0.042114 0.000000
# 6 0.000000 0.000000 0.000000 -0.009468 0.000000 0.042233
#
#
# Mechanical properties :
#
#
# Convention : Reuss Voigt Hill
#
# Bulk Modulus (GPa) = 44.25819 60.94914 52.60367
# Shear Modulus (GPa) = 22.00471 27.80751 24.90611
#
# Velocity S-wave (km/s) = 3.53082 3.96916 3.75639
# Velocity P-wave (km/s) = 6.45729 7.45227 6.97255
#
# Compressibility (1/GPa) = 0.02259469
#
# Stress axis : x y z
#
# Youngs Moduli (GPa) = 126.61108 72.84541 52.70015
#
# Poissons Ratio (x) = 0.35468 0.10630
# Poissons Ratio (y) = 0.61646 0.11158
# Poissons Ratio (z) = 0.25539 0.15423
#
# Static dielectric constant tensor:
#      x y z
#    x 1.634670 0.000000 0.002200 
#    y 0.000000 1.572450 0.000000 
#    z 0.002200 0.000000 1.602410 
# 
# From -- ./inp_files/15665.got.cif
#   From: 2010.05.17/outbox.cif.g08.bks.cpg/sg5_8_cif.got.tgz:15665.got - 2010.06.03 18:56:24.
