data_PCOD9125777
_publ_section_title
;
Structure prediction by ZEFSAII (Michael W. Deem and Ramdas Pophale) SiO2 
 PCOD9125777
Probable space group: C 2
;
_chemical_formula_sum "Si O2"
_cell_formula_units_Z 20
_cell_length_a 12.307122
_cell_length_b 5.146584
_cell_length_c 16.596721
_cell_angle_alpha 90.000000
_cell_angle_beta 47.568845
_cell_angle_gamma 90.000000
_cell_volume 775.901064
_symmetry_space_group_name_H-M "C 2"
_symmetry_group_IT_number 5
_symmetry_cell_setting 'monoclinic'
loop_
_space_group_symop_operation_xyz
x,y,z
-x,y,-z
1/2+x,1/2+y,z
1/2-x,1/2+y,-z
loop_
_atom_site_type_symbol
_atom_site_label
_atom_site_fract_x
_atom_site_fract_y
_atom_site_fract_z
Si Si1 0.588887 0.187960 0.326074
Si Si2 0.810939 0.769121 0.010567
Si Si3 0.364769 0.033209 0.323743
Si Si4 0.585046 0.691284 0.567755
Si Si5 0.848173 0.830413 0.174043
O O1 0.519319 0.168365 0.270926
O O2 0.527339 0.457184 0.389039
O O3 0.495823 0.956952 0.414335
O O4 0.753977 0.084697 0.243619
O O5 0.978095 0.873020 0.919966
O O6 0.789207 0.490731 0.979575
O O7 0.785296 0.738897 0.119243
O O8 0.234402 0.148310 0.444983
O O9 0.331706 0.111287 0.250154
O O10 0.380282 0.744053 0.354076
#
# Coordination Sequence:
#
# PCOD9125777 Si02
#       5
#     4   4   4   4   4
#     4  10  22  43  67 114 153 206 252 322 370 455
#     4  11  28  57  77 114 153 192 261 348 396 467
#     4  10  21  46  73 114 157 220 252 312 381 464
#     4  10  21  43  70 107 173 203 251 318 370 446
#     4  11  26  48  86 114 146 213 263 315 405 473
#
# _framework density 25.776484
#
# number of rings (size 3 to 8) (size 9 to 14) (size 15 to 20)
#    1.200    0.400    2.000    1.200    0.000    8.800 
#    7.200    2.000    0.000    0.000    0.000    0.000 
#    0.000    0.000    0.000    0.000    0.000    0.000 
#
# Total GULP energy -55922.697470 kJ/mol
# GULP energy per Si atom -5592.269747 kJ/mol
# Density = 2.571782 g / cm^3
# Si number density = 25.776484 Si / 1000 Ang^3
#
#
#
# Elastic Constant Matrix: (Units=GPa)
#
#
# Indices 1 2 3 4 5 6 
#
# 1 101.4559 40.8099 67.8095 -0.0003 18.5597 0.0006
# 2 40.8099 161.1378 49.8408 0.0003 17.4866 0.0035
# 3 67.8095 49.8408 130.7417 -0.0005 25.5987 0.0002
# 4 -0.0003 0.0003 -0.0005 5.0625 0.0002 2.2439
# 5 18.5597 17.4866 25.5987 0.0002 43.7470 0.0001
# 6 0.0006 0.0035 0.0002 2.2439 0.0001 36.9124
#
#
#
# Elastic Compliance Matrix: (Units=1/GPa)
#
#
# Indices 1 2 3 4 5 6 
#
# 1 0.015579 -0.001541 -0.007137 0.000000 -0.001817 0.000000
# 2 -0.001541 0.007265 -0.001728 0.000000 -0.001239 -0.000001
# 3 -0.007137 -0.001728 0.012740 0.000001 -0.003737 0.000000
# 4 0.000000 0.000000 0.000001 0.203002 -0.000001 -0.012340
# 5 -0.001817 -0.001239 -0.003737 -0.000001 0.026312 0.000000
# 6 0.000000 -0.000001 0.000000 -0.012340 0.000000 0.027841
#
#
# Mechanical properties :
#
#
# Convention : Reuss Voigt Hill
#
# Bulk Modulus (GPa) = 67.68861 78.91729 73.30295
# Shear Modulus (GPa) = 15.69986 32.80273 24.25130
#
# Velocity S-wave (km/s) = 2.47063 3.57120 3.07062
# Velocity P-wave (km/s) = 5.86988 6.90558 6.40869
#
# Compressibility (1/GPa) = 0.01477353
#
# Stress axis : x y z
#
# Youngs Moduli (GPa) = 64.19049 137.64663 78.49051
#
# Poissons Ratio (x) = 0.21209 0.56016
# Poissons Ratio (y) = 0.09891 0.13561
# Poissons Ratio (z) = 0.45811 0.23781
#
# Static dielectric constant tensor:
#      x y z
#    x 2.122900 0.000000 0.082870 
#    y 0.000000 2.049580 0.000000 
#    z 0.082870 0.000000 2.063530 
# 
# From -- ./inp_files/53611.got.cif
#   From: 2010.05.17/outbox.cif.g08.bks.cpg/sg5_27_cif.got.tgz:53611.got - 2010.06.03 18:56:24.
