data_PCOD9125757
_publ_section_title
;
Structure prediction by ZEFSAII (Michael W. Deem and Ramdas Pophale) SiO2 
 PCOD9125757
Probable space group: C 2
;
_chemical_formula_sum "Si O2"
_cell_formula_units_Z 24
_cell_length_a 8.685646
_cell_length_b 17.564181
_cell_length_c 14.884436
_cell_angle_alpha 90.000000
_cell_angle_beta 146.768891
_cell_angle_gamma 90.000000
_cell_volume 1244.390862
_symmetry_space_group_name_H-M "C 2"
_symmetry_group_IT_number 5
_symmetry_cell_setting 'monoclinic'
loop_
_space_group_symop_operation_xyz
x,y,z
-x,y,-z
1/2+x,1/2+y,z
1/2-x,1/2+y,-z
loop_
_atom_site_type_symbol
_atom_site_label
_atom_site_fract_x
_atom_site_fract_y
_atom_site_fract_z
Si Si1 0.024976 0.965020 0.272611
Si Si2 0.000000 0.342929 0.500000
Si Si3 0.379035 0.731941 0.283936
Si Si4 0.682045 0.096200 0.497211
Si Si5 0.500000 0.867313 0.000000
Si Si6 0.098054 0.079286 0.141727
Si Si7 0.784861 0.237955 0.028615
O O1 0.236884 0.897118 0.355938
O O2 0.165859 0.015334 0.418971
O O3 0.016063 0.023013 0.183474
O O4 0.735093 0.924332 0.152505
O O5 0.016745 0.291916 0.419154
O O6 0.573329 0.657731 0.390209
O O7 0.365997 0.753024 0.172199
O O8 0.048585 0.722811 0.145892
O O9 0.500000 0.110240 0.500000
O O10 0.433505 0.093541 0.303948
O O11 0.627001 0.810234 0.987738
O O12 0.948532 0.160896 0.081785
O O13 0.000000 0.045266 0.000000
#
# Coordination Sequence:
#
# PCOD9125757 Si02
#       7
#     4   2   4   4   2   4   4
#     4  11  24  45  66  94 140 181 218 287 343 392
#     4  12  24  44  66 100 138 176 228 288 340 390
#     4  11  25  41  72  98 140 181 231 276 339 415
#     4  10  21  43  68  96 129 182 223 274 337 405
#     4  12  26  44  70 102 142 176 230 292 342 398
#     4  11  23  41  72  97 139 179 231 273 343 410
#     4  11  24  44  67 105 135 184 230 278 342 408
#
# _framework density 19.286545
#
# number of rings (size 3 to 8) (size 9 to 14) (size 15 to 20)
#    0.000    1.000    8.333    0.000    7.000    1.333 
#    0.000    0.000    0.000    0.000    0.000    0.000 
#    0.000    0.000    0.000    0.000    0.000    0.000 
#
# Total GULP energy -66967.621548 kJ/mol
# GULP energy per Si atom -5580.635129 kJ/mol
# Density = 1.924265 g / cm^3
# Si number density = 19.286545 Si / 1000 Ang^3
#
#
#
# Elastic Constant Matrix: (Units=GPa)
#
#
# Indices 1 2 3 4 5 6 
#
# 1 52.0229 40.2469 44.0945 -0.0028 14.1657 -0.0001
# 2 40.2469 110.8504 39.5810 0.0055 14.0850 0.0008
# 3 44.0945 39.5810 115.8157 0.0138 10.7169 0.0010
# 4 -0.0028 0.0055 0.0138 -87.6940 0.0026 2.9171
# 5 14.1657 14.0850 10.7169 0.0026 33.5942 0.0001
# 6 -0.0001 0.0008 0.0010 2.9171 0.0001 23.4081
#
#
#
# Elastic Compliance Matrix: (Units=1/GPa)
#
#
# Indices 1 2 3 4 5 6 
#
# 1 0.037054 -0.008655 -0.010345 -0.000004 -0.008696 0.000001
# 2 -0.008655 0.012661 -0.000905 0.000001 -0.001370 -0.000001
# 3 -0.010345 -0.000905 0.012822 0.000002 0.000651 -0.000001
# 4 -0.000004 0.000001 0.000002 -0.011356 0.000001 0.001415
# 5 -0.008696 -0.001370 0.000651 0.000001 0.033801 0.000000
# 6 0.000001 -0.000001 -0.000001 0.001415 0.000000 0.042544
#
#
# Mechanical properties :
#
#
# Convention : Reuss Voigt Hill
#
# Bulk Modulus (GPa) = 43.99971 58.50376 51.25173
# Shear Modulus (GPa) = 28.58599 4.17944 16.38272
#
# Velocity S-wave (km/s) = 3.85408 1.47368 2.91767
# Velocity P-wave (km/s) = 6.53211 5.77022 6.16295
#
# Compressibility (1/GPa) = 0.02272742
#
# Stress axis : x y z
#
# Youngs Moduli (GPa) = 26.98744 78.98471 77.98992
#
# Poissons Ratio (x) = 0.68358 0.80682
# Poissons Ratio (y) = 0.23357 0.07059
# Poissons Ratio (z) = 0.27919 0.07149
#
# Static dielectric constant tensor:
#      x y z
#    x 1.788210 -0.000010 0.090830 
#    y -0.000010 1.652270 -0.000010 
#    z 0.090830 -0.000010 1.816090 
# 
# From -- ./inp_files/15703.got.cif
#   From: 2010.05.17/outbox.cif.g08.bks.cpg/sg5_8_cif.got.tgz:15703.got - 2010.06.03 18:56:24.
