data_PCOD9125961
_publ_section_title
;
Structure prediction by ZEFSAII (Michael W. Deem and Ramdas Pophale) SiO2 
 PCOD9125961
Probable space group: C 2
;
_chemical_formula_sum "Si O2"
_cell_formula_units_Z 28
_cell_length_a 22.449408
_cell_length_b 6.168006
_cell_length_c 11.464848
_cell_angle_alpha 90.000000
_cell_angle_beta 108.712566
_cell_angle_gamma 90.000000
_cell_volume 1503.599359
_symmetry_space_group_name_H-M "C 2"
_symmetry_group_IT_number 5
_symmetry_cell_setting 'monoclinic'
loop_
_space_group_symop_operation_xyz
x,y,z
-x,y,-z
1/2+x,1/2+y,z
1/2-x,1/2+y,-z
loop_
_atom_site_type_symbol
_atom_site_label
_atom_site_fract_x
_atom_site_fract_y
_atom_site_fract_z
Si Si1 0.102655 0.708030 0.673814
Si Si2 0.170221 0.655755 0.364899
Si Si3 0.896026 0.329385 0.515153
Si Si4 0.446824 0.135294 0.106272
Si Si5 0.575374 0.369251 0.143065
Si Si6 0.202904 0.952438 0.603604
Si Si7 0.000000 0.252251 0.000000
Si Si8 0.000000 0.030174 0.500000
O O1 0.097811 0.496445 0.588883
O O2 0.091754 0.648270 0.800330
O O3 0.168293 0.827841 0.686829
O O4 0.048606 0.876267 0.598423
O O5 0.121598 0.478563 0.386048
O O6 0.133467 0.827181 0.262757
O O7 0.199224 0.784988 0.492981
O O8 0.226465 0.532986 0.335281
O O9 0.839686 0.160916 0.455492
O O10 0.958889 0.184690 0.558551
O O11 0.513383 0.260236 0.161357
O O12 0.414610 0.248388 0.974291
O O13 0.466007 0.898629 0.074749
O O14 0.552629 0.607461 0.095920
#
# Coordination Sequence:
#
# PCOD9125961 Si02
#       8
#     4   4   4   4   4   4   2   2
#     4  10  22  38  57  86 125 151 200 247 294 359
#     4  11  21  40  61  87 121 154 208 244 290 363
#     4  10  22  36  56  87 120 157 188 244 304 351
#     4   9  20  39  58  89 122 148 197 247 294 364
#     4   9  21  36  61  89 116 153 201 244 296 354
#     4  10  22  38  60  86 117 163 196 244 296 346
#     4   8  18  40  54  92 118 158 188 240 320 342
#     4  10  22  36  54  96 116 156 192 234 320 356
#
# _framework density 18.621981999999999
#
# number of rings (size 3 to 8) (size 9 to 14) (size 15 to 20)
#    0.000    2.571    1.429    0.429    8.000    6.857 
#    2.571    0.000    3.143    0.000    0.000    0.000 
#    0.000    0.000    0.000    0.000    0.000    0.000 
#
# Total GULP energy -78137.936433 kJ/mol
# GULP energy per Si atom -5581.281174 kJ/mol
# Density = 1.857960 g / cm^3
# Si number density = 18.621982 Si / 1000 Ang^3
#
#
#
# Elastic Constant Matrix: (Units=GPa)
#
#
# Indices 1 2 3 4 5 6 
#
# 1 102.9764 37.3104 46.3827 0.0000 -26.3409 0.0000
# 2 37.3104 101.7579 18.4331 0.0000 -17.8010 0.0000
# 3 46.3827 18.4331 55.3664 0.0000 -20.9640 0.0000
# 4 0.0000 0.0000 0.0000 -1.4113 0.0000 3.0188
# 5 -26.3409 -17.8010 -20.9640 0.0000 25.7466 0.0000
# 6 0.0000 0.0000 0.0000 3.0188 0.0000 21.6017
#
#
#
# Elastic Compliance Matrix: (Units=1/GPa)
#
#
# Indices 1 2 3 4 5 6 
#
# 1 0.017630 -0.003274 -0.011142 0.000000 0.006701 0.000000
# 2 -0.003274 0.011838 0.000914 0.000000 0.005580 0.000000
# 3 -0.011142 0.000914 0.033273 0.000000 0.016325 0.000000
# 4 0.000000 0.000000 0.000000 -0.545497 0.000000 0.076233
# 5 0.006701 0.005580 0.016325 0.000000 0.062846 0.000000
# 6 0.000000 0.000000 0.000000 0.076233 0.000000 0.035639
#
#
# Mechanical properties :
#
#
# Convention : Reuss Voigt Hill
#
# Bulk Modulus (GPa) = 27.98220 51.59480 39.78850
# Shear Modulus (GPa) = -14.47779 19.71901 2.62061
#
# Velocity S-wave (km/s) = -2.79132 3.25762 1.18757
# Velocity P-wave (km/s) = 2.16112 6.47426 4.82631
#
# Compressibility (1/GPa) = 0.03573700
#
# Stress axis : x y z
#
# Youngs Moduli (GPa) = 56.72253 84.47332 30.05482
#
# Poissons Ratio (x) = 0.27652 0.33487
# Poissons Ratio (y) = 0.18568 -0.02746
# Poissons Ratio (z) = 0.63200 -0.07719
#
# Static dielectric constant tensor:
#      x y z
#    x 1.645920 0.000000 -0.002070 
#    y 0.000000 1.666640 0.000000 
#    z -0.002070 0.000000 1.631140 
# 
# From -- ./inp_files/45667.got.cif
#   From: 2010.05.17/outbox.cif.g08.bks.cpg/sg5_23_cif.got.tgz:45667.got - 2010.06.03 18:56:24.
