data_PCOD9125406
_publ_section_title
;
Structure prediction by ZEFSAII (Michael W. Deem and Ramdas Pophale) SiO2 
 PCOD9125406
Probable space group: C 2
;
_chemical_formula_sum "Si O2"
_cell_formula_units_Z 26
_cell_length_a 8.630055
_cell_length_b 29.818210
_cell_length_c 5.245635
_cell_angle_alpha 90.000000
_cell_angle_beta 78.867405
_cell_angle_gamma 90.000000
_cell_volume 1324.473300
_symmetry_space_group_name_H-M "C 2"
_symmetry_group_IT_number 5
_symmetry_cell_setting 'monoclinic'
loop_
_space_group_symop_operation_xyz
x,y,z
-x,y,-z
1/2+x,1/2+y,z
1/2-x,1/2+y,-z
loop_
_atom_site_type_symbol
_atom_site_label
_atom_site_fract_x
_atom_site_fract_y
_atom_site_fract_z
Si Si1 0.610487 0.472740 0.713890
Si Si2 0.843754 0.206220 0.722206
Si Si3 0.395432 0.136250 0.287154
Si Si4 0.000000 0.131463 0.000000
Si Si5 0.891753 0.305818 0.785759
Si Si6 0.829907 0.066196 0.430816
Si Si7 0.111642 0.872946 0.718583
O O1 0.500000 0.469675 0.500000
O O2 0.719358 0.516979 0.650868
O O3 0.685867 0.423232 0.690394
O O4 0.500000 0.478561 0.000000
O O5 0.692597 0.184063 0.638296
O O6 0.825689 0.255106 0.848926
O O7 0.000000 0.208492 0.500000
O O8 0.885385 0.166074 0.897204
O O9 0.500000 0.128035 0.500000
O O10 0.277581 0.093415 0.338255
O O11 0.500000 0.137838 0.000000
O O12 0.119416 0.100589 0.804804
O O13 0.748166 0.337703 0.745584
O O14 0.000000 0.304531 0.500000
O O15 0.000000 0.317863 0.000000
O O16 0.000000 0.058070 0.500000
O O17 0.000000 0.865145 0.500000
O O18 0.000000 0.872816 0.000000
#
# Coordination Sequence:
#
# PCOD9125406 Si02
#       7
#     4   4   4   2   4   4   4
#     4   9  19  34  61  94 113 150 210 258 290 356
#     4  11  23  39  61  86 116 164 214 250 287 367
#     4  12  26  38  55  88 132 163 195 250 317 367
#     4  12  16  36  66  84 118 146 220 254 288 326
#     4  11  24  40  65  93 122 159 211 258 309 367
#     4  11  21  36  64  87 116 166 213 250 294 358
#     4  10  21  41  65  91 127 158 201 259 319 369
#
# _framework density 19.630444000000001
#
# number of rings (size 3 to 8) (size 9 to 14) (size 15 to 20)
#    0.000    1.231    4.615    1.846    0.000    1.231 
#    0.000    0.769    0.000    3.692    0.000    0.000 
#    0.000    0.000    0.000    0.000    0.000    0.000 
#
# Total GULP energy -72377.514509 kJ/mol
# GULP energy per Si atom -5567.501116 kJ/mol
# Density = 1.958576 g / cm^3
# Si number density = 19.630444 Si / 1000 Ang^3
#
#
#
# Elastic Constant Matrix: (Units=GPa)
#
#
# Indices 1 2 3 4 5 6 
#
# 1 64.4983 56.9103 19.7469 0.0000 0.0494 0.0000
# 2 56.9103 188.5152 36.1628 0.0000 0.8730 0.0000
# 3 19.7469 36.1628 103.9586 0.0000 3.5235 0.0000
# 4 0.0000 0.0000 0.0000 279.7867 0.0000 145.3160
# 5 0.0494 0.8730 3.5235 0.0000 33.9487 0.0000
# 6 0.0000 0.0000 0.0000 145.3160 0.0000 94.5220
#
#
#
# Elastic Compliance Matrix: (Units=1/GPa)
#
#
# Indices 1 2 3 4 5 6 
#
# 1 0.021502 -0.006115 -0.001968 0.000000 0.000330 0.000000
# 2 -0.006115 0.007423 -0.001419 0.000000 -0.000035 0.000000
# 3 -0.001968 -0.001419 0.010523 0.000000 -0.001053 0.000000
# 4 0.000000 0.000000 0.000000 0.017736 0.000000 -0.027268
# 5 0.000330 -0.000035 -0.001053 0.000000 0.029566 0.000000
# 6 0.000000 0.000000 0.000000 -0.027268 0.000000 0.052500
#
#
# Mechanical properties :
#
#
# Convention : Reuss Voigt Hill
#
# Bulk Modulus (GPa) = 48.91860 64.73467 56.82664
# Shear Modulus (GPa) = 30.29000 97.92828 64.10914
#
# Velocity S-wave (km/s) = 3.93238 7.07066 5.72092
# Velocity P-wave (km/s) = 6.75219 9.98535 8.52347
#
# Compressibility (1/GPa) = 0.02044212
#
# Stress axis : x y z
#
# Youngs Moduli (GPa) = 46.50626 134.71306 95.03401
#
# Poissons Ratio (x) = 0.82381 0.18706
# Poissons Ratio (y) = 0.28440 0.13490
# Poissons Ratio (z) = 0.09154 0.19122
#
# Static dielectric constant tensor:
#      x y z
#    x -0.067850 0.000000 -0.836410 
#    y 0.000000 1.810890 0.000000 
#    z -0.836410 0.000000 1.337120 
# 
# From -- ./inp_files/3604.got.cif
#   From: 2010.05.17/outbox.cif.g08.bks.cpg/sg5_2_cif.got.tgz:3604.got - 2010.06.03 18:56:24.
