data_PCOD9125708
_publ_section_title
;
Structure prediction by ZEFSAII (Michael W. Deem and Ramdas Pophale) SiO2 
 PCOD9125708
Probable space group: C 2
;
_chemical_formula_sum "Si O2"
_cell_formula_units_Z 30
_cell_length_a 13.026792
_cell_length_b 7.755873
_cell_length_c 13.999859
_cell_angle_alpha 90.000000
_cell_angle_beta 64.271839
_cell_angle_gamma 90.000000
_cell_volume 1274.239166
_symmetry_space_group_name_H-M "C 2"
_symmetry_group_IT_number 5
_symmetry_cell_setting 'monoclinic'
loop_
_space_group_symop_operation_xyz
x,y,z
-x,y,-z
1/2+x,1/2+y,z
1/2-x,1/2+y,-z
loop_
_atom_site_type_symbol
_atom_site_label
_atom_site_fract_x
_atom_site_fract_y
_atom_site_fract_z
Si Si1 0.278640 0.235970 0.621795
Si Si2 0.995090 0.152113 0.894200
Si Si3 0.587343 0.200686 0.242046
Si Si4 0.090061 0.478565 0.776290
Si Si5 0.417115 0.505555 0.341644
Si Si6 0.867304 0.688601 0.072022
Si Si7 0.213630 0.942418 0.036169
Si Si8 0.000000 0.965232 0.500000
O O1 0.326866 0.175827 0.705255
O O2 0.182236 0.382731 0.674594
O O3 0.388449 0.341207 0.539272
O O4 0.213158 0.076954 0.596184
O O5 0.049513 0.338651 0.869594
O O6 0.055207 0.064832 0.778252
O O7 0.864188 0.114027 0.925376
O O8 0.000000 0.086589 0.000000
O O9 0.476423 0.316645 0.315105
O O10 0.657263 0.305049 0.132532
O O11 0.525179 0.031655 0.230130
O O12 0.144993 0.636743 0.812572
O O13 0.487442 0.574573 0.406713
O O14 0.829688 0.521252 0.026158
O O15 0.800657 0.855978 0.061013
O O16 0.000000 0.718139 0.000000
#
# Coordination Sequence:
#
# PCOD9125708 Si02
#       8
#     4   4   4   4   4   4   4   2
#     4  10  22  45  70  99 137 178 223 302 358 417
#     4  10  23  42  69 100 144 192 229 288 345 423
#     4  10  21  43  63  95 134 178 232 285 345 422
#     4  11  23  42  65  98 144 181 239 291 347 422
#     4   9  22  43  71 103 135 180 232 285 359 416
#     4  12  25  41  57  94 129 186 239 287 337 419
#     4  11  25  40  62  90 134 189 242 282 346 406
#     4  10  22  44  76 102 138 176 234 302 356 422
#
# _framework density 23.543462000000002
#
# number of rings (size 3 to 8) (size 9 to 14) (size 15 to 20)
#    0.000    1.600    2.667    0.800    5.600    2.133 
#    2.400    2.667    0.000    1.600    0.000    0.000 
#    0.000    0.000    0.000    0.000    0.000    0.000 
#
# Total GULP energy -83539.262301 kJ/mol
# GULP energy per Si atom -5569.284153 kJ/mol
# Density = 2.348988 g / cm^3
# Si number density = 23.543462 Si / 1000 Ang^3
#
#
#
# Elastic Constant Matrix: (Units=GPa)
#
#
# Indices 1 2 3 4 5 6 
#
# 1 129.2775 48.4550 26.4070 0.0000 4.7519 0.0000
# 2 48.4550 55.7620 10.8569 0.0000 -1.8560 0.0000
# 3 26.4070 10.8569 83.7000 0.0000 10.1793 0.0000
# 4 0.0000 0.0000 0.0000 13.3664 0.0000 -7.0531
# 5 4.7519 -1.8560 10.1793 0.0000 44.7049 0.0000
# 6 0.0000 0.0000 0.0000 -7.0531 0.0000 53.2703
#
#
#
# Elastic Compliance Matrix: (Units=1/GPa)
#
#
# Indices 1 2 3 4 5 6 
#
# 1 0.012014 -0.010020 -0.002350 0.000000 -0.001158 0.000000
# 2 -0.010020 0.026835 -0.000601 0.000000 0.002316 0.000000
# 3 -0.002350 -0.000601 0.013102 0.000000 -0.002759 0.000000
# 4 0.000000 0.000000 0.000000 0.080434 0.000000 0.010650
# 5 -0.001158 0.002316 -0.002759 0.000000 0.023216 0.000000
# 6 0.000000 0.000000 0.000000 0.010650 0.000000 0.020182
#
#
# Mechanical properties :
#
#
# Convention : Reuss Voigt Hill
#
# Bulk Modulus (GPa) = 38.44918 48.90859 43.67889
# Shear Modulus (GPa) = 23.76485 34.46968 29.11727
#
# Velocity S-wave (km/s) = 3.18056 3.83049 3.52055
# Velocity P-wave (km/s) = 5.46393 6.35471 5.92608
#
# Compressibility (1/GPa) = 0.02600836
#
# Stress axis : x y z
#
# Youngs Moduli (GPa) = 83.23887 37.26497 76.32312
#
# Poissons Ratio (x) = 0.37341 0.17933
# Poissons Ratio (y) = 0.83409 0.04588
# Poissons Ratio (z) = 0.19558 0.02240
#
# Static dielectric constant tensor:
#      x y z
#    x 2.038370 0.000000 0.094490 
#    y 0.000000 1.941240 0.000000 
#    z 0.094490 0.000000 2.034410 
# 
# From -- ./inp_files/52433.got.cif
#   From: 2010.05.17/outbox.cif.g08.bks.cpg/sg5_27_cif.got.tgz:52433.got - 2010.06.03 18:56:24.
