data_PCOD9125835
_publ_section_title
;
Structure prediction by ZEFSAII (Michael W. Deem and Ramdas Pophale) SiO2 
 PCOD9125835
Probable space group: C 2
;
_chemical_formula_sum "Si O2"
_cell_formula_units_Z 32
_cell_length_a 11.383181
_cell_length_b 10.872904
_cell_length_c 14.252374
_cell_angle_alpha 90.000000
_cell_angle_beta 117.186604
_cell_angle_gamma 90.000000
_cell_volume 1569.111101
_symmetry_space_group_name_H-M "C 2"
_symmetry_group_IT_number 5
_symmetry_cell_setting 'monoclinic'
loop_
_space_group_symop_operation_xyz
x,y,z
-x,y,-z
1/2+x,1/2+y,z
1/2-x,1/2+y,-z
loop_
_atom_site_type_symbol
_atom_site_label
_atom_site_fract_x
_atom_site_fract_y
_atom_site_fract_z
Si Si1 0.490548 0.339980 0.606823
Si Si2 0.871020 0.476135 0.760407
Si Si3 0.739361 0.170024 0.401471
Si Si4 0.840918 0.588927 0.942051
Si Si5 0.420238 0.613476 0.636815
Si Si6 0.771575 0.219342 0.747360
Si Si7 0.816220 0.268461 0.228458
Si Si8 0.669619 0.033379 0.853627
O O1 0.500000 0.361275 0.500000
O O2 0.379885 0.238008 0.589411
O O3 0.458030 0.470820 0.641495
O O4 0.631402 0.286346 0.687757
O O5 0.788730 0.529714 0.643308
O O6 0.808390 0.511646 0.837250
O O7 0.877387 0.329897 0.773752
O O8 0.009899 0.547658 0.799782
O O9 0.862068 0.163745 0.517063
O O10 0.755397 0.242657 0.309102
O O11 0.768888 0.714525 0.889191
O O12 0.795274 0.530074 0.023104
O O13 0.000000 0.602186 0.000000
O O14 0.306622 0.631213 0.673342
O O15 0.547196 0.693147 0.713020
O O16 0.755692 0.138813 0.835204
O O17 0.822008 0.411356 0.206062
#
# Coordination Sequence:
#
# PCOD9125835 Si02
#       8
#     4   4   4   4   4   4   4   4
#     4  12  23  42  67  97 141 184 234 281 335 409
#     4  10  21  44  68  94 137 180 225 282 342 409
#     4  11  23  42  69  98 139 190 225 275 350 409
#     4   9  22  43  70  93 126 182 224 283 357 401
#     4  12  25  42  68 102 143 186 229 283 348 408
#     4  12  24  42  68 103 136 180 229 285 340 412
#     4  11  23  44  65 102 139 174 233 290 341 417
#     4  11  23  42  68 100 135 177 229 290 343 410
#
# _framework density 20.393713000000002
#
# number of rings (size 3 to 8) (size 9 to 14) (size 15 to 20)
#    0.000    1.000    3.750    4.125    1.750    0.000 
#    0.000    0.625    0.000    0.000    0.000    0.000 
#    0.000    0.000    0.000    0.000    0.000    0.000 
#
# Total GULP energy -89206.985771 kJ/mol
# GULP energy per Si atom -5575.436611 kJ/mol
# Density = 2.034730 g / cm^3
# Si number density = 20.393713 Si / 1000 Ang^3
#
#
#
# Elastic Constant Matrix: (Units=GPa)
#
#
# Indices 1 2 3 4 5 6 
#
# 1 69.9128 29.4483 27.7633 0.0000 -18.8278 0.0000
# 2 29.4483 90.7409 27.4535 0.0000 -22.5749 0.0000
# 3 27.7633 27.4535 71.0047 0.0000 -17.7266 0.0000
# 4 0.0000 0.0000 0.0000 19.9621 0.0000 -2.7893
# 5 -18.8278 -22.5749 -17.7266 0.0000 33.7533 0.0000
# 6 0.0000 0.0000 0.0000 -2.7893 0.0000 33.8874
#
#
#
# Elastic Compliance Matrix: (Units=1/GPa)
#
#
# Indices 1 2 3 4 5 6 
#
# 1 0.019191 -0.003302 -0.004725 0.000000 0.006015 0.000000
# 2 -0.003302 0.014515 -0.002713 0.000000 0.006441 0.000000
# 3 -0.004725 -0.002713 0.018264 0.000000 0.005141 0.000000
# 4 0.000000 0.000000 0.000000 0.050678 0.000000 0.004171
# 5 0.006015 0.006441 0.005141 0.000000 0.039990 0.000000
# 6 0.000000 0.000000 0.000000 0.004171 0.000000 0.029853
#
#
# Mechanical properties :
#
#
# Convention : Reuss Voigt Hill
#
# Bulk Modulus (GPa) = 32.79879 44.55429 38.67654
# Shear Modulus (GPa) = 24.49367 27.32011 25.90689
#
# Velocity S-wave (km/s) = 3.46936 3.66407 3.56805
# Velocity P-wave (km/s) = 5.67154 6.30833 5.99839
#
# Compressibility (1/GPa) = 0.03048893
#
# Stress axis : x y z
#
# Youngs Moduli (GPa) = 52.10870 68.89267 54.75314
#
# Poissons Ratio (x) = 0.22748 0.25873
# Poissons Ratio (y) = 0.17206 0.14855
# Poissons Ratio (z) = 0.24624 0.18691
#
# Static dielectric constant tensor:
#      x y z
#    x 1.771890 0.000000 0.003840 
#    y 0.000000 1.793000 0.000000 
#    z 0.003840 0.000000 1.710310 
# 
# From -- ./inp_files/39454.got.cif
#   From: 2010.05.17/outbox.cif.g08.bks.cpg/sg5_20_cif.got.tgz:39454.got - 2010.06.03 18:56:24.
