data_PCOD9125320
_publ_section_title
;
Structure prediction by ZEFSAII (Michael W. Deem and Ramdas Pophale) SiO2 
 PCOD9125320
Probable space group: C 2
;
_chemical_formula_sum "Si O2"
_cell_formula_units_Z 16
_cell_length_a 14.295454
_cell_length_b 4.586257
_cell_length_c 8.587187
_cell_angle_alpha 90.000000
_cell_angle_beta 109.377623
_cell_angle_gamma 90.000000
_cell_volume 531.105965
_symmetry_space_group_name_H-M "C 2"
_symmetry_group_IT_number 5
_symmetry_cell_setting 'monoclinic'
loop_
_space_group_symop_operation_xyz
x,y,z
-x,y,-z
1/2+x,1/2+y,z
1/2-x,1/2+y,-z
loop_
_atom_site_type_symbol
_atom_site_label
_atom_site_fract_x
_atom_site_fract_y
_atom_site_fract_z
Si Si1 0.176643 0.776350 0.130608
Si Si2 0.319548 0.909501 0.578459
Si Si3 0.379407 0.616829 0.197529
Si Si4 0.500000 0.216247 0.500000
Si Si5 0.500000 0.666371 0.000000
O O1 0.165782 0.484185 0.229611
O O2 0.294204 0.813011 0.224247
O O3 0.172556 0.880599 0.946942
O O4 0.078799 0.951463 0.126635
O O5 0.220048 0.084115 0.467029
O O6 0.417831 0.019009 0.543787
O O7 0.442952 0.431661 0.351128
O O8 0.442413 0.811728 0.110026
#
# Coordination Sequence:
#
# PCOD9125320 Si02
#       5
#     4   4   4   2   2
#     4  10  21  43  68 102 141 188 243 293 365 433
#     4  12  27  46  74 108 148 191 246 304 363 437
#     4  10  21  40  70  98 144 186 241 298 360 437
#     4  12  22  44  72 108 148 192 240 302 374 424
#     4   8  20  38  62  94 140 182 236 296 352 424
#
# _framework density 30.125814999999999
#
# number of rings (size 3 to 8) (size 9 to 14) (size 15 to 20)
#    1.500    0.000    5.000    0.000    3.500    1.000 
#    0.000    1.250    0.000    0.000    0.000    0.000 
#    0.000    0.000    0.000    0.000    0.000    0.000 
#
# Total GULP energy -44732.240029 kJ/mol
# GULP energy per Si atom -5591.530004 kJ/mol
# Density = 3.005725 g / cm^3
# Si number density = 30.125815 Si / 1000 Ang^3
#
#
#
# Elastic Constant Matrix: (Units=GPa)
#
#
# Indices 1 2 3 4 5 6 
#
# 1 242.6026 36.9734 56.8739 0.0000 -13.8142 0.0000
# 2 36.9734 89.8055 37.4577 0.0000 15.6615 0.0000
# 3 56.8739 37.4577 194.3654 0.0000 25.6995 0.0000
# 4 0.0000 0.0000 0.0000 53.7427 0.0000 7.1284
# 5 -13.8142 15.6615 25.6995 0.0000 64.4759 0.0000
# 6 0.0000 0.0000 0.0000 7.1284 0.0000 58.6450
#
#
#
# Elastic Compliance Matrix: (Units=1/GPa)
#
#
# Indices 1 2 3 4 5 6 
#
# 1 0.004818 -0.001776 -0.001331 0.000000 0.001994 0.000000
# 2 -0.001776 0.013045 -0.001610 0.000000 -0.002908 0.000000
# 3 -0.001331 -0.001610 0.006155 0.000000 -0.002348 0.000000
# 4 0.000000 0.000000 0.000000 0.018912 0.000000 -0.002299
# 5 0.001994 -0.002908 -0.002348 0.000000 0.017579 0.000000
# 6 0.000000 0.000000 0.000000 -0.002299 0.000000 0.017331
#
#
# Mechanical properties :
#
#
# Convention : Reuss Voigt Hill
#
# Bulk Modulus (GPa) = 68.56953 87.70929 78.13941
# Shear Modulus (GPa) = 54.26718 61.73728 58.00223
#
# Velocity S-wave (km/s) = 4.24884 4.53185 4.39262
# Velocity P-wave (km/s) = 6.84694 7.52071 7.19172
#
# Compressibility (1/GPa) = 0.01458374
#
# Stress axis : x y z
#
# Youngs Moduli (GPa) = 207.54018 76.65786 162.46567
#
# Poissons Ratio (x) = 0.13617 0.21629
# Poissons Ratio (y) = 0.36865 0.26154
# Poissons Ratio (z) = 0.27630 0.12340
#
# Static dielectric constant tensor:
#      x y z
#    x 2.350160 0.000000 -0.008860 
#    y 0.000000 2.279920 0.000000 
#    z -0.008860 0.000000 2.445210 
# 
# From -- ./inp_files/22360.got.cif
#   From: 2010.05.17/outbox.cif.g08.bks.cpg/sg5_12_cif.got.tgz:22360.got - 2010.06.03 18:56:24.
