data_PCOD9125999
_publ_section_title
;
Structure prediction by ZEFSAII (Michael W. Deem and Ramdas Pophale) SiO2 
 PCOD9125999
Probable space group: C 2
;
_chemical_formula_sum "Si O2"
_cell_formula_units_Z 26
_cell_length_a 5.218009
_cell_length_b 17.098641
_cell_length_c 12.320978
_cell_angle_alpha 90.000000
_cell_angle_beta 91.008174
_cell_angle_gamma 90.000000
_cell_volume 1099.118110
_symmetry_space_group_name_H-M "C 2"
_symmetry_group_IT_number 5
_symmetry_cell_setting 'monoclinic'
loop_
_space_group_symop_operation_xyz
x,y,z
-x,y,-z
1/2+x,1/2+y,z
1/2-x,1/2+y,-z
loop_
_atom_site_type_symbol
_atom_site_label
_atom_site_fract_x
_atom_site_fract_y
_atom_site_fract_z
Si Si1 0.500000 0.773190 0.500000
Si Si2 0.883127 0.217601 0.887828
Si Si3 0.707204 0.850593 0.288387
Si Si4 0.705262 0.448259 0.292788
Si Si5 0.191605 0.073850 0.804860
Si Si6 0.000000 0.599261 0.000000
Si Si7 0.680720 0.135335 0.398565
Si Si8 0.000000 0.005276 0.500000
O O1 0.658933 0.820650 0.411301
O O2 0.324353 0.716814 0.421833
O O3 0.666237 0.158830 0.929106
O O4 0.820183 0.282882 0.799969
O O5 0.076139 0.158633 0.830870
O O6 0.000000 0.252509 0.000000
O O7 0.997196 0.879384 0.280680
O O8 0.491465 0.918672 0.266404
O O9 0.548678 0.516535 0.226644
O O10 0.699293 0.462353 0.423891
O O11 0.328319 0.048545 0.917027
O O12 0.410295 0.103286 0.718108
O O13 0.500000 0.129717 0.500000
O O14 0.876359 0.064890 0.416234
#
# Coordination Sequence:
#
# PCOD9125999 Si02
#       8
#     2   4   4   4   4   2   4   2
#     4  11  24  38  66 108 139 190 228 288 343 442
#     4  10  24  46  71  98 135 183 242 295 353 415
#     4  12  27  45  70 105 148 186 229 289 361 428
#     4  11  27  44  70 103 148 189 228 290 355 433
#     4  10  23  46  71 103 137 186 248 292 356 420
#     4  10  24  42  82 100 132 188 250 314 346 424
#     4  10  22  36  70 102 141 181 239 296 341 418
#     4   9  22  42  60 102 141 196 226 280 351 424
#
# _framework density 23.655327
#
# number of rings (size 3 to 8) (size 9 to 14) (size 15 to 20)
#    0.000    1.538    1.538    0.923   15.077    0.000 
#    1.385    0.000    0.000    0.000    0.000    0.000 
#    0.000    0.000    0.000    0.000    0.000    0.000 
#
# Total GULP energy -72434.696167 kJ/mol
# GULP energy per Si atom -5571.899705 kJ/mol
# Density = 2.360149 g / cm^3
# Si number density = 23.655327 Si / 1000 Ang^3
#
#
#
# Elastic Constant Matrix: (Units=GPa)
#
#
# Indices 1 2 3 4 5 6 
#
# 1 32.5493 -6.3840 -19.6610 0.0000 4.8658 0.0000
# 2 -6.3840 51.7036 35.9774 0.0000 14.2181 0.0000
# 3 -19.6610 35.9774 78.3933 0.0000 17.0844 0.0000
# 4 0.0000 0.0000 0.0000 23.3588 0.0000 4.4247
# 5 4.8658 14.2181 17.0844 0.0000 40.3814 0.0000
# 6 0.0000 0.0000 0.0000 4.4247 0.0000 27.7297
#
#
#
# Elastic Compliance Matrix: (Units=1/GPa)
#
#
# Indices 1 2 3 4 5 6 
#
# 1 0.039523 -0.001214 0.012574 0.000000 -0.009654 0.000000
# 2 -0.001214 0.029378 -0.012739 0.000000 -0.004808 0.000000
# 3 0.012574 -0.012739 0.023253 0.000000 -0.006867 0.000000
# 4 0.000000 0.000000 0.000000 0.044145 0.000000 -0.007044
# 5 -0.009654 -0.004808 -0.006867 0.000000 0.030525 0.000000
# 6 0.000000 0.000000 0.000000 -0.007044 0.000000 0.037186
#
#
# Mechanical properties :
#
#
# Convention : Reuss Voigt Hill
#
# Bulk Modulus (GPa) = 11.18658 20.27901 15.73280
# Shear Modulus (GPa) = 21.13568 28.47490 24.80529
#
# Velocity S-wave (km/s) = 2.99236 3.47326 3.24174
# Velocity P-wave (km/s) = 4.08390 4.96750 4.54721
#
# Compressibility (1/GPa) = 0.08939281
#
# Stress axis : x y z
#
# Youngs Moduli (GPa) = 25.30199 34.03959 43.00585
#
# Poissons Ratio (x) = 0.04134 -0.54073
# Poissons Ratio (y) = 0.03072 0.54786
# Poissons Ratio (z) = -0.31813 0.43364
#
# Static dielectric constant tensor:
#      x y z
#    x 1.995110 0.000000 -0.185090 
#    y 0.000000 1.918680 0.000000 
#    z -0.185090 0.000000 2.642250 
# 
# From -- ./inp_files/33553.got.cif
#   From: 2010.05.17/outbox.cif.g08.bks.cpg/sg5_17_cif.got.tgz:33553.got - 2010.06.03 18:56:24.
