data_PCOD9125749
_publ_section_title
;
Structure prediction by ZEFSAII (Michael W. Deem and Ramdas Pophale) SiO2 
 PCOD9125749
Probable space group: C 2
;
_chemical_formula_sum "Si O2"
_cell_formula_units_Z 24
_cell_length_a 7.373647
_cell_length_b 12.710071
_cell_length_c 10.640425
_cell_angle_alpha 90.000000
_cell_angle_beta 75.383397
_cell_angle_gamma 90.000000
_cell_volume 964.942312
_symmetry_space_group_name_H-M "C 2"
_symmetry_group_IT_number 5
_symmetry_cell_setting 'monoclinic'
loop_
_space_group_symop_operation_xyz
x,y,z
-x,y,-z
1/2+x,1/2+y,z
1/2-x,1/2+y,-z
loop_
_atom_site_type_symbol
_atom_site_label
_atom_site_fract_x
_atom_site_fract_y
_atom_site_fract_z
Si Si1 0.500000 0.279011 0.500000
Si Si2 0.162954 0.437563 0.237364
Si Si3 0.056684 0.236972 0.123062
Si Si4 0.780305 0.957242 0.688585
Si Si5 0.237569 0.641822 0.339614
Si Si6 0.500000 0.628501 0.500000
Si Si7 0.725900 0.023746 0.963161
O O1 0.358349 0.363972 0.588691
O O2 0.531294 0.191109 0.382739
O O3 0.151701 0.313090 0.210533
O O4 0.241727 0.514187 0.332851
O O5 0.942636 0.464390 0.284389
O O6 0.264647 0.480215 0.094592
O O7 0.188581 0.138863 0.070902
O O8 0.862233 0.191133 0.209312
O O9 0.000000 0.291727 0.000000
O O10 0.805649 0.952695 0.835126
O O11 0.886456 0.059427 0.620081
O O12 0.341245 0.684234 0.447143
O O13 0.500000 0.031179 0.000000
#
# Coordination Sequence:
#
# PCOD9125749 Si02
#       7
#     2   4   4   4   4   2   4
#     4  11  24  44  73 106 154 209 254 310 373 460
#     4  11  24  44  75 106 148 197 251 321 383 445
#     4  12  23  47  74 113 151 194 252 315 389 456
#     4  10  21  43  68 104 142 201 249 307 371 453
#     4  12  25  47  71 108 150 205 255 311 380 446
#     4  11  24  44  65  94 152 191 254 310 351 454
#     4  10  22  43  72 106 151 193 243 316 385 449
#
# _framework density 24.871953999999999
#
# number of rings (size 3 to 8) (size 9 to 14) (size 15 to 20)
#    0.000    1.000    5.000    2.500    0.000    0.000 
#    9.000    0.000    0.000    0.000    0.000    0.000 
#    0.000    0.000    0.000    0.000    0.000    0.000 
#
# Total GULP energy -66861.812673 kJ/mol
# GULP energy per Si atom -5571.817723 kJ/mol
# Density = 2.481534 g / cm^3
# Si number density = 24.871954 Si / 1000 Ang^3
#
#
#
# Elastic Constant Matrix: (Units=GPa)
#
#
# Indices 1 2 3 4 5 6 
#
# 1 61.9827 29.8846 50.4111 0.0000 -8.4168 0.0000
# 2 29.8846 129.2335 37.5496 0.0000 -16.6894 0.0000
# 3 50.4111 37.5496 134.4265 0.0000 -33.9270 0.0000
# 4 0.0000 0.0000 0.0000 50.1857 0.0000 -12.2454
# 5 -8.4168 -16.6894 -33.9270 0.0000 46.5155 0.0000
# 6 0.0000 0.0000 0.0000 -12.2454 0.0000 11.4048
#
#
#
# Elastic Compliance Matrix: (Units=1/GPa)
#
#
# Indices 1 2 3 4 5 6 
#
# 1 0.024854 -0.003520 -0.009218 0.000000 -0.003489 0.000000
# 2 -0.003520 0.009018 -0.000666 0.000000 0.002113 0.000000
# 3 -0.009218 -0.000666 0.012992 0.000000 0.007569 0.000000
# 4 0.000000 0.000000 0.000000 0.026999 0.000000 0.028990
# 5 -0.003489 0.002113 0.007569 0.000000 0.027146 0.000000
# 6 0.000000 0.000000 0.000000 0.028990 0.000000 0.118809
#
#
# Mechanical properties :
#
#
# Convention : Reuss Voigt Hill
#
# Bulk Modulus (GPa) = 49.85646 62.37035 56.11341
# Shear Modulus (GPa) = 19.73865 35.47436 27.60651
#
# Velocity S-wave (km/s) = 2.82017 3.78071 3.33520
# Velocity P-wave (km/s) = 5.54015 6.64751 6.11893
#
# Compressibility (1/GPa) = 0.02005758
#
# Stress axis : x y z
#
# Youngs Moduli (GPa) = 40.23578 110.88723 76.97025
#
# Poissons Ratio (x) = 0.39027 0.70948
# Poissons Ratio (y) = 0.14161 0.05125
# Poissons Ratio (z) = 0.37088 0.07384
#
# Static dielectric constant tensor:
#      x y z
#    x 2.168750 0.000000 0.028610 
#    y 0.000000 1.992500 0.000000 
#    z 0.028610 0.000000 1.993630 
# 
# From -- ./inp_files/35365.got.cif
#   From: 2010.05.17/outbox.cif.g08.bks.cpg/sg5_18_cif.got.tgz:35365.got - 2010.06.03 18:56:24.
