data_PCOD9125672
_publ_section_title
;
Structure prediction by ZEFSAII (Michael W. Deem and Ramdas Pophale) SiO2 
 PCOD9125672
Probable space group: C 2
;
_chemical_formula_sum "Si O2"
_cell_formula_units_Z 22
_cell_length_a 6.091932
_cell_length_b 24.145562
_cell_length_c 7.774049
_cell_angle_alpha 90.000000
_cell_angle_beta 121.825934
_cell_angle_gamma 90.000000
_cell_volume 971.587212
_symmetry_space_group_name_H-M "C 2"
_symmetry_group_IT_number 5
_symmetry_cell_setting 'monoclinic'
loop_
_space_group_symop_operation_xyz
x,y,z
-x,y,-z
1/2+x,1/2+y,z
1/2-x,1/2+y,-z
loop_
_atom_site_type_symbol
_atom_site_label
_atom_site_fract_x
_atom_site_fract_y
_atom_site_fract_z
Si Si1 0.000000 0.071950 0.000000
Si Si2 0.266416 0.742171 0.217576
Si Si3 0.500000 0.802130 0.000000
Si Si4 0.266228 0.619049 0.217919
Si Si5 0.000000 0.426363 0.500000
Si Si6 0.949069 0.842583 0.680176
Si Si7 0.470215 0.009789 0.788226
O O1 0.022121 0.109023 0.840078
O O2 0.752452 0.034298 0.869246
O O3 0.472590 0.764432 0.161438
O O4 0.298784 0.680250 0.301775
O O5 0.205554 0.786280 0.339876
O O6 0.000000 0.740620 0.000000
O O7 0.765308 0.837522 0.117745
O O8 0.225506 0.562391 0.306551
O O9 0.000000 0.619837 0.000000
O O10 0.750818 0.389904 0.344167
O O11 0.085878 0.463295 0.373440
O O12 0.000000 0.848809 0.500000
O O13 0.500000 0.990954 0.000000
#
# Coordination Sequence:
#
# PCOD9125672 Si02
#       7
#     2   4   2   4   2   4   4
#     4   8  15  34  62  98 128 170 221 272 342 414
#     4   9  18  37  65 100 134 174 219 277 348 412
#     4  10  21  42  70  98 140 178 229 274 352 410
#     4   8  15  32  64  98 131 168 218 272 342 418
#     4  12  26  48  66  96 146 180 240 292 334 410
#     4  11  25  45  64  97 140 181 229 286 336 413
#     4   9  21  42  65  98 131 177 231 281 349 406
#
# _framework density 22.643360000000001
#
# number of rings (size 3 to 8) (size 9 to 14) (size 15 to 20)
#    0.000    2.909    0.000    1.636    0.000    4.364 
#   22.909    0.000    4.000    0.000    0.000    0.000 
#    0.000    0.000    0.000    0.000    0.000    0.000 
#
# Total GULP energy -61371.903112 kJ/mol
# GULP energy per Si atom -5579.263919 kJ/mol
# Density = 2.259182 g / cm^3
# Si number density = 22.643360 Si / 1000 Ang^3
#
#
#
# Elastic Constant Matrix: (Units=GPa)
#
#
# Indices 1 2 3 4 5 6 
#
# 1 111.5505 55.3383 24.1366 0.0000 1.6125 0.0000
# 2 55.3383 162.8593 44.5693 0.0000 -8.1274 0.0000
# 3 24.1366 44.5693 74.5265 0.0000 13.6220 0.0000
# 4 0.0000 0.0000 0.0000 -36.8728 0.0000 0.1220
# 5 1.6125 -8.1274 13.6220 0.0000 37.2585 0.0000
# 6 0.0000 0.0000 0.0000 0.1220 0.0000 7.3899
#
#
#
# Elastic Compliance Matrix: (Units=1/GPa)
#
#
# Indices 1 2 3 4 5 6 
#
# 1 0.010951 -0.003372 -0.001403 0.000000 -0.000697 0.000000
# 2 -0.003372 0.008815 -0.004884 0.000000 0.003854 0.000000
# 3 -0.001403 -0.004884 0.018193 0.000000 -0.007656 0.000000
# 4 0.000000 0.000000 0.000000 -0.027119 0.000000 0.000448
# 5 -0.000697 0.003854 -0.007656 0.000000 0.030510 0.000000
# 6 0.000000 0.000000 0.000000 0.000448 0.000000 0.135312
#
#
# Mechanical properties :
#
#
# Convention : Reuss Voigt Hill
#
# Bulk Modulus (GPa) = 53.64560 66.33606 59.99083
# Shear Modulus (GPa) = 24.72885 16.54792 20.63838
#
# Velocity S-wave (km/s) = 3.30828 2.70628 3.02231
# Velocity P-wave (km/s) = 6.19160 6.25499 6.22338
#
# Compressibility (1/GPa) = 0.01864086
#
# Stress axis : x y z
#
# Youngs Moduli (GPa) = 91.31688 113.44301 54.96733
#
# Poissons Ratio (x) = 0.38252 0.07711
# Poissons Ratio (y) = 0.30791 0.26847
# Poissons Ratio (z) = 0.12810 0.55407
#
# Static dielectric constant tensor:
#      x y z
#    x 2.521410 0.000000 -0.297780 
#    y 0.000000 1.875860 0.000000 
#    z -0.297780 0.000000 2.014620 
# 
# From -- ./inp_files/12912.got.cif
#   From: 2010.05.17/outbox.cif.g08.bks.cpg/sg5_7_cif.got.tgz:12912.got - 2010.06.03 18:56:24.
