data_PCOD9125620
_publ_section_title
;
Structure prediction by ZEFSAII (Michael W. Deem and Ramdas Pophale) SiO2 
 PCOD9125620
Probable space group: C 2
;
_chemical_formula_sum "Si O2"
_cell_formula_units_Z 24
_cell_length_a 21.075125
_cell_length_b 7.194988
_cell_length_c 13.914226
_cell_angle_alpha 90.000000
_cell_angle_beta 24.084667
_cell_angle_gamma 90.000000
_cell_volume 861.015864
_symmetry_space_group_name_H-M "C 2"
_symmetry_group_IT_number 5
_symmetry_cell_setting 'monoclinic'
loop_
_space_group_symop_operation_xyz
x,y,z
-x,y,-z
1/2+x,1/2+y,z
1/2-x,1/2+y,-z
loop_
_atom_site_type_symbol
_atom_site_label
_atom_site_fract_x
_atom_site_fract_y
_atom_site_fract_z
Si Si1 0.183895 0.857860 0.936955
Si Si2 0.157267 0.434541 0.935432
Si Si3 0.573776 0.433778 0.564008
Si Si4 0.441612 0.820247 0.721123
Si Si5 0.778241 0.971740 0.308554
Si Si6 0.326557 0.103937 0.355110
O O1 0.136969 0.989606 0.912033
O O2 0.209240 0.650487 0.862772
O O3 0.336664 0.911688 0.784709
O O4 0.051317 0.824438 0.200259
O O5 0.302235 0.341861 0.679062
O O6 0.141834 0.344030 0.060771
O O7 0.978696 0.468935 0.144431
O O8 0.472090 0.602271 0.659604
O O9 0.687398 0.525097 0.484779
O O10 0.608104 0.912314 0.506115
O O11 0.851743 0.800868 0.268237
O O12 0.740641 0.119329 0.443710
#
# Coordination Sequence:
#
# PCOD9125620 Si02
#       6
#     4   4   4   4   4   4
#     4  12  23  41  70  96 132 176 217 266 331 385
#     4  11  23  43  70  94 135 176 212 274 320 391
#     4  11  24  42  69  99 130 177 214 273 325 383
#     4  10  23  43  65  99 131 175 219 262 328 387
#     4  10  22  41  69  94 130 174 215 272 322 389
#     4  10  21  42  67  96 129 170 222 260 335 381
#
# _framework density 27.874051999999999
#
# number of rings (size 3 to 8) (size 9 to 14) (size 15 to 20)
#    0.000    1.333    3.333    3.000    0.000    4.000 
#    9.000    0.000    0.000    0.000    0.000    0.000 
#    0.000    0.000    0.000    0.000    0.000    0.000 
#
# Total GULP energy -67164.254891 kJ/mol
# GULP energy per Si atom -5597.021241 kJ/mol
# Density = 2.781061 g / cm^3
# Si number density = 27.874052 Si / 1000 Ang^3
#
#
#
# Elastic Constant Matrix: (Units=GPa)
#
#
# Indices 1 2 3 4 5 6 
#
# 1 173.3210 16.6476 71.2824 0.0001 16.2667 0.0000
# 2 16.6476 69.6244 19.9840 -0.0005 3.8341 0.0001
# 3 71.2824 19.9840 162.3672 -0.0002 23.6800 0.0001
# 4 0.0001 -0.0005 -0.0002 40.0145 0.0001 2.8127
# 5 16.2667 3.8341 23.6800 0.0001 58.9420 0.0001
# 6 0.0000 0.0001 0.0001 2.8127 0.0001 27.1165
#
#
#
# Elastic Compliance Matrix: (Units=1/GPa)
#
#
# Indices 1 2 3 4 5 6 
#
# 1 0.007117 -0.000824 -0.002915 0.000000 -0.000739 0.000000
# 2 -0.000824 0.014988 -0.001459 0.000000 -0.000161 0.000000
# 3 -0.002915 -0.001459 0.007953 0.000000 -0.002296 0.000000
# 4 0.000000 0.000000 0.000000 0.025174 0.000000 -0.002611
# 5 -0.000739 -0.000161 -0.002296 0.000000 0.018103 0.000000
# 6 0.000000 0.000000 0.000000 -0.002611 0.000000 0.037149
#
#
# Mechanical properties :
#
#
# Convention : Reuss Voigt Hill
#
# Bulk Modulus (GPa) = 50.86407 69.01561 59.93984
# Shear Modulus (GPa) = 39.23570 45.04118 42.13844
#
# Velocity S-wave (km/s) = 3.75588 4.02416 3.89233
# Velocity P-wave (km/s) = 6.09067 6.81215 6.46149
#
# Compressibility (1/GPa) = 0.01966024
#
# Stress axis : x y z
#
# Youngs Moduli (GPa) = 140.50483 66.72181 125.73596
#
# Poissons Ratio (x) = 0.05500 0.36656
# Poissons Ratio (y) = 0.11582 0.18348
# Poissons Ratio (z) = 0.40961 0.09737
#
# Static dielectric constant tensor:
#      x y z
#    x 2.195180 0.000000 0.107110 
#    y 0.000000 2.178990 0.000000 
#    z 0.107110 0.000000 2.206800 
# 
# From -- ./inp_files/63230.got.cif
#   From: 2010.05.17/outbox.cif.g08.bks.cpg/sg5_32_cif.got.tgz:63230.got - 2010.06.03 18:56:24.
