data_PCOD9125610
_publ_section_title
;
Structure prediction by ZEFSAII (Michael W. Deem and Ramdas Pophale) SiO2 
 PCOD9125610
Probable space group: C 2
;
_chemical_formula_sum "Si O2"
_cell_formula_units_Z 24
_cell_length_a 8.501464
_cell_length_b 19.365654
_cell_length_c 9.131456
_cell_angle_alpha 90.000000
_cell_angle_beta 51.191313
_cell_angle_gamma 90.000000
_cell_volume 1171.490584
_symmetry_space_group_name_H-M "C 2"
_symmetry_group_IT_number 5
_symmetry_cell_setting 'monoclinic'
loop_
_space_group_symop_operation_xyz
x,y,z
-x,y,-z
1/2+x,1/2+y,z
1/2-x,1/2+y,-z
loop_
_atom_site_type_symbol
_atom_site_label
_atom_site_fract_x
_atom_site_fract_y
_atom_site_fract_z
Si Si1 0.500000 0.492350 0.000000
Si Si2 0.872226 0.262713 0.931500
Si Si3 0.779558 0.415539 0.078318
Si Si4 0.225542 0.224540 0.542703
Si Si5 0.997768 0.664282 0.842494
Si Si6 0.814901 0.588524 0.685690
Si Si7 0.000000 0.849757 0.500000
O O1 0.348455 0.452371 0.976915
O O2 0.624360 0.541379 0.817865
O O3 0.998433 0.243376 0.714966
O O4 0.846319 0.343329 0.967107
O O5 0.656009 0.228080 0.059537
O O6 0.000000 0.238287 0.000000
O O7 0.632893 0.394402 0.304088
O O8 0.000000 0.446808 0.000000
O O9 0.297761 0.193311 0.347155
O O10 0.277490 0.160346 0.621478
O O11 0.351352 0.294396 0.505668
O O12 0.897200 0.610078 0.794279
O O13 0.000000 0.633082 0.000000
O O14 0.000000 0.550360 0.500000
#
# Coordination Sequence:
#
# PCOD9125610 Si02
#       7
#     2   4   4   4   4   4   2
#     4  12  28  46  64  94 136 188 236 264 312 402
#     4  11  18  35  63  93 131 169 204 258 344 395
#     4  11  25  42  67  96 134 182 225 271 328 395
#     4  11  18  38  71  96 127 170 210 272 352 403
#     4  11  22  35  63 105 132 156 211 285 339 393
#     4  10  21  42  67  91 125 182 222 263 336 397
#     4  12  18  40  72 102 128 172 216 278 356 402
#
# _framework density 20.486719999999998
#
# number of rings (size 3 to 8) (size 9 to 14) (size 15 to 20)
#    0.000    1.000    9.167    1.000    1.167    2.667 
#    0.000    1.667    0.000    0.000    0.000    0.000 
#    0.000    0.000    0.000    0.000    0.000    0.000 
#
# Total GULP energy -66884.362156 kJ/mol
# GULP energy per Si atom -5573.696846 kJ/mol
# Density = 2.044009 g / cm^3
# Si number density = 20.486720 Si / 1000 Ang^3
#
#
#
# Elastic Constant Matrix: (Units=GPa)
#
#
# Indices 1 2 3 4 5 6 
#
# 1 103.7520 34.5550 51.0638 0.0000 6.2118 0.0000
# 2 34.5550 41.9591 37.6440 0.0000 -7.9178 0.0000
# 3 51.0638 37.6440 161.3487 0.0000 -13.3830 0.0000
# 4 0.0000 0.0000 0.0000 -45.8604 0.0000 21.3898
# 5 6.2118 -7.9178 -13.3830 0.0000 30.5172 0.0000
# 6 0.0000 0.0000 0.0000 21.3898 0.0000 36.2854
#
#
#
# Elastic Compliance Matrix: (Units=1/GPa)
#
#
# Indices 1 2 3 4 5 6 
#
# 1 0.015248 -0.011459 -0.002756 0.000000 -0.007286 0.000000
# 2 -0.011459 0.039481 -0.004713 0.000000 0.010509 0.000000
# 3 -0.002756 -0.004713 0.008421 0.000000 0.003031 0.000000
# 4 0.000000 0.000000 0.000000 -0.017103 0.000000 0.010082
# 5 -0.007286 0.010509 0.003031 0.000000 0.038307 0.000000
# 6 0.000000 0.000000 0.000000 0.010082 0.000000 0.021616
#
#
# Mechanical properties :
#
#
# Convention : Reuss Voigt Hill
#
# Bulk Modulus (GPa) = 39.53654 61.50950 50.52302
# Shear Modulus (GPa) = 32.83898 16.44156 24.64027
#
# Velocity S-wave (km/s) = 4.00802 2.83600 3.47182
# Velocity P-wave (km/s) = 6.38431 6.38852 6.38641
#
# Compressibility (1/GPa) = 0.02529306
#
# Stress axis : x y z
#
# Youngs Moduli (GPa) = 65.58398 25.32861 118.74876
#
# Poissons Ratio (x) = 0.29024 0.32732
# Poissons Ratio (y) = 0.75152 0.55967
# Poissons Ratio (z) = 0.18078 0.11938
#
# Static dielectric constant tensor:
#      x y z
#    x 2.054880 0.000000 0.065760 
#    y 0.000000 1.698290 0.000000 
#    z 0.065760 0.000000 1.781570 
# 
# From -- ./inp_files/16756.got.cif
#   From: 2010.05.17/outbox.cif.g08.bks.cpg/sg5_9_cif.got.tgz:16756.got - 2010.06.03 18:56:24.
