data_PCOD9125545
_publ_section_title
;
Structure prediction by ZEFSAII (Michael W. Deem and Ramdas Pophale) SiO2 
 PCOD9125545
Probable space group: C 2
;
_chemical_formula_sum "Si O2"
_cell_formula_units_Z 26
_cell_length_a 9.311583
_cell_length_b 27.785057
_cell_length_c 9.224555
_cell_angle_alpha 90.000000
_cell_angle_beta 33.619601
_cell_angle_gamma 90.000000
_cell_volume 1321.406065
_symmetry_space_group_name_H-M "C 2"
_symmetry_group_IT_number 5
_symmetry_cell_setting 'monoclinic'
loop_
_space_group_symop_operation_xyz
x,y,z
-x,y,-z
1/2+x,1/2+y,z
1/2-x,1/2+y,-z
loop_
_atom_site_type_symbol
_atom_site_label
_atom_site_fract_x
_atom_site_fract_y
_atom_site_fract_z
Si Si1 0.413037 0.402960 0.404175
Si Si2 0.389979 0.598009 0.252990
Si Si3 0.589864 0.847161 0.092323
Si Si4 0.212063 0.990828 0.690087
Si Si5 0.000000 0.682514 0.500000
Si Si6 0.703228 0.654979 0.199195
Si Si7 0.805989 0.237499 0.025990
O O1 0.500000 0.406864 0.500000
O O2 0.365254 0.454275 0.371625
O O3 0.152220 0.370200 0.619049
O O4 0.648453 0.377914 0.120181
O O5 0.270330 0.545874 0.382256
O O6 0.619744 0.610020 0.170027
O O7 0.200853 0.643942 0.400783
O O8 0.500000 0.595036 0.000000
O O9 0.500000 0.848332 0.000000
O O10 0.661928 0.791499 0.056702
O O11 0.500000 0.977329 0.500000
O O12 0.000000 0.988276 0.000000
O O13 0.949510 0.718998 0.676110
O O14 0.500000 0.656652 0.500000
O O15 0.661927 0.701298 0.132540
O O16 0.000000 0.652378 0.000000
O O17 0.000000 0.230364 0.000000
#
# Coordination Sequence:
#
# PCOD9125545 Si02
#       7
#     4   4   4   4   2   4   4
#     4  10  21  42  62  91 127 161 208 269 324 380
#     4  11  23  42  65  95 126 175 226 269 309 395
#     4   9  21  37  65  93 119 160 220 268 308 375
#     4  11  24  41  68  95 125 165 220 270 322 379
#     4  12  18  38  72  94 128 158 234 278 308 368
#     4  12  26  41  59  93 140 170 207 264 338 396
#     4  11  23  38  67  93 121 178 224 268 314 386
#
# _framework density 19.676009000000001
#
# number of rings (size 3 to 8) (size 9 to 14) (size 15 to 20)
#    0.000    1.231    3.846    1.846    5.385    0.615 
#    0.000    6.923    0.000    0.000    0.000    0.000 
#    0.000    0.000    0.000    0.000    0.000    0.000 
#
# Total GULP energy -72494.019451 kJ/mol
# GULP energy per Si atom -5576.463035 kJ/mol
# Density = 1.963123 g / cm^3
# Si number density = 19.676009 Si / 1000 Ang^3
#
#
#
# Elastic Constant Matrix: (Units=GPa)
#
#
# Indices 1 2 3 4 5 6 
#
# 1 100.4369 46.4830 44.0402 0.0000 -13.6219 0.0000
# 2 46.4830 105.9871 42.0146 0.0000 -1.8994 0.0000
# 3 44.0402 42.0146 109.7128 0.0000 -10.4018 0.0000
# 4 0.0000 0.0000 0.0000 28.7127 0.0000 -0.9137
# 5 -13.6219 -1.8994 -10.4018 0.0000 33.5217 0.0000
# 6 0.0000 0.0000 0.0000 -0.9137 0.0000 36.8281
#
#
#
# Elastic Compliance Matrix: (Units=1/GPa)
#
#
# Indices 1 2 3 4 5 6 
#
# 1 0.014318 -0.004821 -0.003478 0.000000 0.004466 0.000000
# 2 -0.004821 0.012763 -0.003163 0.000000 -0.002217 0.000000
# 3 -0.003478 -0.003163 0.011922 0.000000 0.002107 0.000000
# 4 0.000000 0.000000 0.000000 0.034855 0.000000 0.000865
# 5 0.004466 -0.002217 0.002107 0.000000 0.032174 0.000000
# 6 0.000000 0.000000 0.000000 0.000865 0.000000 0.027175
#
#
# Mechanical properties :
#
#
# Convention : Reuss Voigt Hill
#
# Bulk Modulus (GPa) = 62.18829 64.57915 63.38372
# Shear Modulus (GPa) = 30.96138 32.05244 31.50691
#
# Velocity S-wave (km/s) = 3.97112 4.04048 4.00595
# Velocity P-wave (km/s) = 7.25955 7.39323 7.32670
#
# Compressibility (1/GPa) = 0.01608020
#
# Stress axis : x y z
#
# Youngs Moduli (GPa) = 69.84007 78.34865 83.88006
#
# Poissons Ratio (x) = 0.37771 0.29174
# Poissons Ratio (y) = 0.33669 0.26530
# Poissons Ratio (z) = 0.24291 0.24780
#
# Static dielectric constant tensor:
#      x y z
#    x 1.710310 0.000000 -0.057360 
#    y 0.000000 1.685500 0.000000 
#    z -0.057360 0.000000 1.814970 
# 
# From -- ./inp_files/3656.got.cif
#   From: 2010.05.17/outbox.cif.g08.bks.cpg/sg5_2_cif.got.tgz:3656.got - 2010.06.03 18:56:24.
