data_PCOD9125603
_publ_section_title
;
Structure prediction by ZEFSAII (Michael W. Deem and Ramdas Pophale) SiO2 
 PCOD9125603
Probable space group: C 2
;
_chemical_formula_sum "Si O2"
_cell_formula_units_Z 28
_cell_length_a 17.644429
_cell_length_b 4.921580
_cell_length_c 18.972298
_cell_angle_alpha 90.000000
_cell_angle_beta 129.396252
_cell_angle_gamma 90.000000
_cell_volume 1273.166524
_symmetry_space_group_name_H-M "C 2"
_symmetry_group_IT_number 5
_symmetry_cell_setting 'monoclinic'
loop_
_space_group_symop_operation_xyz
x,y,z
-x,y,-z
1/2+x,1/2+y,z
1/2-x,1/2+y,-z
loop_
_atom_site_type_symbol
_atom_site_label
_atom_site_fract_x
_atom_site_fract_y
_atom_site_fract_z
Si Si1 0.519875 0.406650 0.298536
Si Si2 0.028413 0.257708 0.446398
Si Si3 0.168198 0.545924 0.693115
Si Si4 0.318440 0.064685 0.534907
Si Si5 0.904062 0.442268 0.897228
Si Si6 0.809418 0.037244 0.203833
Si Si7 0.622706 0.440910 0.216632
O O1 0.527645 0.582071 0.374769
O O2 0.590422 0.149879 0.360076
O O3 0.401887 0.412990 0.216240
O O4 0.567254 0.514025 0.255056
O O5 0.940206 0.474299 0.393503
O O6 0.000000 0.094420 0.500000
O O7 0.128853 0.423224 0.500107
O O8 0.180562 0.861252 0.718142
O O9 0.261006 0.458573 0.702458
O O10 0.179268 0.353908 0.770106
O O11 0.256475 0.335227 0.481196
O O12 0.803624 0.487593 0.882708
O O13 0.901896 0.647676 0.829725
O O14 0.900994 0.146121 0.860861
O O15 0.000000 0.483515 0.000000
#
# Coordination Sequence:
#
# PCOD9125603 Si02
#       7
#     4   4   4   4   4   4   4
#     4  11  24  44  65  94 131 169 222 273 321 388
#     4  11  25  43  64  91 128 175 224 283 327 373
#     4   9  19  38  57  87 114 168 209 255 308 383
#     4  12  26  44  61  91 131 174 216 285 339 374
#     4  10  21  42  66  98 131 164 207 260 318 395
#     4   9  19  38  62  87 124 164 207 249 312 387
#     4  10  23  37  68  95 125 167 212 256 324 383
#
# _framework density 21.992411000000001
#
# number of rings (size 3 to 8) (size 9 to 14) (size 15 to 20)
#    0.000    1.714    2.857    0.429    4.000    0.571 
#    5.143    1.429    0.000    0.000    0.000    0.000 
#    0.000    0.000    0.000    0.000    0.000    0.000 
#
# Total GULP energy -78057.887133 kJ/mol
# GULP energy per Si atom -5575.563367 kJ/mol
# Density = 2.194236 g / cm^3
# Si number density = 21.992411 Si / 1000 Ang^3
#
#
#
# Elastic Constant Matrix: (Units=GPa)
#
#
# Indices 1 2 3 4 5 6 
#
# 1 183.2148 20.1367 52.5953 -0.0002 27.6226 0.0004
# 2 20.1367 84.6698 7.7196 -0.0007 7.0920 0.0018
# 3 52.5953 7.7196 74.4402 0.0000 26.3017 0.0003
# 4 -0.0002 -0.0007 0.0000 18.3333 -0.0001 7.7203
# 5 27.6226 7.0920 26.3017 -0.0001 32.8593 0.0001
# 6 0.0004 0.0018 0.0003 7.7203 0.0001 24.3954
#
#
#
# Elastic Compliance Matrix: (Units=1/GPa)
#
#
# Indices 1 2 3 4 5 6 
#
# 1 0.007115 -0.001114 -0.004020 0.000000 -0.002523 0.000000
# 2 -0.001114 0.012214 0.000169 0.000001 -0.001835 -0.000001
# 3 -0.004020 0.000169 0.021020 0.000000 -0.013482 0.000000
# 4 0.000000 0.000001 0.000000 0.062932 0.000000 -0.019916
# 5 -0.002523 -0.001835 -0.013482 0.000000 0.043741 0.000000
# 6 0.000000 -0.000001 0.000000 -0.019916 0.000000 0.047294
#
#
# Mechanical properties :
#
#
# Convention : Reuss Voigt Hill
#
# Bulk Modulus (GPa) = 32.87543 55.91424 44.39484
# Shear Modulus (GPa) = 23.32238 32.57582 27.94910
#
# Velocity S-wave (km/s) = 3.26002 3.85285 3.56877
# Velocity P-wave (km/s) = 5.39920 6.72846 6.10014
#
# Compressibility (1/GPa) = 0.03041785
#
# Stress axis : x y z
#
# Youngs Moduli (GPa) = 140.54944 81.87422 47.57355
#
# Poissons Ratio (x) = 0.09123 0.19125
# Poissons Ratio (y) = 0.15661 -0.00804
# Poissons Ratio (z) = 0.56503 -0.01383
#
# Static dielectric constant tensor:
#      x y z
#    x 1.853030 0.000000 0.024430 
#    y 0.000000 1.831660 0.000000 
#    z 0.024430 0.000000 1.843880 
# 
# From -- ./inp_files/61247.got.cif
#   From: 2010.05.17/outbox.cif.g08.bks.cpg/sg5_31_cif.got.tgz:61247.got - 2010.06.03 18:56:24.
