data_PCOD9125595
_publ_section_title
;
Structure prediction by ZEFSAII (Michael W. Deem and Ramdas Pophale) SiO2 
 PCOD9125595
Probable space group: C 2
;
_chemical_formula_sum "Si O2"
_cell_formula_units_Z 16
_cell_length_a 11.888845
_cell_length_b 8.243542
_cell_length_c 9.441912
_cell_angle_alpha 90.000000
_cell_angle_beta 143.018937
_cell_angle_gamma 90.000000
_cell_volume 556.654781
_symmetry_space_group_name_H-M "C 2"
_symmetry_group_IT_number 5
_symmetry_cell_setting 'monoclinic'
loop_
_space_group_symop_operation_xyz
x,y,z
-x,y,-z
1/2+x,1/2+y,z
1/2-x,1/2+y,-z
loop_
_atom_site_type_symbol
_atom_site_label
_atom_site_fract_x
_atom_site_fract_y
_atom_site_fract_z
Si Si1 0.196134 0.302350 0.654003
Si Si2 0.854496 0.021031 0.057526
Si Si3 0.790479 0.618259 0.494373
Si Si4 0.282271 0.836620 0.822753
O O1 0.122893 0.453781 0.479375
O O2 0.316149 0.180256 0.678803
O O3 0.000000 0.225341 0.500000
O O4 0.303964 0.381670 0.893099
O O5 0.786563 0.978185 0.145439
O O6 0.071472 0.068212 0.265814
O O7 0.756221 0.179969 0.897226
O O8 0.819499 0.774708 0.422268
O O9 0.500000 0.856109 0.000000
#
# Coordination Sequence:
#
# PCOD9125595 Si02
#       4
#     4   4   4   4
#     4  11  23  41  65  96 130 166 217 269 316 386
#     4  10  21  42  66  92 131 170 211 268 323 380
#     4  10  24  42  62  95 132 166 215 269 318 385
#     4   9  19  39  62  91 128 164 211 264 314 379
#
# _framework density 28.743127999999999
#
# number of rings (size 3 to 8) (size 9 to 14) (size 15 to 20)
#    0.000    2.000    0.000    5.250    0.000    8.000 
#    0.000   11.250    0.000    3.000    0.000    0.000 
#    0.000    0.000    0.000    0.000    0.000    0.000 
#
# Total GULP energy -44914.628152 kJ/mol
# GULP energy per Si atom -5614.328519 kJ/mol
# Density = 2.867771 g / cm^3
# Si number density = 28.743128 Si / 1000 Ang^3
#
#
#
# Elastic Constant Matrix: (Units=GPa)
#
#
# Indices 1 2 3 4 5 6 
#
# 1 176.0177 51.4355 59.8954 0.0001 -40.8849 0.0001
# 2 51.4355 87.1053 63.1370 0.0000 -23.3322 0.0000
# 3 59.8954 63.1370 104.2987 0.0001 -18.9975 0.0001
# 4 0.0001 0.0000 0.0001 66.9617 0.0001 -23.2757
# 5 -40.8849 -23.3322 -18.9975 0.0001 49.4095 0.0001
# 6 0.0001 0.0000 0.0001 -23.2757 0.0001 70.8738
#
#
#
# Elastic Compliance Matrix: (Units=1/GPa)
#
#
# Indices 1 2 3 4 5 6 
#
# 1 0.008274 -0.001346 -0.003017 0.000000 0.005051 0.000000
# 2 -0.001346 0.022035 -0.011692 0.000000 0.004796 0.000000
# 3 -0.003017 -0.011692 0.018213 0.000000 -0.001015 0.000000
# 4 0.000000 0.000000 0.000000 0.016858 0.000000 0.005536
# 5 0.005051 0.004796 -0.001015 0.000000 0.026293 0.000000
# 6 0.000000 0.000000 0.000000 0.005536 0.000000 0.015928
#
#
# Mechanical properties :
#
#
# Convention : Reuss Voigt Hill
#
# Bulk Modulus (GPa) = 60.93027 79.59528 70.26277
# Shear Modulus (GPa) = 34.43937 50.31258 42.37598
#
# Velocity S-wave (km/s) = 3.46523 4.18834 3.84383
# Velocity P-wave (km/s) = 6.10366 7.15134 6.64817
#
# Compressibility (1/GPa) = 0.01641220
#
# Stress axis : x y z
#
# Youngs Moduli (GPa) = 120.85336 45.38280 54.90552
#
# Poissons Ratio (x) = 0.06111 0.16563
# Poissons Ratio (y) = 0.16273 0.64195
# Poissons Ratio (z) = 0.36457 0.53061
#
# Static dielectric constant tensor:
#      x y z
#    x 2.216950 0.000000 -0.032140 
#    y 0.000000 2.293160 0.000000 
#    z -0.032140 0.000000 2.181240 
# 
# From -- ./inp_files/18171.got.cif
#   From: 2010.05.17/outbox.cif.g08.bks.cpg/sg5_10_cif.got.tgz:18171.got - 2010.06.03 18:56:24.
