data_PCOD9125352
_publ_section_title
;
Structure prediction by ZEFSAII (Michael W. Deem and Ramdas Pophale) SiO2 
 PCOD9125352
Probable space group: C 2
;
_chemical_formula_sum "Si O2"
_cell_formula_units_Z 32
_cell_length_a 10.370484
_cell_length_b 9.469752
_cell_length_c 25.471387
_cell_angle_alpha 90.000000
_cell_angle_beta 139.820998
_cell_angle_gamma 90.000000
_cell_volume 1613.873872
_symmetry_space_group_name_H-M "C 2"
_symmetry_group_IT_number 5
_symmetry_cell_setting 'monoclinic'
loop_
_space_group_symop_operation_xyz
x,y,z
-x,y,-z
1/2+x,1/2+y,z
1/2-x,1/2+y,-z
loop_
_atom_site_type_symbol
_atom_site_label
_atom_site_fract_x
_atom_site_fract_y
_atom_site_fract_z
Si Si1 0.962575 0.239040 0.320248
Si Si2 0.939385 0.034426 0.843559
Si Si3 0.853557 0.577803 0.406642
Si Si4 0.513489 0.233945 0.154479
Si Si5 0.699683 0.521575 0.085825
Si Si6 0.316808 0.230219 0.978754
Si Si7 0.971621 0.578194 0.327459
Si Si8 0.148371 0.240362 0.594650
O O1 0.748939 0.200860 0.227511
O O2 0.991497 0.408769 0.325678
O O3 0.941708 0.204611 0.376036
O O4 0.146353 0.159606 0.350557
O O5 0.859732 0.974733 0.874463
O O6 0.752265 0.114465 0.760962
O O7 0.126367 0.132464 0.912140
O O8 0.996898 0.895428 0.828535
O O9 0.967438 0.611192 0.387986
O O10 0.815910 0.409142 0.394743
O O11 0.000000 0.612545 0.500000
O O12 0.388330 0.122375 0.148843
O O13 0.397202 0.228669 0.062872
O O14 0.733434 0.387028 0.058751
O O15 0.500000 0.595074 0.000000
O O16 0.500000 0.178496 0.000000
O O17 0.145755 0.659036 0.351782
O O18 0.000000 0.207146 0.500000
#
# Coordination Sequence:
#
# PCOD9125352 Si02
#       8
#     4   4   4   4   4   4   4   4
#     4  10  23  38  59  89 120 149 191 243 285 340
#     4  11  23  40  57  83 117 149 192 239 280 335
#     4  10  22  40  61  88 119 150 189 237 289 347
#     4  11  21  39  58  82 116 150 190 236 283 332
#     4  11  21  39  57  79 113 150 194 236 281 330
#     4  11  22  38  58  81 113 154 191 234 282 333
#     4  10  23  38  60  89 117 152 193 238 286 343
#     4  10  21  41  62  86 118 152 190 235 289 350
#
# _framework density 19.828067000000001
#
# number of rings (size 3 to 8) (size 9 to 14) (size 15 to 20)
#    0.000    1.500    3.750    1.500    1.750    3.000 
#    2.250    0.000    0.000    0.000    0.000    0.000 
#    0.000    0.000    0.000    0.000    0.000    0.000 
#
# Total GULP energy -89328.668353 kJ/mol
# GULP energy per Si atom -5583.041772 kJ/mol
# Density = 1.978294 g / cm^3
# Si number density = 19.828067 Si / 1000 Ang^3
#
#
#
# Elastic Constant Matrix: (Units=GPa)
#
#
# Indices 1 2 3 4 5 6 
#
# 1 50.0101 23.1952 -8.8638 0.0000 11.5618 0.0000
# 2 23.1952 43.7660 16.4026 0.0000 23.3515 0.0000
# 3 -8.8638 16.4026 67.9979 0.0000 10.2754 0.0000
# 4 0.0000 0.0000 0.0000 33.1487 0.0000 15.2196
# 5 11.5618 23.3515 10.2754 0.0000 36.0397 0.0000
# 6 0.0000 0.0000 0.0000 15.2196 0.0000 21.5649
#
#
#
# Elastic Compliance Matrix: (Units=1/GPa)
#
#
# Indices 1 2 3 4 5 6 
#
# 1 0.030556 -0.019704 0.008661 0.000000 0.000495 0.000000
# 2 -0.019704 0.049503 -0.011096 0.000000 -0.022590 0.000000
# 3 0.008661 -0.011096 0.018649 0.000000 -0.000906 0.000000
# 4 0.000000 0.000000 0.000000 0.044628 0.000000 -0.031497
# 5 0.000495 -0.022590 -0.000906 0.000000 0.042484 0.000000
# 6 0.000000 0.000000 0.000000 -0.031497 0.000000 0.068601
#
#
# Mechanical properties :
#
#
# Convention : Reuss Voigt Hill
#
# Bulk Modulus (GPa) = 18.37231 24.80467 21.58849
# Shear Modulus (GPa) = 15.78075 26.88667 21.33371
#
# Velocity S-wave (km/s) = 2.82419 3.68637 3.28370
# Velocity P-wave (km/s) = 4.46326 5.53680 5.02876
#
# Compressibility (1/GPa) = 0.05442974
#
# Stress axis : x y z
#
# Youngs Moduli (GPa) = 32.72719 20.20071 53.62241
#
# Poissons Ratio (x) = 0.39804 -0.46444
# Poissons Ratio (y) = 0.64486 0.59500
# Poissons Ratio (z) = -0.28346 0.22415
#
# Static dielectric constant tensor:
#      x y z
#    x 1.712400 0.000000 -0.030620 
#    y 0.000000 1.684150 0.000000 
#    z -0.030620 0.000000 1.715890 
# 
# From -- ./inp_files/71761.got.cif
#   From: 2010.05.17/outbox.cif.g08.bks.cpg/sg5_36_cif.got.tgz:71761.got - 2010.06.03 18:56:24.
