data_PCOD9125330
_publ_section_title
;
Structure prediction by ZEFSAII (Michael W. Deem and Ramdas Pophale) SiO2 
 PCOD9125330
Probable space group: C 2
;
_chemical_formula_sum "Si O2"
_cell_formula_units_Z 28
_cell_length_a 28.028371
_cell_length_b 5.801826
_cell_length_c 7.863702
_cell_angle_alpha 90.000000
_cell_angle_beta 64.078550
_cell_angle_gamma 90.000000
_cell_volume 1150.110801
_symmetry_space_group_name_H-M "C 2"
_symmetry_group_IT_number 5
_symmetry_cell_setting 'monoclinic'
loop_
_space_group_symop_operation_xyz
x,y,z
-x,y,-z
1/2+x,1/2+y,z
1/2-x,1/2+y,-z
loop_
_atom_site_type_symbol
_atom_site_label
_atom_site_fract_x
_atom_site_fract_y
_atom_site_fract_z
Si Si1 0.743486 0.547430 0.296013
Si Si2 0.548394 0.615850 0.290181
Si Si3 0.343742 0.285564 0.082565
Si Si4 0.169518 0.200197 0.708880
Si Si5 0.015175 0.611887 0.274334
Si Si6 0.856826 0.864323 0.703785
Si Si7 0.101234 0.567159 0.677341
O O1 0.779619 0.768030 0.201433
O O2 0.790357 0.370577 0.260557
O O3 0.707734 0.566448 0.519343
O O4 0.701633 0.469136 0.222312
O O5 0.500000 0.629878 0.500000
O O6 0.537760 0.371915 0.205599
O O7 0.600280 0.561174 0.322278
O O8 0.547042 0.868701 0.203690
O O9 0.356413 0.550897 0.103171
O O10 0.376609 0.165111 0.179934
O O11 0.357035 0.208964 0.872983
O O12 0.125788 0.312855 0.653767
O O13 0.961092 0.580713 0.252612
O O14 0.000000 0.621962 0.500000
O O15 0.872653 0.713354 0.516528
#
# Coordination Sequence:
#
# PCOD9125330 Si02
#       7
#     4   4   4   4   4   4   4
#     4  11  23  41  67  99 138 191 239 297 370 445
#     4  10  22  43  69 111 137 188 250 304 367 457
#     4  11  27  45  66 109 143 184 261 301 373 464
#     4  11  22  43  68 100 140 187 245 296 375 451
#     4  10  21  40  75 101 142 184 251 297 371 450
#     4  12  25  45  75 103 146 197 243 317 379 441
#     4  11  24  45  73  98 142 197 233 312 384 441
#
# _framework density 24.345483000000002
#
# number of rings (size 3 to 8) (size 9 to 14) (size 15 to 20)
#    0.000    1.143    5.714    0.857    8.000    0.000 
#    7.714    0.714    0.000    0.000    0.000    0.000 
#    0.000    0.000    0.000    0.000    0.000    0.000 
#
# Total GULP energy -78174.988862 kJ/mol
# GULP energy per Si atom -5583.927776 kJ/mol
# Density = 2.429007 g / cm^3
# Si number density = 24.345483 Si / 1000 Ang^3
#
#
#
# Elastic Constant Matrix: (Units=GPa)
#
#
# Indices 1 2 3 4 5 6 
#
# 1 179.0266 65.3506 38.5790 0.0000 38.6746 0.0000
# 2 65.3506 136.0772 23.9111 0.0000 5.2525 0.0000
# 3 38.5790 23.9111 106.4692 0.0000 14.7530 0.0000
# 4 0.0000 0.0000 0.0000 12.7067 0.0000 -11.2956
# 5 38.6746 5.2525 14.7530 0.0000 25.6620 0.0000
# 6 0.0000 0.0000 0.0000 -11.2956 0.0000 44.1371
#
#
#
# Elastic Compliance Matrix: (Units=1/GPa)
#
#
# Indices 1 2 3 4 5 6 
#
# 1 0.010447 -0.004317 -0.000822 0.000000 -0.014388 0.000000
# 2 -0.004317 0.009444 -0.001293 0.000000 0.005317 0.000000
# 3 -0.000822 -0.001293 0.010618 0.000000 -0.004601 0.000000
# 4 0.000000 0.000000 0.000000 0.101876 0.000000 0.026072
# 5 -0.014388 0.005317 -0.004601 0.000000 0.062209 0.000000
# 6 0.000000 0.000000 0.000000 0.026072 0.000000 0.029329
#
#
# Mechanical properties :
#
#
# Convention : Reuss Voigt Hill
#
# Bulk Modulus (GPa) = 56.67722 75.25050 65.96386
# Shear Modulus (GPa) = 20.60405 36.08331 28.34368
#
# Velocity S-wave (km/s) = 2.91231 3.85403 3.41578
# Velocity P-wave (km/s) = 5.88555 7.12610 6.53532
#
# Compressibility (1/GPa) = 0.01764377
#
# Stress axis : x y z
#
# Youngs Moduli (GPa) = 95.71950 105.88512 94.17740
#
# Poissons Ratio (x) = 0.45714 0.07743
# Poissons Ratio (y) = 0.41326 0.12181
# Poissons Ratio (z) = 0.07870 0.13695
#
# Static dielectric constant tensor:
#      x y z
#    x 1.895870 0.000000 -0.048500 
#    y 0.000000 2.142470 0.000000 
#    z -0.048500 0.000000 2.056750 
# 
# From -- ./inp_files/32045.got.cif
#   From: 2010.05.17/outbox.cif.g08.bks.cpg/sg5_17_cif.got.tgz:32045.got - 2010.06.03 18:56:24.
