data_PCOD9125215
_publ_section_title
;
Structure prediction by ZEFSAII (Michael W. Deem and Ramdas Pophale) SiO2 
 PCOD9125215
Probable space group: C 2
;
_chemical_formula_sum "Si O2"
_cell_formula_units_Z 32
_cell_length_a 27.217101
_cell_length_b 8.468608
_cell_length_c 20.698482
_cell_angle_alpha 90.000000
_cell_angle_beta 19.680582
_cell_angle_gamma 90.000000
_cell_volume 1606.696107
_symmetry_space_group_name_H-M "C 2"
_symmetry_group_IT_number 5
_symmetry_cell_setting 'monoclinic'
loop_
_space_group_symop_operation_xyz
x,y,z
-x,y,-z
1/2+x,1/2+y,z
1/2-x,1/2+y,-z
loop_
_atom_site_type_symbol
_atom_site_label
_atom_site_fract_x
_atom_site_fract_y
_atom_site_fract_z
Si Si1 0.120743 0.338360 0.156595
Si Si2 0.156056 0.574522 0.813092
Si Si3 0.544613 0.689449 0.758201
Si Si4 0.789862 0.909862 0.516901
Si Si5 0.571637 0.143374 0.474573
Si Si6 0.064679 0.704123 0.223979
Si Si7 0.393029 0.743876 0.075352
Si Si8 0.569312 0.772636 0.480749
O O1 0.092170 0.520927 0.171748
O O2 0.057489 0.240318 0.174843
O O3 0.033927 0.280605 0.328120
O O4 0.289920 0.307493 0.963328
O O5 0.220548 0.493521 0.667161
O O6 0.109944 0.434304 0.919459
O O7 0.284274 0.681106 0.682233
O O8 0.000000 0.662857 0.000000
O O9 0.661618 0.820023 0.637447
O O10 0.636763 0.540552 0.619659
O O11 0.443120 0.667840 0.946581
O O12 0.920542 0.787453 0.373415
O O13 0.500000 0.214106 0.500000
O O14 0.464130 0.184880 0.664631
O O15 0.729190 0.205686 0.295556
O O16 0.596475 0.957403 0.434443
O O17 0.500000 0.692509 0.000000
O O18 0.500000 0.707188 0.500000
#
# Coordination Sequence:
#
# PCOD9125215 Si02
#       8
#     4   4   4   4   4   4   4   4
#     4  11  24  41  66 102 135 181 231 283 349 415
#     4  11  22  46  69  98 137 177 235 287 340 416
#     4  12  24  43  68  98 137 178 232 289 350 414
#     4  12  24  45  66  98 137 180 231 294 351 413
#     4  10  21  40  64  95 130 175 225 277 342 409
#     4  11  23  42  67  93 137 179 225 286 349 413
#     4  11  22  41  67  92 128 175 228 277 340 416
#     4  10  24  44  65  96 140 177 226 288 343 410
#
# _framework density 19.916647999999999
#
# number of rings (size 3 to 8) (size 9 to 14) (size 15 to 20)
#    0.000    1.000    5.000    2.250    0.000    5.000 
#    4.500    0.000    0.000    0.000    0.000    0.000 
#    0.000    0.000    0.000    0.000    0.000    0.000 
#
# Total GULP energy -89269.793347 kJ/mol
# GULP energy per Si atom -5579.362084 kJ/mol
# Density = 1.987132 g / cm^3
# Si number density = 19.916648 Si / 1000 Ang^3
#
#
#
# Elastic Constant Matrix: (Units=GPa)
#
#
# Indices 1 2 3 4 5 6 
#
# 1 48.4198 43.0869 -17.7439 0.0005 -36.9229 0.0002
# 2 43.0869 13.8605 50.3849 -0.0001 28.7150 -0.0003
# 3 -17.7439 50.3849 60.6107 0.0006 -49.4349 0.0001
# 4 0.0005 -0.0001 0.0006 29.0325 0.0004 2.8439
# 5 -36.9229 28.7150 -49.4349 0.0004 13.5323 0.0001
# 6 0.0002 -0.0003 0.0001 2.8439 0.0001 5.0579
#
#
#
# Elastic Compliance Matrix: (Units=1/GPa)
#
#
# Indices 1 2 3 4 5 6 
#
# 1 0.009597 0.004745 -0.006066 0.000000 -0.006046 0.000000
# 2 0.004745 0.008844 0.005410 0.000000 0.013943 0.000000
# 3 -0.006066 0.005410 0.006384 0.000000 -0.004710 0.000000
# 4 0.000000 0.000000 0.000000 0.036452 0.000000 -0.020496
# 5 -0.006046 0.013943 -0.004710 0.000000 0.010606 0.000001
# 6 0.000000 0.000000 0.000000 -0.020496 0.000001 0.209236
#
#
# Mechanical properties :
#
#
# Convention : Reuss Voigt Hill
#
# Bulk Modulus (GPa) = 30.30124 30.48299 30.39211
# Shear Modulus (GPa) = 17.60923 12.66874 15.13899
#
# Velocity S-wave (km/s) = 2.97669 2.52481 2.76001
# Velocity P-wave (km/s) = 5.20204 4.88243 5.04477
#
# Compressibility (1/GPa) = 0.03300195
#
# Stress axis : x y z
#
# Youngs Moduli (GPa) = 104.20302 113.07143 156.64313
#
# Poissons Ratio (x) = -0.53656 0.95026
# Poissons Ratio (y) = -0.49447 -0.84741
# Poissons Ratio (z) = 0.63213 -0.61169
#
# Static dielectric constant tensor:
#      x y z
#    x 1.718440 0.000000 0.002630 
#    y 0.000000 1.718530 0.000000 
#    z 0.002630 0.000000 1.713290 
# 
# From -- ./inp_files/67573.got.cif
#   From: 2010.05.17/outbox.cif.g08.bks.cpg/sg5_34_cif.got.tgz:67573.got - 2010.06.03 18:56:24.
