data_PCOD9125899
_publ_section_title
;
Structure prediction by ZEFSAII (Michael W. Deem and Ramdas Pophale) SiO2 
 PCOD9125899
Probable space group: C 2
;
_chemical_formula_sum "Si O2"
_cell_formula_units_Z 32
_cell_length_a 13.437613
_cell_length_b 5.188419
_cell_length_c 29.114150
_cell_angle_alpha 90.000000
_cell_angle_beta 142.366325
_cell_angle_gamma 90.000000
_cell_volume 1239.440574
_symmetry_space_group_name_H-M "C 2"
_symmetry_group_IT_number 5
_symmetry_cell_setting 'monoclinic'
loop_
_space_group_symop_operation_xyz
x,y,z
-x,y,-z
1/2+x,1/2+y,z
1/2-x,1/2+y,-z
loop_
_atom_site_type_symbol
_atom_site_label
_atom_site_fract_x
_atom_site_fract_y
_atom_site_fract_z
Si Si1 0.322275 0.702290 0.902388
Si Si2 0.483118 0.483194 0.772090
Si Si3 0.385244 0.882766 0.795265
Si Si4 0.601707 0.941514 0.399075
Si Si5 0.733032 0.030478 0.964211
Si Si6 0.787455 0.692377 0.844082
Si Si7 0.798661 0.590841 0.662308
Si Si8 0.532321 0.443632 0.427375
O O1 0.348352 0.601303 0.963368
O O2 0.350660 0.480786 0.874938
O O3 0.387180 0.984655 0.912052
O O4 0.126537 0.772439 0.830748
O O5 0.395980 0.577896 0.786697
O O6 0.604930 0.701850 0.797919
O O7 0.349573 0.389567 0.687103
O O8 0.562960 0.939164 0.880714
O O9 0.276799 0.034234 0.792748
O O10 0.337654 0.989577 0.727873
O O11 0.603259 0.992109 0.345624
O O12 0.513411 0.170420 0.394902
O O13 0.791005 0.948209 0.484300
O O14 0.533312 0.668761 0.389752
O O15 0.790879 0.791907 0.015977
O O16 0.610095 0.516548 0.589406
#
# Coordination Sequence:
#
# PCOD9125899 Si02
#       8
#     4   4   4   4   4   4   4   4
#     4  10  21  46  64  94 135 181 226 302 358 430
#     4  10  23  43  67  99 149 181 230 307 367 425
#     4  12  26  44  70 109 139 194 248 303 370 452
#     4  10  25  49  70 105 151 196 233 304 348 429
#     4  12  24  45  73  95 135 190 237 297 377 436
#     4  10  23  41  69  94 143 176 233 302 362 431
#     4  12  26  39  77 106 146 190 247 295 371 428
#     4  10  25  47  73 106 148 190 250 283 362 435
#
# _framework density 25.818100000000001
#
# number of rings (size 3 to 8) (size 9 to 14) (size 15 to 20)
#    0.750    0.500    2.500    1.875    7.000    1.000 
#    0.000    7.500    0.000    0.000    0.000    0.000 
#    0.000    0.000    0.000    0.000    0.000    0.000 
#
# Total GULP energy -89390.155346 kJ/mol
# GULP energy per Si atom -5586.884709 kJ/mol
# Density = 2.575934 g / cm^3
# Si number density = 25.818100 Si / 1000 Ang^3
#
#
#
# Elastic Constant Matrix: (Units=GPa)
#
#
# Indices 1 2 3 4 5 6 
#
# 1 90.4350 22.6966 19.9704 -0.0028 -24.1732 0.0034
# 2 22.6966 129.8658 25.2379 -0.0086 -15.5579 0.0073
# 3 19.9704 25.2379 76.8318 -0.0020 -17.3113 0.0025
# 4 -0.0028 -0.0086 -0.0020 38.0560 0.0008 -5.5090
# 5 -24.1732 -15.5579 -17.3113 0.0008 48.8943 -0.0010
# 6 0.0034 0.0073 0.0025 -5.5090 -0.0010 35.8955
#
#
#
# Elastic Compliance Matrix: (Units=1/GPa)
#
#
# Indices 1 2 3 4 5 6 
#
# 1 0.013250 -0.001312 -0.001773 0.000000 0.005506 -0.000001
# 2 -0.001312 0.008504 -0.002161 0.000002 0.001292 -0.000001
# 3 -0.001773 -0.002161 0.015033 0.000000 0.003758 0.000000
# 4 0.000000 0.000002 0.000000 0.026874 0.000000 0.004124
# 5 0.005506 0.001292 0.003758 0.000000 0.024916 0.000000
# 6 -0.000001 -0.000001 0.000000 0.004124 0.000000 0.028492
#
#
# Mechanical properties :
#
#
# Convention : Reuss Voigt Hill
#
# Bulk Modulus (GPa) = 38.02857 48.10471 43.06664
# Shear Modulus (GPa) = 36.67680 39.85100 38.26390
#
# Velocity S-wave (km/s) = 3.77315 3.93304 3.85393
# Velocity P-wave (km/s) = 5.80893 6.26879 6.04323
#
# Compressibility (1/GPa) = 0.02629602
#
# Stress axis : x y z
#
# Youngs Moduli (GPa) = 75.47181 117.58677 66.52032
#
# Poissons Ratio (x) = 0.15423 0.11791
# Poissons Ratio (y) = 0.09899 0.14378
# Poissons Ratio (z) = 0.13378 0.25416
#
# Static dielectric constant tensor:
#      x y z
#    x 2.064970 0.000000 0.031140 
#    y 0.000000 2.212850 0.000000 
#    z 0.031140 0.000000 2.058960 
# 
# From -- ./inp_files/71844.got.cif
#   From: 2010.05.17/outbox.cif.g08.bks.cpg/sg5_36_cif.got.tgz:71844.got - 2010.06.03 18:56:24.
