data_PCOD9125960
_publ_section_title
;
Structure prediction by ZEFSAII (Michael W. Deem and Ramdas Pophale) SiO2 
 PCOD9125960
Probable space group: C 2
;
_chemical_formula_sum "Si O2"
_cell_formula_units_Z 18
_cell_length_a 21.396658
_cell_length_b 9.025307
_cell_length_c 8.333677
_cell_angle_alpha 90.000000
_cell_angle_beta 32.342064
_cell_angle_gamma 90.000000
_cell_volume 860.946690
_symmetry_space_group_name_H-M "C 2"
_symmetry_group_IT_number 5
_symmetry_cell_setting 'monoclinic'
loop_
_space_group_symop_operation_xyz
x,y,z
-x,y,-z
1/2+x,1/2+y,z
1/2-x,1/2+y,-z
loop_
_atom_site_type_symbol
_atom_site_label
_atom_site_fract_x
_atom_site_fract_y
_atom_site_fract_z
Si Si1 0.128490 0.406060 0.570080
Si Si2 0.582786 0.585327 0.552868
Si Si3 0.719523 0.338064 0.453482
Si Si4 0.670650 0.579284 0.002051
Si Si5 0.500000 0.148538 0.000000
O O1 0.077876 0.246691 0.642294
O O2 0.191537 0.396428 0.606189
O O3 0.033046 0.536311 0.784413
O O4 0.229814 0.455571 0.229270
O O5 0.659687 0.472733 0.488844
O O6 0.638489 0.605825 0.256062
O O7 0.450132 0.529915 0.819810
O O8 0.614688 0.248404 0.768394
O O9 0.780951 0.223369 0.197323
#
# Coordination Sequence:
#
# PCOD9125960 Si02
#       5
#     4   4   4   4   2
#     4  11  22  38  60  86 116 151 193 239 285 338
#     4  11  22  39  61  85 117 155 193 234 287 347
#     4  11  22  38  60  86 116 151 193 239 285 338
#     4  10  23  39  58  87 120 153 189 236 290 342
#     4  10  22  36  54  84 114 142 188 238 282 330
#
# _framework density 20.907218
#
# number of rings (size 3 to 8) (size 9 to 14) (size 15 to 20)
#    0.000    1.333    0.000    6.667    0.000    2.667 
#    0.000    0.000    0.000   18.667    0.000    0.000 
#    0.000    0.000    0.000    0.000    0.000    0.000 
#
# Total GULP energy -50323.402171 kJ/mol
# GULP energy per Si atom -5591.489130 kJ/mol
# Density = 2.085963 g / cm^3
# Si number density = 20.907218 Si / 1000 Ang^3
#
#
#
# Elastic Constant Matrix: (Units=GPa)
#
#
# Indices 1 2 3 4 5 6 
#
# 1 65.7346 17.2665 18.4246 0.0000 2.2682 0.0000
# 2 17.2665 69.5886 22.1522 0.0000 7.2641 0.0000
# 3 18.4246 22.1522 126.2885 0.0000 1.5933 0.0000
# 4 0.0000 0.0000 0.0000 40.8679 0.0000 -1.3640
# 5 2.2682 7.2641 1.5933 0.0000 14.9710 0.0000
# 6 0.0000 0.0000 0.0000 -1.3640 0.0000 29.3330
#
#
#
# Elastic Compliance Matrix: (Units=1/GPa)
#
#
# Indices 1 2 3 4 5 6 
#
# 1 0.016659 -0.003491 -0.001810 0.000000 -0.000638 0.000000
# 2 -0.003491 0.016747 -0.002336 0.000000 -0.007348 0.000000
# 3 -0.001810 -0.002336 0.008586 0.000000 0.000494 0.000000
# 4 0.000000 0.000000 0.000000 0.024507 0.000000 0.001140
# 5 -0.000638 -0.007348 0.000494 0.000000 0.070406 0.000000
# 6 0.000000 0.000000 0.000000 0.001140 0.000000 0.034144
#
#
# Mechanical properties :
#
#
# Convention : Reuss Voigt Hill
#
# Bulk Modulus (GPa) = 37.42659 41.92204 39.67431
# Shear Modulus (GPa) = 25.61112 30.61892 28.11502
#
# Velocity S-wave (km/s) = 3.50378 3.83105 3.67106
# Velocity P-wave (km/s) = 5.85737 6.29796 6.08165
#
# Compressibility (1/GPa) = 0.02671897
#
# Stress axis : x y z
#
# Youngs Moduli (GPa) = 60.02788 59.71273 116.46991
#
# Poissons Ratio (x) = 0.20844 0.21082
# Poissons Ratio (y) = 0.20954 0.27202
# Poissons Ratio (z) = 0.10866 0.13946
#
# Static dielectric constant tensor:
#      x y z
#    x 1.703080 0.000000 0.003310 
#    y 0.000000 1.733760 0.000000 
#    z 0.003310 0.000000 1.777130 
# 
# From -- ./inp_files/17938.got.cif
#   From: 2010.05.17/outbox.cif.g08.bks.cpg/sg5_9_cif.got.tgz:17938.got - 2010.06.03 18:56:24.
