data_PCOD9125718
_publ_section_title
;
Structure prediction by ZEFSAII (Michael W. Deem and Ramdas Pophale) SiO2 
 PCOD9125718
Probable space group: C 2
;
_chemical_formula_sum "Si O2"
_cell_formula_units_Z 26
_cell_length_a 15.430551
_cell_length_b 11.602160
_cell_length_c 14.509602
_cell_angle_alpha 90.000000
_cell_angle_beta 29.835926
_cell_angle_gamma 90.000000
_cell_volume 1292.363135
_symmetry_space_group_name_H-M "C 2"
_symmetry_group_IT_number 5
_symmetry_cell_setting 'monoclinic'
loop_
_space_group_symop_operation_xyz
x,y,z
-x,y,-z
1/2+x,1/2+y,z
1/2-x,1/2+y,-z
loop_
_atom_site_type_symbol
_atom_site_label
_atom_site_fract_x
_atom_site_fract_y
_atom_site_fract_z
Si Si1 0.477288 0.641520 0.301505
Si Si2 0.879104 0.227589 0.023557
Si Si3 0.634085 0.024817 0.215971
Si Si4 0.583432 0.176207 0.722025
Si Si5 0.873780 0.299784 0.692449
Si Si6 0.626111 0.397124 0.151687
Si Si7 0.500000 0.227025 0.000000
O O1 0.288231 0.674164 0.513787
O O2 0.616508 0.718612 0.227714
O O3 0.518585 0.508207 0.284857
O O4 0.506136 0.678300 0.168341
O O5 0.739706 0.124845 0.170667
O O6 0.763671 0.335938 0.093989
O O7 0.000000 0.251117 0.000000
O O8 0.502645 0.083588 0.266508
O O9 0.552498 0.925977 0.353388
O O10 0.767866 0.951812 0.030562
O O11 0.502081 0.298510 0.766982
O O12 0.529668 0.156544 0.878079
O O13 0.674496 0.302950 0.845204
O O14 0.000000 0.245765 0.500000
#
# Coordination Sequence:
#
# PCOD9125718 Si02
#       7
#     4   4   4   4   4   4   2
#     4  11  24  43  63 100 142 172 228 280 340 395
#     4  10  22  42  69  95 132 177 225 271 340 403
#     4  10  22  42  64  94 134 171 216 279 341 389
#     4  11  24  41  70  97 133 180 225 280 338 401
#     4  12  24  42  69 102 132 174 232 279 333 410
#     4  10  21  43  65  90 135 179 213 279 340 393
#     4  12  22  42  68  98 134 172 228 272 330 404
#
# _framework density 20.118183999999999
#
# number of rings (size 3 to 8) (size 9 to 14) (size 15 to 20)
#    0.000    1.231    4.615    1.846    3.231    1.231 
#    5.538    3.846    0.000    0.000    0.000    0.000 
#    0.000    0.000    0.000    0.000    0.000    0.000 
#
# Total GULP energy -72558.887178 kJ/mol
# GULP energy per Si atom -5581.452860 kJ/mol
# Density = 2.007239 g / cm^3
# Si number density = 20.118184 Si / 1000 Ang^3
#
#
#
# Elastic Constant Matrix: (Units=GPa)
#
#
# Indices 1 2 3 4 5 6 
#
# 1 133.1145 42.9940 39.0634 0.0000 -11.1618 0.0000
# 2 42.9940 82.8243 28.9716 0.0000 -18.2586 0.0000
# 3 39.0634 28.9716 68.8055 0.0001 -11.9928 0.0000
# 4 0.0000 0.0000 0.0001 25.5423 0.0000 1.6969
# 5 -11.1618 -18.2586 -11.9928 0.0000 30.6839 0.0000
# 6 0.0000 0.0000 0.0000 1.6969 0.0000 15.5278
#
#
#
# Elastic Compliance Matrix: (Units=1/GPa)
#
#
# Indices 1 2 3 4 5 6 
#
# 1 0.009906 -0.003767 -0.004079 0.000000 -0.000232 0.000000
# 2 -0.003767 0.016931 -0.003727 0.000000 0.007248 0.000000
# 3 -0.004079 -0.003727 0.019073 0.000000 0.003753 0.000000
# 4 0.000000 0.000000 0.000000 0.039437 0.000000 -0.004310
# 5 -0.000232 0.007248 0.003753 0.000000 0.038286 0.000000
# 6 0.000000 0.000000 0.000000 -0.004310 0.000000 0.064871
#
#
# Mechanical properties :
#
#
# Convention : Reuss Voigt Hill
#
# Bulk Modulus (GPa) = 43.92745 56.31138 50.11941
# Shear Modulus (GPa) = 22.80636 25.93182 24.36909
#
# Velocity S-wave (km/s) = 3.37058 3.59412 3.48414
# Velocity P-wave (km/s) = 6.08521 6.72865 6.41500
#
# Compressibility (1/GPa) = 0.02276481
#
# Stress axis : x y z
#
# Youngs Moduli (GPa) = 100.94479 59.06472 52.43080
#
# Poissons Ratio (x) = 0.22249 0.21384
# Poissons Ratio (y) = 0.38025 0.19541
# Poissons Ratio (z) = 0.41171 0.22014
#
# Static dielectric constant tensor:
#      x y z
#    x 1.754950 0.000000 0.017880 
#    y 0.000000 1.741280 0.000000 
#    z 0.017880 0.000000 1.719280 
# 
# From -- ./inp_files/54551.got.cif
#   From: 2010.05.17/outbox.cif.g08.bks.cpg/sg5_28_cif.got.tgz:54551.got - 2010.06.03 18:56:24.
