data_PCOD9125122
_publ_section_title
;
Structure prediction by ZEFSAII (Michael W. Deem and Ramdas Pophale) SiO2 
 PCOD9125122
Probable space group: C 2
;
_chemical_formula_sum "Si O2"
_cell_formula_units_Z 30
_cell_length_a 18.500335
_cell_length_b 14.574860
_cell_length_c 5.144137
_cell_angle_alpha 90.000000
_cell_angle_beta 96.500268
_cell_angle_gamma 90.000000
_cell_volume 1378.147051
_symmetry_space_group_name_H-M "C 2"
_symmetry_group_IT_number 5
_symmetry_cell_setting 'monoclinic'
loop_
_space_group_symop_operation_xyz
x,y,z
-x,y,-z
1/2+x,1/2+y,z
1/2-x,1/2+y,-z
loop_
_atom_site_type_symbol
_atom_site_label
_atom_site_fract_x
_atom_site_fract_y
_atom_site_fract_z
Si Si1 0.097778 0.632600 0.412692
Si Si2 0.918460 0.441570 0.356063
Si Si3 0.241064 0.652795 0.172333
Si Si4 0.775630 0.347978 0.387644
Si Si5 0.000000 0.539553 0.000000
Si Si6 0.363700 0.321818 0.349208
Si Si7 0.082098 0.929600 0.127561
Si Si8 0.708145 0.546917 0.298900
O O1 0.115237 0.535839 0.549329
O O2 0.156321 0.649025 0.209686
O O3 0.107672 0.718498 0.604549
O O4 0.022572 0.607672 0.239661
O O5 0.862217 0.364498 0.420891
O O6 0.935342 0.471288 0.064572
O O7 0.000000 0.425952 0.500000
O O8 0.263587 0.758103 0.211175
O O9 0.280000 0.589983 0.410948
O O10 0.258536 0.614250 0.899028
O O11 0.722335 0.328456 0.612922
O O12 0.744693 0.446439 0.284399
O O13 0.380814 0.368264 0.083315
O O14 0.406600 0.376351 0.595694
O O15 0.000000 0.941727 0.000000
O O16 0.124862 0.024584 0.190261
#
# Coordination Sequence:
#
# PCOD9125122 Si02
#       8
#     4   4   4   4   2   4   4   4
#     4  10  22  36  62  91 134 170 223 276 339 410
#     4  10  21  40  59  92 129 180 213 277 341 395
#     4  11  24  41  71  99 127 176 229 273 340 389
#     4  10  22  43  67  96 134 170 230 275 326 408
#     4  10  22  36  60  92 134 184 218 268 366 394
#     4  10  24  39  64  98 127 174 223 270 338 402
#     4  11  24  41  64  94 131 174 216 275 339 393
#     4  11  23  44  66  97 133 172 221 283 331 392
#
# _framework density 21.768357999999999
#
# number of rings (size 3 to 8) (size 9 to 14) (size 15 to 20)
#    0.000    1.600    1.333    2.800    2.800    8.533 
#    7.200    1.333    0.000    0.000    0.000    0.000 
#    0.000    0.000    0.000    0.000    0.000    0.000 
#
# Total GULP energy -83759.984605 kJ/mol
# GULP energy per Si atom -5583.998974 kJ/mol
# Density = 2.171881 g / cm^3
# Si number density = 21.768358 Si / 1000 Ang^3
#
#
#
# Elastic Constant Matrix: (Units=GPa)
#
#
# Indices 1 2 3 4 5 6 
#
# 1 117.9963 25.7772 5.7015 0.0000 8.1873 0.0000
# 2 25.7772 87.0180 11.0398 0.0000 4.2402 0.0000
# 3 5.7015 11.0398 81.7059 0.0000 9.7390 0.0000
# 4 0.0000 0.0000 0.0000 28.5655 0.0000 -1.2962
# 5 8.1873 4.2402 9.7390 0.0000 21.2456 0.0000
# 6 0.0000 0.0000 0.0000 -1.2962 0.0000 36.5161
#
#
#
# Elastic Compliance Matrix: (Units=1/GPa)
#
#
# Indices 1 2 3 4 5 6 
#
# 1 0.009253 -0.002600 0.000073 0.000000 -0.003080 0.000000
# 2 -0.002600 0.012481 -0.001404 0.000000 -0.000845 0.000000
# 3 0.000073 -0.001404 0.013110 0.000000 -0.005757 0.000000
# 4 0.000000 0.000000 0.000000 0.035064 0.000000 0.001245
# 5 -0.003080 -0.000845 -0.005757 0.000000 0.051064 0.000000
# 6 0.000000 0.000000 0.000000 0.001245 0.000000 0.027429
#
#
# Mechanical properties :
#
#
# Convention : Reuss Voigt Hill
#
# Bulk Modulus (GPa) = 37.06283 41.30637 39.18460
# Shear Modulus (GPa) = 30.25569 33.54554 31.90061
#
# Velocity S-wave (km/s) = 3.73217 3.92985 3.83228
# Velocity P-wave (km/s) = 5.96952 6.29350 6.13365
#
# Compressibility (1/GPa) = 0.02698121
#
# Stress axis : x y z
#
# Youngs Moduli (GPa) = 108.07214 80.11877 76.27801
#
# Poissons Ratio (x) = 0.20832 -0.00555
# Poissons Ratio (y) = 0.28101 0.10711
# Poissons Ratio (z) = -0.00787 0.11251
#
# Static dielectric constant tensor:
#      x y z
#    x 1.894630 0.000000 0.006660 
#    y 0.000000 1.762740 0.000000 
#    z 0.006660 0.000000 1.853180 
# 
# From -- ./inp_files/8553.got.cif
#   From: 2010.05.17/outbox.cif.g08.bks.cpg/sg5_5_cif.got.tgz:8553.got - 2010.06.03 18:56:24.
