data_PCOD9125535
_publ_section_title
;
Structure prediction by ZEFSAII (Michael W. Deem and Ramdas Pophale) SiO2 
 PCOD9125535
Probable space group: C 2
;
_chemical_formula_sum "Si O2"
_cell_formula_units_Z 28
_cell_length_a 26.664223
_cell_length_b 11.063776
_cell_length_c 13.497183
_cell_angle_alpha 90.000000
_cell_angle_beta 156.412662
_cell_angle_gamma 90.000000
_cell_volume 1593.288713
_symmetry_space_group_name_H-M "C 2"
_symmetry_group_IT_number 5
_symmetry_cell_setting 'monoclinic'
loop_
_space_group_symop_operation_xyz
x,y,z
-x,y,-z
1/2+x,1/2+y,z
1/2-x,1/2+y,-z
loop_
_atom_site_type_symbol
_atom_site_label
_atom_site_fract_x
_atom_site_fract_y
_atom_site_fract_z
Si Si1 0.975417 0.141750 0.338462
Si Si2 0.192797 0.998615 0.636358
Si Si3 0.925032 0.528887 0.554643
Si Si4 0.957118 0.569870 0.032122
Si Si5 0.477346 0.279938 0.719406
Si Si6 0.296850 0.417144 0.965650
Si Si7 0.653222 0.888738 0.905166
O O1 0.000000 0.156229 0.500000
O O2 0.914158 0.264285 0.188228
O O3 0.101596 0.104603 0.509246
O O4 0.879976 0.031091 0.150587
O O5 0.110185 0.896671 0.431912
O O6 0.249160 0.934861 0.836543
O O7 0.310970 0.044737 0.787670
O O8 0.967290 0.498787 0.744112
O O9 0.914161 0.674390 0.538018
O O10 0.042822 0.488304 0.701332
O O11 0.802285 0.462937 0.294787
O O12 0.990374 0.708558 0.121409
O O13 0.000000 0.540216 0.000000
O O14 0.606922 0.319926 0.903258
O O15 0.220795 0.371626 0.922924
#
# Coordination Sequence:
#
# PCOD9125535 Si02
#       7
#     4   4   4   4   4   4   4
#     4  11  22  34  55  83 119 160 191 229 282 339
#     4  10  21  42  55  88 119 149 196 243 281 355
#     4   9  21  37  54  85 116 145 201 232 283 342
#     4   9  21  43  63  84 113 149 198 253 300 335
#     4   9  22  38  60  80 119 151 193 242 291 339
#     4  11  21  36  55  85 121 160 189 233 284 347
#     4  11  22  32  58  83 124 159 192 229 282 345
#
# _framework density 17.573715
#
# number of rings (size 3 to 8) (size 9 to 14) (size 15 to 20)
#    0.857    1.143    1.429    2.143    6.000    0.000 
#    5.143    0.000    0.000    0.000    0.000    0.000 
#    0.000    0.000    0.000    0.000    0.000    0.000 
#
# Total GULP energy -78033.786338 kJ/mol
# GULP energy per Si atom -5573.841881 kJ/mol
# Density = 1.753372 g / cm^3
# Si number density = 17.573715 Si / 1000 Ang^3
#
#
#
# Elastic Constant Matrix: (Units=GPa)
#
#
# Indices 1 2 3 4 5 6 
#
# 1 94.4290 14.7332 50.6008 0.0000 12.6211 0.0000
# 2 14.7332 51.1187 20.4972 0.0000 10.3455 0.0000
# 3 50.6008 20.4972 85.4113 0.0000 9.6749 0.0000
# 4 0.0000 0.0000 0.0000 23.8474 0.0000 -2.2958
# 5 12.6211 10.3455 9.6749 0.0000 16.4241 0.0000
# 6 0.0000 0.0000 0.0000 -2.2958 0.0000 17.2757
#
#
#
# Elastic Compliance Matrix: (Units=1/GPa)
#
#
# Indices 1 2 3 4 5 6 
#
# 1 0.016305 0.000395 -0.008901 0.000000 -0.007535 0.000000
# 2 0.000395 0.023819 -0.004518 0.000000 -0.012646 0.000000
# 3 -0.008901 -0.004518 0.018182 0.000000 -0.001025 0.000000
# 4 0.000000 0.000000 0.000000 0.042477 0.000000 0.005645
# 5 -0.007535 -0.012646 -0.001025 0.000000 0.075245 0.000000
# 6 0.000000 0.000000 0.000000 0.005645 0.000000 0.058635
#
#
# Mechanical properties :
#
#
# Convention : Reuss Voigt Hill
#
# Bulk Modulus (GPa) = 30.99993 44.73571 37.86782
# Shear Modulus (GPa) = 18.41869 21.18464 19.80166
#
# Velocity S-wave (km/s) = 3.24092 3.47576 3.36039
# Velocity P-wave (km/s) = 5.62876 6.45129 6.05401
#
# Compressibility (1/GPa) = 0.03225814
#
# Stress axis : x y z
#
# Youngs Moduli (GPa) = 61.33021 41.98280 55.00094
#
# Poissons Ratio (x) = -0.01657 0.48956
# Poissons Ratio (y) = -0.02420 0.24847
# Poissons Ratio (z) = 0.54590 0.18966
#
# Static dielectric constant tensor:
#      x y z
#    x 1.563550 0.000000 -0.002750 
#    y 0.000000 1.609800 0.000000 
#    z -0.002750 0.000000 1.608680 
# 
# From -- ./inp_files/46433.got.cif
#   From: 2010.05.17/outbox.cif.g08.bks.cpg/sg5_24_cif.got.tgz:46433.got - 2010.06.03 18:56:24.
