data_PCOD9125407
_publ_section_title
;
Structure prediction by ZEFSAII (Michael W. Deem and Ramdas Pophale) SiO2 
 PCOD9125407
Probable space group: C 2
;
_chemical_formula_sum "Si O2"
_cell_formula_units_Z 26
_cell_length_a 9.716136
_cell_length_b 10.840380
_cell_length_c 13.991152
_cell_angle_alpha 90.000000
_cell_angle_beta 129.512275
_cell_angle_gamma 90.000000
_cell_volume 1136.896439
_symmetry_space_group_name_H-M "C 2"
_symmetry_group_IT_number 5
_symmetry_cell_setting 'monoclinic'
loop_
_space_group_symop_operation_xyz
x,y,z
-x,y,-z
1/2+x,1/2+y,z
1/2-x,1/2+y,-z
loop_
_atom_site_type_symbol
_atom_site_label
_atom_site_fract_x
_atom_site_fract_y
_atom_site_fract_z
Si Si1 0.500000 0.293630 0.500000
Si Si2 0.918581 0.246202 0.241328
Si Si3 0.429120 0.081687 0.322253
Si Si4 0.013041 0.487324 0.162569
Si Si5 0.796873 0.993525 0.127743
Si Si6 0.810925 0.367455 0.512906
Si Si7 0.145178 0.874847 0.233788
O O1 0.424894 0.205152 0.382179
O O2 0.654121 0.372853 0.520626
O O3 0.975291 0.355425 0.195566
O O4 0.916899 0.114462 0.193894
O O5 0.719733 0.276056 0.191699
O O6 0.054580 0.261833 0.390131
O O7 0.494226 0.085316 0.240875
O O8 0.577887 0.993208 0.436315
O O9 0.246712 0.001875 0.245858
O O10 0.195972 0.476225 0.184121
O O11 0.855770 0.511654 0.017934
O O12 0.935133 0.890343 0.153419
O O13 0.728333 0.345502 0.373778
#
# Coordination Sequence:
#
# PCOD9125407 Si02
#       7
#     2   4   4   4   4   4   4
#     4  12  22  36  66  92 122 170 208 244 338 374
#     4  10  23  44  63  91 134 165 211 269 322 377
#     4  10  21  44  60  89 135 159 203 277 303 383
#     4   9  24  44  62  96 133 156 227 273 300 380
#     4  11  23  43  68  93 124 181 211 262 323 378
#     4  10  22  38  61  97 125 163 212 262 308 392
#     4  10  21  41  65  91 129 164 214 261 320 374
#
# _framework density 22.869275999999999
#
# number of rings (size 3 to 8) (size 9 to 14) (size 15 to 20)
#    0.000    2.154    1.538    2.308    6.462    4.923 
#    0.000    4.615    0.000    0.000    0.000    0.000 
#    0.000    0.000    0.000    0.000    0.000    0.000 
#
# Total GULP energy -72696.111841 kJ/mol
# GULP energy per Si atom -5592.008603 kJ/mol
# Density = 2.281722 g / cm^3
# Si number density = 22.869276 Si / 1000 Ang^3
#
#
#
# Elastic Constant Matrix: (Units=GPa)
#
#
# Indices 1 2 3 4 5 6 
#
# 1 165.9549 15.2614 6.0278 0.0000 -7.7149 0.0000
# 2 15.2614 33.9133 -5.0005 0.0000 -2.3436 0.0000
# 3 6.0278 -5.0005 47.1624 0.0000 -10.6084 0.0000
# 4 0.0000 0.0000 0.0000 13.1420 0.0000 -3.8489
# 5 -7.7149 -2.3436 -10.6084 0.0000 38.9795 0.0000
# 6 0.0000 0.0000 0.0000 -3.8489 0.0000 22.2140
#
#
#
# Elastic Compliance Matrix: (Units=1/GPa)
#
#
# Indices 1 2 3 4 5 6 
#
# 1 0.006369 -0.002948 -0.000941 0.000000 0.000827 0.000000
# 2 -0.002948 0.031617 0.004288 0.000000 0.002484 0.000000
# 3 -0.000941 0.004288 0.023215 0.000000 0.006390 0.000000
# 4 0.000000 0.000000 0.000000 0.080159 0.000000 0.013889
# 5 0.000827 0.002484 0.006390 0.000000 0.027707 0.000000
# 6 0.000000 0.000000 0.000000 0.013889 0.000000 0.047423
#
#
# Mechanical properties :
#
#
# Convention : Reuss Voigt Hill
#
# Bulk Modulus (GPa) = 16.12864 31.06755 23.59810
# Shear Modulus (GPa) = 21.15423 30.24991 25.70207
#
# Velocity S-wave (km/s) = 3.04469 3.64088 3.35605
# Velocity P-wave (km/s) = 4.40773 5.59366 5.03573
#
# Compressibility (1/GPa) = 0.06200152
#
# Stress axis : x y z
#
# Youngs Moduli (GPa) = 156.99949 31.62807 43.07480
#
# Poissons Ratio (x) = 0.09323 0.04051
# Poissons Ratio (y) = 0.46281 -0.18470
# Poissons Ratio (z) = 0.14766 -0.13562
#
# Static dielectric constant tensor:
#      x y z
#    x 1.883300 0.000000 0.002450 
#    y 0.000000 1.835600 0.000000 
#    z 0.002450 0.000000 1.846280 
# 
# From -- ./inp_files/50383.got.cif
#   From: 2010.05.17/outbox.cif.g08.bks.cpg/sg5_26_cif.got.tgz:50383.got - 2010.06.03 18:56:24.
