data_PCOD9125459
_publ_section_title
;
Structure prediction by ZEFSAII (Michael W. Deem and Ramdas Pophale) SiO2 
 PCOD9125459
Probable space group: C 2
;
_chemical_formula_sum "Si O2"
_cell_formula_units_Z 28
_cell_length_a 10.982809
_cell_length_b 8.733144
_cell_length_c 13.666336
_cell_angle_alpha 90.000000
_cell_angle_beta 115.447709
_cell_angle_gamma 90.000000
_cell_volume 1183.622538
_symmetry_space_group_name_H-M "C 2"
_symmetry_group_IT_number 5
_symmetry_cell_setting 'monoclinic'
loop_
_space_group_symop_operation_xyz
x,y,z
-x,y,-z
1/2+x,1/2+y,z
1/2-x,1/2+y,-z
loop_
_atom_site_type_symbol
_atom_site_label
_atom_site_fract_x
_atom_site_fract_y
_atom_site_fract_z
Si Si1 0.943964 0.686230 0.589880
Si Si2 0.363349 0.513663 0.629415
Si Si3 0.684516 0.508963 0.756169
Si Si4 0.145564 0.364541 0.362244
Si Si5 0.724255 0.093526 0.777216
Si Si6 0.353003 0.800259 0.167321
Si Si7 0.854030 0.321611 0.950684
O O1 0.078953 0.673363 0.705942
O O2 0.000000 0.697324 0.500000
O O3 0.874892 0.517450 0.578656
O O4 0.859494 0.843754 0.578844
O O5 0.524185 0.514480 0.700999
O O6 0.335281 0.692362 0.585950
O O7 0.272112 0.514006 0.694348
O O8 0.746448 0.424252 0.682283
O O9 0.719943 0.688040 0.780901
O O10 0.738529 0.433784 0.874129
O O11 0.003961 0.336975 0.256878
O O12 0.841845 0.199530 0.859082
O O13 0.709899 0.966918 0.853996
O O14 0.340775 0.746883 0.051890
O O15 0.000000 0.399469 0.000000
#
# Coordination Sequence:
#
# PCOD9125459 Si02
#       7
#     4   4   4   4   4   4   4
#     4  11  25  46  70 100 133 174 231 285 341 407
#     4  11  21  43  70  93 133 180 215 281 346 395
#     4  11  20  40  64  91 135 176 220 276 337 399
#     4  10  21  41  67  94 133 174 219 281 339 398
#     4  11  23  44  64  99 141 171 229 284 330 412
#     4  10  22  35  62  95 128 183 221 269 340 399
#     4  12  20  38  62  94 136 178 226 274 335 404
#
# _framework density 23.656189999999999
#
# number of rings (size 3 to 8) (size 9 to 14) (size 15 to 20)
#    0.000    1.143    4.286    2.571    0.000    0.571 
#    5.143    0.714    0.000    0.000    0.000    0.000 
#    0.000    0.000    0.000    0.000    0.000    0.000 
#
# Total GULP energy -77976.398039 kJ/mol
# GULP energy per Si atom -5569.742717 kJ/mol
# Density = 2.360235 g / cm^3
# Si number density = 23.656190 Si / 1000 Ang^3
#
#
#
# Elastic Constant Matrix: (Units=GPa)
#
#
# Indices 1 2 3 4 5 6 
#
# 1 72.4446 65.2660 16.7922 0.0000 1.0274 0.0000
# 2 65.2660 195.1475 73.9492 0.0000 -1.7158 0.0000
# 3 16.7922 73.9492 83.6793 0.0000 6.2032 0.0000
# 4 0.0000 0.0000 0.0000 33.1939 0.0000 -7.9042
# 5 1.0274 -1.7158 6.2032 0.0000 29.8613 0.0000
# 6 0.0000 0.0000 0.0000 -7.9042 0.0000 54.6989
#
#
#
# Elastic Compliance Matrix: (Units=1/GPa)
#
#
# Indices 1 2 3 4 5 6 
#
# 1 0.020303 -0.007988 0.003119 0.000000 -0.001805 0.000000
# 2 -0.007988 0.010953 -0.008271 0.000000 0.002622 0.000000
# 3 0.003119 -0.008271 0.018969 0.000000 -0.004523 0.000000
# 4 0.000000 0.000000 0.000000 0.031200 0.000000 0.004508
# 5 -0.001805 0.002622 -0.004523 0.000000 0.034641 0.000000
# 6 0.000000 0.000000 0.000000 0.004508 0.000000 0.018933
#
#
# Mechanical properties :
#
#
# Convention : Reuss Voigt Hill
#
# Bulk Modulus (GPa) = 41.76314 73.69848 57.73081
# Shear Modulus (GPa) = 29.54041 36.56843 33.05442
#
# Velocity S-wave (km/s) = 3.53758 3.93597 3.74208
# Velocity P-wave (km/s) = 5.86332 7.20260 6.56719
#
# Compressibility (1/GPa) = 0.02394456
#
# Stress axis : x y z
#
# Youngs Moduli (GPa) = 49.25480 91.29913 52.71753
#
# Poissons Ratio (x) = 0.72927 -0.16440
# Poissons Ratio (y) = 0.39343 0.43602
# Poissons Ratio (z) = -0.15360 0.75512
#
# Static dielectric constant tensor:
#      x y z
#    x 1.871080 0.000000 0.026110 
#    y 0.000000 2.025360 0.000000 
#    z 0.026110 0.000000 1.901730 
# 
# From -- ./inp_files/52497.got.cif
#   From: 2010.05.17/outbox.cif.g08.bks.cpg/sg5_27_cif.got.tgz:52497.got - 2010.06.03 18:56:24.
