data_PCOD9125082
_publ_section_title
;
Structure prediction by ZEFSAII (Michael W. Deem and Ramdas Pophale) SiO2 
 PCOD9125082
Probable space group: C 2
;
_chemical_formula_sum "Si O2"
_cell_formula_units_Z 28
_cell_length_a 12.719932
_cell_length_b 5.206746
_cell_length_c 23.119125
_cell_angle_alpha 90.000000
_cell_angle_beta 122.055753
_cell_angle_gamma 90.000000
_cell_volume 1297.713140
_symmetry_space_group_name_H-M "C 2"
_symmetry_group_IT_number 5
_symmetry_cell_setting 'monoclinic'
loop_
_space_group_symop_operation_xyz
x,y,z
-x,y,-z
1/2+x,1/2+y,z
1/2-x,1/2+y,-z
loop_
_atom_site_type_symbol
_atom_site_label
_atom_site_fract_x
_atom_site_fract_y
_atom_site_fract_z
Si Si1 0.123356 0.860640 0.411698
Si Si2 0.899796 0.254635 0.797227
Si Si3 0.215055 0.683895 0.846983
Si Si4 0.877051 0.828470 0.974954
Si Si5 0.086483 0.360403 0.469911
Si Si6 0.636528 0.597715 0.921744
Si Si7 0.064286 0.728357 0.263337
O O1 0.064569 0.629920 0.431686
O O2 0.270670 0.856947 0.467306
O O3 0.101578 0.812070 0.338066
O O4 0.071789 0.129780 0.420005
O O5 0.805464 0.280822 0.822722
O O6 0.039945 0.289427 0.862981
O O7 0.870248 0.473587 0.742089
O O8 0.905947 0.969465 0.770700
O O9 0.295346 0.454696 0.900215
O O10 0.080918 0.645934 0.778564
O O11 0.177027 0.886687 0.885841
O O12 0.770437 0.693720 0.980175
O O13 0.931646 0.021772 0.038819
O O14 0.000000 0.661571 0.000000
O O15 0.000000 0.326700 0.500000
#
# Coordination Sequence:
#
# PCOD9125082 Si02
#       7
#     4   4   4   4   4   4   4
#     4  10  22  40  63  97 131 168 208 254 304 360
#     4  11  25  42  63  89 123 165 210 256 311 377
#     4  11  25  40  61  88 121 160 208 260 314 379
#     4  12  23  38  61  86 113 157 205 261 324 375
#     4  10  21  39  67  97 132 165 211 255 298 360
#     4  11  24  39  60  86 118 155 207 265 322 377
#     4  11  25  43  64  92 131 167 207 256 308 371
#
# _framework density 21.576419000000001
#
# number of rings (size 3 to 8) (size 9 to 14) (size 15 to 20)
#    0.000    1.143    4.286    1.286    2.000    4.000 
#    0.000    0.000    0.000    0.000    0.000    0.000 
#    0.000    0.000    0.000    0.000    0.000    0.000 
#
# Total GULP energy -78073.937457 kJ/mol
# GULP energy per Si atom -5576.709818 kJ/mol
# Density = 2.152731 g / cm^3
# Si number density = 21.576419 Si / 1000 Ang^3
#
#
#
# Elastic Constant Matrix: (Units=GPa)
#
#
# Indices 1 2 3 4 5 6 
#
# 1 65.2897 8.3871 7.1071 0.0000 -18.1998 0.0000
# 2 8.3871 54.5573 -10.5163 0.0000 4.9124 0.0000
# 3 7.1071 -10.5163 69.9053 0.0000 -8.6334 0.0000
# 4 0.0000 0.0000 0.0000 27.3515 0.0000 -9.3584
# 5 -18.1998 4.9124 -8.6334 0.0000 19.9811 0.0000
# 6 0.0000 0.0000 0.0000 -9.3584 0.0000 16.6100
#
#
#
# Elastic Compliance Matrix: (Units=1/GPa)
#
#
# Indices 1 2 3 4 5 6 
#
# 1 0.021936 -0.005356 -0.000429 0.000000 0.021112 0.000000
# 2 -0.005356 0.020434 0.002531 0.000000 -0.008809 0.000000
# 3 -0.000429 0.002531 0.015428 0.000000 0.005653 0.000000
# 4 0.000000 0.000000 0.000000 0.045292 0.000000 0.025519
# 5 0.021112 -0.008809 0.005653 0.000000 0.073885 0.000000
# 6 0.000000 0.000000 0.000000 0.025519 0.000000 0.074582
#
#
# Mechanical properties :
#
#
# Convention : Reuss Voigt Hill
#
# Bulk Modulus (GPa) = 19.49707 22.18980 20.84343
# Shear Modulus (GPa) = 18.17116 25.10682 21.63899
#
# Velocity S-wave (km/s) = 2.90518 3.41489 3.17029
# Velocity P-wave (km/s) = 4.50658 5.08481 4.80440
#
# Compressibility (1/GPa) = 0.05128977
#
# Stress axis : x y z
#
# Youngs Moduli (GPa) = 45.58697 48.93899 64.81917
#
# Poissons Ratio (x) = 0.26211 0.02778
# Poissons Ratio (y) = 0.24415 -0.16403
# Poissons Ratio (z) = 0.01954 -0.12384
#
# Static dielectric constant tensor:
#      x y z
#    x 1.751410 0.000000 0.021620 
#    y 0.000000 1.892420 0.000000 
#    z 0.021620 0.000000 1.772220 
# 
# From -- ./inp_files/64878.got.cif
#   From: 2010.05.17/outbox.cif.g08.bks.cpg/sg5_33_cif.got.tgz:64878.got - 2010.06.03 18:56:24.
