data_PCOD9125683
_publ_section_title
;
Structure prediction by ZEFSAII (Michael W. Deem and Ramdas Pophale) SiO2 
 PCOD9125683
Probable space group: C 2
;
_chemical_formula_sum "Si O2"
_cell_formula_units_Z 26
_cell_length_a 7.662315
_cell_length_b 9.554749
_cell_length_c 18.289999
_cell_angle_alpha 90.000000
_cell_angle_beta 130.183744
_cell_angle_gamma 90.000000
_cell_volume 1022.997235
_symmetry_space_group_name_H-M "C 2"
_symmetry_group_IT_number 5
_symmetry_cell_setting 'monoclinic'
loop_
_space_group_symop_operation_xyz
x,y,z
-x,y,-z
1/2+x,1/2+y,z
1/2-x,1/2+y,-z
loop_
_atom_site_type_symbol
_atom_site_label
_atom_site_fract_x
_atom_site_fract_y
_atom_site_fract_z
Si Si1 0.687731 0.459210 0.199741
Si Si2 0.878510 0.720603 0.309661
Si Si3 0.500000 0.781856 0.000000
Si Si4 0.239036 0.964029 0.816873
Si Si5 0.487548 0.205431 0.079310
Si Si6 0.200088 0.541073 0.491596
Si Si7 0.083548 0.277767 0.373762
O O1 0.804624 0.609699 0.226969
O O2 0.453112 0.495021 0.176168
O O3 0.608427 0.357902 0.113643
O O4 0.852150 0.363174 0.295107
O O5 0.887350 0.872198 0.277281
O O6 0.697291 0.740382 0.326610
O O7 0.095909 0.648081 0.403975
O O8 0.428775 0.871810 0.909692
O O9 0.270189 0.704692 0.962211
O O10 0.362371 0.105445 0.828570
O O11 0.500000 0.153308 0.000000
O O12 0.230911 0.392079 0.460417
O O13 0.409125 0.629739 0.581940
O O14 0.000000 0.524542 0.500000
#
# Coordination Sequence:
#
# PCOD9125683 Si02
#       7
#     4   4   2   4   4   4   4
#     4  10  24  44  67  98 136 181 229 283 350 415
#     4  10  23  43  66  96 141 180 226 286 344 417
#     4  10  26  44  66 102 138 182 236 294 350 420
#     4  11  24  46  66  99 140 171 236 295 333 425
#     4  11  25  48  70 101 140 186 236 298 353 412
#     4   9  21  41  63 100 139 172 230 283 338 419
#     4  10  21  42  71  97 133 187 223 284 351 412
#
# _framework density 25.415512
#
# number of rings (size 3 to 8) (size 9 to 14) (size 15 to 20)
#    0.000    1.846    0.769    0.923    4.308    9.846 
#    2.769   10.000    0.000    0.000    0.000    0.000 
#    0.000    0.000    0.000    0.000    0.000    0.000 
#
# Total GULP energy -72684.692617 kJ/mol
# GULP energy per Si atom -5591.130201 kJ/mol
# Density = 2.535767 g / cm^3
# Si number density = 25.415512 Si / 1000 Ang^3
#
#
#
# Elastic Constant Matrix: (Units=GPa)
#
#
# Indices 1 2 3 4 5 6 
#
# 1 53.3548 19.6562 14.7870 0.0000 6.6770 0.0000
# 2 19.6562 150.5285 45.3988 0.0000 -1.7622 0.0000
# 3 14.7870 45.3988 48.0361 0.0000 -5.8709 0.0000
# 4 0.0000 0.0000 0.0000 68.2083 0.0000 4.8073
# 5 6.6770 -1.7622 -5.8709 0.0000 32.4928 0.0000
# 6 0.0000 0.0000 0.0000 4.8073 0.0000 24.8349
#
#
#
# Elastic Compliance Matrix: (Units=1/GPa)
#
#
# Indices 1 2 3 4 5 6 
#
# 1 0.021582 -0.000940 -0.006445 0.000000 -0.005651 0.000000
# 2 -0.000940 0.009372 -0.008674 0.000000 -0.000866 0.000000
# 3 -0.006445 -0.008674 0.031806 0.000000 0.006601 0.000000
# 4 0.000000 0.000000 0.000000 0.014864 0.000000 -0.002877
# 5 -0.005651 -0.000866 0.006601 0.000000 0.033083 0.000000
# 6 0.000000 0.000000 0.000000 -0.002877 0.000000 0.040823
#
#
# Mechanical properties :
#
#
# Convention : Reuss Voigt Hill
#
# Bulk Modulus (GPa) = 32.63595 45.73371 39.18483
# Shear Modulus (GPa) = 25.79147 36.57904 31.18526
#
# Velocity S-wave (km/s) = 3.18904 3.79785 3.50668
# Velocity P-wave (km/s) = 5.14089 6.10451 5.64330
#
# Compressibility (1/GPa) = 0.03064106
#
# Stress axis : x y z
#
# Youngs Moduli (GPa) = 46.33405 106.70240 31.44067
#
# Poissons Ratio (x) = 0.10035 0.20265
# Poissons Ratio (y) = 0.04358 0.27270
# Poissons Ratio (z) = 0.29865 0.92549
#
# Static dielectric constant tensor:
#      x y z
#    x 1.943490 0.000000 0.005420 
#    y 0.000000 2.010390 0.000000 
#    z 0.005420 0.000000 2.037160 
# 
# From -- ./inp_files/64387.got.cif
#   From: 2010.05.17/outbox.cif.g08.bks.cpg/sg5_33_cif.got.tgz:64387.got - 2010.06.03 18:56:24.
