data_PCOD9125380
_publ_section_title
;
Structure prediction by ZEFSAII (Michael W. Deem and Ramdas Pophale) SiO2 
 PCOD9125380
Probable space group: C 2
;
_chemical_formula_sum "Si O2"
_cell_formula_units_Z 30
_cell_length_a 30.110655
_cell_length_b 11.042488
_cell_length_c 23.590783
_cell_angle_alpha 90.000000
_cell_angle_beta 10.480749
_cell_angle_gamma 90.000000
_cell_volume 1426.837401
_symmetry_space_group_name_H-M "C 2"
_symmetry_group_IT_number 5
_symmetry_cell_setting 'monoclinic'
loop_
_space_group_symop_operation_xyz
x,y,z
-x,y,-z
1/2+x,1/2+y,z
1/2-x,1/2+y,-z
loop_
_atom_site_type_symbol
_atom_site_label
_atom_site_fract_x
_atom_site_fract_y
_atom_site_fract_z
Si Si1 0.178876 0.008600 0.470532
Si Si2 0.975321 0.428844 0.861613
Si Si3 0.834304 0.701742 0.763430
Si Si4 0.737546 0.266749 0.349742
Si Si5 0.157713 0.467646 0.181023
Si Si6 0.999715 0.195215 0.613743
Si Si7 0.535544 0.092324 0.682839
Si Si8 0.500000 0.564153 0.500000
O O1 0.158395 0.140167 0.466803
O O2 0.363086 0.977752 0.289536
O O3 0.244737 0.911431 0.340332
O O4 0.914391 0.967150 0.825743
O O5 0.090704 0.494214 0.661773
O O6 0.906032 0.287125 0.938482
O O7 0.709539 0.482257 0.210165
O O8 0.794440 0.559799 0.827177
O O9 0.000000 0.714825 0.500000
O O10 0.005215 0.741045 0.601591
O O11 0.694248 0.209553 0.466633
O O12 0.000000 0.219920 0.000000
O O13 0.048158 0.337400 0.331815
O O14 0.975770 0.524092 0.362880
O O15 0.090046 0.144386 0.440057
O O16 0.730406 0.142138 0.965956
#
# Coordination Sequence:
#
# PCOD9125380 Si02
#       8
#     4   4   4   4   4   4   4   2
#     4  11  24  38  67  95 126 173 223 277 331 400
#     4  11  23  40  65  99 131 167 226 277 331 405
#     4  11  23  40  66  97 133 173 221 276 339 396
#     4  11  22  39  66  93 128 169 224 277 330 400
#     4  10  22  42  65  91 129 179 220 270 334 399
#     4  10  21  41  64  89 130 171 222 268 331 395
#     4   9  21  40  63  89 127 173 215 270 336 387
#     4  10  22  40  64  90 128 176 212 272 334 392
#
# _framework density 21.025523
#
# number of rings (size 3 to 8) (size 9 to 14) (size 15 to 20)
#    0.000    1.600    2.000    3.200    6.533    2.133 
#    0.000    0.000   11.733    0.000    0.000    0.000 
#    0.000    0.000    0.000    0.000    0.000    0.000 
#
# Total GULP energy -83573.673469 kJ/mol
# GULP energy per Si atom -5571.578231 kJ/mol
# Density = 2.097767 g / cm^3
# Si number density = 21.025523 Si / 1000 Ang^3
#
#
#
# Elastic Constant Matrix: (Units=GPa)
#
#
# Indices 1 2 3 4 5 6 
#
# 1 94.5318 50.7160 9.6970 0.0767 -7.7872 -0.0333
# 2 50.7160 144.8648 9.7098 0.0366 -5.4258 -0.0116
# 3 9.6970 9.7098 43.0798 0.0702 -2.0858 -0.0988
# 4 0.0767 0.0366 0.0702 10.0280 -0.0044 8.8082
# 5 -7.7872 -5.4258 -2.0858 -0.0044 37.3148 -0.0106
# 6 -0.0333 -0.0116 -0.0988 8.8082 -0.0106 24.3278
#
#
#
# Elastic Compliance Matrix: (Units=1/GPa)
#
#
# Indices 1 2 3 4 5 6 
#
# 1 0.013336 -0.004466 -0.001897 -0.000117 0.002028 0.000052
# 2 -0.004466 0.008537 -0.000906 0.000021 0.000259 -0.000013
# 3 -0.001897 -0.000906 0.023884 -0.000340 0.000807 0.000217
# 4 -0.000117 0.000021 -0.000340 0.146229 -0.000038 -0.052946
# 5 0.002028 0.000259 0.000807 -0.000038 0.027305 0.000032
# 6 0.000052 -0.000013 0.000217 -0.052946 0.000032 0.060276
#
#
# Mechanical properties :
#
#
# Convention : Reuss Voigt Hill
#
# Bulk Modulus (GPa) = 32.03179 46.96911 39.50045
# Shear Modulus (GPa) = 16.41976 28.49104 22.45540
#
# Velocity S-wave (km/s) = 2.79757 3.68512 3.27158
# Velocity P-wave (km/s) = 5.06981 6.36352 5.75315
#
# Compressibility (1/GPa) = 0.03121899
#
# Stress axis : x y z
#
# Youngs Moduli (GPa) = 74.98497 117.13942 41.86873
#
# Poissons Ratio (x) = 0.52311 0.07942
# Poissons Ratio (y) = 0.33486 0.03795
# Poissons Ratio (z) = 0.14224 0.10618
#
# Static dielectric constant tensor:
#      x y z
#    x 1.797960 -0.000050 -0.033190 
#    y -0.000050 1.866640 0.000120 
#    z -0.033190 0.000120 1.768980 
# 
# From -- ./inp_files/70051.got.cif
#   From: 2010.05.17/outbox.cif.g08.bks.cpg/sg5_36_cif.got.tgz:70051.got - 2010.06.03 18:56:24.
