data_PCOD9125020
_publ_section_title
;
Structure prediction by ZEFSAII (Michael W. Deem and Ramdas Pophale) SiO2 
 PCOD9125020
Probable space group: C 2
;
_chemical_formula_sum "Si O2"
_cell_formula_units_Z 26
_cell_length_a 21.346227
_cell_length_b 10.341816
_cell_length_c 5.772209
_cell_angle_alpha 90.000000
_cell_angle_beta 122.384412
_cell_angle_gamma 90.000000
_cell_volume 1076.083797
_symmetry_space_group_name_H-M "C 2"
_symmetry_group_IT_number 5
_symmetry_cell_setting 'monoclinic'
loop_
_space_group_symop_operation_xyz
x,y,z
-x,y,-z
1/2+x,1/2+y,z
1/2-x,1/2+y,-z
loop_
_atom_site_type_symbol
_atom_site_label
_atom_site_fract_x
_atom_site_fract_y
_atom_site_fract_z
Si Si1 0.313039 0.000000 0.451697
Si Si2 0.571097 0.426480 0.767201
Si Si3 0.500000 0.619803 0.000000
Si Si4 0.307495 0.602087 0.115681
Si Si5 0.372944 0.793650 0.862651
Si Si6 0.421688 0.003407 0.293718
Si Si7 0.179473 0.708486 0.161655
O O1 0.250095 0.009646 0.135735
O O2 0.320354 0.140104 0.586874
O O3 0.308315 0.887260 0.632488
O O4 0.387252 0.959964 0.466988
O O5 0.500000 0.361955 0.500000
O O6 0.531059 0.528746 0.858009
O O7 0.623660 0.507532 0.692745
O O8 0.629435 0.336840 0.027425
O O9 0.572116 0.710629 0.190505
O O10 0.335874 0.700605 0.977344
O O11 0.262416 0.682925 0.220228
O O12 0.424956 0.889356 0.115176
O O13 0.500000 0.061121 0.500000
O O14 0.367950 0.110238 0.088021
#
# Coordination Sequence:
#
# PCOD9125020 Si02
#       7
#     4   4   2   4   4   4   4
#     4  10  23  40  66 101 127 182 228 286 343 413
#     4  11  26  46  69 101 146 188 231 293 352 417
#     4  10  24  44  64 106 134 188 230 288 354 412
#     4  10  25  41  65 100 134 184 233 283 351 405
#     4  10  22  40  65  96 136 173 233 285 342 411
#     4  10  21  39  64  97 129 172 224 280 349 406
#     4  10  24  42  67  98 136 180 234 288 342 416
#
# _framework density 24.161684999999999
#
# number of rings (size 3 to 8) (size 9 to 14) (size 15 to 20)
#    0.000    1.846    0.000    1.385    8.615   12.923 
#    0.000    0.000    0.000    0.000    0.000    0.000 
#    0.000    0.000    0.000    0.000    0.000    0.000 
#
# Total GULP energy -72528.724043 kJ/mol
# GULP energy per Si atom -5579.132619 kJ/mol
# Density = 2.410669 g / cm^3
# Si number density = 24.161685 Si / 1000 Ang^3
#
#
#
# Elastic Constant Matrix: (Units=GPa)
#
#
# Indices 1 2 3 4 5 6 
#
# 1 101.9207 43.9553 33.9320 0.0000 20.8374 0.0000
# 2 43.9553 101.4698 18.9049 0.0000 7.9381 0.0000
# 3 33.9320 18.9049 57.6048 0.0000 16.3995 0.0000
# 4 0.0000 0.0000 0.0000 27.5023 0.0000 3.3743
# 5 20.8374 7.9381 16.3995 0.0000 33.7323 0.0000
# 6 0.0000 0.0000 0.0000 3.3743 0.0000 30.7618
#
#
#
# Elastic Compliance Matrix: (Units=1/GPa)
#
#
# Indices 1 2 3 4 5 6 
#
# 1 0.014932 -0.005002 -0.005645 0.000000 -0.005303 0.000000
# 2 -0.005002 0.012197 -0.001299 0.000000 0.000851 0.000000
# 3 -0.005645 -0.001299 0.023249 0.000000 -0.007510 0.000000
# 4 0.000000 0.000000 0.000000 0.036857 0.000000 -0.004043
# 5 -0.005303 0.000851 -0.007510 0.000000 0.036372 0.000000
# 6 0.000000 0.000000 0.000000 -0.004043 0.000000 0.032951
#
#
# Mechanical properties :
#
#
# Convention : Reuss Voigt Hill
#
# Bulk Modulus (GPa) = 37.75326 50.50887 44.13106
# Shear Modulus (GPa) = 26.41620 29.34617 27.88118
#
# Velocity S-wave (km/s) = 3.31011 3.48886 3.40066
# Velocity P-wave (km/s) = 5.50166 6.09749 5.80722
#
# Compressibility (1/GPa) = 0.02648778
#
# Stress axis : x y z
#
# Youngs Moduli (GPa) = 66.97005 81.98522 43.01272
#
# Poissons Ratio (x) = 0.41008 0.24279
# Poissons Ratio (y) = 0.33498 0.05587
# Poissons Ratio (z) = 0.37802 0.10649
#
# Static dielectric constant tensor:
#      x y z
#    x 1.958180 0.000000 0.011080 
#    y 0.000000 1.963450 0.000000 
#    z 0.011080 0.000000 1.988250 
# 
# From -- ./inp_files/9634.got.cif
#   From: 2010.05.17/outbox.cif.g08.bks.cpg/sg5_5_cif.got.tgz:9634.got - 2010.06.03 18:56:24.
