data_PCOD9125638
_publ_section_title
;
Structure prediction by ZEFSAII (Michael W. Deem and Ramdas Pophale) SiO2 
 PCOD9125638
Probable space group: C 2
;
_chemical_formula_sum "Si O2"
_cell_formula_units_Z 32
_cell_length_a 11.477011
_cell_length_b 9.988369
_cell_length_c 21.837535
_cell_angle_alpha 90.000000
_cell_angle_beta 146.187979
_cell_angle_gamma 90.000000
_cell_volume 1393.056420
_symmetry_space_group_name_H-M "C 2"
_symmetry_group_IT_number 5
_symmetry_cell_setting 'monoclinic'
loop_
_space_group_symop_operation_xyz
x,y,z
-x,y,-z
1/2+x,1/2+y,z
1/2-x,1/2+y,-z
loop_
_atom_site_type_symbol
_atom_site_label
_atom_site_fract_x
_atom_site_fract_y
_atom_site_fract_z
Si Si1 0.348283 0.849850 0.882519
Si Si2 0.011888 0.050028 0.072203
Si Si3 0.419399 0.456345 0.669071
Si Si4 0.884108 0.357631 0.708082
Si Si5 0.709956 0.088355 0.690562
Si Si6 0.834635 0.221407 0.257011
Si Si7 0.977074 0.552376 0.137063
Si Si8 0.145332 0.411731 0.439162
O O1 0.384501 0.693173 0.896735
O O2 0.437495 0.925040 0.862959
O O3 0.500000 0.909027 0.000000
O O4 0.103422 0.875195 0.782278
O O5 0.143810 0.021372 0.191842
O O6 0.000000 0.977061 0.000000
O O7 0.767755 0.066192 0.980552
O O8 0.260131 0.513803 0.648979
O O9 0.542112 0.581931 0.693317
O O10 0.306054 0.387488 0.563154
O O11 0.770057 0.243702 0.699941
O O12 0.771344 0.384183 0.593251
O O13 0.104809 0.292277 0.780722
O O14 0.946773 0.501288 0.763321
O O15 0.470577 0.055629 0.604346
O O16 0.950760 0.308942 0.358298
O O17 0.598148 0.183913 0.167513
#
# Coordination Sequence:
#
# PCOD9125638 Si02
#       8
#     4   4   4   4   4   4   4   4
#     4  10  22  41  62  93 136 173 219 281 337 401
#     4  11  24  38  63 104 131 173 232 283 336 409
#     4  10  21  42  68  95 133 180 227 277 347 416
#     4   9  21  44  67  94 141 175 226 282 344 405
#     4  11  21  43  68  96 133 185 225 277 354 405
#     4   8  22  41  63  95 135 172 229 275 340 405
#     4  11  20  43  68  94 136 185 223 276 354 407
#     4  10  22  42  65 101 135 169 235 288 329 414
#
# _framework density 22.971073000000001
#
# number of rings (size 3 to 8) (size 9 to 14) (size 15 to 20)
#    0.750    1.250    1.250    1.875    0.000    4.000 
#    2.250    5.000    0.000    0.000    0.000    0.000 
#    0.000    0.000    0.000    0.000    0.000    0.000 
#
# Total GULP energy -89132.800151 kJ/mol
# GULP energy per Si atom -5570.800009 kJ/mol
# Density = 2.291879 g / cm^3
# Si number density = 22.971073 Si / 1000 Ang^3
#
#
#
# Elastic Constant Matrix: (Units=GPa)
#
#
# Indices 1 2 3 4 5 6 
#
# 1 51.4792 14.4198 35.5918 0.0000 -5.7443 0.0000
# 2 14.4198 48.3843 -3.2985 0.0000 -0.3069 0.0000
# 3 35.5918 -3.2985 65.6477 -0.0001 -20.2573 0.0000
# 4 0.0000 0.0000 -0.0001 14.6004 0.0000 -7.6055
# 5 -5.7443 -0.3069 -20.2573 0.0000 38.5839 0.0000
# 6 0.0000 0.0000 0.0000 -7.6055 0.0000 14.2066
#
#
#
# Elastic Compliance Matrix: (Units=1/GPa)
#
#
# Indices 1 2 3 4 5 6 
#
# 1 0.038859 -0.013250 -0.023844 0.000000 -0.006839 0.000000
# 2 -0.013250 0.025280 0.009436 0.000000 0.003182 0.000000
# 3 -0.023844 0.009436 0.032891 0.000000 0.013793 0.000000
# 4 0.000000 0.000000 0.000000 0.094977 0.000000 0.050846
# 5 -0.006839 0.003182 0.013793 0.000000 0.032167 0.000000
# 6 0.000000 0.000000 0.000000 0.050846 0.000000 0.097610
#
#
# Mechanical properties :
#
#
# Convention : Reuss Voigt Hill
#
# Bulk Modulus (GPa) = 23.97294 28.77084 26.37189
# Shear Modulus (GPa) = 12.78762 21.39806 17.09284
#
# Velocity S-wave (km/s) = 2.36197 3.05540 2.73078
# Velocity P-wave (km/s) = 4.23053 4.99993 4.63123
#
# Compressibility (1/GPa) = 0.04171371
#
# Stress axis : x y z
#
# Youngs Moduli (GPa) = 25.73413 39.55680 30.40390
#
# Poissons Ratio (x) = 0.52412 0.72495
# Poissons Ratio (y) = 0.34097 -0.28689
# Poissons Ratio (z) = 0.61360 -0.37325
#
# Static dielectric constant tensor:
#      x y z
#    x 1.982750 0.000000 -0.088040 
#    y 0.000000 1.894520 0.000000 
#    z -0.088040 0.000000 2.005030 
# 
# From -- ./inp_files/68405.got.cif
#   From: 2010.05.17/outbox.cif.g08.bks.cpg/sg5_35_cif.got.tgz:68405.got - 2010.06.03 18:56:24.
