data_PCOD9125014
_publ_section_title
;
Structure prediction by ZEFSAII (Michael W. Deem and Ramdas Pophale) SiO2 
 PCOD9125014
Probable space group: C 2
;
_chemical_formula_sum "Si O2"
_cell_formula_units_Z 30
_cell_length_a 28.721608
_cell_length_b 9.457359
_cell_length_c 5.632544
_cell_angle_alpha 90.000000
_cell_angle_beta 67.216629
_cell_angle_gamma 90.000000
_cell_volume 1410.595967
_symmetry_space_group_name_H-M "C 2"
_symmetry_group_IT_number 5
_symmetry_cell_setting 'monoclinic'
loop_
_space_group_symop_operation_xyz
x,y,z
-x,y,-z
1/2+x,1/2+y,z
1/2-x,1/2+y,-z
loop_
_atom_site_type_symbol
_atom_site_label
_atom_site_fract_x
_atom_site_fract_y
_atom_site_fract_z
Si Si1 0.364576 0.632320 0.372419
Si Si2 0.500000 0.945618 0.500000
Si Si3 0.745192 0.636451 0.537421
Si Si4 0.593030 0.060840 0.571543
Si Si5 0.662539 0.324641 0.487986
Si Si6 0.241176 0.963853 0.043408
Si Si7 0.569881 0.848468 0.994419
Si Si8 0.844304 0.328479 0.795207
O O1 0.312213 0.694510 0.366048
O O2 0.359612 0.465456 0.346817
O O3 0.415002 0.710292 0.186121
O O4 0.358252 0.677145 0.659720
O O5 0.547851 0.040497 0.474546
O O6 0.480396 0.845553 0.750413
O O7 0.790916 0.748137 0.466577
O O8 0.750033 0.552845 0.273551
O O9 0.745147 0.545821 0.784247
O O10 0.618834 0.211280 0.535837
O O11 0.568859 0.994830 0.854216
O O12 0.637683 0.948884 0.426119
O O13 0.689089 0.381157 0.194167
O O14 0.285903 0.849618 0.951039
O O15 0.618906 0.858641 0.063061
#
# Coordination Sequence:
#
# PCOD9125014 Si02
#       8
#     4   2   4   4   4   4   4   4
#     4  10  25  38  61  99 139 184 224 280 342 404
#     4  10  22  42  76 102 114 170 226 304 350 428
#     4  11  25  42  61  98 145 197 234 272 323 406
#     4  10  21  43  69 101 126 172 231 290 351 412
#     4  11  24  40  66  99 141 184 231 284 342 398
#     4  11  25  40  62  96 142 193 238 268 327 397
#     4  10  21  42  71  94 130 168 230 287 352 422
#     4  10  21  39  64  94 134 183 234 272 327 409
#
# _framework density 21.267606000000001
#
# number of rings (size 3 to 8) (size 9 to 14) (size 15 to 20)
#    0.000    1.600    1.333    2.000   13.067    0.000 
#    9.600    0.000    0.000   19.200    0.000    0.000 
#    0.000    0.000    0.000    0.000    0.000    0.000 
#
# Total GULP energy -83671.761737 kJ/mol
# GULP energy per Si atom -5578.117449 kJ/mol
# Density = 2.121920 g / cm^3
# Si number density = 21.267606 Si / 1000 Ang^3
#
#
#
# Elastic Constant Matrix: (Units=GPa)
#
#
# Indices 1 2 3 4 5 6 
#
# 1 101.1734 52.4961 23.3521 0.0000 -11.5475 0.0000
# 2 52.4961 129.6760 48.4931 0.0000 -13.5430 0.0000
# 3 23.3521 48.4931 108.2423 0.0000 -10.1468 0.0000
# 4 0.0000 0.0000 0.0000 14.0045 0.0000 -4.2676
# 5 -11.5475 -13.5430 -10.1468 0.0000 44.7117 0.0000
# 6 0.0000 0.0000 0.0000 -4.2676 0.0000 27.3543
#
#
#
# Elastic Compliance Matrix: (Units=1/GPa)
#
#
# Indices 1 2 3 4 5 6 
#
# 1 0.012663 -0.004787 -0.000426 0.000000 0.001724 0.000000
# 2 -0.004787 0.011235 -0.003880 0.000000 0.001286 0.000000
# 3 -0.000426 -0.003880 0.011186 0.000000 0.001253 0.000000
# 4 0.000000 0.000000 0.000000 0.074970 0.000000 0.011696
# 5 0.001724 0.001286 0.001253 0.000000 0.023485 0.000000
# 6 0.000000 0.000000 0.000000 0.011696 0.000000 0.038382
#
#
# Mechanical properties :
#
#
# Convention : Reuss Voigt Hill
#
# Bulk Modulus (GPa) = 59.17702 65.30826 62.24264
# Shear Modulus (GPa) = 25.54432 31.53080 28.53756
#
# Velocity S-wave (km/s) = 3.46944 3.85460 3.66708
# Velocity P-wave (km/s) = 6.62832 7.11232 6.87458
#
# Compressibility (1/GPa) = 0.01689845
#
# Stress axis : x y z
#
# Youngs Moduli (GPa) = 78.97096 89.01016 89.39691
#
# Poissons Ratio (x) = 0.42610 0.03805
# Poissons Ratio (y) = 0.37804 0.34685
# Poissons Ratio (z) = 0.03361 0.34535
#
# Static dielectric constant tensor:
#      x y z
#    x 1.758710 0.000000 0.037600 
#    y 0.000000 1.809590 0.000000 
#    z 0.037600 0.000000 1.918740 
# 
# From -- ./inp_files/11228.got.cif
#   From: 2010.05.17/outbox.cif.g08.bks.cpg/sg5_6_cif.got.tgz:11228.got - 2010.06.03 18:56:24.
