data_PCOD9125591
_publ_section_title
;
Structure prediction by ZEFSAII (Michael W. Deem and Ramdas Pophale) SiO2 
 PCOD9125591
Probable space group: C 2
;
_chemical_formula_sum "Si O2"
_cell_formula_units_Z 30
_cell_length_a 5.294640
_cell_length_b 25.364214
_cell_length_c 12.630091
_cell_angle_alpha 90.000000
_cell_angle_beta 67.466244
_cell_angle_gamma 90.000000
_cell_volume 1566.655830
_symmetry_space_group_name_H-M "C 2"
_symmetry_group_IT_number 5
_symmetry_cell_setting 'monoclinic'
loop_
_space_group_symop_operation_xyz
x,y,z
-x,y,-z
1/2+x,1/2+y,z
1/2-x,1/2+y,-z
loop_
_atom_site_type_symbol
_atom_site_label
_atom_site_fract_x
_atom_site_fract_y
_atom_site_fract_z
Si Si1 0.747264 0.592130 0.239131
Si Si2 0.672551 0.802062 0.076708
Si Si3 0.000000 0.921494 0.500000
Si Si4 0.885331 0.572287 0.631403
Si Si5 0.150824 0.481110 0.866263
Si Si6 0.797036 0.964216 0.320128
Si Si7 0.679209 0.679444 0.074156
Si Si8 0.966714 0.385266 0.276996
O O1 0.443712 0.575089 0.324118
O O2 0.890869 0.542418 0.157493
O O3 0.669404 0.639318 0.172880
O O4 0.955724 0.603633 0.301852
O O5 0.609281 0.740382 0.108497
O O6 0.557551 0.836338 0.192197
O O7 0.500000 0.817306 0.000000
O O8 0.000000 0.808786 0.000000
O O9 0.890231 0.960377 0.426195
O O10 0.786968 0.885739 0.601035
O O11 0.930085 0.509855 0.647913
O O12 0.000000 0.587481 0.500000
O O13 0.479541 0.476842 0.805843
O O14 0.067160 0.435433 0.797167
O O15 0.000000 0.470525 0.000000
O O16 0.710754 0.904630 0.311669
O O17 0.500000 0.662947 0.000000
O O18 0.000000 0.680093 0.000000
#
# Coordination Sequence:
#
# PCOD9125591 Si02
#       8
#     4   4   2   4   4   4   4   4
#     4  11  22  38  60  89 121 159 207 251 315 364
#     4  10  24  41  66  94 120 163 211 255 314 371
#     4  10  22  36  58  82 120 170 216 248 302 366
#     4  11  22  37  59  87 121 164 206 255 298 373
#     4  10  22  34  51  87 126 159 190 249 314 370
#     4  10  22  36  56  83 122 168 211 245 300 380
#     4  10  21  42  66  90 119 161 208 257 304 378
#     4  11  21  37  58  86 124 163 202 258 302 374
#
# _framework density 19.149068
#
# number of rings (size 3 to 8) (size 9 to 14) (size 15 to 20)
#    0.000    1.600    1.333    3.200    9.333    0.000 
#    0.000    0.000    1.467    1.600    0.000    0.000 
#    0.000    0.000    0.000    0.000    0.000    0.000 
#
# Total GULP energy -83519.828706 kJ/mol
# GULP energy per Si atom -5567.988580 kJ/mol
# Density = 1.910548 g / cm^3
# Si number density = 19.149068 Si / 1000 Ang^3
#
#
#
# Elastic Constant Matrix: (Units=GPa)
#
#
# Indices 1 2 3 4 5 6 
#
# 1 77.4430 15.0825 40.6635 0.0000 15.1494 0.0000
# 2 15.0825 63.5987 49.2886 0.0000 5.9153 0.0000
# 3 40.6635 49.2886 148.1357 0.0000 -3.2505 0.0000
# 4 0.0000 0.0000 0.0000 25.8732 0.0000 -5.5113
# 5 15.1494 5.9153 -3.2505 0.0000 32.4402 0.0000
# 6 0.0000 0.0000 0.0000 -5.5113 0.0000 19.7905
#
#
#
# Elastic Compliance Matrix: (Units=1/GPa)
#
#
# Indices 1 2 3 4 5 6 
#
# 1 0.017167 0.000720 -0.005142 0.000000 -0.008663 0.000000
# 2 0.000720 0.021918 -0.007602 0.000000 -0.005094 0.000000
# 3 -0.005142 -0.007602 0.010798 0.000000 0.004869 0.000000
# 4 0.000000 0.000000 0.000000 0.041087 0.000000 0.011442
# 5 -0.008663 -0.005094 0.004869 0.000000 0.036289 0.000000
# 6 0.000000 0.000000 0.000000 0.011442 0.000000 0.053716
#
#
# Mechanical properties :
#
#
# Convention : Reuss Voigt Hill
#
# Bulk Modulus (GPa) = 38.70735 55.47186 47.08960
# Shear Modulus (GPa) = 23.40426 27.89697 25.65061
#
# Velocity S-wave (km/s) = 3.49981 3.82099 3.66392
# Velocity P-wave (km/s) = 6.04890 6.96404 6.52254
#
# Compressibility (1/GPa) = 0.02583489
#
# Stress axis : x y z
#
# Youngs Moduli (GPa) = 58.25049 45.62375 92.60698
#
# Poissons Ratio (x) = -0.03283 0.47618
# Poissons Ratio (y) = -0.04191 0.70401
# Poissons Ratio (z) = 0.29952 0.34684
#
# Static dielectric constant tensor:
#      x y z
#    x 1.785400 0.000000 0.011920 
#    y 0.000000 1.719350 0.000000 
#    z 0.011920 0.000000 1.651560 
# 
# From -- ./inp_files/34185.got.cif
#   From: 2010.05.17/outbox.cif.g08.bks.cpg/sg5_18_cif.got.tgz:34185.got - 2010.06.03 18:56:24.
