data_PCOD9125195
_publ_section_title
;
Structure prediction by ZEFSAII (Michael W. Deem and Ramdas Pophale) SiO2 
 PCOD9125195
Probable space group: C 2
;
_chemical_formula_sum "Si O2"
_cell_formula_units_Z 28
_cell_length_a 10.115659
_cell_length_b 10.364139
_cell_length_c 11.466145
_cell_angle_alpha 90.000000
_cell_angle_beta 95.968034
_cell_angle_gamma 90.000000
_cell_volume 1195.596366
_symmetry_space_group_name_H-M "C 2"
_symmetry_group_IT_number 5
_symmetry_cell_setting 'monoclinic'
loop_
_space_group_symop_operation_xyz
x,y,z
-x,y,-z
1/2+x,1/2+y,z
1/2-x,1/2+y,-z
loop_
_atom_site_type_symbol
_atom_site_label
_atom_site_fract_x
_atom_site_fract_y
_atom_site_fract_z
Si Si1 0.751239 0.811680 0.854284
Si Si2 0.639134 0.458027 0.340442
Si Si3 0.442652 0.221802 0.378343
Si Si4 0.416253 0.076519 0.786708
Si Si5 0.620460 0.820679 0.078906
Si Si6 0.975218 0.225231 0.707845
Si Si7 0.701768 0.911685 0.420380
O O1 0.854662 0.695433 0.849762
O O2 0.616481 0.761197 0.777297
O O3 0.802579 0.930938 0.782190
O O4 0.729073 0.838918 0.989161
O O5 0.551323 0.332225 0.359502
O O6 0.544330 0.581773 0.339532
O O7 0.752229 0.463961 0.450361
O O8 0.500000 0.155107 0.500000
O O9 0.454029 0.124025 0.271532
O O10 0.312088 0.303346 0.395575
O O11 0.430875 0.957316 0.875152
O O12 0.313615 0.024892 0.677186
O O13 0.634481 0.740501 0.197714
O O14 0.500000 0.753933 0.000000
O O15 0.933638 0.331288 0.609232
#
# Coordination Sequence:
#
# PCOD9125195 Si02
#       7
#     4   4   4   4   4   4   4
#     4  10  22  40  63  91 120 162 214 251 310 375
#     4  10  22  37  62  90 123 161 204 251 320 369
#     4   9  20  39  58  88 123 156 201 252 305 377
#     4  10  21  40  64  87 124 162 200 260 314 362
#     4   9  21  41  58  87 120 157 213 254 305 368
#     4  10  22  39  61  87 124 162 199 259 310 361
#     4  10  22  38  58  94 122 158 207 247 311 383
#
# _framework density 23.419274999999999
#
# number of rings (size 3 to 8) (size 9 to 14) (size 15 to 20)
#    0.000    2.286    0.000    0.857    8.000    4.000 
#    2.571    0.000    0.000    0.000    0.000    0.000 
#    0.000    0.000    0.000    0.000    0.000    0.000 
#
# Total GULP energy -78137.772102 kJ/mol
# GULP energy per Si atom -5581.269436 kJ/mol
# Density = 2.336597 g / cm^3
# Si number density = 23.419275 Si / 1000 Ang^3
#
#
#
# Elastic Constant Matrix: (Units=GPa)
#
#
# Indices 1 2 3 4 5 6 
#
# 1 31.8049 -4.0599 4.2668 0.0000 -7.1721 0.0000
# 2 -4.0599 76.8568 -0.8674 0.0000 -6.9211 0.0000
# 3 4.2668 -0.8674 88.5621 0.0000 -19.5967 0.0000
# 4 0.0000 0.0000 0.0000 24.5768 0.0000 1.9827
# 5 -7.1721 -6.9211 -19.5967 0.0000 30.8892 0.0000
# 6 0.0000 0.0000 0.0000 1.9827 0.0000 15.1830
#
#
#
# Elastic Compliance Matrix: (Units=1/GPa)
#
#
# Indices 1 2 3 4 5 6 
#
# 1 0.033662 0.002554 0.000302 0.000000 0.008580 0.000000
# 2 0.002554 0.013537 0.000945 0.000000 0.004225 0.000000
# 3 0.000302 0.000945 0.013202 0.000000 0.008657 0.000000
# 4 0.000000 0.000000 0.000000 0.041122 0.000000 -0.005370
# 5 0.008580 0.004225 0.008657 0.000000 0.040805 0.000000
# 6 0.000000 0.000000 0.000000 -0.005370 0.000000 0.066565
#
#
# Mechanical properties :
#
#
# Convention : Reuss Voigt Hill
#
# Bulk Modulus (GPa) = 14.70543 21.76697 18.23620
# Shear Modulus (GPa) = 22.32550 27.32208 24.82379
#
# Velocity S-wave (km/s) = 3.09090 3.41933 3.25925
# Velocity P-wave (km/s) = 4.36246 4.99036 4.68694
#
# Compressibility (1/GPa) = 0.06800209
#
# Stress axis : x y z
#
# Youngs Moduli (GPa) = 29.70704 73.86994 75.74690
#
# Poissons Ratio (x) = -0.18868 -0.02285
# Poissons Ratio (y) = -0.07588 -0.07154
# Poissons Ratio (z) = -0.00896 -0.06977
#
# Static dielectric constant tensor:
#      x y z
#    x 1.922900 0.000000 -0.043110 
#    y 0.000000 1.865160 0.000000 
#    z -0.043110 0.000000 1.909250 
# 
# From -- ./inp_files/38848.got.cif
#   From: 2010.05.17/outbox.cif.g08.bks.cpg/sg5_20_cif.got.tgz:38848.got - 2010.06.03 18:56:24.
