data_PCOD9125785
_publ_section_title
;
Structure prediction by ZEFSAII (Michael W. Deem and Ramdas Pophale) SiO2 
 PCOD9125785
Probable space group: C 2
;
_chemical_formula_sum "Si O2"
_cell_formula_units_Z 28
_cell_length_a 15.038551
_cell_length_b 9.276215
_cell_length_c 9.974387
_cell_angle_alpha 90.000000
_cell_angle_beta 67.882394
_cell_angle_gamma 90.000000
_cell_volume 1289.043712
_symmetry_space_group_name_H-M "C 2"
_symmetry_group_IT_number 5
_symmetry_cell_setting 'monoclinic'
loop_
_space_group_symop_operation_xyz
x,y,z
-x,y,-z
1/2+x,1/2+y,z
1/2-x,1/2+y,-z
loop_
_atom_site_type_symbol
_atom_site_label
_atom_site_fract_x
_atom_site_fract_y
_atom_site_fract_z
Si Si1 0.275242 0.942680 0.842855
Si Si2 0.045329 0.594281 0.328858
Si Si3 0.074287 0.051187 0.061507
Si Si4 0.645278 0.954408 0.653277
Si Si5 0.721739 0.280172 0.616148
Si Si6 0.602105 0.881469 0.968533
Si Si7 0.484725 0.400833 0.348987
O O1 0.251040 0.813462 0.753830
O O2 0.340678 0.935142 0.937304
O O3 0.344456 0.048178 0.718419
O O4 0.176362 0.991853 0.961871
O O5 0.000000 0.615491 0.500000
O O6 0.968545 0.482123 0.309275
O O7 0.037209 0.752874 0.270992
O O8 0.081317 0.218548 0.023107
O O9 0.033938 0.024307 0.232419
O O10 0.000000 0.980835 0.000000
O O11 0.692724 0.840100 0.525607
O O12 0.695044 0.112181 0.612615
O O13 0.657366 0.896444 0.797423
O O14 0.626643 0.372139 0.626627
O O15 0.500000 0.957323 0.000000
O O16 0.500000 0.424016 0.500000
#
# Coordination Sequence:
#
# PCOD9125785 Si02
#       7
#     4   4   4   4   4   4   4
#     4  12  25  44  69 105 139 196 231 293 355 418
#     4  10  21  43  72 103 139 184 237 288 350 423
#     4  11  26  46  67 104 149 183 238 299 354 417
#     4  11  25  46  70 106 141 183 240 293 350 426
#     4  11  26  44  75 105 140 186 238 293 357 418
#     4  11  27  45  68 101 144 188 234 294 353 418
#     4  10  24  45  70 102 140 187 235 294 352 423
#
# _framework density 21.721529
#
# number of rings (size 3 to 8) (size 9 to 14) (size 15 to 20)
#    0.000    1.143    4.286    0.000    8.000    0.000 
#    0.000    0.714    0.000    0.000    0.000    0.000 
#    0.000    0.000    0.000    0.000    0.000    0.000 
#
# Total GULP energy -78096.104419 kJ/mol
# GULP energy per Si atom -5578.293173 kJ/mol
# Density = 2.167209 g / cm^3
# Si number density = 21.721529 Si / 1000 Ang^3
#
#
#
# Elastic Constant Matrix: (Units=GPa)
#
#
# Indices 1 2 3 4 5 6 
#
# 1 119.2116 11.8680 33.5219 0.0000 -6.6834 0.0000
# 2 11.8680 56.2742 51.6127 0.0000 -1.4149 0.0000
# 3 33.5219 51.6127 171.6015 0.0000 21.3581 0.0000
# 4 0.0000 0.0000 0.0000 29.7843 0.0000 3.4716
# 5 -6.6834 -1.4149 21.3581 0.0000 47.5009 0.0000
# 6 0.0000 0.0000 0.0000 3.4716 0.0000 1.6987
#
#
#
# Elastic Compliance Matrix: (Units=1/GPa)
#
#
# Indices 1 2 3 4 5 6 
#
# 1 0.009088 0.000026 -0.002057 0.000000 0.002205 0.000000
# 2 0.000026 0.025393 -0.008196 0.000000 0.004445 0.000000
# 3 -0.002057 -0.008196 0.009280 0.000000 -0.004706 0.000000
# 4 0.000000 0.000000 0.000000 0.044073 0.000000 -0.090072
# 5 0.002205 0.004445 -0.004706 0.000000 0.023611 0.000000
# 6 0.000000 0.000000 0.000000 -0.090072 0.000000 0.772759
#
#
# Mechanical properties :
#
#
# Convention : Reuss Voigt Hill
#
# Bulk Modulus (GPa) = 42.90632 60.12141 51.51386
# Shear Modulus (GPa) = 5.47988 32.46910 18.97449
#
# Velocity S-wave (km/s) = 1.59005 3.87044 2.95877
# Velocity P-wave (km/s) = 4.81319 6.90740 5.95311
#
# Compressibility (1/GPa) = 0.02330659
#
# Stress axis : x y z
#
# Youngs Moduli (GPa) = 110.03495 39.38025 107.75587
#
# Poissons Ratio (x) = -0.00102 0.22171
# Poissons Ratio (y) = -0.00284 0.88316
# Poissons Ratio (z) = 0.22639 0.32276
#
# Static dielectric constant tensor:
#      x y z
#    x 2.410430 0.000000 -0.209830 
#    y 0.000000 1.747030 0.000000 
#    z -0.209830 0.000000 2.330400 
# 
# From -- ./inp_files/23523.got.cif
#   From: 2010.05.17/outbox.cif.g08.bks.cpg/sg5_12_cif.got.tgz:23523.got - 2010.06.03 18:56:24.
