data_PCOD9125002
_publ_section_title
;
Structure prediction by ZEFSAII (Michael W. Deem and Ramdas Pophale) SiO2 
 PCOD9125002
Probable space group: C 2
;
_chemical_formula_sum "Si O2"
_cell_formula_units_Z 28
_cell_length_a 31.163829
_cell_length_b 5.558596
_cell_length_c 8.784492
_cell_angle_alpha 90.000000
_cell_angle_beta 124.309139
_cell_angle_gamma 90.000000
_cell_volume 1256.947209
_symmetry_space_group_name_H-M "C 2"
_symmetry_group_IT_number 5
_symmetry_cell_setting 'monoclinic'
loop_
_space_group_symop_operation_xyz
x,y,z
-x,y,-z
1/2+x,1/2+y,z
1/2-x,1/2+y,-z
loop_
_atom_site_type_symbol
_atom_site_label
_atom_site_fract_x
_atom_site_fract_y
_atom_site_fract_z
Si Si1 0.101690 0.533950 0.785272
Si Si2 0.000000 0.801050 0.500000
Si Si3 0.297070 0.238243 0.708403
Si Si4 0.958196 0.149056 0.168393
Si Si5 0.000000 0.472166 0.000000
Si Si6 0.218706 0.580806 0.896389
Si Si7 0.732590 0.732071 0.291872
Si Si8 0.904543 0.769984 0.889795
O O1 0.081697 0.269362 0.792422
O O2 0.158443 0.557751 0.825298
O O3 0.053063 0.647314 0.596553
O O4 0.101799 0.665127 0.950703
O O5 0.991729 0.962170 0.332761
O O6 0.303617 0.498407 0.799998
O O7 0.247670 0.253394 0.498880
O O8 0.348456 0.223951 0.709820
O O9 0.289369 0.995821 0.789822
O O10 0.994344 0.330053 0.147228
O O11 0.924469 0.035383 0.963904
O O12 0.050853 0.634533 0.108373
O O13 0.220589 0.657943 0.722795
O O14 0.248280 0.317451 0.972596
#
# Coordination Sequence:
#
# PCOD9125002 Si02
#       8
#     4   2   4   4   2   4   4   4
#     4  10  23  41  66  95 132 181 224 270 346 399
#     4  10  22  44  66  96 134 184 222 282 342 418
#     4  10  22  41  68  89 131 173 213 273 329 392
#     4  10  22  42  66  92 132 177 221 282 339 407
#     4  10  22  40  60 100 126 160 234 272 328 406
#     4  12  26  42  68 102 137 176 227 283 330 410
#     4  10  22  43  61  97 130 166 221 267 329 391
#     4  10  21  39  64  91 124 174 218 269 329 398
#
# _framework density 22.276195999999999
#
# number of rings (size 3 to 8) (size 9 to 14) (size 15 to 20)
#    0.000    1.714    0.000    3.429   10.000    0.000 
#   12.857    0.000    0.000    0.000    0.000    0.000 
#    0.000    0.000    0.000    0.000    0.000    0.000 
#
# Total GULP energy -77974.398318 kJ/mol
# GULP energy per Si atom -5569.599880 kJ/mol
# Density = 2.222549 g / cm^3
# Si number density = 22.276196 Si / 1000 Ang^3
#
#
#
# Elastic Constant Matrix: (Units=GPa)
#
#
# Indices 1 2 3 4 5 6 
#
# 1 183.0527 65.2085 27.7393 0.0000 25.3357 0.0000
# 2 65.2085 151.0111 34.3070 0.0000 17.8465 0.0000
# 3 27.7393 34.3070 56.7751 0.0000 13.9439 0.0000
# 4 0.0000 0.0000 0.0000 16.1917 0.0000 -7.0213
# 5 25.3357 17.8465 13.9439 0.0000 29.1765 0.0000
# 6 0.0000 0.0000 0.0000 -7.0213 0.0000 19.7601
#
#
#
# Elastic Compliance Matrix: (Units=1/GPa)
#
#
# Indices 1 2 3 4 5 6 
#
# 1 0.007018 -0.002306 -0.001003 0.000000 -0.004205 0.000000
# 2 -0.002306 0.008642 -0.003726 0.000000 -0.001503 0.000000
# 3 -0.001003 -0.003726 0.022185 0.000000 -0.007452 0.000000
# 4 0.000000 0.000000 0.000000 0.073009 0.000000 0.025942
# 5 -0.004205 -0.001503 -0.007452 0.000000 0.042406 0.000000
# 6 0.000000 0.000000 0.000000 0.025942 0.000000 0.059825
#
#
# Mechanical properties :
#
#
# Convention : Reuss Voigt Hill
#
# Bulk Modulus (GPa) = 42.06049 71.70538 56.88293
# Shear Modulus (GPa) = 21.26924 30.59795 25.93359
#
# Velocity S-wave (km/s) = 3.09333 3.71019 3.41572
# Velocity P-wave (km/s) = 5.62855 7.11429 6.41458
#
# Compressibility (1/GPa) = 0.02377528
#
# Stress axis : x y z
#
# Youngs Moduli (GPa) = 142.48592 115.71597 45.07472
#
# Poissons Ratio (x) = 0.26682 0.04521
# Poissons Ratio (y) = 0.32854 0.16796
# Poissons Ratio (z) = 0.14292 0.43119
#
# Static dielectric constant tensor:
#      x y z
#    x 1.816610 0.000000 0.000020 
#    y 0.000000 1.975660 0.000000 
#    z 0.000020 0.000000 1.891830 
# 
# From -- ./inp_files/32207.got.cif
#   From: 2010.05.17/outbox.cif.g08.bks.cpg/sg5_17_cif.got.tgz:32207.got - 2010.06.03 18:56:24.
