data_PCOD9125300
_publ_section_title
;
Structure prediction by ZEFSAII (Michael W. Deem and Ramdas Pophale) SiO2 
 PCOD9125300
Probable space group: C 2
;
_chemical_formula_sum "Si O2"
_cell_formula_units_Z 24
_cell_length_a 15.010921
_cell_length_b 16.964781
_cell_length_c 8.764872
_cell_angle_alpha 90.000000
_cell_angle_beta 29.516242
_cell_angle_gamma 90.000000
_cell_volume 1099.657719
_symmetry_space_group_name_H-M "C 2"
_symmetry_group_IT_number 5
_symmetry_cell_setting 'monoclinic'
loop_
_space_group_symop_operation_xyz
x,y,z
-x,y,-z
1/2+x,1/2+y,z
1/2-x,1/2+y,-z
loop_
_atom_site_type_symbol
_atom_site_label
_atom_site_fract_x
_atom_site_fract_y
_atom_site_fract_z
Si Si1 0.203713 0.133980 0.636189
Si Si2 0.011196 0.736595 0.303185
Si Si3 0.856018 0.907620 0.826986
Si Si4 0.297473 0.470074 0.236102
Si Si5 0.149954 0.171928 0.392438
Si Si6 0.513873 0.841730 0.663324
O O1 0.330698 0.206604 0.491200
O O2 0.202012 0.119241 0.457644
O O3 0.277054 0.054986 0.606244
O O4 0.000000 0.145391 0.000000
O O5 0.049029 0.829998 0.241630
O O6 0.000000 0.716031 0.500000
O O7 0.179154 0.697718 0.963431
O O8 0.000000 0.944934 0.500000
O O9 0.802949 0.963156 0.044925
O O10 0.682815 0.872239 0.994725
O O11 0.171643 0.399177 0.482178
O O12 0.500000 0.463425 0.000000
O O13 0.063854 0.250268 0.603168
O O14 0.000000 0.140940 0.500000
O O15 0.500000 0.850282 0.500000
#
# Coordination Sequence:
#
# PCOD9125300 Si02
#       6
#     4   4   4   4   4   4
#     4  11  26  41  62 102 146 190 227 280 350 419
#     4  11  22  39  67 104 138 176 234 288 346 413
#     4  10  21  40  69 103 128 173 241 285 349 412
#     4  10  22  43  62  94 141 182 225 277 347 412
#     4  11  20  41  69 102 135 183 232 291 348 407
#     4   9  18  38  69  97 127 170 229 288 341 402
#
# _framework density 21.824971000000001
#
# number of rings (size 3 to 8) (size 9 to 14) (size 15 to 20)
#    0.000    1.667    5.000    1.500    4.667    2.000 
#    0.000   14.167    0.000    0.000    0.000    0.000 
#    0.000    0.000    0.000    0.000    0.000    0.000 
#
# Total GULP energy -67038.911932 kJ/mol
# GULP energy per Si atom -5586.575994 kJ/mol
# Density = 2.177530 g / cm^3
# Si number density = 21.824971 Si / 1000 Ang^3
#
#
#
# Elastic Constant Matrix: (Units=GPa)
#
#
# Indices 1 2 3 4 5 6 
#
# 1 78.1283 25.5584 23.4735 -0.0012 11.9571 0.0004
# 2 25.5584 69.3344 16.9217 -0.0030 0.9376 0.0009
# 3 23.4735 16.9217 76.7013 -0.0063 15.9392 0.0026
# 4 -0.0012 -0.0030 -0.0063 -0.7597 0.0022 3.7315
# 5 11.9571 0.9376 15.9392 0.0022 44.5117 -0.0008
# 6 0.0004 0.0009 0.0026 3.7315 -0.0008 35.3989
#
#
#
# Elastic Compliance Matrix: (Units=1/GPa)
#
#
# Indices 1 2 3 4 5 6 
#
# 1 0.015847 -0.005043 -0.003106 0.000009 -0.003039 -0.000001
# 2 -0.005043 0.016886 -0.002582 -0.000022 0.001923 0.000002
# 3 -0.003106 -0.002582 0.015529 -0.000088 -0.004672 0.000008
# 4 0.000009 -0.000022 -0.000088 -0.867260 0.000073 0.091419
# 5 -0.003039 0.001923 -0.004672 0.000073 0.024915 -0.000007
# 6 -0.000001 0.000002 0.000008 0.091419 -0.000007 0.018613
#
#
# Mechanical properties :
#
#
# Convention : Reuss Voigt Hill
#
# Bulk Modulus (GPa) = 37.31205 39.56348 38.43776
# Shear Modulus (GPa) = -6.71072 26.37752 9.83340
#
# Velocity S-wave (km/s) = -1.75541 3.48025 2.12494
# Velocity P-wave (km/s) = 3.60895 5.85803 4.86524
#
# Compressibility (1/GPa) = 0.02680100
#
# Stress axis : x y z
#
# Youngs Moduli (GPa) = 63.10238 59.22146 64.39743
#
# Poissons Ratio (x) = 0.29863 0.20001
# Poissons Ratio (y) = 0.31820 0.16626
# Poissons Ratio (z) = 0.19599 0.15290
#
# Static dielectric constant tensor:
#      x y z
#    x 1.801480 0.000000 0.002430 
#    y 0.000000 1.828430 0.000000 
#    z 0.002430 0.000000 1.842390 
# 
# From -- ./inp_files/16707.got.cif
#   From: 2010.05.17/outbox.cif.g08.bks.cpg/sg5_9_cif.got.tgz:16707.got - 2010.06.03 18:56:24.
