data_PCOD9125561
_publ_section_title
;
Structure prediction by ZEFSAII (Michael W. Deem and Ramdas Pophale) SiO2 
 PCOD9125561
Probable space group: C 2
;
_chemical_formula_sum "Si O2"
_cell_formula_units_Z 28
_cell_length_a 13.181152
_cell_length_b 5.741748
_cell_length_c 17.087298
_cell_angle_alpha 90.000000
_cell_angle_beta 122.550443
_cell_angle_gamma 90.000000
_cell_volume 1090.074700
_symmetry_space_group_name_H-M "C 2"
_symmetry_group_IT_number 5
_symmetry_cell_setting 'monoclinic'
loop_
_space_group_symop_operation_xyz
x,y,z
-x,y,-z
1/2+x,1/2+y,z
1/2-x,1/2+y,-z
loop_
_atom_site_type_symbol
_atom_site_label
_atom_site_fract_x
_atom_site_fract_y
_atom_site_fract_z
Si Si1 0.103879 0.586250 0.666296
Si Si2 0.719739 0.270935 0.364382
Si Si3 0.025125 0.987239 0.715746
Si Si4 0.368724 0.865963 0.149830
Si Si5 0.630485 0.461659 0.093128
Si Si6 0.142354 0.388212 0.422954
Si Si7 0.927582 0.464148 0.888213
O O1 0.191784 0.427103 0.651355
O O2 0.118839 0.489181 0.760762
O O3 0.963168 0.552116 0.585106
O O4 0.107063 0.862011 0.684704
O O5 0.581167 0.334033 0.291355
O O6 0.763161 0.333444 0.470809
O O7 0.708548 0.991945 0.373516
O O8 0.940683 0.175281 0.637881
O O9 0.104891 0.098356 0.817164
O O10 0.233948 0.931856 0.070597
O O11 0.470650 0.948233 0.134753
O O12 0.641256 0.713439 0.140374
O O13 0.639500 0.214504 0.143715
O O14 0.500000 0.466325 0.000000
O O15 0.000000 0.469289 0.000000
#
# Coordination Sequence:
#
# PCOD9125561 Si02
#       7
#     4   4   4   4   4   4   4
#     4  10  25  41  65 103 141 190 242 301 379 439
#     4  11  21  41  69  96 144 184 248 307 367 434
#     4  10  24  42  66 102 140 191 239 302 374 433
#     4  11  26  43  71 102 149 184 243 303 360 448
#     4  10  25  45  73 107 139 189 238 296 374 436
#     4  10  21  42  64 100 131 190 240 306 361 433
#     4  10  25  46  75 108 142 189 242 300 371 440
#
# _framework density 25.686313999999999
#
# number of rings (size 3 to 8) (size 9 to 14) (size 15 to 20)
#    0.000    1.714    1.429    0.429    6.000    9.143 
#    0.000    2.857    0.000    0.000    0.000    0.000 
#    0.000    0.000    0.000    0.000    0.000    0.000 
#
# Total GULP energy -78123.412634 kJ/mol
# GULP energy per Si atom -5580.243760 kJ/mol
# Density = 2.562785 g / cm^3
# Si number density = 25.686314 Si / 1000 Ang^3
#
#
#
# Elastic Constant Matrix: (Units=GPa)
#
#
# Indices 1 2 3 4 5 6 
#
# 1 166.3947 67.8821 35.9442 0.0000 -8.5279 0.0000
# 2 67.8821 166.9699 24.0683 0.0000 -13.6520 0.0000
# 3 35.9442 24.0683 62.2823 0.0000 7.4587 0.0000
# 4 0.0000 0.0000 0.0000 32.8158 0.0000 5.2502
# 5 -8.5279 -13.6520 7.4587 0.0000 49.5223 0.0000
# 6 0.0000 0.0000 0.0000 5.2502 0.0000 53.8608
#
#
#
# Elastic Compliance Matrix: (Units=1/GPa)
#
#
# Indices 1 2 3 4 5 6 
#
# 1 0.007932 -0.002589 -0.003723 0.000000 0.001213 0.000000
# 2 -0.002589 0.007422 -0.001594 0.000000 0.001840 0.000000
# 3 -0.003723 -0.001594 0.019298 0.000000 -0.003987 0.000000
# 4 0.000000 0.000000 0.000000 0.030956 0.000000 -0.003017
# 5 0.001213 0.001840 -0.003987 0.000000 0.021510 0.000000
# 6 0.000000 0.000000 0.000000 -0.003017 0.000000 0.018861
#
#
# Mechanical properties :
#
#
# Convention : Reuss Voigt Hill
#
# Bulk Modulus (GPa) = 53.07815 72.38177 62.72996
# Shear Modulus (GPa) = 39.04099 45.08993 42.06546
#
# Velocity S-wave (km/s) = 3.90284 4.19430 4.05119
# Velocity P-wave (km/s) = 6.40456 7.19003 6.80863
#
# Compressibility (1/GPa) = 0.01884014
#
# Stress axis : x y z
#
# Youngs Moduli (GPa) = 126.06541 134.73421 51.81914
#
# Poissons Ratio (x) = 0.34885 0.19290
# Poissons Ratio (y) = 0.32640 0.08262
# Poissons Ratio (z) = 0.46929 0.21481
#
# Static dielectric constant tensor:
#      x y z
#    x 2.038280 0.000000 0.005960 
#    y 0.000000 2.409420 0.000000 
#    z 0.005960 0.000000 1.989900 
# 
# From -- ./inp_files/61141.got.cif
#   From: 2010.05.17/outbox.cif.g08.bks.cpg/sg5_31_cif.got.tgz:61141.got - 2010.06.03 18:56:24.
