data_PCOD9125876
_publ_section_title
;
Structure prediction by ZEFSAII (Michael W. Deem and Ramdas Pophale) SiO2 
 PCOD9125876
Probable space group: C 2
;
_chemical_formula_sum "Si O2"
_cell_formula_units_Z 30
_cell_length_a 11.026821
_cell_length_b 9.029343
_cell_length_c 16.232315
_cell_angle_alpha 90.000000
_cell_angle_beta 125.604935
_cell_angle_gamma 90.000000
_cell_volume 1314.027705
_symmetry_space_group_name_H-M "C 2"
_symmetry_group_IT_number 5
_symmetry_cell_setting 'monoclinic'
loop_
_space_group_symop_operation_xyz
x,y,z
-x,y,-z
1/2+x,1/2+y,z
1/2-x,1/2+y,-z
loop_
_atom_site_type_symbol
_atom_site_label
_atom_site_fract_x
_atom_site_fract_y
_atom_site_fract_z
Si Si1 0.955090 0.767840 0.322303
Si Si2 0.974028 0.090715 0.646703
Si Si3 0.291826 0.107002 0.870806
Si Si4 0.950549 0.849716 0.827169
Si Si5 0.000000 0.298086 0.500000
Si Si6 0.200643 0.539805 0.646871
Si Si7 0.356025 0.615042 0.032147
Si Si8 0.642416 0.775906 0.135330
O O1 0.950151 0.618519 0.375086
O O2 0.775305 0.776628 0.251593
O O3 0.001473 0.780278 0.243378
O O4 0.024203 0.918987 0.383547
O O5 0.123771 0.102842 0.763549
O O6 0.986414 0.198129 0.575168
O O7 0.822438 0.121538 0.637152
O O8 0.390513 0.220148 0.859870
O O9 0.278496 0.146729 0.961023
O O10 0.355504 0.942246 0.894903
O O11 0.810056 0.960880 0.756881
O O12 0.078033 0.953105 0.919105
O O13 0.859123 0.402900 0.430549
O O14 0.485084 0.730304 0.108270
O O15 0.327785 0.657599 0.926541
#
# Coordination Sequence:
#
# PCOD9125876 Si02
#       8
#     4   4   4   4   2   4   4   4
#     4  10  21  45  67  92 135 178 212 266 328 393
#     4  10  23  44  70  95 133 169 221 272 326 394
#     4  11  22  45  66  93 129 181 218 270 332 391
#     4  11  22  42  69  95 129 178 222 266 330 391
#     4  12  26  42  66 108 128 166 224 276 328 398
#     4  11  23  44  68  99 132 173 217 269 336 391
#     4  11  22  42  65  96 135 167 220 282 311 388
#     4  10  22  41  64  96 130 171 222 268 325 379
#
# _framework density 22.830568
#
# number of rings (size 3 to 8) (size 9 to 14) (size 15 to 20)
#    0.000    1.333    6.667    0.000    0.000    6.933 
#    9.600    0.000    0.000    0.000    0.000    0.000 
#    0.000    0.000    0.000    0.000    0.000    0.000 
#
# Total GULP energy -83684.488070 kJ/mol
# GULP energy per Si atom -5578.965871 kJ/mol
# Density = 2.277860 g / cm^3
# Si number density = 22.830568 Si / 1000 Ang^3
#
#
#
# Elastic Constant Matrix: (Units=GPa)
#
#
# Indices 1 2 3 4 5 6 
#
# 1 119.8131 70.7637 15.8839 0.0000 -20.0450 0.0000
# 2 70.7637 98.3803 42.2662 0.0000 -19.2607 0.0000
# 3 15.8839 42.2662 55.3262 0.0000 -5.8028 0.0000
# 4 0.0000 0.0000 0.0000 35.3963 0.0000 0.5048
# 5 -20.0450 -19.2607 -5.8028 0.0000 20.9446 0.0000
# 6 0.0000 0.0000 0.0000 0.5048 0.0000 39.1178
#
#
#
# Elastic Compliance Matrix: (Units=1/GPa)
#
#
# Indices 1 2 3 4 5 6 
#
# 1 0.016224 -0.013274 0.006006 0.000000 0.004984 0.000000
# 2 -0.013274 0.028950 -0.017350 0.000000 0.009112 0.000000
# 3 0.006006 -0.017350 0.029388 0.000000 -0.002065 0.000000
# 4 0.000000 0.000000 0.000000 0.028257 0.000000 -0.000365
# 5 0.004984 0.009112 -0.002065 0.000000 0.060323 0.000000
# 6 0.000000 0.000000 0.000000 -0.000365 0.000000 0.025569
#
#
# Mechanical properties :
#
#
# Convention : Reuss Voigt Hill
#
# Bulk Modulus (GPa) = 39.48540 59.03856 49.26198
# Shear Modulus (GPa) = 20.29318 28.73210 24.51264
#
# Velocity S-wave (km/s) = 2.98461 3.55137 3.28025
# Velocity P-wave (km/s) = 5.40460 6.53696 5.99757
#
# Compressibility (1/GPa) = 0.02532582
#
# Stress axis : x y z
#
# Youngs Moduli (GPa) = 61.63778 34.54213 34.02729
#
# Poissons Ratio (x) = 0.45851 -0.20435
# Poissons Ratio (y) = 0.81817 0.59037
# Poissons Ratio (z) = -0.37017 0.59930
#
# Static dielectric constant tensor:
#      x y z
#    x 1.868070 0.000000 -0.036550 
#    y 0.000000 1.983770 0.000000 
#    z -0.036550 0.000000 2.013770 
# 
# From -- ./inp_files/60311.got.cif
#   From: 2010.05.17/outbox.cif.g08.bks.cpg/sg5_31_cif.got.tgz:60311.got - 2010.06.03 18:56:24.
