data_PCOD9125498
_publ_section_title
;
Structure prediction by ZEFSAII (Michael W. Deem and Ramdas Pophale) SiO2 
 PCOD9125498
Probable space group: C 2
;
_chemical_formula_sum "Si O2"
_cell_formula_units_Z 28
_cell_length_a 7.835415
_cell_length_b 13.629324
_cell_length_c 16.701673
_cell_angle_alpha 90.000000
_cell_angle_beta 47.849730
_cell_angle_gamma 90.000000
_cell_volume 1322.334901
_symmetry_space_group_name_H-M "C 2"
_symmetry_group_IT_number 5
_symmetry_cell_setting 'monoclinic'
loop_
_space_group_symop_operation_xyz
x,y,z
-x,y,-z
1/2+x,1/2+y,z
1/2-x,1/2+y,-z
loop_
_atom_site_type_symbol
_atom_site_label
_atom_site_fract_x
_atom_site_fract_y
_atom_site_fract_z
Si Si1 0.522576 0.572040 0.807910
Si Si2 0.130432 0.721309 0.882357
Si Si3 0.170103 0.961078 0.511850
Si Si4 0.228624 0.196061 0.879784
Si Si5 0.266315 0.144345 0.575063
Si Si6 0.488836 0.373133 0.725213
Si Si7 0.441106 0.809313 0.655797
O O1 0.287434 0.633553 0.868458
O O2 0.645338 0.602719 0.852560
O O3 0.694045 0.612414 0.685869
O O4 0.473011 0.459634 0.797432
O O5 0.302592 0.796403 0.783106
O O6 0.942310 0.685086 0.875234
O O7 0.000000 0.765472 0.000000
O O8 0.000067 0.916858 0.633306
O O9 0.356516 0.887850 0.415398
O O10 0.000000 0.002247 0.500000
O O11 0.305513 0.048869 0.510367
O O12 0.310011 0.286118 0.797604
O O13 0.000000 0.225700 0.000000
O O14 0.500000 0.205848 0.500000
O O15 0.057516 0.205059 0.605658
O O16 0.745871 0.331162 0.653602
#
# Coordination Sequence:
#
# PCOD9125498 Si02
#       7
#     4   4   4   4   4   4   4
#     4  10  22  44  65  95 140 173 228 287 334 404
#     4  10  21  41  69  96 136 174 227 281 336 406
#     4  11  23  38  62  98 133 173 223 271 339 412
#     4  11  23  42  71  97 131 187 225 279 357 402
#     4  10  22  42  64  91 130 175 211 279 338 394
#     4  10  24  44  63  98 137 173 230 283 335 417
#     4  10  22  41  65  94 129 175 215 273 335 401
#
# _framework density 21.174665999999998
#
# number of rings (size 3 to 8) (size 9 to 14) (size 15 to 20)
#    0.000    1.714    1.429    2.571    6.000    1.714 
#   18.000    2.857    0.000    0.000    0.000    0.000 
#    0.000    0.000    0.000    0.000    0.000    0.000 
#
# Total GULP energy -78094.805200 kJ/mol
# GULP energy per Si atom -5578.200371 kJ/mol
# Density = 2.112647 g / cm^3
# Si number density = 21.174666 Si / 1000 Ang^3
#
#
#
# Elastic Constant Matrix: (Units=GPa)
#
#
# Indices 1 2 3 4 5 6 
#
# 1 97.6866 13.8408 40.4136 -0.0001 11.9423 0.0000
# 2 13.8408 49.3623 42.6888 -0.0001 5.4906 0.0000
# 3 40.4136 42.6888 87.5549 -0.0001 -10.8592 0.0000
# 4 -0.0001 -0.0001 -0.0001 19.1792 0.0001 0.4502
# 5 11.9423 5.4906 -10.8592 0.0001 28.6611 0.0000
# 6 0.0000 0.0000 0.0000 0.4502 0.0000 19.5683
#
#
#
# Elastic Compliance Matrix: (Units=1/GPa)
#
#
# Indices 1 2 3 4 5 6 
#
# 1 0.016125 0.008337 -0.013157 0.000000 -0.013301 0.000000
# 2 0.008337 0.045479 -0.028891 0.000000 -0.023133 0.000000
# 3 -0.013157 -0.028891 0.034572 0.000000 0.024116 0.000000
# 4 0.000000 0.000000 0.000000 0.052168 0.000000 -0.001200
# 5 -0.013301 -0.023133 0.024116 0.000000 0.054001 0.000000
# 6 0.000000 0.000000 0.000000 -0.001200 0.000000 0.051131
#
#
# Mechanical properties :
#
#
# Convention : Reuss Voigt Hill
#
# Bulk Modulus (GPa) = 34.77967 47.61000 41.19484
# Shear Modulus (GPa) = 15.12931 22.65910 18.89420
#
# Velocity S-wave (km/s) = 2.67591 3.27479 2.99038
# Velocity P-wave (km/s) = 5.09982 6.06896 5.60537
#
# Compressibility (1/GPa) = 0.02875243
#
# Stress axis : x y z
#
# Youngs Moduli (GPa) = 62.01550 21.98803 28.92507
#
# Poissons Ratio (x) = -0.18331 0.38058
# Poissons Ratio (y) = -0.51701 0.83568
# Poissons Ratio (z) = 0.81596 0.63526
#
# Static dielectric constant tensor:
#      x y z
#    x 1.779020 0.000000 0.001380 
#    y 0.000000 1.761750 0.000000 
#    z 0.001380 0.000000 1.781500 
# 
# From -- ./inp_files/59701.got.cif
#   From: 2010.05.17/outbox.cif.g08.bks.cpg/sg5_30_cif.got.tgz:59701.got - 2010.06.03 18:56:24.
