data_PCOD9125092
_publ_section_title
;
Structure prediction by ZEFSAII (Michael W. Deem and Ramdas Pophale) SiO2 
 PCOD9125092
Probable space group: C 2
;
_chemical_formula_sum "Si O2"
_cell_formula_units_Z 26
_cell_length_a 8.987851
_cell_length_b 21.873975
_cell_length_c 9.502361
_cell_angle_alpha 90.000000
_cell_angle_beta 134.710529
_cell_angle_gamma 90.000000
_cell_volume 1327.648800
_symmetry_space_group_name_H-M "C 2"
_symmetry_group_IT_number 5
_symmetry_cell_setting 'monoclinic'
loop_
_space_group_symop_operation_xyz
x,y,z
-x,y,-z
1/2+x,1/2+y,z
1/2-x,1/2+y,-z
loop_
_atom_site_type_symbol
_atom_site_label
_atom_site_fract_x
_atom_site_fract_y
_atom_site_fract_z
Si Si1 0.067988 0.195640 0.385700
Si Si2 0.140256 0.332456 0.388785
Si Si3 0.500000 0.405509 0.500000
Si Si4 0.420839 0.093618 0.607638
Si Si5 0.359298 0.606600 0.041956
Si Si6 0.780601 0.881950 0.777483
Si Si7 0.111007 0.993436 0.330251
O O1 0.109369 0.260950 0.343073
O O2 0.269895 0.151748 0.522950
O O3 0.000000 0.206957 0.500000
O O4 0.895729 0.157343 0.185046
O O5 0.294580 0.364112 0.381543
O O6 0.247666 0.341578 0.614605
O O7 0.917645 0.366763 0.256690
O O8 0.495224 0.448193 0.359575
O O9 0.500000 0.092805 0.500000
O O10 0.283471 0.032236 0.530857
O O11 0.620944 0.098044 0.839424
O O12 0.457660 0.543163 0.161605
O O13 0.500000 0.624520 0.000000
O O14 0.785127 0.951456 0.721503
O O15 0.000000 0.870265 0.000000
#
# Coordination Sequence:
#
# PCOD9125092 Si02
#       7
#     4   4   2   4   4   4   4
#     4  11  24  45  67  98 134 168 229 284 326 394
#     4  10  23  44  65  91 137 173 220 276 337 384
#     4  10  24  40  66  98 134 180 206 284 326 394
#     4  11  24  41  70  95 130 182 214 274 339 394
#     4  11  23  41  68 100 127 177 221 268 337 399
#     4  10  21  39  68  96 123 179 224 265 330 406
#     4  10  23  40  65  95 138 162 228 267 334 397
#
# _framework density 19.583490999999999
#
# number of rings (size 3 to 8) (size 9 to 14) (size 15 to 20)
#    0.000    1.538    4.615    0.462    9.692    1.846 
#    0.000    7.692    0.000    0.000    0.000    0.000 
#    0.000    0.000    0.000    0.000    0.000    0.000 
#
# Total GULP energy -72631.984632 kJ/mol
# GULP energy per Si atom -5587.075741 kJ/mol
# Density = 1.953892 g / cm^3
# Si number density = 19.583491 Si / 1000 Ang^3
#
#
#
# Elastic Constant Matrix: (Units=GPa)
#
#
# Indices 1 2 3 4 5 6 
#
# 1 111.2651 49.3738 26.1951 0.0000 17.5420 0.0000
# 2 49.3738 142.6735 45.3483 0.0000 16.9167 0.0000
# 3 26.1951 45.3483 134.4018 0.0000 41.8014 0.0000
# 4 0.0000 0.0000 0.0000 6.9254 0.0000 -7.9423
# 5 17.5420 16.9167 41.8014 0.0000 33.5583 0.0000
# 6 0.0000 0.0000 0.0000 -7.9423 0.0000 33.8089
#
#
#
# Elastic Compliance Matrix: (Units=1/GPa)
#
#
# Indices 1 2 3 4 5 6 
#
# 1 0.011144 -0.003444 0.000428 0.000000 -0.004622 0.000000
# 2 -0.003444 0.008939 -0.002454 0.000000 0.000351 0.000000
# 3 0.000428 -0.002454 0.012847 0.000000 -0.014989 0.000000
# 4 0.000000 0.000000 0.000000 0.197641 0.000000 0.046429
# 5 -0.004622 0.000351 -0.014989 0.000000 0.050709 0.000000
# 6 0.000000 0.000000 0.000000 0.046429 0.000000 0.040485
#
#
# Mechanical properties :
#
#
# Convention : Reuss Voigt Hill
#
# Bulk Modulus (GPa) = 45.47841 70.01944 57.74892
# Shear Modulus (GPa) = 14.70431 32.68674 23.69552
#
# Velocity S-wave (km/s) = 2.74314 4.08989 3.48224
# Velocity P-wave (km/s) = 5.77116 7.62462 6.76170
#
# Compressibility (1/GPa) = 0.02198846
#
# Stress axis : x y z
#
# Youngs Moduli (GPa) = 89.73456 111.86444 77.83974
#
# Poissons Ratio (x) = 0.38531 -0.03329
# Poissons Ratio (y) = 0.30908 0.19103
# Poissons Ratio (z) = -0.03837 0.27453
#
# Static dielectric constant tensor:
#      x y z
#    x 1.684670 0.000000 -0.020940 
#    y 0.000000 1.686190 0.000000 
#    z -0.020940 0.000000 1.655410 
# 
# From -- ./inp_files/17086.got.cif
#   From: 2010.05.17/outbox.cif.g08.bks.cpg/sg5_9_cif.got.tgz:17086.got - 2010.06.03 18:56:24.
