data_PCOD9125657
_publ_section_title
;
Structure prediction by ZEFSAII (Michael W. Deem and Ramdas Pophale) SiO2 
 PCOD9125657
Probable space group: C 2
;
_chemical_formula_sum "Si O2"
_cell_formula_units_Z 24
_cell_length_a 22.732165
_cell_length_b 6.963056
_cell_length_c 12.574390
_cell_angle_alpha 90.000000
_cell_angle_beta 28.533350
_cell_angle_gamma 90.000000
_cell_volume 950.726876
_symmetry_space_group_name_H-M "C 2"
_symmetry_group_IT_number 5
_symmetry_cell_setting 'monoclinic'
loop_
_space_group_symop_operation_xyz
x,y,z
-x,y,-z
1/2+x,1/2+y,z
1/2-x,1/2+y,-z
loop_
_atom_site_type_symbol
_atom_site_label
_atom_site_fract_x
_atom_site_fract_y
_atom_site_fract_z
Si Si1 0.360213 0.248500 0.253516
Si Si2 0.169470 0.146966 0.390197
Si Si3 0.320611 0.440012 0.010729
Si Si4 0.987076 0.216710 0.841554
Si Si5 0.133800 0.789776 0.296138
Si Si6 0.687252 0.698679 0.703015
O O1 0.262274 0.121133 0.342859
O O2 0.332490 0.467695 0.262672
O O3 0.321546 0.229763 0.438854
O O4 0.500000 0.203000 0.000000
O O5 0.247847 0.270498 0.182885
O O6 0.052483 0.266409 0.625195
O O7 0.131998 0.952907 0.389867
O O8 0.235106 0.627698 0.149633
O O9 0.444750 0.499639 0.876850
O O10 0.343329 0.391175 0.852892
O O11 0.092364 0.257589 0.760567
O O12 0.867917 0.280506 0.099305
O O13 0.000000 0.695399 0.500000
#
# Coordination Sequence:
#
# PCOD9125657 Si02
#       6
#     4   4   4   4   4   4
#     4  11  22  45  68 102 144 177 228 282 341 424
#     4  11  24  47  73 103 141 189 228 291 352 409
#     4  12  24  46  71 102 134 186 236 286 358 412
#     4  10  21  43  70  96 143 178 228 290 339 412
#     4  12  27  45  72 101 138 180 237 297 348 410
#     4  10  21  42  69  98 139 181 219 287 343 402
#
# _framework density 25.243842000000001
#
# number of rings (size 3 to 8) (size 9 to 14) (size 15 to 20)
#    0.000    1.000    6.667    0.000    0.000    4.667 
#   15.000    0.000    0.000    0.000    0.000    0.000 
#    0.000    0.000    0.000    0.000    0.000    0.000 
#
# Total GULP energy -66991.238256 kJ/mol
# GULP energy per Si atom -5582.603188 kJ/mol
# Density = 2.518639 g / cm^3
# Si number density = 25.243842 Si / 1000 Ang^3
#
#
#
# Elastic Constant Matrix: (Units=GPa)
#
#
# Indices 1 2 3 4 5 6 
#
# 1 67.0957 -5.6984 42.8806 0.0000 -0.6693 0.0000
# 2 -5.6984 27.6319 5.8488 -0.0001 -8.3447 0.0001
# 3 42.8806 5.8488 218.8215 0.0000 11.2750 0.0000
# 4 0.0000 -0.0001 0.0000 76.3847 0.0000 16.7793
# 5 -0.6693 -8.3447 11.2750 0.0000 28.9117 0.0000
# 6 0.0000 0.0001 0.0000 16.7793 0.0000 38.8607
#
#
#
# Elastic Compliance Matrix: (Units=1/GPa)
#
#
# Indices 1 2 3 4 5 6 
#
# 1 0.017858 0.005553 -0.003829 0.000000 0.003509 0.000000
# 2 0.005553 0.041989 -0.002900 0.000000 0.013379 0.000000
# 3 -0.003829 -0.002900 0.005557 0.000000 -0.003093 0.000000
# 4 0.000000 0.000000 0.000000 0.014463 0.000000 -0.006245
# 5 0.003509 0.013379 -0.003093 0.000000 0.039737 0.000000
# 6 0.000000 0.000000 0.000000 -0.006245 0.000000 0.028429
#
#
# Mechanical properties :
#
#
# Convention : Reuss Voigt Hill
#
# Bulk Modulus (GPa) = 15.85976 44.40123 30.13050
# Shear Modulus (GPa) = 29.17112 46.86596 38.01854
#
# Velocity S-wave (km/s) = 3.40306 4.31342 3.88500
# Velocity P-wave (km/s) = 4.66233 6.51418 5.66445
#
# Compressibility (1/GPa) = 0.06305264
#
# Stress axis : x y z
#
# Youngs Moduli (GPa) = 55.99870 23.81564 179.95110
#
# Poissons Ratio (x) = -0.13224 0.68897
# Poissons Ratio (y) = -0.31095 0.52183
# Poissons Ratio (z) = 0.21440 0.06906
#
# Static dielectric constant tensor:
#      x y z
#    x 1.995650 0.000000 -0.020680 
#    y 0.000000 2.041280 0.000000 
#    z -0.020680 0.000000 1.967370 
# 
# From -- ./inp_files/47245.got.cif
#   From: 2010.05.17/outbox.cif.g08.bks.cpg/sg5_24_cif.got.tgz:47245.got - 2010.06.03 18:56:24.
