data_PCOD9125776
_publ_section_title
;
Structure prediction by ZEFSAII (Michael W. Deem and Ramdas Pophale) SiO2 
 PCOD9125776
Probable space group: C 2
;
_chemical_formula_sum "Si O2"
_cell_formula_units_Z 18
_cell_length_a 5.377094
_cell_length_b 25.366638
_cell_length_c 5.276746
_cell_angle_alpha 90.000000
_cell_angle_beta 88.110862
_cell_angle_gamma 90.000000
_cell_volume 719.350615
_symmetry_space_group_name_H-M "C 2"
_symmetry_group_IT_number 5
_symmetry_cell_setting 'monoclinic'
loop_
_space_group_symop_operation_xyz
x,y,z
-x,y,-z
1/2+x,1/2+y,z
1/2-x,1/2+y,-z
loop_
_atom_site_type_symbol
_atom_site_label
_atom_site_fract_x
_atom_site_fract_y
_atom_site_fract_z
Si Si1 0.252266 0.870600 0.339040
Si Si2 0.500000 0.068066 0.000000
Si Si3 0.246645 0.484687 0.672267
Si Si4 0.843171 0.141719 0.270510
Si Si5 0.258417 0.251488 0.845736
O O1 0.500000 0.867911 0.500000
O O2 0.263665 0.926530 0.194581
O O3 0.221646 0.812579 0.227452
O O4 0.000000 0.877269 0.500000
O O5 0.610621 0.105479 0.212041
O O6 0.289683 0.030046 0.121264
O O7 0.500000 0.490037 0.500000
O O8 0.000000 0.487116 0.500000
O O9 0.764875 0.201987 0.341902
O O10 0.000000 0.120979 0.500000
O O11 0.000000 0.142511 0.000000
O O12 0.500000 0.238494 0.000000
O O13 0.000000 0.250404 0.000000
#
# Coordination Sequence:
#
# PCOD9125776 Si02
#       5
#     4   2   4   4   4
#     4  10  21  43  70 106 148 199 255 323 394 472
#     4  12  28  48  80 110 160 218 268 332 398 482
#     4  10  26  47  74 112 155 205 269 327 396 475
#     4  11  28  50  77 117 159 210 271 331 403 479
#     4  11  23  44  72 111 153 199 255 326 395 477
#
# _framework density 25.022566000000001
#
# number of rings (size 3 to 8) (size 9 to 14) (size 15 to 20)
#    0.000    1.333    1.111    2.000    7.778    1.778 
#    0.000    0.000    0.000    0.000    0.000    0.000 
#    0.000    0.000    0.000    0.000    0.000    0.000 
#
# Total GULP energy -50345.668356 kJ/mol
# GULP energy per Si atom -5593.963151 kJ/mol
# Density = 2.496561 g / cm^3
# Si number density = 25.022566 Si / 1000 Ang^3
#
#
#
# Elastic Constant Matrix: (Units=GPa)
#
#
# Indices 1 2 3 4 5 6 
#
# 1 172.0130 24.9465 42.4449 0.0000 6.0482 0.0000
# 2 24.9465 221.0546 39.1607 0.0000 1.5549 0.0000
# 3 42.4449 39.1607 79.7495 0.0000 16.9388 0.0000
# 4 0.0000 0.0000 0.0000 40.9807 0.0000 -32.7405
# 5 6.0482 1.5549 16.9388 0.0000 57.7608 0.0000
# 6 0.0000 0.0000 0.0000 -32.7405 0.0000 85.4116
#
#
#
# Elastic Compliance Matrix: (Units=1/GPa)
#
#
# Indices 1 2 3 4 5 6 
#
# 1 0.006703 -0.000125 -0.003581 0.000000 0.000352 0.000000
# 2 -0.000125 0.004978 -0.002509 0.000000 0.000615 0.000000
# 3 -0.003581 -0.002509 0.016618 0.000000 -0.004431 0.000000
# 4 0.000000 0.000000 0.000000 0.035174 0.000000 0.013483
# 5 0.000352 0.000615 -0.004431 0.000000 0.018559 0.000000
# 6 0.000000 0.000000 0.000000 0.013483 0.000000 0.016876
#
#
# Mechanical properties :
#
#
# Convention : Reuss Voigt Hill
#
# Bulk Modulus (GPa) = 63.00977 76.21345 69.61161
# Shear Modulus (GPa) = 42.87204 61.24830 52.06017
#
# Velocity S-wave (km/s) = 4.14374 4.95281 4.56623
# Velocity P-wave (km/s) = 6.93757 7.95180 7.46194
#
# Compressibility (1/GPa) = 0.01587056
#
# Stress axis : x y z
#
# Youngs Moduli (GPa) = 149.19075 200.88707 60.17516
#
# Poissons Ratio (x) = 0.02501 0.21549
# Poissons Ratio (y) = 0.01858 0.15096
# Poissons Ratio (z) = 0.53425 0.50396
#
# Static dielectric constant tensor:
#      x y z
#    x 1.914770 0.000000 -0.042540 
#    y 0.000000 2.081450 0.000000 
#    z -0.042540 0.000000 1.951800 
# 
# From -- ./inp_files/854.got.cif
#   From: 2010.05.17/outbox.cif.g08.bks.cpg/sg5_1_cif.got.tgz:854.got - 2010.06.03 18:56:24.
