data_PCOD9125252
_publ_section_title
;
Structure prediction by ZEFSAII (Michael W. Deem and Ramdas Pophale) SiO2 
 PCOD9125252
Probable space group: C 2
;
_chemical_formula_sum "Si O2"
_cell_formula_units_Z 24
_cell_length_a 13.040783
_cell_length_b 7.549208
_cell_length_c 11.921785
_cell_angle_alpha 90.000000
_cell_angle_beta 64.080924
_cell_angle_gamma 90.000000
_cell_volume 1055.614065
_symmetry_space_group_name_H-M "C 2"
_symmetry_group_IT_number 5
_symmetry_cell_setting 'monoclinic'
loop_
_space_group_symop_operation_xyz
x,y,z
-x,y,-z
1/2+x,1/2+y,z
1/2-x,1/2+y,-z
loop_
_atom_site_type_symbol
_atom_site_label
_atom_site_fract_x
_atom_site_fract_y
_atom_site_fract_z
Si Si1 0.240865 0.603320 0.195812
Si Si2 0.056352 0.857956 0.282925
Si Si3 0.878637 0.828698 0.994055
Si Si4 0.291493 0.436874 0.394248
Si Si5 0.232039 0.068015 0.350297
Si Si6 0.869522 0.453337 0.078770
O O1 0.108842 0.660015 0.269369
O O2 0.287652 0.587581 0.300916
O O3 0.299934 0.771941 0.107188
O O4 0.283481 0.431529 0.109906
O O5 0.094610 0.912618 0.139162
O O6 0.921445 0.873870 0.352135
O O7 0.123546 0.977107 0.341551
O O8 0.847679 0.619710 0.006974
O O9 0.000000 0.836780 0.000000
O O10 0.219935 0.276601 0.375332
O O11 0.246743 0.492107 0.536522
O O12 0.336899 0.032543 0.216074
O O13 0.000000 0.406342 0.000000
#
# Coordination Sequence:
#
# PCOD9125252 Si02
#       6
#     4   4   4   4   4   4
#     4  11  24  41  73 106 141 199 233 300 367 424
#     4  11  26  44  73 106 144 194 240 301 364 434
#     4  11  21  44  69 103 155 189 237 308 355 427
#     4  12  24  51  73 103 154 187 248 305 364 434
#     4  11  24  45  74 104 142 197 239 302 361 435
#     4  10  21  40  66 107 141 183 240 284 360 425
#
# _framework density 22.735582000000001
#
# number of rings (size 3 to 8) (size 9 to 14) (size 15 to 20)
#    0.000    1.000    3.333    4.000    4.667    0.000 
#    0.000    6.667    0.000    0.000    0.000    0.000 
#    0.000    0.000    0.000    0.000    0.000    0.000 
#
# Total GULP energy -67069.541021 kJ/mol
# GULP energy per Si atom -5589.128418 kJ/mol
# Density = 2.268383 g / cm^3
# Si number density = 22.735582 Si / 1000 Ang^3
#
#
#
# Elastic Constant Matrix: (Units=GPa)
#
#
# Indices 1 2 3 4 5 6 
#
# 1 84.1491 12.6764 11.9723 0.0000 6.2044 0.0000
# 2 12.6764 74.7919 -0.6365 0.0000 6.9724 0.0000
# 3 11.9723 -0.6365 97.0019 0.0000 11.1771 0.0000
# 4 0.0000 0.0000 0.0000 35.0051 0.0000 4.4301
# 5 6.2044 6.9724 11.1771 0.0000 33.7739 0.0000
# 6 0.0000 0.0000 0.0000 4.4301 0.0000 30.9748
#
#
#
# Elastic Compliance Matrix: (Units=1/GPa)
#
#
# Indices 1 2 3 4 5 6 
#
# 1 0.012487 -0.001996 -0.001390 0.000000 -0.001422 0.000000
# 2 -0.001996 0.013969 0.000653 0.000000 -0.002733 0.000000
# 3 -0.001390 0.000653 0.010886 0.000000 -0.003482 0.000000
# 4 0.000000 0.000000 0.000000 0.029094 0.000000 -0.004161
# 5 -0.001422 -0.002733 -0.003482 0.000000 0.031586 0.000000
# 6 0.000000 0.000000 0.000000 -0.004161 0.000000 0.032879
#
#
# Mechanical properties :
#
#
# Convention : Reuss Voigt Hill
#
# Bulk Modulus (GPa) = 31.37181 33.77414 32.57297
# Shear Modulus (GPa) = 34.01508 35.41281 34.71395
#
# Velocity S-wave (km/s) = 3.87216 3.95092 3.91174
# Velocity P-wave (km/s) = 5.81550 5.97499 5.89578
#
# Compressibility (1/GPa) = 0.03187575
#
# Stress axis : x y z
#
# Youngs Moduli (GPa) = 80.08350 71.58682 91.85950
#
# Poissons Ratio (x) = 0.14287 0.12773
# Poissons Ratio (y) = 0.15982 -0.05998
# Poissons Ratio (z) = 0.11135 -0.04674
#
# Static dielectric constant tensor:
#      x y z
#    x 1.892580 0.000000 0.033910 
#    y 0.000000 1.870210 0.000000 
#    z 0.033910 0.000000 1.843240 
# 
# From -- ./inp_files/41431.got.cif
#   From: 2010.05.17/outbox.cif.g08.bks.cpg/sg5_21_cif.got.tgz:41431.got - 2010.06.03 18:56:24.
