data_PCOD9125661
_publ_section_title
;
Structure prediction by ZEFSAII (Michael W. Deem and Ramdas Pophale) SiO2 
 PCOD9125661
Probable space group: C 2
;
_chemical_formula_sum "Si O2"
_cell_formula_units_Z 26
_cell_length_a 16.598887
_cell_length_b 9.767434
_cell_length_c 8.776129
_cell_angle_alpha 90.000000
_cell_angle_beta 121.575473
_cell_angle_gamma 90.000000
_cell_volume 1212.208017
_symmetry_space_group_name_H-M "C 2"
_symmetry_group_IT_number 5
_symmetry_cell_setting 'monoclinic'
loop_
_space_group_symop_operation_xyz
x,y,z
-x,y,-z
1/2+x,1/2+y,z
1/2-x,1/2+y,-z
loop_
_atom_site_type_symbol
_atom_site_label
_atom_site_fract_x
_atom_site_fract_y
_atom_site_fract_z
Si Si1 0.331560 0.518840 0.756745
Si Si2 0.684607 0.215486 0.743994
Si Si3 0.000000 0.573330 0.500000
Si Si4 0.075915 0.336850 0.784383
Si Si5 0.000000 0.102456 0.500000
Si Si6 0.294419 0.501274 0.370239
Si Si7 0.500000 0.714027 0.000000
Si Si8 0.213642 0.759776 0.111909
O O1 0.261553 0.597316 0.801924
O O2 0.286046 0.512920 0.543799
O O3 0.425391 0.610422 0.847895
O O4 0.340280 0.366989 0.833955
O O5 0.590993 0.167137 0.563671
O O6 0.728284 0.351476 0.713966
O O7 0.662374 0.236333 0.900219
O O8 0.971306 0.471709 0.333593
O O9 0.056916 0.312369 0.941929
O O10 0.184222 0.323268 0.837370
O O11 0.024469 0.205636 0.659847
O O12 0.905888 0.019360 0.441968
O O13 0.238004 0.620420 0.226289
#
# Coordination Sequence:
#
# PCOD9125661 Si02
#       8
#     4   4   2   4   2   4   2   4
#     4  12  25  44  69 105 141 183 248 301 355 426
#     4  12  25  42  71 101 141 192 240 293 360 433
#     4  11  25  44  70 102 148 190 240 292 366 426
#     4  10  21  42  69  99 138 188 230 287 354 430
#     4   9  19  38  66  92 126 184 226 270 348 428
#     4  11  24  41  68 100 141 184 236 295 365 418
#     4  12  24  40  74 108 140 188 248 298 352 430
#     4  11  24  45  70 100 142 191 238 294 363 432
#
# _framework density 21.448464999999999
#
# number of rings (size 3 to 8) (size 9 to 14) (size 15 to 20)
#    0.000    0.923    4.615    2.308    2.154    2.462 
#    0.000    1.538    0.000    0.923    0.000    0.000 
#    0.000    0.000    0.000    0.000    0.000    0.000 
#
# Total GULP energy -72665.045768 kJ/mol
# GULP energy per Si atom -5589.618905 kJ/mol
# Density = 2.139965 g / cm^3
# Si number density = 21.448465 Si / 1000 Ang^3
#
#
#
# Elastic Constant Matrix: (Units=GPa)
#
#
# Indices 1 2 3 4 5 6 
#
# 1 39.3185 22.0438 9.0643 0.0000 -4.3464 0.0000
# 2 22.0438 122.1844 28.8638 0.0000 -9.6186 0.0000
# 3 9.0643 28.8638 75.3976 0.0000 -16.6660 0.0000
# 4 0.0000 0.0000 0.0000 22.5188 0.0000 0.9635
# 5 -4.3464 -9.6186 -16.6660 0.0000 43.1229 0.0000
# 6 0.0000 0.0000 0.0000 0.9635 0.0000 22.4413
#
#
#
# Elastic Compliance Matrix: (Units=1/GPa)
#
#
# Indices 1 2 3 4 5 6 
#
# 1 0.028537 -0.004731 -0.001331 0.000000 0.001307 0.000000
# 2 -0.004731 0.009804 -0.003069 0.000000 0.000524 0.000000
# 3 -0.001331 -0.003069 0.015763 0.000000 0.005274 0.000000
# 4 0.000000 0.000000 0.000000 0.044489 0.000000 -0.001910
# 5 0.001307 0.000524 0.005274 0.000000 0.025476 0.000000
# 6 0.000000 0.000000 0.000000 -0.001910 0.000000 0.044643
#
#
# Mechanical properties :
#
#
# Convention : Reuss Voigt Hill
#
# Bulk Modulus (GPa) = 27.89903 39.64937 33.77420
# Shear Modulus (GPa) = 25.13554 29.41185 27.27370
#
# Velocity S-wave (km/s) = 3.42702 3.70710 3.56981
# Velocity P-wave (km/s) = 5.35677 6.07037 5.72470
#
# Compressibility (1/GPa) = 0.03584354
#
# Stress axis : x y z
#
# Youngs Moduli (GPa) = 35.04206 101.99825 63.43810
#
# Poissons Ratio (x) = 0.48259 0.08441
# Poissons Ratio (y) = 0.16579 0.19467
# Poissons Ratio (z) = 0.04663 0.31299
#
# Static dielectric constant tensor:
#      x y z
#    x 1.767480 0.000000 0.001100 
#    y 0.000000 1.745060 0.000000 
#    z 0.001100 0.000000 1.795770 
# 
# From -- ./inp_files/28688.got.cif
#   From: 2010.05.17/outbox.cif.g08.bks.cpg/sg5_15_cif.got.tgz:28688.got - 2010.06.03 18:56:24.
