data_PCOD9125154
_publ_section_title
;
Structure prediction by ZEFSAII (Michael W. Deem and Ramdas Pophale) SiO2 
 PCOD9125154
Probable space group: C 2
;
_chemical_formula_sum "Si O2"
_cell_formula_units_Z 30
_cell_length_a 9.156193
_cell_length_b 10.871954
_cell_length_c 26.475051
_cell_angle_alpha 90.000000
_cell_angle_beta 36.394112
_cell_angle_gamma 90.000000
_cell_volume 1563.724256
_symmetry_space_group_name_H-M "C 2"
_symmetry_group_IT_number 5
_symmetry_cell_setting 'monoclinic'
loop_
_space_group_symop_operation_xyz
x,y,z
-x,y,-z
1/2+x,1/2+y,z
1/2-x,1/2+y,-z
loop_
_atom_site_type_symbol
_atom_site_label
_atom_site_fract_x
_atom_site_fract_y
_atom_site_fract_z
Si Si1 0.032796 0.812230 0.133439
Si Si2 0.269371 0.561900 0.965765
Si Si3 0.249824 0.659213 0.869938
Si Si4 0.200890 0.320232 0.323298
Si Si5 0.500000 0.637605 0.000000
Si Si6 0.785025 0.096849 0.602511
Si Si7 0.800731 0.822003 0.599271
Si Si8 0.215225 0.594035 0.322024
O O1 0.844383 0.766848 0.141553
O O2 0.911149 0.814487 0.222234
O O3 0.149550 0.942230 0.086840
O O4 0.257552 0.718648 0.072502
O O5 0.287266 0.675076 0.920354
O O6 0.451509 0.566328 0.962077
O O7 0.987304 0.566771 0.063834
O O8 0.512299 0.613091 0.776826
O O9 0.203637 0.208507 0.361540
O O10 0.208547 0.455748 0.346489
O O11 0.956638 0.312069 0.357750
O O12 0.512550 0.096990 0.653707
O O13 0.000000 0.110058 0.500000
O O14 0.819369 0.960173 0.616817
O O15 0.828241 0.708486 0.629027
O O16 0.000000 0.814284 0.500000
#
# Coordination Sequence:
#
# PCOD9125154 Si02
#       8
#     4   4   4   4   2   4   4   4
#     4  11  22  40  61  88 125 165 208 262 317 371
#     4  10  22  41  61  85 125 159 209 263 311 373
#     4  10  21  40  62  88 125 165 210 261 320 371
#     4  11  23  38  66  93 128 165 216 267 315 389
#     4  10  24  36  62  88 112 166 208 252 314 370
#     4  10  24  43  64  96 132 170 214 268 323 382
#     4  10  22  42  65  90 129 171 210 265 325 381
#     4  11  22  40  64  96 125 169 212 266 321 381
#
# _framework density 19.184968999999999
#
# number of rings (size 3 to 8) (size 9 to 14) (size 15 to 20)
#    0.000    1.600    2.667    1.600    1.867    3.733 
#    0.000    1.333    0.000    0.000    0.000    0.000 
#    0.000    0.000    0.000    0.000    0.000    0.000 
#
# Total GULP energy -83588.169109 kJ/mol
# GULP energy per Si atom -5572.544607 kJ/mol
# Density = 1.914130 g / cm^3
# Si number density = 19.184969 Si / 1000 Ang^3
#
#
#
# Elastic Constant Matrix: (Units=GPa)
#
#
# Indices 1 2 3 4 5 6 
#
# 1 13.3883 -36.7233 -76.1278 0.0152 33.7724 -0.0129
# 2 -36.7233 51.1682 -56.5634 0.0137 53.9366 -0.0110
# 3 -76.1278 -56.5634 -41.8413 0.0191 33.2313 -0.0172
# 4 0.0152 0.0137 0.0191 26.8191 -0.0117 8.6057
# 5 33.7724 53.9366 33.2313 -0.0117 19.4787 0.0103
# 6 -0.0129 -0.0110 -0.0172 8.6057 0.0103 31.5497
#
#
#
# Elastic Compliance Matrix: (Units=1/GPa)
#
#
# Indices 1 2 3 4 5 6 
#
# 1 0.010436 -0.005923 -0.005234 0.000005 0.007236 -0.000004
# 2 -0.005923 0.011307 -0.009010 0.000002 -0.005668 -0.000002
# 3 -0.005234 -0.009010 0.010541 0.000009 0.016039 -0.000007
# 4 0.000005 0.000002 0.000009 0.040863 -0.000001 -0.011146
# 5 0.007236 -0.005668 0.016039 -0.000001 0.027123 0.000001
# 6 -0.000004 -0.000002 -0.000007 -0.011146 0.000001 0.034736
#
#
# Mechanical properties :
#
#
# Convention : Reuss Voigt Hill
#
# Bulk Modulus (GPa) = -124.23422 -35.12376 -79.67899
# Shear Modulus (GPa) = 28.95921 28.37815 28.66868
#
# Velocity S-wave (km/s) = 3.88941 3.85019 3.86985
# Velocity P-wave (km/s) = 6.68779 1.19063 4.65344
#
# Compressibility (1/GPa) = -0.00804931
#
# Stress axis : x y z
#
# Youngs Moduli (GPa) = 95.82595 88.44344 94.86398
#
# Poissons Ratio (x) = 0.52383 0.49648
# Poissons Ratio (y) = 0.56756 0.85474
# Poissons Ratio (z) = 0.50151 0.79689
#
# Static dielectric constant tensor:
#      x y z
#    x 1.686190 0.000000 0.013830 
#    y 0.000000 1.691590 0.000000 
#    z 0.013830 0.000000 1.691590 
# 
# From -- ./inp_files/67960.got.cif
#   From: 2010.05.17/outbox.cif.g08.bks.cpg/sg5_34_cif.got.tgz:67960.got - 2010.06.03 18:56:24.
