data_PCOD9125951
_publ_section_title
;
Structure prediction by ZEFSAII (Michael W. Deem and Ramdas Pophale) SiO2 
 PCOD9125951
Probable space group: C 2
;
_chemical_formula_sum "Si O2"
_cell_formula_units_Z 24
_cell_length_a 12.448791
_cell_length_b 18.654784
_cell_length_c 5.378515
_cell_angle_alpha 90.000000
_cell_angle_beta 120.077114
_cell_angle_gamma 90.000000
_cell_volume 1080.867410
_symmetry_space_group_name_H-M "C 2"
_symmetry_group_IT_number 5
_symmetry_cell_setting 'monoclinic'
loop_
_space_group_symop_operation_xyz
x,y,z
-x,y,-z
1/2+x,1/2+y,z
1/2-x,1/2+y,-z
loop_
_atom_site_type_symbol
_atom_site_label
_atom_site_fract_x
_atom_site_fract_y
_atom_site_fract_z
Si Si1 0.323481 0.024960 0.703139
Si Si2 0.623986 0.106530 0.716619
Si Si3 0.894224 0.159813 0.070614
Si Si4 0.533955 0.509599 0.298010
Si Si5 0.362877 0.808273 0.160547
Si Si6 0.859046 0.361307 0.657722
O O1 0.383635 0.047999 0.512620
O O2 0.176348 0.031111 0.485833
O O3 0.351842 0.941122 0.756952
O O4 0.363256 0.071094 0.992114
O O5 0.500000 0.150694 0.500000
O O6 0.754454 0.145791 0.819745
O O7 0.877144 0.224373 0.244963
O O8 0.948578 0.081800 0.205052
O O9 0.000000 0.185711 0.000000
O O10 0.500000 0.464894 0.500000
O O11 0.500000 0.474066 0.000000
O O12 0.300102 0.850268 0.315228
O O13 0.499551 0.839766 0.251480
O O14 0.303701 0.813596 0.816649
#
# Coordination Sequence:
#
# PCOD9125951 Si02
#       6
#     4   4   4   4   4   4
#     4  12  23  41  62  90 142 169 217 266 332 401
#     4  12  27  39  64  99 132 178 207 280 337 387
#     4  11  21  43  69  98 130 161 230 267 336 381
#     4  11  21  37  64  97 120 167 211 274 320 380
#     4  10  22  36  62  88 121 166 215 271 304 378
#     4  10  22  35  54  94 119 167 208 261 321 368
#
# _framework density 22.204388000000002
#
# number of rings (size 3 to 8) (size 9 to 14) (size 15 to 20)
#    0.000    1.000    6.667    1.500    9.333    1.333 
#    0.000    0.000    0.000    3.000    0.000    0.000 
#    0.000    0.000    0.000    0.000    0.000    0.000 
#
# Total GULP energy -66812.203905 kJ/mol
# GULP energy per Si atom -5567.683659 kJ/mol
# Density = 2.215385 g / cm^3
# Si number density = 22.204388 Si / 1000 Ang^3
#
#
#
# Elastic Constant Matrix: (Units=GPa)
#
#
# Indices 1 2 3 4 5 6 
#
# 1 89.4409 2.8547 66.6977 0.0000 2.4720 0.0000
# 2 2.8547 64.1654 2.5620 0.0000 5.1179 0.0000
# 3 66.6977 2.5620 158.8851 0.0000 -14.9513 0.0000
# 4 0.0000 0.0000 0.0000 7.9335 0.0000 -1.4659
# 5 2.4720 5.1179 -14.9513 0.0000 72.6320 0.0000
# 6 0.0000 0.0000 0.0000 -1.4659 0.0000 9.7603
#
#
#
# Elastic Compliance Matrix: (Units=1/GPa)
#
#
# Indices 1 2 3 4 5 6 
#
# 1 0.016571 -0.000292 -0.007141 0.000000 -0.002013 0.000000
# 2 -0.000292 0.015699 -0.000239 0.000000 -0.001145 0.000000
# 3 -0.007141 -0.000239 0.009504 0.000000 0.002216 0.000000
# 4 0.000000 0.000000 0.000000 0.129646 0.000000 0.019471
# 5 -0.002013 -0.001145 0.002216 0.000000 0.014373 0.000000
# 6 0.000000 0.000000 0.000000 0.019471 0.000000 0.105381
#
#
# Mechanical properties :
#
#
# Convention : Reuss Voigt Hill
#
# Bulk Modulus (GPa) = 37.83403 50.74666 44.29035
# Shear Modulus (GPa) = 15.85665 34.09028 24.97347
#
# Velocity S-wave (km/s) = 2.67521 3.92253 3.35731
# Velocity P-wave (km/s) = 5.15929 6.58931 5.91765
#
# Compressibility (1/GPa) = 0.02643123
#
# Stress axis : x y z
#
# Youngs Moduli (GPa) = 60.34789 63.70002 105.22019
#
# Poissons Ratio (x) = 0.01857 0.75136
# Poissons Ratio (y) = 0.01759 0.02510
# Poissons Ratio (z) = 0.43094 0.01520
#
# Static dielectric constant tensor:
#      x y z
#    x 1.925210 0.000000 -0.038390 
#    y 0.000000 1.809320 0.000000 
#    z -0.038390 0.000000 2.195680 
# 
# From -- ./inp_files/5534.got.cif
#   From: 2010.05.17/outbox.cif.g08.bks.cpg/sg5_3_cif.got.tgz:5534.got - 2010.06.03 18:56:24.
