data_PCOD9125558
_publ_section_title
;
Structure prediction by ZEFSAII (Michael W. Deem and Ramdas Pophale) SiO2 
 PCOD9125558
Probable space group: C 2
;
_chemical_formula_sum "Si O2"
_cell_formula_units_Z 24
_cell_length_a 25.769076
_cell_length_b 8.623294
_cell_length_c 19.820072
_cell_angle_alpha 90.000000
_cell_angle_beta 165.555298
_cell_angle_gamma 90.000000
_cell_volume 1098.633749
_symmetry_space_group_name_H-M "C 2"
_symmetry_group_IT_number 5
_symmetry_cell_setting 'monoclinic'
loop_
_space_group_symop_operation_xyz
x,y,z
-x,y,-z
1/2+x,1/2+y,z
1/2-x,1/2+y,-z
loop_
_atom_site_type_symbol
_atom_site_label
_atom_site_fract_x
_atom_site_fract_y
_atom_site_fract_z
Si Si1 0.249321 0.564920 0.997166
Si Si2 0.666032 0.670679 0.583819
Si Si3 0.615793 0.626214 0.277616
Si Si4 0.655175 0.431974 0.456429
Si Si5 0.000000 0.938370 0.000000
Si Si6 0.713236 0.818340 0.048586
Si Si7 0.000000 0.027775 0.500000
O O1 0.420836 0.668280 0.254519
O O2 0.408128 0.453371 0.155978
O O3 0.119848 0.450529 0.880935
O O4 0.159433 0.686469 0.831790
O O5 0.748601 0.538583 0.635013
O O6 0.799162 0.824953 0.744516
O O7 0.657367 0.622978 0.651029
O O8 0.703023 0.507852 0.443937
O O9 0.778491 0.754938 0.457484
O O10 0.513972 0.540288 0.085633
O O11 0.450561 0.729650 0.111887
O O12 0.871222 0.916910 0.290078
#
# Coordination Sequence:
#
# PCOD9125558 Si02
#       7
#     4   4   4   4   2   4   2
#     4   8  20  42  63  87 121 162 210 244 316 371
#     4   9  22  45  60  89 128 167 204 263 321 370
#     4  11  24  40  63  96 124 168 213 260 314 377
#     4   9  21  43  62  88 125 169 209 253 317 377
#     4  12  26  40  62  98 128 164 216 268 318 362
#     4  10  21  42  63  95 120 164 210 257 314 374
#     4  10  22  42  66  92 128 162 206 262 326 358
#
# _framework density 21.845316
#
# number of rings (size 3 to 8) (size 9 to 14) (size 15 to 20)
#    1.000    1.333    0.000    1.000    4.667    1.333 
#   15.000    0.000    0.000    0.000    0.000    0.000 
#    0.000    0.000    0.000    0.000    0.000    0.000 
#
# Total GULP energy -66860.252341 kJ/mol
# GULP energy per Si atom -5571.687695 kJ/mol
# Density = 2.179559 g / cm^3
# Si number density = 21.845316 Si / 1000 Ang^3
#
#
#
# Elastic Constant Matrix: (Units=GPa)
#
#
# Indices 1 2 3 4 5 6 
#
# 1 144.8791 67.3397 28.5671 0.0010 -7.6171 0.0011
# 2 67.3397 96.1281 29.7255 0.0010 -4.6708 0.0017
# 3 28.5671 29.7255 23.0465 0.0022 -1.6725 0.0012
# 4 0.0010 0.0010 0.0022 41.2088 0.0009 -7.1161
# 5 -7.6171 -4.6708 -1.6725 0.0009 26.4948 0.0011
# 6 0.0011 0.0017 0.0012 -7.1161 0.0011 58.4431
#
#
#
# Elastic Compliance Matrix: (Units=1/GPa)
#
#
# Indices 1 2 3 4 5 6 
#
# 1 0.010787 -0.005617 -0.006001 0.000000 0.001732 0.000000
# 2 -0.005617 0.020301 -0.019168 0.000001 0.000754 0.000000
# 3 -0.006001 -0.019168 0.075527 -0.000004 -0.000337 -0.000001
# 4 0.000000 0.000001 -0.000004 0.024788 -0.000001 0.003018
# 5 0.001732 0.000754 -0.000337 -0.000001 0.038353 -0.000001
# 6 0.000000 0.000000 -0.000001 0.003018 -0.000001 0.017478
#
#
# Mechanical properties :
#
#
# Convention : Reuss Voigt Hill
#
# Bulk Modulus (GPa) = 22.20013 57.25759 39.72886
# Shear Modulus (GPa) = 18.95223 34.45744 26.70483
#
# Velocity S-wave (km/s) = 2.94864 3.97588 3.50015
# Velocity P-wave (km/s) = 4.66660 6.88071 5.87883
#
# Compressibility (1/GPa) = 0.04504479
#
# Stress axis : x y z
#
# Youngs Moduli (GPa) = 92.70074 49.25756 13.24026
#
# Poissons Ratio (x) = 0.27668 0.07945
# Poissons Ratio (y) = 0.52070 0.25379
# Poissons Ratio (z) = 0.55629 0.94416
#
# Static dielectric constant tensor:
#      x y z
#    x 2.017200 0.000000 0.016980 
#    y 0.000000 1.809270 0.000000 
#    z 0.016980 0.000000 1.841170 
# 
# From -- ./inp_files/63280.got.cif
#   From: 2010.05.17/outbox.cif.g08.bks.cpg/sg5_32_cif.got.tgz:63280.got - 2010.06.03 18:56:24.
