data_PCOD9125290
_publ_section_title
;
Structure prediction by ZEFSAII (Michael W. Deem and Ramdas Pophale) SiO2 
 PCOD9125290
Probable space group: C 2
;
_chemical_formula_sum "Si O2"
_cell_formula_units_Z 20
_cell_length_a 14.022072
_cell_length_b 11.943914
_cell_length_c 4.982037
_cell_angle_alpha 90.000000
_cell_angle_beta 93.096983
_cell_angle_gamma 90.000000
_cell_volume 833.165092
_symmetry_space_group_name_H-M "C 2"
_symmetry_group_IT_number 5
_symmetry_cell_setting 'monoclinic'
loop_
_space_group_symop_operation_xyz
x,y,z
-x,y,-z
1/2+x,1/2+y,z
1/2-x,1/2+y,-z
loop_
_atom_site_type_symbol
_atom_site_label
_atom_site_fract_x
_atom_site_fract_y
_atom_site_fract_z
Si Si1 0.743275 0.639240 0.793414
Si Si2 0.798623 0.265431 0.682823
Si Si3 0.405951 0.327871 0.570433
Si Si4 0.571621 0.988875 0.263320
Si Si5 0.094385 0.976602 0.929195
O O1 0.675465 0.664969 0.522087
O O2 0.849102 0.588693 0.751945
O O3 0.693115 0.538999 0.953694
O O4 0.728203 0.735308 0.016145
O O5 0.697650 0.284327 0.516384
O O6 0.867857 0.372526 0.691906
O O7 0.500000 0.258514 0.500000
O O8 0.407003 0.370894 0.871757
O O9 0.413996 0.432220 0.370393
O O10 0.500000 0.001676 0.500000
O O11 0.500000 0.984369 0.000000
O O12 0.000000 0.045286 0.000000
#
# Coordination Sequence:
#
# PCOD9125290 Si02
#       5
#     4   4   4   4   4
#     4  12  26  44  75 106 144 192 250 304 366 452
#     4  12  26  44  75 106 144 192 250 304 366 452
#     4  10  21  40  68  95 129 174 226 292 362 418
#     4  12  28  50  76 108 158 208 246 308 386 454
#     4  10  21  40  68  95 129 174 226 292 362 418
#
# _framework density 24.004846000000001
#
# number of rings (size 3 to 8) (size 9 to 14) (size 15 to 20)
#    0.000    0.800    2.000    4.800    2.800    4.800 
#    0.000    0.000    0.000    0.000    0.000    0.000 
#    0.000    0.000    0.000    0.000    0.000    0.000 
#
# Total GULP energy -55760.261051 kJ/mol
# GULP energy per Si atom -5576.026105 kJ/mol
# Density = 2.395021 g / cm^3
# Si number density = 24.004846 Si / 1000 Ang^3
#
#
#
# Elastic Constant Matrix: (Units=GPa)
#
#
# Indices 1 2 3 4 5 6 
#
# 1 126.5020 46.8106 24.1297 0.0000 -16.1717 0.0000
# 2 46.8106 88.3928 41.5081 0.0000 -7.7552 0.0000
# 3 24.1297 41.5081 147.9699 0.0000 0.5381 0.0000
# 4 0.0000 0.0000 0.0000 5.7438 0.0000 -15.6850
# 5 -16.1717 -7.7552 0.5381 0.0000 44.8871 0.0000
# 6 0.0000 0.0000 0.0000 -15.6850 0.0000 13.0115
#
#
#
# Elastic Compliance Matrix: (Units=1/GPa)
#
#
# Indices 1 2 3 4 5 6 
#
# 1 0.010169 -0.005017 -0.000261 0.000000 0.002800 0.000000
# 2 -0.005017 0.015746 -0.003602 0.000000 0.000956 0.000000
# 3 -0.000261 -0.003602 0.007814 0.000000 -0.000810 0.000000
# 4 0.000000 0.000000 0.000000 -0.075965 0.000000 -0.091574
# 5 0.002800 0.000956 -0.000810 0.000000 0.023462 0.000000
# 6 0.000000 0.000000 0.000000 -0.091574 0.000000 -0.033534
#
#
# Mechanical properties :
#
#
# Convention : Reuss Voigt Hill
#
# Bulk Modulus (GPa) = 62.62510 65.30686 63.96598
# Shear Modulus (GPa) = -171.08447 29.42290 -70.83079
#
# Velocity S-wave (km/s) = -8.45136 3.50481 -5.43792
# Velocity P-wave (km/s) = 8.31197 6.60628 3.56692
#
# Compressibility (1/GPa) = 0.01596804
#
# Stress axis : x y z
#
# Youngs Moduli (GPa) = 98.33512 63.51011 127.97312
#
# Poissons Ratio (x) = 0.31864 0.03342
# Poissons Ratio (y) = 0.49336 0.46099
# Poissons Ratio (z) = 0.02568 0.22878
#
# Static dielectric constant tensor:
#      x y z
#    x 2.675150 0.000000 -0.745300 
#    y 0.000000 2.143450 0.000000 
#    z -0.745300 0.000000 2.806440 
# 
# From -- ./inp_files/6532.got.cif
#   From: 2010.05.17/outbox.cif.g08.bks.cpg/sg5_4_cif.got.tgz:6532.got - 2010.06.03 18:56:24.
