data_PCOD9125825
_publ_section_title
;
Structure prediction by ZEFSAII (Michael W. Deem and Ramdas Pophale) SiO2 
 PCOD9125825
Probable space group: C 2
;
_chemical_formula_sum "Si O2"
_cell_formula_units_Z 28
_cell_length_a 8.530174
_cell_length_b 15.309486
_cell_length_c 11.130983
_cell_angle_alpha 90.000000
_cell_angle_beta 96.014013
_cell_angle_gamma 90.000000
_cell_volume 1445.623474
_symmetry_space_group_name_H-M "C 2"
_symmetry_group_IT_number 5
_symmetry_cell_setting 'monoclinic'
loop_
_space_group_symop_operation_xyz
x,y,z
-x,y,-z
1/2+x,1/2+y,z
1/2-x,1/2+y,-z
loop_
_atom_site_type_symbol
_atom_site_label
_atom_site_fract_x
_atom_site_fract_y
_atom_site_fract_z
Si Si1 0.583530 0.321670 0.125819
Si Si2 0.879938 0.139469 0.814306
Si Si3 0.181368 0.948585 0.538085
Si Si4 0.781781 0.813491 0.264567
Si Si5 0.223093 0.467544 0.719354
Si Si6 0.131364 0.491096 0.223140
Si Si7 0.738678 0.643407 0.924705
O O1 0.445027 0.300810 0.208586
O O2 0.700739 0.389725 0.197302
O O3 0.670785 0.233149 0.094561
O O4 0.500000 0.360176 0.000000
O O5 0.817186 0.225747 0.744220
O O6 0.065426 0.145442 0.852098
O O7 0.834043 0.051730 0.742786
O O8 0.791806 0.134850 0.936095
O O9 0.264649 0.007584 0.647296
O O10 0.000000 0.972859 0.500000
O O11 0.275146 0.945963 0.421553
O O12 0.814922 0.853605 0.397991
O O13 0.687060 0.893036 0.191847
O O14 0.049897 0.488616 0.753817
O O15 0.169398 0.561946 0.125559
#
# Coordination Sequence:
#
# PCOD9125825 Si02
#       7
#     4   4   4   4   4   4   4
#     4  12  24  41  67  98 134 175 217 273 333 398
#     4  11  24  42  68  97 135 174 220 274 332 394
#     4  10  21  44  67  92 131 169 226 267 325 391
#     4  10  22  43  65  94 132 170 219 268 332 386
#     4  12  24  42  69  97 133 177 220 276 329 391
#     4  10  24  42  68  96 134 173 220 269 332 390
#     4  11  24  42  65 100 135 171 221 274 330 399
#
# _framework density 19.368807
#
# number of rings (size 3 to 8) (size 9 to 14) (size 15 to 20)
#    0.857    0.286    2.857    3.857    4.000    0.000 
#    2.571    0.000    0.000    0.000    0.000    0.000 
#    0.000    0.000    0.000    0.000    0.000    0.000 
#
# Total GULP energy -78197.858440 kJ/mol
# GULP energy per Si atom -5585.561317 kJ/mol
# Density = 1.932472 g / cm^3
# Si number density = 19.368807 Si / 1000 Ang^3
#
#
#
# Elastic Constant Matrix: (Units=GPa)
#
#
# Indices 1 2 3 4 5 6 
#
# 1 90.3171 2.2450 14.4558 0.0000 -11.8071 0.0000
# 2 2.2450 56.9160 15.4368 0.0000 -5.8629 0.0000
# 3 14.4558 15.4368 60.8452 0.0000 -9.7873 0.0000
# 4 0.0000 0.0000 0.0000 38.7331 0.0000 -12.6255
# 5 -11.8071 -5.8629 -9.7873 0.0000 33.4209 0.0000
# 6 0.0000 0.0000 0.0000 -12.6255 0.0000 47.5678
#
#
#
# Elastic Compliance Matrix: (Units=1/GPa)
#
#
# Indices 1 2 3 4 5 6 
#
# 1 0.011912 0.000550 -0.002390 0.000000 0.003605 0.000000
# 2 0.000550 0.019022 -0.004606 0.000000 0.002182 0.000000
# 3 -0.002390 -0.004606 0.018791 0.000000 0.003851 0.000000
# 4 0.000000 0.000000 0.000000 0.028263 0.000000 0.007502
# 5 0.003605 0.002182 0.003851 0.000000 0.032705 0.000000
# 6 0.000000 0.000000 0.000000 0.007502 0.000000 0.023014
#
#
# Mechanical properties :
#
#
# Convention : Reuss Voigt Hill
#
# Bulk Modulus (GPa) = 27.14902 30.26151 28.70526
# Shear Modulus (GPa) = 31.47104 35.67374 33.57239
#
# Velocity S-wave (km/s) = 4.03529 4.29629 4.16784
# Velocity P-wave (km/s) = 5.97986 6.34575 6.16552
#
# Compressibility (1/GPa) = 0.03683375
#
# Stress axis : x y z
#
# Youngs Moduli (GPa) = 83.94749 52.57074 53.21763
#
# Poissons Ratio (x) = -0.02889 0.12717
# Poissons Ratio (y) = -0.04614 0.24510
# Poissons Ratio (z) = 0.20061 0.24212
#
# Static dielectric constant tensor:
#      x y z
#    x 1.645590 0.000000 0.027830 
#    y 0.000000 1.643680 0.000000 
#    z 0.027830 0.000000 1.654290 
# 
# From -- ./inp_files/36210.got.cif
#   From: 2010.05.17/outbox.cif.g08.bks.cpg/sg5_19_cif.got.tgz:36210.got - 2010.06.03 18:56:24.
