data_PCOD9125012
_publ_section_title
;
Structure prediction by ZEFSAII (Michael W. Deem and Ramdas Pophale) SiO2 
 PCOD9125012
Probable space group: C 2
;
_chemical_formula_sum "Si O2"
_cell_formula_units_Z 22
_cell_length_a 6.699240
_cell_length_b 20.818620
_cell_length_c 7.402623
_cell_angle_alpha 90.000000
_cell_angle_beta 117.095553
_cell_angle_gamma 90.000000
_cell_volume 919.124179
_symmetry_space_group_name_H-M "C 2"
_symmetry_group_IT_number 5
_symmetry_cell_setting 'monoclinic'
loop_
_space_group_symop_operation_xyz
x,y,z
-x,y,-z
1/2+x,1/2+y,z
1/2-x,1/2+y,-z
loop_
_atom_site_type_symbol
_atom_site_label
_atom_site_fract_x
_atom_site_fract_y
_atom_site_fract_z
Si Si1 0.494763 0.372480 0.712930
Si Si2 0.819353 0.263870 0.766852
Si Si3 0.000000 0.343839 0.500000
Si Si4 0.226868 0.125165 0.206659
Si Si5 0.787131 0.991052 0.290867
Si Si6 0.000000 0.514079 0.500000
Si Si7 0.000000 0.599348 0.000000
O O1 0.500000 0.383768 0.500000
O O2 0.612720 0.303351 0.772160
O O3 0.237460 0.374848 0.666854
O O4 0.650212 0.433846 0.823559
O O5 0.781297 0.191012 0.685955
O O6 0.911145 0.303567 0.634845
O O7 0.000000 0.259971 0.000000
O O8 0.308713 0.062466 0.346168
O O9 0.415514 0.138889 0.133332
O O10 0.000000 0.114993 0.000000
O O11 0.597708 0.976413 0.366726
O O12 0.000000 0.009730 0.500000
O O13 0.695119 0.051718 0.145971
#
# Coordination Sequence:
#
# PCOD9125012 Si02
#       7
#     4   4   2   4   4   2   2
#     4   9  21  39  64  94 129 164 220 266 326 395
#     4  10  23  41  66  99 131 168 221 272 327 391
#     4  10  22  43  66  94 130 177 210 272 340 380
#     4  10  22  41  61  99 132 164 223 262 319 402
#     4  10  21  39  64  93 129 169 220 265 325 394
#     4  10  22  39  66  92 130 179 206 266 336 374
#     4  10  22  40  66  92 134 172 208 272 322 384
#
# _framework density 23.935827
#
# number of rings (size 3 to 8) (size 9 to 14) (size 15 to 20)
#    0.000    2.182    0.000    1.091    5.091   10.182 
#    8.182    0.000   24.000    0.000    0.000    0.000 
#    0.000    0.000    0.000    0.000    0.000    0.000 
#
# Total GULP energy -61362.511711 kJ/mol
# GULP energy per Si atom -5578.410156 kJ/mol
# Density = 2.388135 g / cm^3
# Si number density = 23.935827 Si / 1000 Ang^3
#
#
#
# Elastic Constant Matrix: (Units=GPa)
#
#
# Indices 1 2 3 4 5 6 
#
# 1 158.7774 63.2402 8.5703 0.0000 3.4028 0.0000
# 2 63.2402 83.9305 16.7796 0.0000 18.9028 0.0000
# 3 8.5703 16.7796 54.4630 0.0000 15.3840 0.0000
# 4 0.0000 0.0000 0.0000 17.3994 0.0000 63.7351
# 5 3.4028 18.9028 15.3840 0.0000 43.0936 0.0000
# 6 0.0000 0.0000 0.0000 63.7351 0.0000 183.9546
#
#
#
# Elastic Compliance Matrix: (Units=1/GPa)
#
#
# Indices 1 2 3 4 5 6 
#
# 1 0.009252 -0.007574 0.000162 0.000000 0.002534 0.000000
# 2 -0.007574 0.019791 -0.002916 0.000000 -0.007042 0.000000
# 3 0.000162 -0.002916 0.020993 0.000000 -0.006228 0.000000
# 4 0.000000 0.000000 0.000000 -0.213538 0.000000 0.073985
# 5 0.002534 -0.007042 -0.006228 0.000000 0.028317 0.000000
# 6 0.000000 0.000000 0.000000 0.073985 0.000000 -0.020198
#
#
# Mechanical properties :
#
#
# Convention : Reuss Voigt Hill
#
# Bulk Modulus (GPa) = 34.03852 52.70568 43.37210
# Shear Modulus (GPa) = -40.02181 62.79489 11.38654
#
# Velocity S-wave (km/s) = -4.09350 5.12754 2.18345
# Velocity P-wave (km/s) = 2.84442 7.55797 4.95137
#
# Compressibility (1/GPa) = 0.02937848
#
# Stress axis : x y z
#
# Youngs Moduli (GPa) = 108.08672 50.52893 47.63423
#
# Poissons Ratio (x) = 0.38271 -0.00771
# Poissons Ratio (y) = 0.81867 0.13892
# Poissons Ratio (z) = -0.01750 0.14736
#
# Static dielectric constant tensor:
#      x y z
#    x 1.964880 0.000000 0.043610 
#    y 0.000000 2.087660 0.000000 
#    z 0.043610 0.000000 1.923240 
# 
# From -- ./inp_files/12470.got.cif
#   From: 2010.05.17/outbox.cif.g08.bks.cpg/sg5_7_cif.got.tgz:12470.got - 2010.06.03 18:56:24.
