data_PCOD9125494
_publ_section_title
;
Structure prediction by ZEFSAII (Michael W. Deem and Ramdas Pophale) SiO2 
 PCOD9125494
Probable space group: C 2
;
_chemical_formula_sum "Si O2"
_cell_formula_units_Z 30
_cell_length_a 12.225566
_cell_length_b 8.409099
_cell_length_c 13.711305
_cell_angle_alpha 90.000000
_cell_angle_beta 77.714614
_cell_angle_gamma 90.000000
_cell_volume 1377.324240
_symmetry_space_group_name_H-M "C 2"
_symmetry_group_IT_number 5
_symmetry_cell_setting 'monoclinic'
loop_
_space_group_symop_operation_xyz
x,y,z
-x,y,-z
1/2+x,1/2+y,z
1/2-x,1/2+y,-z
loop_
_atom_site_type_symbol
_atom_site_label
_atom_site_fract_x
_atom_site_fract_y
_atom_site_fract_z
Si Si1 0.623334 0.824640 0.439908
Si Si2 0.907628 0.182104 0.943899
Si Si3 0.500000 0.274938 0.000000
Si Si4 0.656097 0.177124 0.521935
Si Si5 0.968341 0.990704 0.203731
Si Si6 0.293332 0.992426 0.755863
Si Si7 0.566675 0.281489 0.344193
Si Si8 0.684668 0.012392 0.017657
O O1 0.500000 0.775131 0.500000
O O2 0.722596 0.712910 0.459002
O O3 0.642975 0.861065 0.321536
O O4 0.645397 0.000147 0.481749
O O5 0.865147 0.342843 0.002526
O O6 0.979904 0.163420 0.832746
O O7 0.000000 0.120576 0.000000
O O8 0.804644 0.061843 0.954225
O O9 0.479590 0.366870 0.108366
O O10 0.603424 0.156463 0.004718
O O11 0.623652 0.297643 0.439470
O O12 0.554779 0.200053 0.616558
O O13 0.836582 0.997357 0.250393
O O14 0.039300 0.928735 0.281545
O O15 0.299854 0.975786 0.870491
O O16 0.352192 0.159950 0.725142
#
# Coordination Sequence:
#
# PCOD9125494 Si02
#       8
#     4   4   2   4   4   4   4   4
#     4  11  22  44  66  96 131 175 210 276 332 388
#     4  12  25  44  67  95 133 171 218 274 327 388
#     4  12  24  42  74  96 136 182 218 276 336 394
#     4  10  21  44  68  95 132 169 219 273 332 384
#     4  12  22  42  68  99 132 178 220 271 336 391
#     4  11  21  40  69  91 132 171 217 270 328 391
#     4  10  21  41  69  94 130 174 216 274 329 393
#     4  12  25  45  66  97 134 177 223 273 332 391
#
# _framework density 21.781365000000001
#
# number of rings (size 3 to 8) (size 9 to 14) (size 15 to 20)
#    0.000    0.800    8.000    1.600    0.000    0.000 
#    9.600    0.000    0.000    0.000    0.000    0.000 
#    0.000    0.000    0.000    0.000    0.000    0.000 
#
# Total GULP energy -83647.888972 kJ/mol
# GULP energy per Si atom -5576.525931 kJ/mol
# Density = 2.173179 g / cm^3
# Si number density = 21.781365 Si / 1000 Ang^3
#
#
#
# Elastic Constant Matrix: (Units=GPa)
#
#
# Indices 1 2 3 4 5 6 
#
# 1 134.2899 14.3281 10.7938 0.0000 -24.6053 0.0000
# 2 14.3281 36.7374 -8.8323 0.0000 -6.6943 0.0000
# 3 10.7938 -8.8323 35.1485 0.0000 -18.3938 0.0000
# 4 0.0000 0.0000 0.0000 -5.0205 0.0000 -36.4153
# 5 -24.6053 -6.6943 -18.3938 0.0000 32.8839 0.0000
# 6 0.0000 0.0000 0.0000 -36.4153 0.0000 -10.2878
#
#
#
# Elastic Compliance Matrix: (Units=1/GPa)
#
#
# Indices 1 2 3 4 5 6 
#
# 1 0.008817 -0.002376 -0.000149 0.000000 0.006030 0.000000
# 2 -0.002376 0.035109 0.017478 0.000000 0.015146 0.000000
# 3 -0.000149 0.017478 0.049050 0.000000 0.030883 0.000000
# 4 0.000000 0.000000 0.000000 0.008073 0.000000 -0.028574
# 5 0.006030 0.015146 0.030883 0.000000 0.055280 0.000000
# 6 0.000000 0.000000 0.000000 -0.028574 0.000000 0.003939
#
#
# Mechanical properties :
#
#
# Convention : Reuss Voigt Hill
#
# Bulk Modulus (GPa) = 8.13786 26.52832 17.33309
# Shear Modulus (GPa) = 29.18496 16.17422 22.67959
#
# Velocity S-wave (km/s) = 3.66444 2.72797 3.23032
# Velocity P-wave (km/s) = 4.65279 4.70407 4.67850
#
# Compressibility (1/GPa) = 0.12288250
#
# Stress axis : x y z
#
# Youngs Moduli (GPa) = 113.41816 28.48308 20.38741
#
# Poissons Ratio (x) = 0.06766 0.00303
# Poissons Ratio (y) = 0.26944 -0.35633
# Poissons Ratio (z) = 0.01687 -0.49782
#
# Static dielectric constant tensor:
#      x y z
#    x 1.805680 0.000000 0.046130 
#    y 0.000000 1.879430 0.000000 
#    z 0.046130 0.000000 2.033930 
# 
# From -- ./inp_files/52411.got.cif
#   From: 2010.05.17/outbox.cif.g08.bks.cpg/sg5_27_cif.got.tgz:52411.got - 2010.06.03 18:56:24.
