data_PCOD9125127
_publ_section_title
;
Structure prediction by ZEFSAII (Michael W. Deem and Ramdas Pophale) SiO2 
 PCOD9125127
Probable space group: C 2
;
_chemical_formula_sum "Si O2"
_cell_formula_units_Z 20
_cell_length_a 9.033082
_cell_length_b 5.344511
_cell_length_c 18.899274
_cell_angle_alpha 90.000000
_cell_angle_beta 67.536770
_cell_angle_gamma 90.000000
_cell_volume 843.178913
_symmetry_space_group_name_H-M "C 2"
_symmetry_group_IT_number 5
_symmetry_cell_setting 'monoclinic'
loop_
_space_group_symop_operation_xyz
x,y,z
-x,y,-z
1/2+x,1/2+y,z
1/2-x,1/2+y,-z
loop_
_atom_site_type_symbol
_atom_site_label
_atom_site_fract_x
_atom_site_fract_y
_atom_site_fract_z
Si Si1 0.573458 0.263580 0.062559
Si Si2 0.489017 0.143462 0.288808
Si Si3 0.647937 0.760968 0.088995
Si Si4 0.303326 0.643014 0.767438
Si Si5 0.854735 0.724365 0.470738
O O1 0.526842 0.532314 0.101142
O O2 0.570337 0.029534 0.114037
O O3 0.500000 0.216173 0.000000
O O4 0.760944 0.294380 0.002859
O O5 0.610286 0.373331 0.250849
O O6 0.337710 0.153338 0.263606
O O7 0.424890 0.187594 0.379666
O O8 0.574832 0.872478 0.269888
O O9 0.746198 0.690440 0.141225
O O10 0.743930 0.483517 0.507484
O O11 0.000000 0.734787 0.500000
#
# Coordination Sequence:
#
# PCOD9125127 Si02
#       5
#     4   4   4   4   4
#     4  10  21  40  60  87 119 158 226 276 324 394
#     4  12  26  47  68 105 140 179 227 276 334 411
#     4  10  23  37  60  89 118 170 217 274 334 387
#     4  12  26  44  69  98 141 183 223 280 342 407
#     4  12  24  44  74 104 138 181 225 278 332 395
#
# _framework density 23.719757999999999
#
# number of rings (size 3 to 8) (size 9 to 14) (size 15 to 20)
#    0.000    0.800    0.000    7.200    5.600    0.000 
#    0.000    0.000    0.000    0.000    0.000    0.000 
#    0.000    0.000    0.000    0.000    0.000    0.000 
#
# Total GULP energy -55957.633793 kJ/mol
# GULP energy per Si atom -5595.763379 kJ/mol
# Density = 2.366577 g / cm^3
# Si number density = 23.719758 Si / 1000 Ang^3
#
#
#
# Elastic Constant Matrix: (Units=GPa)
#
#
# Indices 1 2 3 4 5 6 
#
# 1 146.4648 50.2846 17.1468 0.0000 49.2425 0.0000
# 2 50.2846 170.1097 -14.1466 0.0000 2.9391 0.0000
# 3 17.1468 -14.1466 101.8213 0.0000 17.6918 0.0000
# 4 0.0000 0.0000 0.0000 37.3574 0.0000 -4.3909
# 5 49.2425 2.9391 17.6918 0.0000 41.2529 0.0000
# 6 0.0000 0.0000 0.0000 -4.3909 0.0000 74.8758
#
#
#
# Elastic Compliance Matrix: (Units=1/GPa)
#
#
# Indices 1 2 3 4 5 6 
#
# 1 0.013368 -0.003684 -0.000039 0.000000 -0.015678 0.000000
# 2 -0.003684 0.006990 0.000988 0.000000 0.003476 0.000000
# 3 -0.000039 0.000988 0.010772 0.000000 -0.004643 0.000000
# 4 0.000000 0.000000 0.000000 0.026954 0.000000 0.001581
# 5 -0.015678 0.003476 -0.004643 0.000000 0.044699 0.000000
# 6 0.000000 0.000000 0.000000 0.001581 0.000000 0.013448
#
#
# Mechanical properties :
#
#
# Convention : Reuss Voigt Hill
#
# Bulk Modulus (GPa) = 38.97340 58.32947 48.65144
# Shear Modulus (GPa) = 38.38667 55.03794 46.71230
#
# Velocity S-wave (km/s) = 4.02723 4.82222 4.44254
# Velocity P-wave (km/s) = 6.17180 7.45986 6.84619
#
# Compressibility (1/GPa) = 0.02565852
#
# Stress axis : x y z
#
# Youngs Moduli (GPa) = 74.80631 143.06971 92.83584
#
# Poissons Ratio (x) = 0.52706 0.00361
# Poissons Ratio (y) = 0.27558 -0.09168
# Poissons Ratio (z) = 0.00291 -0.14129
#
# Static dielectric constant tensor:
#      x y z
#    x 1.972180 0.000000 -0.089230 
#    y 0.000000 1.946930 0.000000 
#    z -0.089230 0.000000 1.878280 
# 
# From -- ./inp_files/59135.got.cif
#   From: 2010.05.17/outbox.cif.g08.bks.cpg/sg5_30_cif.got.tgz:59135.got - 2010.06.03 18:56:24.
