data_PCOD9125460
_publ_section_title
;
Structure prediction by ZEFSAII (Michael W. Deem and Ramdas Pophale) SiO2 
 PCOD9125460
Probable space group: C 2
;
_chemical_formula_sum "Si O2"
_cell_formula_units_Z 32
_cell_length_a 5.798335
_cell_length_b 18.626158
_cell_length_c 13.915140
_cell_angle_alpha 90.000000
_cell_angle_beta 81.648390
_cell_angle_gamma 90.000000
_cell_volume 1486.907780
_symmetry_space_group_name_H-M "C 2"
_symmetry_group_IT_number 5
_symmetry_cell_setting 'monoclinic'
loop_
_space_group_symop_operation_xyz
x,y,z
-x,y,-z
1/2+x,1/2+y,z
1/2-x,1/2+y,-z
loop_
_atom_site_type_symbol
_atom_site_label
_atom_site_fract_x
_atom_site_fract_y
_atom_site_fract_z
Si Si1 0.107557 0.713110 0.291942
Si Si2 0.233418 0.981734 0.543214
Si Si3 0.846305 0.696002 0.104595
Si Si4 0.124226 0.848144 0.643263
Si Si5 0.243055 0.441706 0.774856
Si Si6 0.978295 0.057547 0.887991
Si Si7 0.463470 0.807962 0.797084
Si Si8 0.373917 0.053085 0.717806
O O1 0.360325 0.749025 0.259974
O O2 0.084662 0.631761 0.327738
O O3 0.994423 0.710122 0.192042
O O4 0.968138 0.768312 0.367578
O O5 0.500000 0.003126 0.500000
O O6 0.229603 0.895048 0.551659
O O7 0.000000 0.004023 0.500000
O O8 0.211216 0.012472 0.652030
O O9 0.690673 0.624444 0.125980
O O10 0.678124 0.764975 0.114021
O O11 0.000000 0.689824 0.000000
O O12 0.303857 0.838899 0.720531
O O13 0.906549 0.895591 0.694240
O O14 0.376736 0.485518 0.847861
O O15 0.088148 0.378457 0.829595
O O16 0.089427 0.500815 0.727106
O O17 0.229820 0.067331 0.823782
O O18 0.000000 0.053428 0.000000
#
# Coordination Sequence:
#
# PCOD9125460 Si02
#       8
#     4   4   4   4   4   4   4   4
#     4  10  22  40  71  95 131 192 232 286 369 419
#     4  12  27  46  80 110 142 191 246 302 381 448
#     4  11  23  39  62  96 138 184 245 294 347 433
#     4  10  22  44  69 100 134 182 234 287 362 441
#     4  11  21  42  70  94 141 183 237 296 358 424
#     4  12  25  39  67 101 137 192 249 290 359 427
#     4  10  21  41  67  95 125 187 232 285 365 428
#     4  12  23  45  71 102 143 187 231 310 357 437
#
# _framework density 21.521172
#
# number of rings (size 3 to 8) (size 9 to 14) (size 15 to 20)
#    0.000    1.000    5.000    1.500    1.750    0.000 
#    0.000   15.625    0.000    0.000    0.000    0.000 
#    0.000    0.000    0.000    0.000    0.000    0.000 
#
# Total GULP energy -89336.550223 kJ/mol
# GULP energy per Si atom -5583.534389 kJ/mol
# Density = 2.147219 g / cm^3
# Si number density = 21.521172 Si / 1000 Ang^3
#
#
#
# Elastic Constant Matrix: (Units=GPa)
#
#
# Indices 1 2 3 4 5 6 
#
# 1 94.0931 37.4611 15.1287 0.0000 1.4770 0.0000
# 2 37.4611 143.2568 -5.6575 0.0000 -0.4097 0.0000
# 3 15.1287 -5.6575 44.2673 0.0000 7.9358 0.0000
# 4 0.0000 0.0000 0.0000 18.2072 0.0000 -0.7388
# 5 1.4770 -0.4097 7.9358 0.0000 23.6617 0.0000
# 6 0.0000 0.0000 0.0000 -0.7388 0.0000 57.8837
#
#
#
# Elastic Compliance Matrix: (Units=1/GPa)
#
#
# Indices 1 2 3 4 5 6 
#
# 1 0.012829 -0.003549 -0.004983 0.000000 0.000809 0.000000
# 2 -0.003549 0.007999 0.002310 0.000000 -0.000415 0.000000
# 3 -0.004983 0.002310 0.026094 0.000000 -0.008401 0.000000
# 4 0.000000 0.000000 0.000000 0.054952 0.000000 0.000701
# 5 0.000809 -0.000415 -0.008401 0.000000 0.045022 0.000000
# 6 0.000000 0.000000 0.000000 0.000701 0.000000 0.017285
#
#
# Mechanical properties :
#
#
# Convention : Reuss Voigt Hill
#
# Bulk Modulus (GPa) = 29.00540 41.72023 35.36281
# Shear Modulus (GPa) = 26.57888 35.59616 31.08752
#
# Velocity S-wave (km/s) = 3.51808 4.07136 3.80479
# Velocity P-wave (km/s) = 5.47809 6.44430 5.98074
#
# Compressibility (1/GPa) = 0.03447634
#
# Stress axis : x y z
#
# Youngs Moduli (GPa) = 77.94610 125.02143 38.32269
#
# Poissons Ratio (x) = 0.44374 0.19097
# Poissons Ratio (y) = 0.27666 -0.08851
# Poissons Ratio (z) = 0.38842 -0.28875
#
# Static dielectric constant tensor:
#      x y z
#    x 1.882860 0.000000 -0.039060 
#    y 0.000000 1.792470 0.000000 
#    z -0.039060 0.000000 1.768990 
# 
# From -- ./inp_files/49346.got.cif
#   From: 2010.05.17/outbox.cif.g08.bks.cpg/sg5_25_cif.got.tgz:49346.got - 2010.06.03 18:56:24.
