data_PCOD9125351
_publ_section_title
;
Structure prediction by ZEFSAII (Michael W. Deem and Ramdas Pophale) SiO2 
 PCOD9125351
Probable space group: C 2
;
_chemical_formula_sum "Si O2"
_cell_formula_units_Z 16
_cell_length_a 13.372161
_cell_length_b 5.554490
_cell_length_c 10.899436
_cell_angle_alpha 90.000000
_cell_angle_beta 124.124073
_cell_angle_gamma 90.000000
_cell_volume 670.174958
_symmetry_space_group_name_H-M "C 2"
_symmetry_group_IT_number 5
_symmetry_cell_setting 'monoclinic'
loop_
_space_group_symop_operation_xyz
x,y,z
-x,y,-z
1/2+x,1/2+y,z
1/2-x,1/2+y,-z
loop_
_atom_site_type_symbol
_atom_site_label
_atom_site_fract_x
_atom_site_fract_y
_atom_site_fract_z
Si Si1 0.397102 0.416830 0.144824
Si Si2 0.556511 0.913004 0.905800
Si Si3 0.633021 0.653492 0.365643
Si Si4 0.138327 0.857350 0.600606
O O1 0.369108 0.665590 0.056752
O O2 0.545018 0.441564 0.256738
O O3 0.343753 0.419460 0.244914
O O4 0.378054 0.163057 0.068842
O O5 0.451666 0.878608 0.729940
O O6 0.500000 0.910747 0.000000
O O7 0.759533 0.683306 0.384273
O O8 0.646182 0.592205 0.517646
O O9 0.000000 0.764704 0.500000
#
# Coordination Sequence:
#
# PCOD9125351 Si02
#       4
#     4   4   4   4
#     4   9  22  41  63  98 125 173 217 263 321 389
#     4  10  21  43  67  93 133 174 218 267 321 383
#     4   9  23  38  64 100 130 168 208 276 323 382
#     4  10  21  41  62 104 129 171 213 269 332 392
#
# _framework density 23.874362000000001
#
# number of rings (size 3 to 8) (size 9 to 14) (size 15 to 20)
#    1.500    1.000    0.000    0.750    7.000    2.000 
#    4.500    2.500    0.000    0.000    0.000    0.000 
#    0.000    0.000    0.000    0.000    0.000    0.000 
#
# Total GULP energy -44611.667342 kJ/mol
# GULP energy per Si atom -5576.458418 kJ/mol
# Density = 2.382002 g / cm^3
# Si number density = 23.874362 Si / 1000 Ang^3
#
#
#
# Elastic Constant Matrix: (Units=GPa)
#
#
# Indices 1 2 3 4 5 6 
#
# 1 199.3655 60.7151 57.6306 0.0000 -22.7450 0.0000
# 2 60.7151 182.7697 65.1392 0.0000 -28.5089 0.0000
# 3 57.6306 65.1392 107.3584 0.0000 -38.2579 0.0000
# 4 0.0000 0.0000 0.0000 126.6275 0.0000 293.8690
# 5 -22.7450 -28.5089 -38.2579 0.0000 43.9986 0.0000
# 6 0.0000 0.0000 0.0000 293.8690 0.0000 894.4943
#
#
#
# Elastic Compliance Matrix: (Units=1/GPa)
#
#
# Indices 1 2 3 4 5 6 
#
# 1 0.006107 -0.001088 -0.002527 0.000000 0.000254 0.000000
# 2 -0.001088 0.007220 -0.003376 0.000000 0.001180 0.000000
# 3 -0.002527 -0.003376 0.016626 0.000000 0.010963 0.000000
# 4 0.000000 0.000000 0.000000 0.033242 0.000000 -0.010921
# 5 0.000254 0.001180 0.010963 0.000000 0.033157 0.000000
# 6 0.000000 0.000000 0.000000 -0.010921 0.000000 0.004706
#
#
# Mechanical properties :
#
#
# Convention : Reuss Voigt Hill
#
# Bulk Modulus (GPa) = 62.61643 95.16262 78.88953
# Shear Modulus (GPa) = 41.54031 233.42466 137.48248
#
# Velocity S-wave (km/s) = 4.17580 9.89870 7.59677
# Velocity P-wave (km/s) = 7.03805 13.06109 10.49110
#
# Compressibility (1/GPa) = 0.01597025
#
# Stress axis : x y z
#
# Youngs Moduli (GPa) = 163.74861 138.50016 60.14512
#
# Poissons Ratio (x) = 0.15073 0.15201
# Poissons Ratio (y) = 0.17821 0.20305
# Poissons Ratio (z) = 0.41384 0.46758
#
# Static dielectric constant tensor:
#      x y z
#    x 1.924470 0.000000 0.109740 
#    y 0.000000 1.916780 0.000000 
#    z 0.109740 0.000000 1.904450 
# 
# From -- ./inp_files/37711.got.cif
#   From: 2010.05.17/outbox.cif.g08.bks.cpg/sg5_19_cif.got.tgz:37711.got - 2010.06.03 18:56:24.
