data_PCOD9125790
_publ_section_title
;
Structure prediction by ZEFSAII (Michael W. Deem and Ramdas Pophale) SiO2 
 PCOD9125790
Probable space group: C 2
;
_chemical_formula_sum "Si O2"
_cell_formula_units_Z 18
_cell_length_a 5.330361
_cell_length_b 25.528144
_cell_length_c 5.385138
_cell_angle_alpha 90.000000
_cell_angle_beta 92.077384
_cell_angle_gamma 90.000000
_cell_volume 732.296873
_symmetry_space_group_name_H-M "C 2"
_symmetry_group_IT_number 5
_symmetry_cell_setting 'monoclinic'
loop_
_space_group_symop_operation_xyz
x,y,z
-x,y,-z
1/2+x,1/2+y,z
1/2-x,1/2+y,-z
loop_
_atom_site_type_symbol
_atom_site_label
_atom_site_fract_x
_atom_site_fract_y
_atom_site_fract_z
Si Si1 0.671414 0.649820 0.257394
Si Si2 0.764684 0.806505 0.657461
Si Si3 0.658442 0.535075 0.254042
Si Si4 0.500000 0.229014 0.000000
Si Si5 0.151452 0.417179 0.758466
O O1 0.500000 0.657708 0.500000
O O2 0.793653 0.591285 0.277660
O O3 0.885202 0.691842 0.208431
O O4 0.500000 0.651671 0.000000
O O5 0.500000 0.803706 0.500000
O O6 0.827405 0.866544 0.740884
O O7 0.000000 0.790902 0.500000
O O8 0.782540 0.766920 0.887425
O O9 0.500000 0.531377 0.500000
O O10 0.774980 0.477869 0.225954
O O11 0.500000 0.540714 0.000000
O O12 0.000000 0.414681 0.500000
O O13 0.000000 0.405761 0.000000
#
# Coordination Sequence:
#
# PCOD9125790 Si02
#       5
#     4   4   4   2   4
#     4  10  26  48  73 114 156 203 268 328 398 475
#     4  11  30  51  78 117 157 212 270 329 401 477
#     4  10  21  43  73 105 150 199 253 323 394 472
#     4  12  30  46  84 106 164 216 268 330 398 484
#     4  11  25  44  73 112 153 196 256 325 396 476
#
# _framework density 24.580193999999999
#
# number of rings (size 3 to 8) (size 9 to 14) (size 15 to 20)
#    0.000    1.333    0.000    2.000   15.556    0.000 
#    0.000    0.000    0.000    0.000    0.000    0.000 
#    0.000    0.000    0.000    0.000    0.000    0.000 
#
# Total GULP energy -50288.196036 kJ/mol
# GULP energy per Si atom -5587.577337 kJ/mol
# Density = 2.452425 g / cm^3
# Si number density = 24.580194 Si / 1000 Ang^3
#
#
#
# Elastic Constant Matrix: (Units=GPa)
#
#
# Indices 1 2 3 4 5 6 
#
# 1 74.1687 45.2836 40.9083 0.0000 4.7474 0.0000
# 2 45.2836 224.0153 34.9282 0.0000 -6.7617 0.0000
# 3 40.9083 34.9282 167.3356 0.0000 -5.7196 0.0000
# 4 0.0000 0.0000 0.0000 -52.9349 0.0000 82.7534
# 5 4.7474 -6.7617 -5.7196 0.0000 45.4471 0.0000
# 6 0.0000 0.0000 0.0000 82.7534 0.0000 -101.9848
#
#
#
# Elastic Compliance Matrix: (Units=1/GPa)
#
#
# Indices 1 2 3 4 5 6 
#
# 1 0.017598 -0.003055 -0.003759 0.000000 -0.002766 0.000000
# 2 -0.003055 0.005159 -0.000294 0.000000 0.001050 0.000000
# 3 -0.003759 -0.000294 0.006998 0.000000 0.001230 0.000000
# 4 0.000000 0.000000 0.000000 0.070355 0.000000 0.057088
# 5 -0.002766 0.001050 0.001230 0.000000 0.022603 0.000000
# 6 0.000000 0.000000 0.000000 0.057088 0.000000 0.036518
#
#
# Mechanical properties :
#
#
# Convention : Reuss Voigt Hill
#
# Bulk Modulus (GPa) = 64.35181 78.63998 71.49590
# Shear Modulus (GPa) = 27.99104 1.06543 14.52824
#
# Velocity S-wave (km/s) = 3.37822 0.65908 2.43380
# Velocity P-wave (km/s) = 6.43845 5.71331 6.08669
#
# Compressibility (1/GPa) = 0.01553958
#
# Stress axis : x y z
#
# Youngs Moduli (GPa) = 56.82366 193.83452 142.88885
#
# Poissons Ratio (x) = 0.59212 0.53714
# Poissons Ratio (y) = 0.17358 0.04203
# Poissons Ratio (z) = 0.21361 0.05702
#
# Static dielectric constant tensor:
#      x y z
#    x 2.443870 0.000000 -0.582110 
#    y 0.000000 2.053940 0.000000 
#    z -0.582110 0.000000 2.742920 
# 
# From -- ./inp_files/891.got.cif
#   From: 2010.05.17/outbox.cif.g08.bks.cpg/sg5_1_cif.got.tgz:891.got - 2010.06.03 18:56:24.
