data_PCOD9125975
_publ_section_title
;
Structure prediction by ZEFSAII (Michael W. Deem and Ramdas Pophale) SiO2 
 PCOD9125975
Probable space group: C 2
;
_chemical_formula_sum "Si O2"
_cell_formula_units_Z 32
_cell_length_a 14.203326
_cell_length_b 19.811980
_cell_length_c 5.012594
_cell_angle_alpha 90.000000
_cell_angle_beta 103.609265
_cell_angle_gamma 90.000000
_cell_volume 1370.920623
_symmetry_space_group_name_H-M "C 2"
_symmetry_group_IT_number 5
_symmetry_cell_setting 'monoclinic'
loop_
_space_group_symop_operation_xyz
x,y,z
-x,y,-z
1/2+x,1/2+y,z
1/2-x,1/2+y,-z
loop_
_atom_site_type_symbol
_atom_site_label
_atom_site_fract_x
_atom_site_fract_y
_atom_site_fract_z
Si Si1 0.314026 0.051840 0.156168
Si Si2 0.189503 0.639115 0.381311
Si Si3 0.389495 0.349398 0.999275
Si Si4 0.385330 0.784091 0.361244
Si Si5 0.568090 0.919722 0.802107
Si Si6 0.799064 0.787147 0.450508
Si Si7 0.388054 0.639394 0.366999
Si Si8 0.892150 0.004386 0.045811
O O1 0.358379 0.088218 0.443633
O O2 0.373934 0.987529 0.101509
O O3 0.312234 0.107825 0.917133
O O4 0.209251 0.020360 0.169579
O O5 0.159007 0.715973 0.407322
O O6 0.304793 0.640177 0.533810
O O7 0.336576 0.344028 0.680146
O O8 0.500000 0.331220 0.000000
O O9 0.338748 0.301846 0.183942
O O10 0.388685 0.425578 0.114075
O O11 0.500000 0.786788 0.500000
O O12 0.365606 0.854117 0.199852
O O13 0.316435 0.785360 0.575273
O O14 0.364473 0.711618 0.206195
O O15 0.500000 0.931077 0.500000
O O16 0.500000 0.902438 0.000000
O O17 0.500000 0.648196 0.500000
O O18 0.384501 0.563917 0.254830
O O19 0.000000 0.014567 0.000000
#
# Coordination Sequence:
#
# PCOD9125975 Si02
#       8
#     4   4   4   4   4   4   4   4
#     4  11  22  41  64  91 125 163 204 258 313 366
#     4  10  22  39  64  92 122 160 209 256 311 375
#     4  11  25  43  65  94 126 167 217 262 310 369
#     4   9  21  38  63  97 130 166 207 251 313 384
#     4  11  24  42  63  91 126 166 213 260 306 367
#     4  11  23  44  67  93 128 166 208 265 317 368
#     4   9  18  35  59  92 128 163 199 248 309 378
#     4  10  22  36  60  94 127 163 203 250 311 379
#
# _framework density 23.34198
#
# number of rings (size 3 to 8) (size 9 to 14) (size 15 to 20)
#    0.000    1.750    0.000    3.375    0.000   10.500 
#    0.000   11.250    0.000    0.000    0.000    0.000 
#    0.000    0.000    0.000    0.000    0.000    0.000 
#
# Total GULP energy -89158.635408 kJ/mol
# GULP energy per Si atom -5572.414713 kJ/mol
# Density = 2.328885 g / cm^3
# Si number density = 23.341980 Si / 1000 Ang^3
#
#
#
# Elastic Constant Matrix: (Units=GPa)
#
#
# Indices 1 2 3 4 5 6 
#
# 1 65.8124 17.9310 16.0459 0.0000 -11.7148 0.0000
# 2 17.9310 136.3855 13.4659 0.0000 -22.5157 0.0000
# 3 16.0459 13.4659 67.6980 0.0000 -18.6236 0.0000
# 4 0.0000 0.0000 0.0000 33.6270 0.0000 -5.4776
# 5 -11.7148 -22.5157 -18.6236 0.0000 24.9316 0.0000
# 6 0.0000 0.0000 0.0000 -5.4776 0.0000 16.7432
#
#
#
# Elastic Compliance Matrix: (Units=1/GPa)
#
#
# Indices 1 2 3 4 5 6 
#
# 1 0.017009 -0.001146 -0.002378 0.000000 0.005180 0.000000
# 2 -0.001146 0.008710 0.000698 0.000000 0.007849 0.000000
# 3 -0.002378 0.000698 0.018958 0.000000 0.013675 0.000000
# 4 0.000000 0.000000 0.000000 0.031412 0.000000 0.010277
# 5 0.005180 0.007849 0.013675 0.000000 0.059847 0.000000
# 6 0.000000 0.000000 0.000000 0.010277 0.000000 0.063088
#
#
# Mechanical properties :
#
#
# Convention : Reuss Voigt Hill
#
# Bulk Modulus (GPa) = 25.62489 40.53129 33.07809
# Shear Modulus (GPa) = 22.96904 29.89055 26.42980
#
# Velocity S-wave (km/s) = 3.14032 3.58236 3.36860
# Velocity P-wave (km/s) = 4.91433 5.87477 5.41588
#
# Compressibility (1/GPa) = 0.03902456
#
# Stress axis : x y z
#
# Youngs Moduli (GPa) = 58.79239 114.81522 52.74770
#
# Poissons Ratio (x) = 0.13160 0.12545
# Poissons Ratio (y) = 0.06739 -0.03684
# Poissons Ratio (z) = 0.13983 -0.08019
#
# Static dielectric constant tensor:
#      x y z
#    x 1.915030 0.000000 0.063340 
#    y 0.000000 1.908210 0.000000 
#    z 0.063340 0.000000 1.899540 
# 
# From -- ./inp_files/7300.got.cif
#   From: 2010.05.17/outbox.cif.g08.bks.cpg/sg5_4_cif.got.tgz:7300.got - 2010.06.03 18:56:24.
