data_PCOD9125862
_publ_section_title
;
Structure prediction by ZEFSAII (Michael W. Deem and Ramdas Pophale) SiO2 
 PCOD9125862
Probable space group: C 2
;
_chemical_formula_sum "Si O2"
_cell_formula_units_Z 22
_cell_length_a 7.318354
_cell_length_b 12.204265
_cell_length_c 9.141604
_cell_angle_alpha 90.000000
_cell_angle_beta 89.371554
_cell_angle_gamma 90.000000
_cell_volume 816.434450
_symmetry_space_group_name_H-M "C 2"
_symmetry_group_IT_number 5
_symmetry_cell_setting 'monoclinic'
loop_
_space_group_symop_operation_xyz
x,y,z
-x,y,-z
1/2+x,1/2+y,z
1/2-x,1/2+y,-z
loop_
_atom_site_type_symbol
_atom_site_label
_atom_site_fract_x
_atom_site_fract_y
_atom_site_fract_z
Si Si1 0.763400 0.436380 0.855241
Si Si2 0.019564 0.737738 0.163941
Si Si3 0.500000 0.663318 0.500000
Si Si4 0.282879 0.982526 0.531027
Si Si5 0.000000 0.782627 0.500000
Si Si6 0.436200 0.774560 0.203051
Si Si7 0.500000 0.586230 0.000000
O O1 0.623743 0.335795 0.846516
O O2 0.752291 0.503133 0.704272
O O3 0.678283 0.513184 0.977485
O O4 0.500000 0.178392 0.000000
O O5 0.000561 0.714863 0.344304
O O6 0.228361 0.776613 0.157056
O O7 0.538153 0.883542 0.152857
O O8 0.668579 0.581888 0.460666
O O9 0.457117 0.744077 0.369223
O O10 0.500000 0.978646 0.500000
O O11 0.171201 0.869456 0.499113
O O12 0.531283 0.669804 0.129698
#
# Coordination Sequence:
#
# PCOD9125862 Si02
#       7
#     4   4   2   4   2   4   2
#     4  11  25  49  78 115 162 221 266 343 421 493
#     4  11  24  47  76 113 160 212 278 338 414 496
#     4  11  26  46  72 123 162 204 278 353 394 509
#     4  10  21  44  74 111 156 212 269 329 426 489
#     4   9  22  40  74 113 152 202 268 347 398 503
#     4  12  28  50  78 118 167 215 278 343 422 495
#     4  12  26  54  74 114 170 204 282 336 402 516
#
# _framework density 26.946439000000002
#
# number of rings (size 3 to 8) (size 9 to 14) (size 15 to 20)
#    0.000    1.091    2.727    2.182    6.364    1.455 
#    0.000    5.455    0.000    0.000    0.000    0.000 
#    0.000    0.000    0.000    0.000    0.000    0.000 
#
# Total GULP energy -61496.579665 kJ/mol
# GULP energy per Si atom -5590.598151 kJ/mol
# Density = 2.688511 g / cm^3
# Si number density = 26.946439 Si / 1000 Ang^3
#
#
#
# Elastic Constant Matrix: (Units=GPa)
#
#
# Indices 1 2 3 4 5 6 
#
# 1 185.8169 42.6218 44.4064 0.0000 -13.8780 0.0000
# 2 42.6218 80.8822 43.0933 0.0000 -12.7969 0.0000
# 3 44.4064 43.0933 183.3863 0.0000 11.8810 0.0000
# 4 0.0000 0.0000 0.0000 447.7551 0.0000 417.3762
# 5 -13.8780 -12.7969 11.8810 0.0000 46.0080 0.0000
# 6 0.0000 0.0000 0.0000 417.3762 0.0000 557.0960
#
#
#
# Elastic Compliance Matrix: (Units=1/GPa)
#
#
# Indices 1 2 3 4 5 6 
#
# 1 0.006322 -0.002554 -0.001025 0.000000 0.001461 0.000000
# 2 -0.002554 0.016326 -0.003521 0.000000 0.004680 0.000000
# 3 -0.001025 -0.003521 0.006725 0.000000 -0.003025 0.000000
# 4 0.000000 0.000000 0.000000 0.007404 0.000000 -0.005547
# 5 0.001461 0.004680 -0.003025 0.000000 0.024259 0.000000
# 6 0.000000 0.000000 0.000000 -0.005547 0.000000 0.005951
#
#
# Mechanical properties :
#
#
# Convention : Reuss Voigt Hill
#
# Bulk Modulus (GPa) = 65.91249 78.92539 72.41894
# Shear Modulus (GPa) = 57.97490 231.50274 144.73882
#
# Velocity S-wave (km/s) = 4.64344 9.27894 7.33690
# Velocity P-wave (km/s) = 7.29811 12.00631 9.93514
#
# Compressibility (1/GPa) = 0.01517163
#
# Stress axis : x y z
#
# Youngs Moduli (GPa) = 158.18825 61.25253 148.70611
#
# Poissons Ratio (x) = 0.15642 0.15247
# Poissons Ratio (y) = 0.40397 0.52362
# Poissons Ratio (z) = 0.16220 0.21568
#
# Static dielectric constant tensor:
#      x y z
#    x 1.239940 0.000000 0.732720 
#    y 0.000000 2.057190 0.000000 
#    z 0.732720 0.000000 1.284160 
# 
# From -- ./inp_files/33230.got.cif
#   From: 2010.05.17/outbox.cif.g08.bks.cpg/sg5_17_cif.got.tgz:33230.got - 2010.06.03 18:56:24.
