data_PCOD9125284
_publ_section_title
;
Structure prediction by ZEFSAII (Michael W. Deem and Ramdas Pophale) SiO2 
 PCOD9125284
Probable space group: C 2
;
_chemical_formula_sum "Si O2"
_cell_formula_units_Z 28
_cell_length_a 16.656154
_cell_length_b 15.208148
_cell_length_c 5.742604
_cell_angle_alpha 90.000000
_cell_angle_beta 118.342890
_cell_angle_gamma 90.000000
_cell_volume 1280.273958
_symmetry_space_group_name_H-M "C 2"
_symmetry_group_IT_number 5
_symmetry_cell_setting 'monoclinic'
loop_
_space_group_symop_operation_xyz
x,y,z
-x,y,-z
1/2+x,1/2+y,z
1/2-x,1/2+y,-z
loop_
_atom_site_type_symbol
_atom_site_label
_atom_site_fract_x
_atom_site_fract_y
_atom_site_fract_z
Si Si1 0.747959 0.497350 0.921264
Si Si2 0.762764 0.690229 0.057560
Si Si3 0.043136 0.755691 0.814930
Si Si4 0.231753 0.338571 0.371161
Si Si5 0.406031 0.755355 0.484640
Si Si6 0.117237 0.918014 0.113016
Si Si7 0.075306 0.063863 0.402733
O O1 0.785575 0.586183 0.093905
O O2 0.696885 0.444337 0.048909
O O3 0.795377 0.419819 0.836989
O O4 0.672547 0.540416 0.649900
O O5 0.850842 0.729845 0.050192
O O6 0.751042 0.744263 0.279054
O O7 0.668516 0.717150 0.800153
O O8 0.000000 0.735857 0.500000
O O9 0.046621 0.860970 0.863608
O O10 0.000000 0.720085 0.000000
O O11 0.150156 0.323956 0.439821
O O12 0.329989 0.362867 0.616718
O O13 0.500000 0.788634 0.500000
O O14 0.433407 0.666988 0.662544
O O15 0.081543 0.005797 0.182065
O O16 0.000000 0.043833 0.500000
#
# Coordination Sequence:
#
# PCOD9125284 Si02
#       7
#     4   4   4   4   4   4   4
#     4  10  22  37  64  95 127 182 229 279 361 410
#     4  11  23  44  67  93 143 181 231 296 347 431
#     4  12  27  43  71 103 142 194 240 291 362 431
#     4  11  20  40  67  95 135 183 230 285 361 419
#     4  10  21  40  67  99 133 178 230 287 368 427
#     4  11  22  38  62  98 134 177 232 288 356 424
#     4   9  21  35  56  97 137 172 216 285 363 435
#
# _framework density 21.870318999999999
#
# number of rings (size 3 to 8) (size 9 to 14) (size 15 to 20)
#    0.000    1.429    2.857    1.714    4.000    0.571 
#    0.000    4.286    6.286    0.000    0.000    0.000 
#    0.000    0.000    0.000    0.000    0.000    0.000 
#
# Total GULP energy -78049.398093 kJ/mol
# GULP energy per Si atom -5574.957007 kJ/mol
# Density = 2.182054 g / cm^3
# Si number density = 21.870319 Si / 1000 Ang^3
#
#
#
# Elastic Constant Matrix: (Units=GPa)
#
#
# Indices 1 2 3 4 5 6 
#
# 1 126.8118 17.5207 21.8509 0.0000 -3.4396 0.0000
# 2 17.5207 82.9507 13.7442 0.0000 -9.3478 0.0000
# 3 21.8509 13.7442 74.5850 0.0000 -2.3142 0.0000
# 4 0.0000 0.0000 0.0000 40.3948 0.0000 -16.6242
# 5 -3.4396 -9.3478 -2.3142 0.0000 25.2602 0.0000
# 6 0.0000 0.0000 0.0000 -16.6242 0.0000 31.7036
#
#
#
# Elastic Compliance Matrix: (Units=1/GPa)
#
#
# Indices 1 2 3 4 5 6 
#
# 1 0.008469 -0.001372 -0.002215 0.000000 0.000443 0.000000
# 2 -0.001372 0.013166 -0.001884 0.000000 0.004513 0.000000
# 3 -0.002215 -0.001884 0.014413 0.000000 0.000322 0.000000
# 4 0.000000 0.000000 0.000000 0.031568 0.000000 0.016553
# 5 0.000443 0.004513 0.000322 0.000000 0.041348 0.000000
# 6 0.000000 0.000000 0.000000 0.016553 0.000000 0.040222
#
#
# Mechanical properties :
#
#
# Convention : Reuss Voigt Hill
#
# Bulk Modulus (GPa) = 39.82980 43.39767 41.61373
# Shear Modulus (GPa) = 29.67426 34.88716 32.28071
#
# Velocity S-wave (km/s) = 3.68751 3.99831 3.84605
# Velocity P-wave (km/s) = 6.03172 6.41884 6.22829
#
# Compressibility (1/GPa) = 0.02510683
#
# Stress axis : x y z
#
# Youngs Moduli (GPa) = 118.07982 75.95391 69.37944
#
# Poissons Ratio (x) = 0.10421 0.15364
# Poissons Ratio (y) = 0.16200 0.13072
# Poissons Ratio (z) = 0.26149 0.14311
#
# Static dielectric constant tensor:
#      x y z
#    x 1.816350 0.000000 -0.025690 
#    y 0.000000 1.864940 0.000000 
#    z -0.025690 0.000000 1.813950 
# 
# From -- ./inp_files/8697.got.cif
#   From: 2010.05.17/outbox.cif.g08.bks.cpg/sg5_5_cif.got.tgz:8697.got - 2010.06.03 18:56:24.
