data_PCOD9125664
_publ_section_title
;
Structure prediction by ZEFSAII (Michael W. Deem and Ramdas Pophale) SiO2 
 PCOD9125664
Probable space group: C 2
;
_chemical_formula_sum "Si O2"
_cell_formula_units_Z 20
_cell_length_a 17.009668
_cell_length_b 7.445641
_cell_length_c 12.962046
_cell_angle_alpha 90.000000
_cell_angle_beta 148.709802
_cell_angle_gamma 90.000000
_cell_volume 852.610731
_symmetry_space_group_name_H-M "C 2"
_symmetry_group_IT_number 5
_symmetry_cell_setting 'monoclinic'
loop_
_space_group_symop_operation_xyz
x,y,z
-x,y,-z
1/2+x,1/2+y,z
1/2-x,1/2+y,-z
loop_
_atom_site_type_symbol
_atom_site_label
_atom_site_fract_x
_atom_site_fract_y
_atom_site_fract_z
Si Si1 0.928146 0.904350 0.306296
Si Si2 0.272057 0.559615 0.415573
Si Si3 0.876151 0.206720 0.735030
Si Si4 0.330377 0.365760 0.831124
Si Si5 0.298493 0.593917 0.984040
O O1 0.845908 0.714455 0.204095
O O2 0.000000 0.928165 0.500000
O O3 0.076624 0.940787 0.405649
O O4 0.812392 0.040738 0.119702
O O5 0.147990 0.408959 0.254658
O O6 0.264318 0.663043 0.514575
O O7 0.278438 0.715983 0.338086
O O8 0.834822 0.055574 0.773214
O O9 0.046932 0.188903 0.883013
O O10 0.295672 0.416338 0.909407
O O11 0.500000 0.294703 0.000000
#
# Coordination Sequence:
#
# PCOD9125664 Si02
#       5
#     4   4   4   4   4
#     4  11  26  47  68 101 141 189 234 281 349 421
#     4  11  22  40  73 104 135 183 234 284 357 413
#     4  10  21  42  70 103 138 175 232 296 345 412
#     4  10  22  42  69 104 138 177 235 299 343 408
#     4  10  25  47  67 102 147 182 234 290 346 420
#
# _framework density 23.457362
#
# number of rings (size 3 to 8) (size 9 to 14) (size 15 to 20)
#    0.000    1.600    2.000    1.200    2.800    5.600 
#    7.200    0.000    0.000    0.000    0.000    0.000 
#    0.000    0.000    0.000    0.000    0.000    0.000 
#
# Total GULP energy -55803.571243 kJ/mol
# GULP energy per Si atom -5580.357124 kJ/mol
# Density = 2.340397 g / cm^3
# Si number density = 23.457362 Si / 1000 Ang^3
#
#
#
# Elastic Constant Matrix: (Units=GPa)
#
#
# Indices 1 2 3 4 5 6 
#
# 1 39.2098 43.8035 39.2356 0.0000 -17.6094 0.0000
# 2 43.8035 129.0633 63.6314 0.0000 -7.8947 0.0000
# 3 39.2356 63.6314 114.4539 0.0000 -26.9111 0.0000
# 4 0.0000 0.0000 0.0000 37.1085 0.0000 6.5620
# 5 -17.6094 -7.8947 -26.9111 0.0000 30.8653 0.0000
# 6 0.0000 0.0000 0.0000 6.5620 0.0000 12.4094
#
#
#
# Elastic Compliance Matrix: (Units=1/GPa)
#
#
# Indices 1 2 3 4 5 6 
#
# 1 0.060989 -0.016240 -0.005879 0.000000 0.025516 0.000000
# 2 -0.016240 0.015235 -0.005239 0.000000 -0.009936 0.000000
# 3 -0.005879 -0.005239 0.015801 0.000000 0.009082 0.000000
# 4 0.000000 0.000000 0.000000 0.029728 0.000000 -0.015720
# 5 0.025516 -0.009936 0.009082 0.000000 0.052333 0.000000
# 6 0.000000 0.000000 0.000000 -0.015720 0.000000 0.088896
#
#
# Mechanical properties :
#
#
# Convention : Reuss Voigt Hill
#
# Bulk Modulus (GPa) = 26.80399 64.00755 45.40577
# Shear Modulus (GPa) = 15.14533 25.14708 20.14620
#
# Velocity S-wave (km/s) = 2.54373 3.27774 2.93378
# Velocity P-wave (km/s) = 4.48095 6.45529 5.55651
#
# Compressibility (1/GPa) = 0.03730788
#
# Stress axis : x y z
#
# Youngs Moduli (GPa) = 16.39649 65.63763 63.28760
#
# Poissons Ratio (x) = 1.06595 0.37208
# Poissons Ratio (y) = 0.26628 0.33158
# Poissons Ratio (z) = 0.09640 0.34389
#
# Static dielectric constant tensor:
#      x y z
#    x 1.930770 0.000000 -0.051750 
#    y 0.000000 1.851720 0.000000 
#    z -0.051750 0.000000 1.967180 
# 
# From -- ./inp_files/56616.got.cif
#   From: 2010.05.17/outbox.cif.g08.bks.cpg/sg5_29_cif.got.tgz:56616.got - 2010.06.03 18:56:24.
