data_PCOD9125605
_publ_section_title
;
Structure prediction by ZEFSAII (Michael W. Deem and Ramdas Pophale) SiO2 
 PCOD9125605
Probable space group: C 2
;
_chemical_formula_sum "Si O2"
_cell_formula_units_Z 22
_cell_length_a 11.676452
_cell_length_b 8.124025
_cell_length_c 10.487771
_cell_angle_alpha 90.000000
_cell_angle_beta 95.652872
_cell_angle_gamma 90.000000
_cell_volume 990.029619
_symmetry_space_group_name_H-M "C 2"
_symmetry_group_IT_number 5
_symmetry_cell_setting 'monoclinic'
loop_
_space_group_symop_operation_xyz
x,y,z
-x,y,-z
1/2+x,1/2+y,z
1/2-x,1/2+y,-z
loop_
_atom_site_type_symbol
_atom_site_label
_atom_site_fract_x
_atom_site_fract_y
_atom_site_fract_z
Si Si1 0.942795 0.810590 0.364340
Si Si2 0.612627 0.594436 0.078472
Si Si3 0.937667 0.580847 0.802827
Si Si4 0.500000 0.633220 0.500000
Si Si5 0.328556 0.784446 0.664614
Si Si6 0.152430 0.443313 0.950685
O O1 0.808924 0.762131 0.343594
O O2 0.000000 0.738432 0.500000
O O3 0.020412 0.749954 0.254987
O O4 0.952230 0.005910 0.388352
O O5 0.614373 0.669097 0.220216
O O6 0.635986 0.759643 0.998250
O O7 0.500000 0.520600 0.000000
O O8 0.719563 0.474185 0.078739
O O9 0.857696 0.472804 0.702406
O O10 0.878067 0.566482 0.934506
O O11 0.057947 0.482352 0.834219
O O12 0.393897 0.736498 0.542900
#
# Coordination Sequence:
#
# PCOD9125605 Si02
#       6
#     4   4   4   2   4   4
#     4  10  25  43  63  93 128 163 220 258 305 369
#     4  11  22  43  64  96 132 162 205 258 317 380
#     4  10  21  43  68  90 130 166 202 262 320 371
#     4  10  28  40  62  98 118 170 230 244 314 362
#     4  11  23  44  66  87 134 165 209 266 307 371
#     4  10  21  42  66  99 124 165 207 249 328 382
#
# _framework density 22.221558000000002
#
# number of rings (size 3 to 8) (size 9 to 14) (size 15 to 20)
#    0.545    1.091    5.455    0.000    3.818    4.364 
#    3.273    0.000    0.000    0.000    0.000    0.000 
#    0.000    0.000    0.000    0.000    0.000    0.000 
#
# Total GULP energy -61401.345208 kJ/mol
# GULP energy per Si atom -5581.940473 kJ/mol
# Density = 2.217098 g / cm^3
# Si number density = 22.221558 Si / 1000 Ang^3
#
#
#
# Elastic Constant Matrix: (Units=GPa)
#
#
# Indices 1 2 3 4 5 6 
#
# 1 123.0466 11.0565 18.5499 0.0000 14.7058 0.0000
# 2 11.0565 24.5902 7.2759 0.0000 -0.8843 0.0000
# 3 18.5499 7.2759 31.2269 0.0000 21.4362 0.0000
# 4 0.0000 0.0000 0.0000 22.7987 0.0000 -7.3910
# 5 14.7058 -0.8843 21.4362 0.0000 27.6350 0.0000
# 6 0.0000 0.0000 0.0000 -7.3910 0.0000 36.1686
#
#
#
# Elastic Compliance Matrix: (Units=1/GPa)
#
#
# Indices 1 2 3 4 5 6 
#
# 1 0.009187 -0.003468 -0.002604 0.000000 -0.002980 0.000000
# 2 -0.003468 0.050765 -0.025989 0.000000 0.023629 0.000000
# 3 -0.002604 -0.025989 0.083944 0.000000 -0.064561 0.000000
# 4 0.000000 0.000000 0.000000 0.046974 0.000000 0.009599
# 5 -0.002980 0.023629 -0.064561 0.000000 0.088607 0.000000
# 6 0.000000 0.000000 0.000000 0.009599 0.000000 0.029610
#
#
# Mechanical properties :
#
#
# Convention : Reuss Voigt Hill
#
# Bulk Modulus (GPa) = 12.53509 28.06984 20.30246
# Shear Modulus (GPa) = 12.50622 26.78588 19.64605
#
# Velocity S-wave (km/s) = 2.37491 3.47565 2.97661
# Velocity P-wave (km/s) = 3.62952 5.36341 4.57928
#
# Compressibility (1/GPa) = 0.07977607
#
# Stress axis : x y z
#
# Youngs Moduli (GPa) = 108.84581 19.69846 11.91263
#
# Poissons Ratio (x) = 0.06831 0.03102
# Poissons Ratio (y) = 0.37744 0.30960
# Poissons Ratio (z) = 0.28342 0.51194
#
# Static dielectric constant tensor:
#      x y z
#    x 1.791660 0.000000 -0.014800 
#    y 0.000000 1.814670 0.000000 
#    z -0.014800 0.000000 1.846500 
# 
# From -- ./inp_files/38125.got.cif
#   From: 2010.05.17/outbox.cif.g08.bks.cpg/sg5_20_cif.got.tgz:38125.got - 2010.06.03 18:56:24.
