data_PCOD9125948
_publ_section_title
;
Structure prediction by ZEFSAII (Michael W. Deem and Ramdas Pophale) SiO2 
 PCOD9125948
Probable space group: C 2
;
_chemical_formula_sum "Si O2"
_cell_formula_units_Z 26
_cell_length_a 11.371005
_cell_length_b 6.495588
_cell_length_c 15.300312
_cell_angle_alpha 90.000000
_cell_angle_beta 86.370045
_cell_angle_gamma 90.000000
_cell_volume 1127.834657
_symmetry_space_group_name_H-M "C 2"
_symmetry_group_IT_number 5
_symmetry_cell_setting 'monoclinic'
loop_
_space_group_symop_operation_xyz
x,y,z
-x,y,-z
1/2+x,1/2+y,z
1/2-x,1/2+y,-z
loop_
_atom_site_type_symbol
_atom_site_label
_atom_site_fract_x
_atom_site_fract_y
_atom_site_fract_z
Si Si1 0.293651 0.788500 0.122603
Si Si2 0.371264 0.163854 0.021570
Si Si3 0.471182 0.727787 0.252255
Si Si4 0.578218 0.601418 0.417421
Si Si5 0.000000 0.512721 0.500000
Si Si6 0.835501 0.592387 0.357549
Si Si7 0.271396 0.716173 0.806730
O O1 0.377508 0.663974 0.183489
O O2 0.376904 0.930521 0.057076
O O3 0.222397 0.965027 0.180284
O O4 0.203917 0.679904 0.062403
O O5 0.302243 0.273250 0.104223
O O6 0.500000 0.250878 0.000000
O O7 0.511180 0.578378 0.328543
O O8 0.406522 0.916409 0.302926
O O9 0.595702 0.795834 0.204088
O O10 0.500000 0.521697 0.500000
O O11 0.581360 0.848623 0.441227
O O12 0.709846 0.519824 0.402592
O O13 0.080342 0.634948 0.564470
O O14 0.794726 0.748318 0.282608
#
# Coordination Sequence:
#
# PCOD9125948 Si02
#       7
#     4   4   4   4   2   4   4
#     4   9  21  34  55  79 108 146 181 227 270 319
#     4  10  22  35  52  81 110 140 182 230 268 322
#     4   9  16  32  57  79 102 146 182 214 270 325
#     4   8  16  29  52  79 105 140 178 218 263 317
#     4   8  16  28  54  74 106 144 174 214 264 314
#     4   9  15  31  54  81 105 140 180 216 266 322
#     4   8  19  32  56  77 108 144 181 222 269 318
#
# _framework density 23.053025000000002
#
# number of rings (size 3 to 8) (size 9 to 14) (size 15 to 20)
#    1.385    1.846    0.000    0.000    2.154    1.231 
#    0.000    1.538    1.692    9.231    0.000    0.000 
#    0.000    0.000    0.000    0.000    0.000    0.000 
#
# Total GULP energy -72378.336429 kJ/mol
# GULP energy per Si atom -5567.564341 kJ/mol
# Density = 2.300055 g / cm^3
# Si number density = 23.053025 Si / 1000 Ang^3
#
#
#
# Elastic Constant Matrix: (Units=GPa)
#
#
# Indices 1 2 3 4 5 6 
#
# 1 200.9835 28.8769 107.4181 0.0000 -2.7690 0.0000
# 2 28.8769 46.9305 29.7437 0.0000 7.8730 0.0000
# 3 107.4181 29.7437 183.3315 0.0000 35.1060 0.0000
# 4 0.0000 0.0000 0.0000 17.1276 0.0000 3.6317
# 5 -2.7690 7.8730 35.1060 0.0000 61.3553 0.0000
# 6 0.0000 0.0000 0.0000 3.6317 0.0000 16.9567
#
#
#
# Elastic Compliance Matrix: (Units=1/GPa)
#
#
# Indices 1 2 3 4 5 6 
#
# 1 0.008037 -0.002368 -0.005000 0.000000 0.003528 0.000000
# 2 -0.002368 0.024497 -0.002206 0.000000 -0.001988 0.000000
# 3 -0.005000 -0.002206 0.009806 0.000000 -0.005553 0.000000
# 4 0.000000 0.000000 0.000000 0.061163 0.000000 -0.013099
# 5 0.003528 -0.001988 -0.005553 0.000000 0.019890 0.000000
# 6 0.000000 0.000000 0.000000 -0.013099 0.000000 0.061779
#
#
# Mechanical properties :
#
#
# Convention : Reuss Voigt Hill
#
# Bulk Modulus (GPa) = 43.12123 84.81365 63.96744
# Shear Modulus (GPa) = 23.57926 36.76837 30.17381
#
# Velocity S-wave (km/s) = 3.20164 3.99801 3.62178
# Velocity P-wave (km/s) = 5.69325 7.62776 6.73037
#
# Compressibility (1/GPa) = 0.02319043
#
# Stress axis : x y z
#
# Youngs Moduli (GPa) = 124.42773 40.82155 101.98157
#
# Poissons Ratio (x) = 0.09666 0.50994
# Poissons Ratio (y) = 0.29462 0.22501
# Poissons Ratio (z) = 0.62217 0.09007
#
# Static dielectric constant tensor:
#      x y z
#    x 1.833900 0.000000 -0.009560 
#    y 0.000000 1.975830 0.000000 
#    z -0.009560 0.000000 1.888340 
# 
# From -- ./inp_files/59357.got.cif
#   From: 2010.05.17/outbox.cif.g08.bks.cpg/sg5_30_cif.got.tgz:59357.got - 2010.06.03 18:56:24.
