data_PCOD9125227
_publ_section_title
;
Structure prediction by ZEFSAII (Michael W. Deem and Ramdas Pophale) SiO2 
 PCOD9125227
Probable space group: C 2
;
_chemical_formula_sum "Si O2"
_cell_formula_units_Z 20
_cell_length_a 9.126609
_cell_length_b 22.938149
_cell_length_c 7.799384
_cell_angle_alpha 90.000000
_cell_angle_beta 146.434881
_cell_angle_gamma 90.000000
_cell_volume 902.739474
_symmetry_space_group_name_H-M "C 2"
_symmetry_group_IT_number 5
_symmetry_cell_setting 'monoclinic'
loop_
_space_group_symop_operation_xyz
x,y,z
-x,y,-z
1/2+x,1/2+y,z
1/2-x,1/2+y,-z
loop_
_atom_site_type_symbol
_atom_site_label
_atom_site_fract_x
_atom_site_fract_y
_atom_site_fract_z
Si Si1 0.611524 0.726760 0.798926
Si Si2 0.483574 0.456871 0.191073
Si Si3 0.759164 0.841545 0.146092
Si Si4 0.982838 0.526646 0.691456
Si Si5 0.602959 0.158163 0.404978
O O1 0.500000 0.733051 0.500000
O O2 0.386178 0.689279 0.675307
O O3 0.660698 0.789647 0.929173
O O4 0.887598 0.692822 0.084001
O O5 0.382653 0.396230 0.167050
O O6 0.768212 0.478194 0.532691
O O7 0.500000 0.452416 0.000000
O O8 0.271295 0.506753 0.031805
O O9 0.000000 0.818797 0.500000
O O10 0.500000 0.859590 0.000000
O O11 0.000000 0.526461 0.500000
O O12 0.891973 0.591192 0.651771
O O13 0.500000 0.158456 0.500000
#
# Coordination Sequence:
#
# PCOD9125227 Si02
#       5
#     4   4   4   4   4
#     4  12  26  43  64  94 128 167 211 262 319 374
#     4  10  21  40  65  94 125 164 210 256 306 371
#     4  12  26  44  65  93 127 167 213 263 317 374
#     4   9  19  37  65  95 125 163 207 250 306 376
#     4  11  22  42  69  96 127 167 211 257 308 375
#
# _framework density 22.154786999999999
#
# number of rings (size 3 to 8) (size 9 to 14) (size 15 to 20)
#    0.000    1.200    0.000    6.600    0.000    8.800 
#    0.000   10.000    0.000    0.000    0.000    0.000 
#    0.000    0.000    0.000    0.000    0.000    0.000 
#
# Total GULP energy -55989.437263 kJ/mol
# GULP energy per Si atom -5598.943726 kJ/mol
# Density = 2.210436 g / cm^3
# Si number density = 22.154787 Si / 1000 Ang^3
#
#
#
# Elastic Constant Matrix: (Units=GPa)
#
#
# Indices 1 2 3 4 5 6 
#
# 1 71.4739 46.0341 29.0388 0.0000 10.1221 0.0000
# 2 46.0341 152.3092 20.1521 0.0000 11.2413 0.0000
# 3 29.0388 20.1521 97.5358 0.0000 10.8633 0.0000
# 4 0.0000 0.0000 0.0000 223.2715 0.0000 -201.9394
# 5 10.1221 11.2413 10.8633 0.0000 40.6571 0.0000
# 6 0.0000 0.0000 0.0000 -201.9394 0.0000 270.3978
#
#
#
# Elastic Compliance Matrix: (Units=1/GPa)
#
#
# Indices 1 2 3 4 5 6 
#
# 1 0.019418 -0.005112 -0.004477 0.000000 -0.002225 0.000000
# 2 -0.005112 0.008191 -0.000062 0.000000 -0.000975 0.000000
# 3 -0.004477 -0.000062 0.011824 0.000000 -0.002028 0.000000
# 4 0.000000 0.000000 0.000000 0.013801 0.000000 0.010307
# 5 -0.002225 -0.000975 -0.002028 0.000000 0.025961 0.000000
# 6 0.000000 0.000000 0.000000 0.010307 0.000000 0.011396
#
#
# Mechanical properties :
#
#
# Convention : Reuss Voigt Hill
#
# Bulk Modulus (GPa) = 49.67526 56.86321 53.26924
# Shear Modulus (GPa) = 42.88042 121.93819 82.40931
#
# Velocity S-wave (km/s) = 4.40420 7.42689 6.10556
# Velocity P-wave (km/s) = 6.95221 9.96328 8.59070
#
# Compressibility (1/GPa) = 0.02013074
#
# Stress axis : x y z
#
# Youngs Moduli (GPa) = 51.49902 122.08681 84.57250
#
# Poissons Ratio (x) = 0.62415 0.37864
# Poissons Ratio (y) = 0.26328 0.00521
# Poissons Ratio (z) = 0.23057 0.00753
#
# Static dielectric constant tensor:
#      x y z
#    x 1.687120 0.000000 -0.170300 
#    y 0.000000 1.783170 0.000000 
#    z -0.170300 0.000000 1.608540 
# 
# From -- ./inp_files/3086.got.cif
#   From: 2010.05.17/outbox.cif.g08.bks.cpg/sg5_2_cif.got.tgz:3086.got - 2010.06.03 18:56:24.
