data_PCOD9125865
_publ_section_title
;
Structure prediction by ZEFSAII (Michael W. Deem and Ramdas Pophale) SiO2 
 PCOD9125865
Probable space group: C 2
;
_chemical_formula_sum "Si O2"
_cell_formula_units_Z 16
_cell_length_a 7.297907
_cell_length_b 12.267566
_cell_length_c 11.064074
_cell_angle_alpha 90.000000
_cell_angle_beta 41.929803
_cell_angle_gamma 90.000000
_cell_volume 661.897936
_symmetry_space_group_name_H-M "C 2"
_symmetry_group_IT_number 5
_symmetry_cell_setting 'monoclinic'
loop_
_space_group_symop_operation_xyz
x,y,z
-x,y,-z
1/2+x,1/2+y,z
1/2-x,1/2+y,-z
loop_
_atom_site_type_symbol
_atom_site_label
_atom_site_fract_x
_atom_site_fract_y
_atom_site_fract_z
Si Si1 0.754329 0.052900 0.540743
Si Si2 0.587386 0.373027 0.712073
Si Si3 0.010949 0.334941 0.695704
Si Si4 0.286727 0.694466 0.192283
O O1 0.516332 0.123308 0.348897
O O2 0.000000 0.100601 0.500000
O O3 0.361234 0.949782 0.323130
O O4 0.879701 0.995740 0.357517
O O5 0.788795 0.315364 0.516112
O O6 0.313308 0.304500 0.829711
O O7 0.717437 0.357184 0.779824
O O8 0.061214 0.239110 0.763892
O O9 0.500000 0.634944 0.000000
#
# Coordination Sequence:
#
# PCOD9125865 Si02
#       4
#     4   4   4   4
#     4  10  21  44  76 103 135 192 245 287 343 428
#     4   9  20  44  73  98 134 190 240 295 329 422
#     4   9  20  44  72  99 133 189 242 285 338 427
#     4  12  25  43  71 111 150 180 229 302 370 416
#
# _framework density 24.172910999999999
#
# number of rings (size 3 to 8) (size 9 to 14) (size 15 to 20)
#    1.500    0.500    2.500    0.750    3.500    5.000 
#    4.500    0.000    0.000    0.000    0.000    0.000 
#    0.000    0.000    0.000    0.000    0.000    0.000 
#
# Total GULP energy -44575.236889 kJ/mol
# GULP energy per Si atom -5571.904611 kJ/mol
# Density = 2.411789 g / cm^3
# Si number density = 24.172911 Si / 1000 Ang^3
#
#
#
# Elastic Constant Matrix: (Units=GPa)
#
#
# Indices 1 2 3 4 5 6 
#
# 1 165.4345 45.6792 42.8153 -0.0041 -22.5348 0.0016
# 2 45.6792 106.1495 18.5855 -0.0025 -5.7076 0.0015
# 3 42.8153 18.5855 77.3793 -0.0094 -3.5466 0.0054
# 4 -0.0041 -0.0025 -0.0094 20.1834 0.0045 0.1822
# 5 -22.5348 -5.7076 -3.5466 0.0045 17.0260 -0.0015
# 6 0.0016 0.0015 0.0054 0.1822 -0.0015 14.3738
#
#
#
# Elastic Compliance Matrix: (Units=1/GPa)
#
#
# Indices 1 2 3 4 5 6 
#
# 1 0.009260 -0.002721 -0.003988 -0.000003 0.010514 0.000002
# 2 -0.002721 0.010771 -0.001091 0.000000 -0.000218 0.000000
# 3 -0.003988 -0.001091 0.015279 0.000007 -0.002462 -0.000006
# 4 -0.000003 0.000000 0.000007 0.049551 -0.000015 -0.000628
# 5 0.010514 -0.000218 -0.002462 -0.000015 0.072063 0.000007
# 6 0.000002 0.000000 -0.000006 -0.000628 0.000007 0.069579
#
#
# Mechanical properties :
#
#
# Convention : Reuss Voigt Hill
#
# Bulk Modulus (GPa) = 50.73880 62.56926 56.65403
# Shear Modulus (GPa) = 20.10644 26.44218 23.27431
#
# Velocity S-wave (km/s) = 2.88718 3.31097 3.10631
# Velocity P-wave (km/s) = 5.67009 6.36843 6.02938
#
# Compressibility (1/GPa) = 0.01970878
#
# Stress axis : x y z
#
# Youngs Moduli (GPa) = 107.98590 92.84099 65.44719
#
# Poissons Ratio (x) = 0.25266 0.26103
# Poissons Ratio (y) = 0.29387 0.07142
# Poissons Ratio (z) = 0.43070 0.10132
#
# Static dielectric constant tensor:
#      x y z
#    x 1.964150 0.000000 -0.018850 
#    y 0.000000 2.062370 0.000000 
#    z -0.018850 0.000000 1.916340 
# 
# From -- ./inp_files/48565.got.cif
#   From: 2010.05.17/outbox.cif.g08.bks.cpg/sg5_25_cif.got.tgz:48565.got - 2010.06.03 18:56:24.
