data_PCOD9125344
_publ_section_title
;
Structure prediction by ZEFSAII (Michael W. Deem and Ramdas Pophale) SiO2 
 PCOD9125344
Probable space group: C 2
;
_chemical_formula_sum "Si O2"
_cell_formula_units_Z 26
_cell_length_a 10.294024
_cell_length_b 21.923487
_cell_length_c 5.477287
_cell_angle_alpha 90.000000
_cell_angle_beta 73.185282
_cell_angle_gamma 90.000000
_cell_volume 1183.269069
_symmetry_space_group_name_H-M "C 2"
_symmetry_group_IT_number 5
_symmetry_cell_setting 'monoclinic'
loop_
_space_group_symop_operation_xyz
x,y,z
-x,y,-z
1/2+x,1/2+y,z
1/2-x,1/2+y,-z
loop_
_atom_site_type_symbol
_atom_site_label
_atom_site_fract_x
_atom_site_fract_y
_atom_site_fract_z
Si Si1 0.437282 0.935400 0.285236
Si Si2 0.048740 0.571845 0.223335
Si Si3 0.848144 0.099166 0.102684
Si Si4 0.848115 0.895609 0.684608
Si Si5 0.500000 0.365968 0.000000
Si Si6 0.132307 0.773116 0.548789
Si Si7 0.348587 0.676539 0.601966
O O1 0.500000 0.908726 0.500000
O O2 0.275506 0.930629 0.361930
O O3 0.475336 0.006619 0.262312
O O4 0.500000 0.908758 0.000000
O O5 0.210148 0.561579 0.143340
O O6 0.000000 0.602915 0.500000
O O7 0.000000 0.604002 0.000000
O O8 0.839566 0.128951 0.378599
O O9 0.838030 0.146675 0.877801
O O10 0.000000 0.071504 0.000000
O O11 0.879519 0.905616 0.950810
O O12 0.811775 0.823338 0.674404
O O13 0.000000 0.909004 0.500000
O O14 0.574199 0.320038 0.778017
O O15 0.236666 0.726891 0.605792
O O16 0.000000 0.742802 0.500000
O O17 0.500000 0.703337 0.500000
#
# Coordination Sequence:
#
# PCOD9125344 Si02
#       7
#     4   4   4   4   2   4   4
#     4  10  23  40  61  91 124 153 204 263 310 365
#     4  10  21  41  61  89 120 149 200 263 307 361
#     4  10  22  40  61  85 120 164 201 248 309 367
#     4   9  20  38  61  85 123 167 208 245 308 368
#     4   8  18  36  58  82 122 162 204 248 292 376
#     4   9  20  35  55  86 122 159 203 244 298 358
#     4  10  22  38  58  89 122 157 204 246 298 370
#
# _framework density 21.973023999999999
#
# number of rings (size 3 to 8) (size 9 to 14) (size 15 to 20)
#    0.000    2.769    0.000    0.923    8.615    2.462 
#    0.000    6.154    0.000    0.000    0.000    0.000 
#    0.000    0.000    0.000    0.000    0.000    0.000 
#
# Total GULP energy -72386.747471 kJ/mol
# GULP energy per Si atom -5568.211344 kJ/mol
# Density = 2.192301 g / cm^3
# Si number density = 21.973024 Si / 1000 Ang^3
#
#
#
# Elastic Constant Matrix: (Units=GPa)
#
#
# Indices 1 2 3 4 5 6 
#
# 1 205.4502 48.6632 27.9004 0.0000 11.2286 0.0000
# 2 48.6632 32.7102 -5.0238 0.0000 -2.6475 0.0000
# 3 27.9004 -5.0238 112.5388 0.0000 27.3081 0.0000
# 4 0.0000 0.0000 0.0000 2.1013 0.0000 -1.1170
# 5 11.2286 -2.6475 27.3081 0.0000 36.6562 0.0000
# 6 0.0000 0.0000 0.0000 -1.1170 0.0000 36.6663
#
#
#
# Elastic Compliance Matrix: (Units=1/GPa)
#
#
# Indices 1 2 3 4 5 6 
#
# 1 0.008307 -0.012843 -0.002185 0.000000 -0.001844 0.000000
# 2 -0.012843 0.050704 0.004400 0.000000 0.004319 0.000000
# 3 -0.002185 0.004400 0.011455 0.000000 -0.007547 0.000000
# 4 0.000000 0.000000 0.000000 0.483729 0.000000 0.014736
# 5 -0.001844 0.004319 -0.007547 0.000000 0.033780 0.000000
# 6 0.000000 0.000000 0.000000 0.014736 0.000000 0.027722
#
#
# Mechanical properties :
#
#
# Convention : Reuss Voigt Hill
#
# Bulk Modulus (GPa) = 20.32188 54.86431 37.59309
# Shear Modulus (GPa) = 7.65279 33.69539 20.67409
#
# Velocity S-wave (km/s) = 1.86825 3.92023 3.07071
# Velocity P-wave (km/s) = 3.73128 6.74641 5.45145
#
# Compressibility (1/GPa) = 0.04920805
#
# Stress axis : x y z
#
# Youngs Moduli (GPa) = 120.38075 19.72244 87.29614
#
# Poissons Ratio (x) = 0.25330 0.19076
# Poissons Ratio (y) = 1.54608 -0.38406
# Poissons Ratio (z) = 0.26306 -0.08677
#
# Static dielectric constant tensor:
#      x y z
#    x 1.825230 0.000000 0.078190 
#    y 0.000000 1.812230 0.000000 
#    z 0.078190 0.000000 2.142690 
# 
# From -- ./inp_files/3594.got.cif
#   From: 2010.05.17/outbox.cif.g08.bks.cpg/sg5_2_cif.got.tgz:3594.got - 2010.06.03 18:56:24.
