data_PCOD9125291
_publ_section_title
;
Structure prediction by ZEFSAII (Michael W. Deem and Ramdas Pophale) SiO2 
 PCOD9125291
Probable space group: C 2
;
_chemical_formula_sum "Si O2"
_cell_formula_units_Z 28
_cell_length_a 12.344447
_cell_length_b 8.096439
_cell_length_c 14.950050
_cell_angle_alpha 90.000000
_cell_angle_beta 61.373343
_cell_angle_gamma 90.000000
_cell_volume 1311.548037
_symmetry_space_group_name_H-M "C 2"
_symmetry_group_IT_number 5
_symmetry_cell_setting 'monoclinic'
loop_
_space_group_symop_operation_xyz
x,y,z
-x,y,-z
1/2+x,1/2+y,z
1/2-x,1/2+y,-z
loop_
_atom_site_type_symbol
_atom_site_label
_atom_site_fract_x
_atom_site_fract_y
_atom_site_fract_z
Si Si1 0.603584 0.627190 0.332211
Si Si2 0.360972 0.122303 0.549660
Si Si3 0.035533 0.782891 0.889652
Si Si4 0.228672 0.465791 0.243831
Si Si5 0.656968 0.500449 0.502066
Si Si6 0.278613 0.010594 0.115317
Si Si7 0.772130 0.673562 0.930380
O O1 0.632869 0.815307 0.294101
O O2 0.665632 0.594948 0.404239
O O3 0.461572 0.577050 0.400612
O O4 0.671192 0.516804 0.231157
O O5 0.500000 0.057793 0.500000
O O6 0.364933 0.309808 0.513607
O O7 0.277010 0.020640 0.514663
O O8 0.302464 0.103808 0.671032
O O9 0.134262 0.891872 0.797881
O O10 0.108563 0.614866 0.887730
O O11 0.910904 0.743663 0.887558
O O12 0.000000 0.861374 0.000000
O O13 0.224775 0.532806 0.145087
O O14 0.308653 0.825583 0.073420
O O15 0.236877 0.105464 0.041570
#
# Coordination Sequence:
#
# PCOD9125291 Si02
#       7
#     4   4   4   4   4   4   4
#     4  10  22  45  69  98 134 177 227 282 343 401
#     4  12  27  45  69 100 136 181 233 281 345 410
#     4   9  21  43  65  96 137 177 220 274 330 398
#     4  11  25  42  69 105 132 178 228 271 346 407
#     4  11  25  47  71  95 139 177 229 293 340 403
#     4  10  21  40  68  96 132 176 222 268 334 402
#     4  11  22  42  68  95 141 175 216 279 331 403
#
# _framework density 21.348818000000001
#
# number of rings (size 3 to 8) (size 9 to 14) (size 15 to 20)
#    0.000    1.429    1.429    4.286    6.000    2.286 
#    2.571    6.429    0.000    0.000    0.000    0.000 
#    0.000    0.000    0.000    0.000    0.000    0.000 
#
# Total GULP energy -78298.010195 kJ/mol
# GULP energy per Si atom -5592.715014 kJ/mol
# Density = 2.130023 g / cm^3
# Si number density = 21.348818 Si / 1000 Ang^3
#
#
#
# Elastic Constant Matrix: (Units=GPa)
#
#
# Indices 1 2 3 4 5 6 
#
# 1 100.1693 -2.2498 31.8092 0.0000 -0.7153 0.0000
# 2 -2.2498 42.9721 18.6054 0.0000 -13.0657 0.0000
# 3 31.8092 18.6054 112.4716 0.0000 -17.7976 0.0000
# 4 0.0000 0.0000 0.0000 40.8785 0.0000 14.6265
# 5 -0.7153 -13.0657 -17.7976 0.0000 23.2567 0.0000
# 6 0.0000 0.0000 0.0000 14.6265 0.0000 13.2827
#
#
#
# Elastic Compliance Matrix: (Units=1/GPa)
#
#
# Indices 1 2 3 4 5 6 
#
# 1 0.011182 0.001722 -0.003686 0.000000 -0.001509 0.000000
# 2 0.001722 0.028933 -0.003064 0.000000 0.013963 0.000000
# 3 -0.003686 -0.003064 0.011549 0.000000 0.007003 0.000000
# 4 0.000000 0.000000 0.000000 0.040368 0.000000 -0.044452
# 5 -0.001509 0.013963 0.007003 0.000000 0.056156 0.000000
# 6 0.000000 0.000000 0.000000 -0.044452 0.000000 0.124234
#
#
# Mechanical properties :
#
#
# Convention : Reuss Voigt Hill
#
# Bulk Modulus (GPa) = 24.03369 39.10475 31.56922
# Shear Modulus (GPa) = 16.87220 29.31348 23.09284
#
# Velocity S-wave (km/s) = 2.81430 3.70952 3.29248
# Velocity P-wave (km/s) = 4.67359 6.05840 5.41048
#
# Compressibility (1/GPa) = 0.04160826
#
# Stress axis : x y z
#
# Youngs Moduli (GPa) = 89.43300 34.56257 86.59010
#
# Poissons Ratio (x) = -0.05953 0.31918
# Poissons Ratio (y) = -0.15404 0.26530
# Poissons Ratio (z) = 0.32966 0.10589
#
# Static dielectric constant tensor:
#      x y z
#    x 1.743640 0.000000 -0.008590 
#    y 0.000000 1.815230 0.000000 
#    z -0.008590 0.000000 1.758200 
# 
# From -- ./inp_files/52373.got.cif
#   From: 2010.05.17/outbox.cif.g08.bks.cpg/sg5_27_cif.got.tgz:52373.got - 2010.06.03 18:56:24.
