data_PCOD9125466
_publ_section_title
;
Structure prediction by ZEFSAII (Michael W. Deem and Ramdas Pophale) SiO2 
 PCOD9125466
Probable space group: C 2
;
_chemical_formula_sum "Si O2"
_cell_formula_units_Z 20
_cell_length_a 7.429788
_cell_length_b 13.449734
_cell_length_c 8.919661
_cell_angle_alpha 90.000000
_cell_angle_beta 71.034370
_cell_angle_gamma 90.000000
_cell_volume 842.942883
_symmetry_space_group_name_H-M "C 2"
_symmetry_group_IT_number 5
_symmetry_cell_setting 'monoclinic'
loop_
_space_group_symop_operation_xyz
x,y,z
-x,y,-z
1/2+x,1/2+y,z
1/2-x,1/2+y,-z
loop_
_atom_site_type_symbol
_atom_site_label
_atom_site_fract_x
_atom_site_fract_y
_atom_site_fract_z
Si Si1 0.835078 0.467730 0.446676
Si Si2 0.140535 0.606543 0.831493
Si Si3 0.293238 0.323989 0.064533
Si Si4 0.144313 0.308901 0.771011
Si Si5 0.549722 0.601344 0.660763
O O1 0.903653 0.558824 0.318899
O O2 0.745854 0.385620 0.363641
O O3 0.691431 0.511285 0.606450
O O4 0.000000 0.421160 0.500000
O O5 0.357802 0.573731 0.798901
O O6 0.156831 0.725955 0.847827
O O7 0.000000 0.570761 0.000000
O O8 0.238760 0.300376 0.907037
O O9 0.500000 0.378978 0.000000
O O10 0.075429 0.352362 0.171806
O O11 0.136171 0.198960 0.708638
O O12 0.500000 0.625083 0.500000
#
# Coordination Sequence:
#
# PCOD9125466 Si02
#       5
#     4   4   4   4   4
#     4  11  24  40  64 101 139 175 218 279 338 399
#     4   9  20  40  68  94 131 171 225 274 328 399
#     4   9  20  40  68  97 126 176 232 278 330 390
#     4  10  21  41  67  96 138 179 222 280 334 399
#     4   9  20  42  65  93 137 178 218 271 343 398
#
# _framework density 23.726402
#
# number of rings (size 3 to 8) (size 9 to 14) (size 15 to 20)
#    0.000    2.400    0.000    0.600    8.400    0.000 
#   10.800    3.000    4.400    0.000    0.000    0.000 
#    0.000    0.000    0.000    0.000    0.000    0.000 
#
# Total GULP energy -55724.348855 kJ/mol
# GULP energy per Si atom -5572.434885 kJ/mol
# Density = 2.367240 g / cm^3
# Si number density = 23.726402 Si / 1000 Ang^3
#
#
#
# Elastic Constant Matrix: (Units=GPa)
#
#
# Indices 1 2 3 4 5 6 
#
# 1 86.3279 19.1266 30.8733 0.0000 -20.2092 0.0000
# 2 19.1266 43.5716 1.1487 0.0000 -0.0130 0.0000
# 3 30.8733 1.1487 48.6068 0.0000 -8.5193 0.0000
# 4 0.0000 0.0000 0.0000 26.3705 0.0000 -3.4965
# 5 -20.2092 -0.0130 -8.5193 0.0000 52.4810 0.0000
# 6 0.0000 0.0000 0.0000 -3.4965 0.0000 -9.3437
#
#
#
# Elastic Compliance Matrix: (Units=1/GPa)
#
#
# Indices 1 2 3 4 5 6 
#
# 1 0.018313 -0.007760 -0.010512 0.000000 0.005344 0.000000
# 2 -0.007760 0.026254 0.003897 0.000000 -0.002349 0.000000
# 3 -0.010512 0.003897 0.027223 0.000000 0.000372 0.000000
# 4 0.000000 0.000000 0.000000 0.036129 0.000000 -0.013520
# 5 0.005344 -0.002349 0.000372 0.000000 0.021172 0.000000
# 6 0.000000 0.000000 0.000000 -0.013520 0.000000 -0.101965
#
#
# Mechanical properties :
#
#
# Convention : Reuss Voigt Hill
#
# Bulk Modulus (GPa) = 23.23441 31.20039 27.21740
# Shear Modulus (GPa) = 71.20097 22.39207 46.79652
#
# Velocity S-wave (km/s) = 5.48401 3.07540 4.44592
# Velocity P-wave (km/s) = 7.06491 5.07833 6.15233
#
# Compressibility (1/GPa) = 0.04303961
#
# Stress axis : x y z
#
# Youngs Moduli (GPa) = 54.60457 38.08962 36.73323
#
# Poissons Ratio (x) = 0.29559 0.38614
# Poissons Ratio (y) = 0.42375 -0.14315
# Poissons Ratio (z) = 0.57401 -0.14843
#
# Static dielectric constant tensor:
#      x y z
#    x 2.033150 0.000000 -0.168600 
#    y 0.000000 1.912860 0.000000 
#    z -0.168600 0.000000 1.990610 
# 
# From -- ./inp_files/14809.got.cif
#   From: 2010.05.17/outbox.cif.g08.bks.cpg/sg5_8_cif.got.tgz:14809.got - 2010.06.03 18:56:24.
