data_PCOD9125754
_publ_section_title
;
Structure prediction by ZEFSAII (Michael W. Deem and Ramdas Pophale) SiO2 
 PCOD9125754
Probable space group: C 2
;
_chemical_formula_sum "Si O2"
_cell_formula_units_Z 30
_cell_length_a 10.796161
_cell_length_b 10.601316
_cell_length_c 20.652065
_cell_angle_alpha 90.000000
_cell_angle_beta 147.800865
_cell_angle_gamma 90.000000
_cell_volume 1259.530213
_symmetry_space_group_name_H-M "C 2"
_symmetry_group_IT_number 5
_symmetry_cell_setting 'monoclinic'
loop_
_space_group_symop_operation_xyz
x,y,z
-x,y,-z
1/2+x,1/2+y,z
1/2-x,1/2+y,-z
loop_
_atom_site_type_symbol
_atom_site_label
_atom_site_fract_x
_atom_site_fract_y
_atom_site_fract_z
Si Si1 0.682568 0.908990 0.887475
Si Si2 0.041939 0.199472 0.630288
Si Si3 0.000000 0.145227 0.000000
Si Si4 0.361804 0.432721 0.376483
Si Si5 0.901184 0.852529 0.856039
Si Si6 0.738376 0.140117 0.765913
Si Si7 0.641022 0.321104 0.380914
Si Si8 0.773759 0.083748 0.635442
O O1 0.412058 0.917135 0.754594
O O2 0.787639 0.824870 0.875887
O O3 0.793309 0.049510 0.929687
O O4 0.821513 0.860173 0.012519
O O5 0.891623 0.299946 0.523818
O O6 0.292113 0.254297 0.759261
O O7 0.904282 0.156107 0.634479
O O8 0.078613 0.079350 0.602465
O O9 0.905567 0.208212 0.892723
O O10 0.500000 0.381201 0.500000
O O11 0.478207 0.374350 0.365156
O O12 0.791065 0.990831 0.795041
O O13 0.483161 0.183249 0.678110
O O14 0.793809 0.152733 0.713915
O O15 0.643729 0.435816 0.330521
O O16 0.500000 0.080378 0.500000
#
# Coordination Sequence:
#
# PCOD9125754 Si02
#       8
#     4   4   2   4   4   4   4   4
#     4   8  18  40  63  88 122 176 226 274 343 414
#     4  11  24  39  63 104 140 178 237 293 356 440
#     4   8  20  42  68  90 130 180 238 274 350 442
#     4  11  25  39  64  99 135 178 235 295 353 430
#     4   9  20  41  66  90 131 173 233 282 339 447
#     4  10  21  43  68  94 133 190 222 298 352 419
#     4  11  25  40  63 103 141 180 236 289 358 436
#     4  11  23  41  65 101 146 188 228 296 371 417
#
# _framework density 23.818404999999998
#
# number of rings (size 3 to 8) (size 9 to 14) (size 15 to 20)
#    0.000    2.400    1.333    1.600    9.333    1.600 
#    4.800    1.333    0.000    9.600    0.000    0.000 
#    0.000    0.000    0.000    0.000    0.000    0.000 
#
# Total GULP energy -83646.590392 kJ/mol
# GULP energy per Si atom -5576.439359 kJ/mol
# Density = 2.376419 g / cm^3
# Si number density = 23.818405 Si / 1000 Ang^3
#
#
#
# Elastic Constant Matrix: (Units=GPa)
#
#
# Indices 1 2 3 4 5 6 
#
# 1 100.5224 26.5608 60.4820 0.0000 -0.6108 0.0001
# 2 26.5608 62.3877 21.4414 0.0003 1.7431 -0.0003
# 3 60.4820 21.4414 162.5590 0.0012 16.1548 -0.0008
# 4 0.0000 0.0003 0.0012 23.7160 0.0002 15.8069
# 5 -0.6108 1.7431 16.1548 0.0002 40.6509 0.0000
# 6 0.0001 -0.0003 -0.0008 15.8069 0.0000 11.7810
#
#
#
# Elastic Compliance Matrix: (Units=1/GPa)
#
#
# Indices 1 2 3 4 5 6 
#
# 1 0.014057 -0.004371 -0.004886 0.000006 0.002340 -0.000009
# 2 -0.004371 0.018150 -0.000712 -0.000005 -0.000561 0.000007
# 3 -0.004886 -0.000712 0.008399 -0.000007 -0.003381 0.000011
# 4 0.000006 -0.000005 -0.000007 0.398810 0.000002 -0.535095
# 5 0.002340 -0.000561 -0.003381 0.000002 0.026002 -0.000003
# 6 -0.000009 0.000007 0.000011 -0.535095 -0.000003 0.802835
#
#
# Mechanical properties :
#
#
# Convention : Reuss Voigt Hill
#
# Bulk Modulus (GPa) = 48.38260 60.27084 54.32672
# Shear Modulus (GPa) = 3.86076 29.69524 16.77800
#
# Velocity S-wave (km/s) = 1.27453 3.53474 2.65696
# Velocity P-wave (km/s) = 4.74585 6.48217 5.68074
#
# Compressibility (1/GPa) = 0.02066859
#
# Stress axis : x y z
#
# Youngs Moduli (GPa) = 71.13890 55.09655 119.05519
#
# Poissons Ratio (x) = 0.24081 0.58172
# Poissons Ratio (y) = 0.31093 0.08477
# Poissons Ratio (z) = 0.34760 0.03923
#
# Static dielectric constant tensor:
#      x y z
#    x 1.958960 0.000000 -0.019640 
#    y 0.000000 1.983980 0.000000 
#    z -0.019640 0.000000 2.073560 
# 
# From -- ./inp_files/65368.got.cif
#   From: 2010.05.17/outbox.cif.g08.bks.cpg/sg5_33_cif.got.tgz:65368.got - 2010.06.03 18:56:24.
