data_PCOD9125143
_publ_section_title
;
Structure prediction by ZEFSAII (Michael W. Deem and Ramdas Pophale) SiO2 
 PCOD9125143
Probable space group: C 2
;
_chemical_formula_sum "Si O2"
_cell_formula_units_Z 32
_cell_length_a 24.269538
_cell_length_b 7.507242
_cell_length_c 9.254983
_cell_angle_alpha 90.000000
_cell_angle_beta 124.823878
_cell_angle_gamma 90.000000
_cell_volume 1384.247604
_symmetry_space_group_name_H-M "C 2"
_symmetry_group_IT_number 5
_symmetry_cell_setting 'monoclinic'
loop_
_space_group_symop_operation_xyz
x,y,z
-x,y,-z
1/2+x,1/2+y,z
1/2-x,1/2+y,-z
loop_
_atom_site_type_symbol
_atom_site_label
_atom_site_fract_x
_atom_site_fract_y
_atom_site_fract_z
Si Si1 0.433486 0.691070 0.805504
Si Si2 0.807182 0.958542 0.063789
Si Si3 0.369127 0.608728 0.431733
Si Si4 0.421249 0.996960 0.412937
Si Si5 0.673765 0.737353 0.153596
Si Si6 0.644820 0.049347 0.405252
Si Si7 0.748855 0.760700 0.555356
Si Si8 0.832465 0.573573 0.017148
O O1 0.425722 0.585203 0.642417
O O2 0.378840 0.619855 0.835319
O O3 0.404433 0.889871 0.723953
O O4 0.500000 0.697760 0.000000
O O5 0.733748 0.976827 0.021050
O O6 0.856237 0.980177 0.276509
O O7 0.714871 0.946448 0.553746
O O8 0.812815 0.126936 0.968224
O O9 0.390414 0.799258 0.394057
O O10 0.299217 0.631101 0.419525
O O11 0.500000 0.985308 0.500000
O O12 0.394705 0.109653 0.511315
O O13 0.388648 0.074140 0.222044
O O14 0.730598 0.771081 0.356951
O O15 0.645387 0.932136 0.069588
O O16 0.674154 0.196985 0.339293
O O17 0.813902 0.781186 0.977006
#
# Coordination Sequence:
#
# PCOD9125143 Si02
#       8
#     4   4   4   4   4   4   4   4
#     4   9  21  41  67  97 127 180 230 268 343 417
#     4  12  23  39  67 101 135 169 229 278 351 404
#     4   9  21  38  63  95 126 176 223 276 338 398
#     4  10  21  40  61  93 135 180 220 270 329 403
#     4  10  22  41  62  95 134 178 209 279 344 391
#     4   9  20  35  63  92 125 174 219 274 336 403
#     4   9  20  38  58  92 129 163 220 271 344 393
#     4  12  24  38  66  98 139 177 217 283 339 406
#
# _framework density 23.117252000000001
#
# number of rings (size 3 to 8) (size 9 to 14) (size 15 to 20)
#    0.000    2.500    2.500    0.750    7.000    2.000 
#    0.000    1.875    5.500    0.750    0.000    0.000 
#    0.000    0.000    0.000    0.000    0.000    0.000 
#
# Total GULP energy -89071.761219 kJ/mol
# GULP energy per Si atom -5566.985076 kJ/mol
# Density = 2.306464 g / cm^3
# Si number density = 23.117252 Si / 1000 Ang^3
#
#
#
# Elastic Constant Matrix: (Units=GPa)
#
#
# Indices 1 2 3 4 5 6 
#
# 1 77.5049 29.1693 24.6770 0.0000 -8.1307 0.0000
# 2 29.1693 97.7851 19.7575 0.0000 -5.9630 0.0000
# 3 24.6770 19.7575 63.5694 0.0000 -7.0743 0.0000
# 4 0.0000 0.0000 0.0000 -53.0012 0.0000 39.4605
# 5 -8.1307 -5.9630 -7.0743 0.0000 39.7856 0.0000
# 6 0.0000 0.0000 0.0000 39.4605 0.0000 -8.5435
#
#
#
# Elastic Compliance Matrix: (Units=1/GPa)
#
#
# Indices 1 2 3 4 5 6 
#
# 1 0.016036 -0.003686 -0.004873 0.000000 0.001858 0.000000
# 2 -0.003686 0.011802 -0.002167 0.000000 0.000630 0.000000
# 3 -0.004873 -0.002167 0.018515 0.000000 0.001972 0.000000
# 4 0.000000 0.000000 0.000000 0.007737 0.000000 0.035733
# 5 0.001858 0.000630 0.001972 0.000000 0.025960 0.000000
# 6 0.000000 0.000000 0.000000 0.035733 0.000000 0.047995
#
#
# Mechanical properties :
#
#
# Convention : Reuss Voigt Hill
#
# Bulk Modulus (GPa) = 40.15690 42.89633 41.52662
# Shear Modulus (GPa) = 31.68639 6.66521 19.17580
#
# Velocity S-wave (km/s) = 3.70629 1.69985 2.88323
# Velocity P-wave (km/s) = 5.97696 4.73803 5.39319
#
# Compressibility (1/GPa) = 0.02490232
#
# Stress axis : x y z
#
# Youngs Moduli (GPa) = 62.36011 84.72947 54.00919
#
# Poissons Ratio (x) = 0.31228 0.26317
# Poissons Ratio (y) = 0.22984 0.11705
# Poissons Ratio (z) = 0.30386 0.18363
#
# Static dielectric constant tensor:
#      x y z
#    x 1.947320 0.000000 -0.062180 
#    y 0.000000 1.962970 0.000000 
#    z -0.062180 0.000000 2.018910 
# 
# From -- ./inp_files/24406.got.cif
#   From: 2010.05.17/outbox.cif.g08.bks.cpg/sg5_13_cif.got.tgz:24406.got - 2010.06.03 18:56:24.
