data_PCOD9125354
_publ_section_title
;
Structure prediction by ZEFSAII (Michael W. Deem and Ramdas Pophale) SiO2 
 PCOD9125354
Probable space group: C 2
;
_chemical_formula_sum "Si O2"
_cell_formula_units_Z 26
_cell_length_a 7.513174
_cell_length_b 9.674933
_cell_length_c 14.884569
_cell_angle_alpha 90.000000
_cell_angle_beta 111.726697
_cell_angle_gamma 90.000000
_cell_volume 1005.089598
_symmetry_space_group_name_H-M "C 2"
_symmetry_group_IT_number 5
_symmetry_cell_setting 'monoclinic'
loop_
_space_group_symop_operation_xyz
x,y,z
-x,y,-z
1/2+x,1/2+y,z
1/2-x,1/2+y,-z
loop_
_atom_site_type_symbol
_atom_site_label
_atom_site_fract_x
_atom_site_fract_y
_atom_site_fract_z
Si Si1 0.500000 0.589911 0.500000
Si Si2 0.468676 0.922471 0.291240
Si Si3 0.905144 0.919217 0.306577
Si Si4 0.869242 0.605054 0.116343
Si Si5 0.181185 0.163813 0.813407
Si Si6 0.221729 0.844308 0.007063
Si Si7 0.077928 0.670892 0.418786
O O1 0.496322 0.498092 0.409087
O O2 0.305119 0.674525 0.464135
O O3 0.680148 0.905143 0.287413
O O4 0.339937 0.017659 0.200984
O O5 0.379729 0.771097 0.276300
O O6 0.505064 0.015442 0.385007
O O7 0.998766 0.769636 0.325693
O O8 0.925637 0.019914 0.225185
O O9 0.800970 0.498814 0.025490
O O10 0.094776 0.630924 0.150692
O O11 0.773818 0.753867 0.082569
O O12 0.157220 0.252303 0.899095
O O13 0.000000 0.849678 0.000000
O O14 0.000000 0.716402 0.500000
#
# Coordination Sequence:
#
# PCOD9125354 Si02
#       7
#     2   4   4   4   4   4   4
#     4  10  24  44  62  94 134 162 214 286 318 386
#     4   9  21  42  61  89 130 164 213 273 316 387
#     4  10  21  41  62  89 130 161 214 273 316 383
#     4   9  18  37  60  88 123 165 206 263 318 379
#     4   9  19  38  61  87 129 166 205 265 322 378
#     4   9  18  35  60  87 122 164 210 257 320 384
#     4  11  24  45  67  96 128 174 222 269 331 387
#
# _framework density 25.868338999999999
#
# number of rings (size 3 to 8) (size 9 to 14) (size 15 to 20)
#    0.000    2.462    0.769    0.000    2.154    1.231 
#   11.077   16.154    0.000    0.000    0.000    0.000 
#    0.000    0.000    0.000    0.000    0.000    0.000 
#
# Total GULP energy -72769.515613 kJ/mol
# GULP energy per Si atom -5597.655047 kJ/mol
# Density = 2.580946 g / cm^3
# Si number density = 25.868339 Si / 1000 Ang^3
#
#
#
# Elastic Constant Matrix: (Units=GPa)
#
#
# Indices 1 2 3 4 5 6 
#
# 1 68.3922 31.0178 29.1317 0.0000 8.1671 0.0000
# 2 31.0178 164.9114 52.8591 0.0000 25.1754 0.0000
# 3 29.1317 52.8591 94.1770 0.0000 24.6551 0.0000
# 4 0.0000 0.0000 0.0000 59.2140 0.0000 10.6493
# 5 8.1671 25.1754 24.6551 0.0000 19.6786 0.0000
# 6 0.0000 0.0000 0.0000 10.6493 0.0000 24.6401
#
#
#
# Elastic Compliance Matrix: (Units=1/GPa)
#
#
# Indices 1 2 3 4 5 6 
#
# 1 0.017316 -0.001959 -0.004511 0.000000 0.000972 0.000000
# 2 -0.001959 0.008188 -0.002173 0.000000 -0.006940 0.000000
# 3 -0.004511 -0.002173 0.017880 0.000000 -0.017750 0.000000
# 4 0.000000 0.000000 0.000000 0.018311 0.000000 -0.007914
# 5 0.000972 -0.006940 -0.017750 0.000000 0.081530 0.000000
# 6 0.000000 0.000000 0.000000 -0.007914 0.000000 0.044005
#
#
# Mechanical properties :
#
#
# Convention : Reuss Voigt Hill
#
# Bulk Modulus (GPa) = 38.31795 61.49977 49.90886
# Shear Modulus (GPa) = 23.45047 35.00467 29.22757
#
# Velocity S-wave (km/s) = 3.01413 3.68256 3.36498
# Velocity P-wave (km/s) = 5.19213 6.47359 5.86795
#
# Compressibility (1/GPa) = 0.02609743
#
# Stress axis : x y z
#
# Youngs Moduli (GPa) = 57.75157 122.12483 55.92814
#
# Poissons Ratio (x) = 0.23928 0.25229
# Poissons Ratio (y) = 0.11315 0.12153
# Poissons Ratio (z) = 0.26051 0.26538
#
# Static dielectric constant tensor:
#      x y z
#    x 1.961730 0.000000 -0.043520 
#    y 0.000000 2.034410 0.000000 
#    z -0.043520 0.000000 2.071390 
# 
# From -- ./inp_files/64336.got.cif
#   From: 2010.05.17/outbox.cif.g08.bks.cpg/sg5_33_cif.got.tgz:64336.got - 2010.06.03 18:56:24.
