data_PCOD9125070
_publ_section_title
;
Structure prediction by ZEFSAII (Michael W. Deem and Ramdas Pophale) SiO2 
 PCOD9125070
Probable space group: C 2
;
_chemical_formula_sum "Si O2"
_cell_formula_units_Z 32
_cell_length_a 11.790409
_cell_length_b 14.358835
_cell_length_c 13.810251
_cell_angle_alpha 90.000000
_cell_angle_beta 139.652721
_cell_angle_gamma 90.000000
_cell_volume 1513.683290
_symmetry_space_group_name_H-M "C 2"
_symmetry_group_IT_number 5
_symmetry_cell_setting 'monoclinic'
loop_
_space_group_symop_operation_xyz
x,y,z
-x,y,-z
1/2+x,1/2+y,z
1/2-x,1/2+y,-z
loop_
_atom_site_type_symbol
_atom_site_label
_atom_site_fract_x
_atom_site_fract_y
_atom_site_fract_z
Si Si1 0.467714 0.737290 0.228288
Si Si2 0.391327 0.938046 0.131859
Si Si3 0.612152 0.533841 0.815771
Si Si4 0.663115 0.273205 0.180549
Si Si5 0.985802 0.503980 0.607075
Si Si6 0.387038 0.215887 0.525490
Si Si7 0.169707 0.884837 0.377945
Si Si8 0.867347 0.566516 0.822173
O O1 0.426139 0.829182 0.140364
O O2 0.395649 0.637559 0.146341
O O3 0.346089 0.757865 0.243316
O O4 0.675583 0.722313 0.374727
O O5 0.356873 0.973837 0.219071
O O6 0.563034 0.995022 0.210201
O O7 0.236939 0.970913 0.962218
O O8 0.430699 0.482039 0.692304
O O9 0.684915 0.542085 0.753690
O O10 0.683157 0.346681 0.278186
O O11 0.626421 0.172975 0.206181
O O12 0.500000 0.291420 0.000000
O O13 0.931607 0.611451 0.592539
O O14 0.853572 0.417747 0.541553
O O15 0.000000 0.502064 0.500000
O O16 0.500000 0.227155 0.500000
O O17 0.421937 0.303842 0.618834
O O18 0.000000 0.562336 0.000000
#
# Coordination Sequence:
#
# PCOD9125070 Si02
#       8
#     4   4   4   4   4   4   4   4
#     4  11  22  42  66  95 136 169 213 276 325 377
#     4  11  21  40  69  91 127 174 216 266 334 381
#     4  10  23  40  66  97 129 162 221 272 322 391
#     4  10  21  39  66  97 129 162 219 281 324 377
#     4  11  24  42  62  88 132 173 215 267 324 382
#     4  11  26  44  63  95 140 176 216 266 320 393
#     4  12  23  39  67  95 124 174 221 262 326 391
#     4   8  18  37  61  92 125 159 204 269 324 374
#
# _framework density 21.140487
#
# number of rings (size 3 to 8) (size 9 to 14) (size 15 to 20)
#    0.000    1.500    2.500    3.000    1.750    1.000 
#    0.000    0.000    0.000    0.000    0.000    0.000 
#    0.000    0.000    0.000    0.000    0.000    0.000 
#
# Total GULP energy -89221.271720 kJ/mol
# GULP energy per Si atom -5576.329483 kJ/mol
# Density = 2.109237 g / cm^3
# Si number density = 21.140487 Si / 1000 Ang^3
#
#
#
# Elastic Constant Matrix: (Units=GPa)
#
#
# Indices 1 2 3 4 5 6 
#
# 1 71.1424 17.5008 5.5399 0.0001 4.7289 0.0001
# 2 17.5008 136.1653 -2.1367 0.0001 -3.6405 0.0001
# 3 5.5399 -2.1367 28.8461 0.0002 3.4381 0.0002
# 4 0.0001 0.0001 0.0002 31.3381 0.0001 1.4059
# 5 4.7289 -3.6405 3.4381 0.0001 25.0053 0.0000
# 6 0.0001 0.0001 0.0002 1.4059 0.0000 29.4070
#
#
#
# Elastic Compliance Matrix: (Units=1/GPa)
#
#
# Indices 1 2 3 4 5 6 
#
# 1 0.014950 -0.002037 -0.002694 0.000000 -0.002754 0.000000
# 2 -0.002037 0.007655 0.000793 0.000000 0.001391 0.000000
# 3 -0.002694 0.000793 0.035754 0.000000 -0.004291 0.000000
# 4 0.000000 0.000000 0.000000 0.031979 0.000000 -0.001529
# 5 -0.002754 0.001391 -0.004291 0.000000 0.041305 0.000000
# 6 0.000000 0.000000 0.000000 -0.001529 0.000000 0.034079
#
#
# Mechanical properties :
#
#
# Convention : Reuss Voigt Hill
#
# Bulk Modulus (GPa) = 19.80885 30.88466 25.34675
# Shear Modulus (GPa) = 26.25678 31.50008 28.87843
#
# Velocity S-wave (km/s) = 3.52805 3.86429 3.69999
# Velocity P-wave (km/s) = 5.09770 5.87803 5.50172
#
# Compressibility (1/GPa) = 0.05048249
#
# Stress axis : x y z
#
# Youngs Moduli (GPa) = 66.88821 130.62506 27.96872
#
# Poissons Ratio (x) = 0.26614 0.07535
# Poissons Ratio (y) = 0.13628 -0.02217
# Poissons Ratio (z) = 0.18019 -0.10353
#
# Static dielectric constant tensor:
#      x y z
#    x 1.842680 0.000000 0.032410 
#    y 0.000000 1.766660 0.000000 
#    z 0.032410 0.000000 1.776570 
# 
# From -- ./inp_files/53200.got.cif
#   From: 2010.05.17/outbox.cif.g08.bks.cpg/sg5_27_cif.got.tgz:53200.got - 2010.06.03 18:56:24.
