data_PCOD9125511
_publ_section_title
;
Structure prediction by ZEFSAII (Michael W. Deem and Ramdas Pophale) SiO2 
 PCOD9125511
Probable space group: C 2
;
_chemical_formula_sum "Si O2"
_cell_formula_units_Z 28
_cell_length_a 7.469997
_cell_length_b 11.779324
_cell_length_c 13.403662
_cell_angle_alpha 90.000000
_cell_angle_beta 81.168190
_cell_angle_gamma 90.000000
_cell_volume 1165.424624
_symmetry_space_group_name_H-M "C 2"
_symmetry_group_IT_number 5
_symmetry_cell_setting 'monoclinic'
loop_
_space_group_symop_operation_xyz
x,y,z
-x,y,-z
1/2+x,1/2+y,z
1/2-x,1/2+y,-z
loop_
_atom_site_type_symbol
_atom_site_label
_atom_site_fract_x
_atom_site_fract_y
_atom_site_fract_z
Si Si1 0.306461 0.423780 0.812082
Si Si2 0.213088 0.150353 0.491369
Si Si3 0.548459 0.209792 0.103083
Si Si4 0.712421 0.457179 0.754071
Si Si5 0.788495 0.392297 0.540843
Si Si6 0.286321 0.494721 0.029988
Si Si7 0.075797 0.576541 0.720335
O O1 0.367265 0.295799 0.824927
O O2 0.498343 0.487097 0.772422
O O3 0.167530 0.455614 0.738234
O O4 0.223415 0.450671 0.928373
O O5 0.276853 0.280418 0.515494
O O6 0.330042 0.127643 0.382625
O O7 0.000000 0.170725 0.500000
O O8 0.214956 0.021702 0.536677
O O9 0.687097 0.112117 0.060076
O O10 0.393888 0.148638 0.181258
O O11 0.500000 0.264227 0.000000
O O12 0.751724 0.370264 0.661725
O O13 0.745209 0.421014 0.866844
O O14 0.861888 0.555695 0.724862
O O15 0.000000 0.407382 0.500000
O O16 0.500000 0.514180 0.000000
#
# Coordination Sequence:
#
# PCOD9125511 Si02
#       7
#     4   4   4   4   4   4   4
#     4  11  22  41  65  96 138 173 225 280 333 407
#     4  11  25  44  71 101 136 179 230 286 357 412
#     4  11  21  40  64  95 136 185 221 279 339 398
#     4  10  21  41  70  93 132 178 227 279 344 402
#     4  11  23  46  68 100 136 178 228 292 347 413
#     4   9  20  40  59  94 133 174 228 273 334 408
#     4  11  23  43  67  99 135 177 228 281 343 409
#
# _framework density 24.025576000000001
#
# number of rings (size 3 to 8) (size 9 to 14) (size 15 to 20)
#    0.000    1.429    2.857    3.000    0.000    0.571 
#   12.857    2.857    0.000    0.000    0.000    0.000 
#    0.000    0.000    0.000    0.000    0.000    0.000 
#
# Total GULP energy -77971.495129 kJ/mol
# GULP energy per Si atom -5569.392509 kJ/mol
# Density = 2.397089 g / cm^3
# Si number density = 24.025576 Si / 1000 Ang^3
#
#
#
# Elastic Constant Matrix: (Units=GPa)
#
#
# Indices 1 2 3 4 5 6 
#
# 1 58.1871 18.6588 11.4867 0.0000 -19.3114 0.0000
# 2 18.6588 119.0886 16.7028 0.0000 12.3049 0.0000
# 3 11.4867 16.7028 95.1715 0.0000 -34.6512 0.0000
# 4 0.0000 0.0000 0.0000 42.1730 0.0000 1.6513
# 5 -19.3114 12.3049 -34.6512 0.0000 32.8477 0.0000
# 6 0.0000 0.0000 0.0000 1.6513 0.0000 23.8750
#
#
#
# Elastic Compliance Matrix: (Units=1/GPa)
#
#
# Indices 1 2 3 4 5 6 
#
# 1 0.027625 -0.008442 0.008462 0.000000 0.028330 0.000000
# 2 -0.008442 0.012636 -0.007678 0.000000 -0.017796 0.000000
# 3 0.008462 -0.007678 0.022230 0.000000 0.031302 0.000000
# 4 0.000000 0.000000 0.000000 0.023776 0.000000 -0.001644
# 5 0.028330 -0.017796 0.031302 0.000000 0.086787 0.000000
# 6 0.000000 0.000000 0.000000 -0.001644 0.000000 0.041999
#
#
# Mechanical properties :
#
#
# Convention : Reuss Voigt Hill
#
# Bulk Modulus (GPa) = 21.19786 40.68267 30.94026
# Shear Modulus (GPa) = 20.31745 34.81905 27.56825
#
# Velocity S-wave (km/s) = 2.91118 3.81103 3.39108
# Velocity P-wave (km/s) = 4.48800 6.02786 5.31400
#
# Compressibility (1/GPa) = 0.04717458
#
# Stress axis : x y z
#
# Youngs Moduli (GPa) = 36.19901 79.14149 44.98346
#
# Poissons Ratio (x) = 0.66815 -0.38067
# Poissons Ratio (y) = 0.30561 0.34539
# Poissons Ratio (z) = -0.30633 0.60766
#
# Static dielectric constant tensor:
#      x y z
#    x 1.845710 0.000000 0.065440 
#    y 0.000000 2.001960 0.000000 
#    z 0.065440 0.000000 1.979360 
# 
# From -- ./inp_files/50251.got.cif
#   From: 2010.05.17/outbox.cif.g08.bks.cpg/sg5_26_cif.got.tgz:50251.got - 2010.06.03 18:56:24.
