data_PCOD9125896
_publ_section_title
;
Structure prediction by ZEFSAII (Michael W. Deem and Ramdas Pophale) SiO2 
 PCOD9125896
Probable space group: C 2
;
_chemical_formula_sum "Si O2"
_cell_formula_units_Z 22
_cell_length_a 12.180017
_cell_length_b 5.251504
_cell_length_c 19.400396
_cell_angle_alpha 90.000000
_cell_angle_beta 44.727638
_cell_angle_gamma 90.000000
_cell_volume 873.278723
_symmetry_space_group_name_H-M "C 2"
_symmetry_group_IT_number 5
_symmetry_cell_setting 'monoclinic'
loop_
_space_group_symop_operation_xyz
x,y,z
-x,y,-z
1/2+x,1/2+y,z
1/2-x,1/2+y,-z
loop_
_atom_site_type_symbol
_atom_site_label
_atom_site_fract_x
_atom_site_fract_y
_atom_site_fract_z
Si Si1 0.219497 0.528220 0.649049
Si Si2 0.909121 0.701219 0.659252
Si Si3 0.530097 0.585317 0.258964
Si Si4 0.666584 0.331968 0.808136
Si Si5 0.500000 0.812230 0.500000
Si Si6 0.153715 0.942519 0.053404
O O1 0.372515 0.412222 0.619787
O O2 0.143423 0.685273 0.745824
O O3 0.328248 0.702538 0.553448
O O4 0.106500 0.298891 0.675661
O O5 0.001784 0.829872 0.681065
O O6 0.741640 0.609311 0.762621
O O7 0.965850 0.474074 0.585443
O O8 0.691523 0.693794 0.217523
O O9 0.579798 0.535346 0.158524
O O10 0.500906 0.353753 0.918251
O O11 0.258553 0.689729 0.015303
#
# Coordination Sequence:
#
# PCOD9125896 Si02
#       6
#     4   4   4   4   2   4
#     4  10  21  45  77 105 157 203 251 323 384 464
#     4  10  22  43  81 104 152 202 255 314 383 469
#     4  11  25  46  81 108 153 215 247 315 412 456
#     4  10  24  46  74 108 150 203 250 317 396 462
#     4  10  22  42  82 112 156 204 262 326 372 462
#     4  12  28  50  77 117 158 199 264 330 383 474
#
# _framework density 25.192412999999998
#
# number of rings (size 3 to 8) (size 9 to 14) (size 15 to 20)
#    0.000    1.455    1.818    1.636    7.636    0.727 
#    0.000    0.000   68.000    0.000    0.000    0.000 
#    0.000    0.000    0.000    0.000    0.000    0.000 
#
# Total GULP energy -61351.028408 kJ/mol
# GULP energy per Si atom -5577.366219 kJ/mol
# Density = 2.513507 g / cm^3
# Si number density = 25.192413 Si / 1000 Ang^3
#
#
#
# Elastic Constant Matrix: (Units=GPa)
#
#
# Indices 1 2 3 4 5 6 
#
# 1 109.9208 12.9797 49.1618 -0.0002 -12.8242 0.0014
# 2 12.9797 77.2124 52.6049 0.0005 -26.5632 0.0030
# 3 49.1618 52.6049 133.5118 -0.0001 -35.5482 -0.0005
# 4 -0.0002 0.0005 -0.0001 26.8515 -0.0004 -9.4353
# 5 -12.8242 -26.5632 -35.5482 -0.0004 34.9729 0.0001
# 6 0.0014 0.0030 -0.0005 -9.4353 0.0001 47.9891
#
#
#
# Elastic Compliance Matrix: (Units=1/GPa)
#
#
# Indices 1 2 3 4 5 6 
#
# 1 0.010985 0.001367 -0.004435 0.000000 0.000559 0.000000
# 2 0.001367 0.020049 -0.005779 -0.000001 0.009855 -0.000002
# 3 -0.004435 -0.005779 0.013434 0.000001 0.007639 0.000001
# 4 0.000000 -0.000001 0.000001 0.040006 0.000000 0.007866
# 5 0.000559 0.009855 0.007639 0.000000 0.044049 -0.000001
# 6 0.000000 -0.000002 0.000001 0.007866 -0.000001 0.022385
#
#
# Mechanical properties :
#
#
# Convention : Reuss Voigt Hill
#
# Bulk Modulus (GPa) = 37.34885 61.12644 49.23764
# Shear Modulus (GPa) = 28.16506 35.68927 31.92717
#
# Velocity S-wave (km/s) = 3.34727 3.76795 3.56382
# Velocity P-wave (km/s) = 5.45863 6.57620 6.04330
#
# Compressibility (1/GPa) = 0.02677459
#
# Stress axis : x y z
#
# Youngs Moduli (GPa) = 91.03661 49.87734 74.43886
#
# Poissons Ratio (x) = -0.06818 0.33011
# Poissons Ratio (y) = -0.12444 0.43017
# Poissons Ratio (z) = 0.40371 0.28823
#
# Static dielectric constant tensor:
#      x y z
#    x 2.173930 0.000000 0.015620 
#    y 0.000000 2.464080 0.000000 
#    z 0.015620 0.000000 1.978720 
# 
# From -- ./inp_files/68539.got.cif
#   From: 2010.05.17/outbox.cif.g08.bks.cpg/sg5_35_cif.got.tgz:68539.got - 2010.06.03 18:56:24.
