data_PCOD9125784
_publ_section_title
;
Structure prediction by ZEFSAII (Michael W. Deem and Ramdas Pophale) SiO2 
 PCOD9125784
Probable space group: C 2
;
_chemical_formula_sum "Si O2"
_cell_formula_units_Z 26
_cell_length_a 8.999147
_cell_length_b 11.808689
_cell_length_c 9.556397
_cell_angle_alpha 90.000000
_cell_angle_beta 99.493794
_cell_angle_gamma 90.000000
_cell_volume 1001.631045
_symmetry_space_group_name_H-M "C 2"
_symmetry_group_IT_number 5
_symmetry_cell_setting 'monoclinic'
loop_
_space_group_symop_operation_xyz
x,y,z
-x,y,-z
1/2+x,1/2+y,z
1/2-x,1/2+y,-z
loop_
_atom_site_type_symbol
_atom_site_label
_atom_site_fract_x
_atom_site_fract_y
_atom_site_fract_z
Si Si1 0.742967 0.315910 0.340338
Si Si2 0.638933 0.383824 0.931071
Si Si3 0.500000 0.156101 0.000000
Si Si4 0.248706 0.559492 0.577245
Si Si5 0.000000 0.729968 0.500000
Si Si6 0.835815 0.487210 0.754456
Si Si7 0.419919 0.813328 0.119689
Si Si8 0.000000 0.178278 0.500000
O O1 0.766128 0.448750 0.332414
O O2 0.584676 0.296040 0.389436
O O3 0.804812 0.255515 0.209756
O O4 0.861826 0.262173 0.461960
O O5 0.604298 0.248457 0.931695
O O6 0.677225 0.442391 0.791993
O O7 0.500000 0.431777 0.000000
O O8 0.801168 0.399041 0.030244
O O9 0.416266 0.079187 0.869775
O O10 0.422309 0.598278 0.602969
O O11 0.125990 0.653016 0.594918
O O12 0.799767 0.529832 0.592124
O O13 0.950152 0.379398 0.776165
O O14 0.500000 0.753192 0.000000
#
# Coordination Sequence:
#
# PCOD9125784 Si02
#       8
#     4   4   2   4   2   4   4   2
#     4  11  23  44  68  95 144 176 222 300 334 399
#     4   9  22  38  65 101 130 178 237 274 348 406
#     4  10  22  40  70  94 134 186 222 294 344 402
#     4  11  24  42  68 100 135 183 226 284 345 404
#     4  10  24  40  68 100 126 182 234 266 348 412
#     4  11  21  44  70  95 141 181 232 285 342 416
#     4  10  21  43  71  95 136 183 226 280 343 408
#     4  10  24  40  64 106 132 174 238 268 340 426
#
# _framework density 25.957661000000002
#
# number of rings (size 3 to 8) (size 9 to 14) (size 15 to 20)
#    0.462    1.231    2.308    2.769    4.308    3.692 
#    0.000    8.462    0.000    0.000    0.000    0.000 
#    0.000    0.000    0.000    0.000    0.000    0.000 
#
# Total GULP energy -72503.268989 kJ/mol
# GULP energy per Si atom -5577.174538 kJ/mol
# Density = 2.589858 g / cm^3
# Si number density = 25.957661 Si / 1000 Ang^3
#
#
#
# Elastic Constant Matrix: (Units=GPa)
#
#
# Indices 1 2 3 4 5 6 
#
# 1 142.0934 21.3521 37.6480 0.0000 -34.1576 0.0000
# 2 21.3521 62.2365 20.8357 0.0000 -2.7914 0.0000
# 3 37.6480 20.8357 103.0573 0.0000 -34.8721 0.0000
# 4 0.0000 0.0000 0.0000 -4.6231 0.0000 7.1832
# 5 -34.1576 -2.7914 -34.8721 0.0000 55.6671 0.0000
# 6 0.0000 0.0000 0.0000 7.1832 0.0000 35.1754
#
#
#
# Elastic Compliance Matrix: (Units=1/GPa)
#
#
# Indices 1 2 3 4 5 6 
#
# 1 0.008808 -0.002419 -0.001194 0.000000 0.004535 0.000000
# 2 -0.002419 0.018022 -0.003752 0.000000 -0.002931 0.000000
# 3 -0.001194 -0.003752 0.013434 0.000000 0.007495 0.000000
# 4 0.000000 0.000000 0.000000 -0.164202 0.000000 0.033532
# 5 0.004535 -0.002931 0.007495 0.000000 0.025295 0.000000
# 6 0.000000 0.000000 0.000000 0.033532 0.000000 0.021581
#
#
# Mechanical properties :
#
#
# Convention : Reuss Voigt Hill
#
# Bulk Modulus (GPa) = 39.16154 51.89544 45.52849
# Shear Modulus (GPa) = -92.89889 32.41397 -30.24246
#
# Velocity S-wave (km/s) = -5.98885 3.53756 -3.41701
# Velocity P-wave (km/s) = 5.71859 6.05983 1.41761
#
# Compressibility (1/GPa) = 0.02553526
#
# Stress axis : x y z
#
# Youngs Moduli (GPa) = 113.53825 55.48746 74.43738
#
# Poissons Ratio (x) = 0.13420 0.08887
# Poissons Ratio (y) = 0.27460 0.27927
# Poissons Ratio (z) = 0.13556 0.20817
#
# Static dielectric constant tensor:
#      x y z
#    x 2.146880 0.000000 -0.038410 
#    y 0.000000 2.105220 0.000000 
#    z -0.038410 0.000000 2.325940 
# 
# From -- ./inp_files/35855.got.cif
#   From: 2010.05.17/outbox.cif.g08.bks.cpg/sg5_18_cif.got.tgz:35855.got - 2010.06.03 18:56:24.
