data_PCOD9125574
_publ_section_title
;
Structure prediction by ZEFSAII (Michael W. Deem and Ramdas Pophale) SiO2 
 PCOD9125574
Probable space group: C 2
;
_chemical_formula_sum "Si O2"
_cell_formula_units_Z 20
_cell_length_a 5.253665
_cell_length_b 30.083648
_cell_length_c 6.024079
_cell_angle_alpha 90.000000
_cell_angle_beta 79.798461
_cell_angle_gamma 90.000000
_cell_volume 937.050199
_symmetry_space_group_name_H-M "C 2"
_symmetry_group_IT_number 5
_symmetry_cell_setting 'monoclinic'
loop_
_space_group_symop_operation_xyz
x,y,z
-x,y,-z
1/2+x,1/2+y,z
1/2-x,1/2+y,-z
loop_
_atom_site_type_symbol
_atom_site_label
_atom_site_fract_x
_atom_site_fract_y
_atom_site_fract_z
Si Si1 0.281271 0.721540 0.346408
Si Si2 0.500000 0.088323 0.000000
Si Si3 0.231982 0.911686 0.128993
Si Si4 0.500000 0.041718 0.500000
Si Si5 0.718788 0.818010 0.652801
Si Si6 0.500000 0.482710 0.500000
Si Si7 0.500000 0.646218 0.000000
O O1 0.500000 0.723733 0.500000
O O2 0.286743 0.769992 0.225582
O O3 0.355598 0.679606 0.189350
O O4 0.000000 0.716314 0.500000
O O5 0.492786 0.065258 0.750521
O O6 0.232883 0.116234 0.056336
O O7 0.310742 0.864367 0.219449
O O8 0.112398 0.949043 0.302309
O O9 0.500000 0.931188 0.000000
O O10 0.000000 0.900710 0.000000
O O11 0.238157 0.012758 0.541225
O O12 0.500000 0.817263 0.500000
O O13 0.000000 0.819874 0.500000
#
# Coordination Sequence:
#
# PCOD9125574 Si02
#       7
#     4   2   4   2   4   2   2
#     4  10  23  42  68 101 147 193 239 299 351 437
#     4  12  30  52  82 111 146 193 244 322 388 456
#     4  12  26  42  71 104 144 195 241 296 355 438
#     4  12  30  54  82 109 150 189 246 322 390 452
#     4  10  21  42  64  98 148 194 242 291 352 415
#     4  12  28  50  76 105 148 183 250 298 378 448
#     4  12  26  46  78 107 142 189 252 292 382 444
#
# _framework density 21.343574
#
# number of rings (size 3 to 8) (size 9 to 14) (size 15 to 20)
#    0.000    0.800    1.000    4.800   11.200    0.000 
#    1.800    0.000    0.000    0.000    0.000    0.000 
#    0.000    0.000    0.000    0.000    0.000    0.000 
#
# Total GULP energy -55782.469591 kJ/mol
# GULP energy per Si atom -5578.246959 kJ/mol
# Density = 2.129500 g / cm^3
# Si number density = 21.343574 Si / 1000 Ang^3
#
#
#
# Elastic Constant Matrix: (Units=GPa)
#
#
# Indices 1 2 3 4 5 6 
#
# 1 203.0322 75.6888 60.3963 0.0000 -11.9647 0.0000
# 2 75.6888 155.1343 81.0337 0.0000 6.2864 0.0000
# 3 60.3963 81.0337 104.5062 0.0000 -10.0589 0.0000
# 4 0.0000 0.0000 0.0000 6.8274 0.0000 -10.4888
# 5 -11.9647 6.2864 -10.0589 0.0000 43.5269 0.0000
# 6 0.0000 0.0000 0.0000 -10.4888 0.0000 52.7747
#
#
#
# Elastic Compliance Matrix: (Units=1/GPa)
#
#
# Indices 1 2 3 4 5 6 
#
# 1 0.006396 -0.002255 -0.001787 0.000000 0.001671 0.000000
# 2 -0.002255 0.012205 -0.008581 0.000000 -0.004366 0.000000
# 3 -0.001787 -0.008581 0.017722 0.000000 0.004843 0.000000
# 4 0.000000 0.000000 0.000000 0.210848 0.000000 0.041906
# 5 0.001671 -0.004366 0.004843 0.000000 0.025183 0.000000
# 6 0.000000 0.000000 0.000000 0.041906 0.000000 0.027277
#
#
# Mechanical properties :
#
#
# Convention : Reuss Voigt Hill
#
# Bulk Modulus (GPa) = 90.27884 99.65669 94.96777
# Shear Modulus (GPa) = 15.21745 36.99604 26.10675
#
# Velocity S-wave (km/s) = 2.67306 4.16788 3.50117
# Velocity P-wave (km/s) = 7.20533 8.36389 7.80613
#
# Compressibility (1/GPa) = 0.01107679
#
# Stress axis : x y z
#
# Youngs Moduli (GPa) = 156.34834 81.93196 56.42816
#
# Poissons Ratio (x) = 0.18473 0.10085
# Poissons Ratio (y) = 0.35251 0.48421
# Poissons Ratio (z) = 0.27944 0.70306
#
# Static dielectric constant tensor:
#      x y z
#    x 1.685040 0.000000 0.009330 
#    y 0.000000 1.813040 0.000000 
#    z 0.009330 0.000000 1.845180 
# 
# From -- ./inp_files/1268.got.cif
#   From: 2010.05.17/outbox.cif.g08.bks.cpg/sg5_1_cif.got.tgz:1268.got - 2010.06.03 18:56:24.
