data_PCOD9125266
_publ_section_title
;
Structure prediction by ZEFSAII (Michael W. Deem and Ramdas Pophale) SiO2 
 PCOD9125266
Probable space group: C 2
;
_chemical_formula_sum "Si O2"
_cell_formula_units_Z 24
_cell_length_a 9.916227
_cell_length_b 22.237658
_cell_length_c 10.355260
_cell_angle_alpha 90.000000
_cell_angle_beta 152.558650
_cell_angle_gamma 90.000000
_cell_volume 1052.318136
_symmetry_space_group_name_H-M "C 2"
_symmetry_group_IT_number 5
_symmetry_cell_setting 'monoclinic'
loop_
_space_group_symop_operation_xyz
x,y,z
-x,y,-z
1/2+x,1/2+y,z
1/2-x,1/2+y,-z
loop_
_atom_site_type_symbol
_atom_site_label
_atom_site_fract_x
_atom_site_fract_y
_atom_site_fract_z
Si Si1 0.611083 0.099320 0.950013
Si Si2 0.168576 0.021319 0.446914
Si Si3 0.909351 0.787143 0.570553
Si Si4 0.410699 0.713115 0.075852
Si Si5 0.166135 0.447434 0.749659
Si Si6 0.592665 0.907182 0.227908
O O1 0.838541 0.042111 0.137792
O O2 0.500000 0.111112 0.000000
O O3 0.318410 0.080790 0.627842
O O4 0.762715 0.154537 0.007980
O O5 0.405360 0.997703 0.542627
O O6 0.215200 0.967522 0.589084
O O7 0.774424 0.852982 0.446446
O O8 0.000000 0.777097 0.500000
O O9 0.193542 0.770829 0.892323
O O10 0.674472 0.734673 0.390150
O O11 0.500000 0.702853 0.000000
O O12 0.000000 0.407129 0.500000
O O13 0.174047 0.417657 0.898860
O O14 0.500000 0.463142 0.000000
O O15 0.500000 0.897199 0.000000
#
# Coordination Sequence:
#
# PCOD9125266 Si02
#       6
#     4   4   4   4   4   4
#     4  12  24  43  65  98 134 180 234 291 343 417
#     4  10  25  40  68  96 141 177 225 282 353 423
#     4  10  21  40  66  96 128 172 232 287 340 409
#     4  10  23  42  65  91 127 175 234 290 342 402
#     4  10  23  43  63  96 144 191 224 279 349 425
#     4  10  23  42  73 103 144 185 230 291 356 421
#
# _framework density 22.806788999999998
#
# number of rings (size 3 to 8) (size 9 to 14) (size 15 to 20)
#    1.000    0.667    0.000    4.500    0.000    8.667 
#    0.000    3.333    0.000    0.000    0.000    0.000 
#    0.000    0.000    0.000    0.000    0.000    0.000 
#
# Total GULP energy -66849.842382 kJ/mol
# GULP energy per Si atom -5570.820198 kJ/mol
# Density = 2.275488 g / cm^3
# Si number density = 22.806789 Si / 1000 Ang^3
#
#
#
# Elastic Constant Matrix: (Units=GPa)
#
#
# Indices 1 2 3 4 5 6 
#
# 1 142.0809 33.2254 37.7671 0.0000 12.3625 0.0001
# 2 33.2254 106.5644 14.3600 -0.0001 14.4982 -0.0001
# 3 37.7671 14.3600 90.8758 0.0003 6.5283 0.0003
# 4 0.0000 -0.0001 0.0003 19.5113 0.0001 4.2183
# 5 12.3625 14.4982 6.5283 0.0001 20.8932 0.0002
# 6 0.0001 -0.0001 0.0003 4.2183 0.0002 18.5132
#
#
#
# Elastic Compliance Matrix: (Units=1/GPa)
#
#
# Indices 1 2 3 4 5 6 
#
# 1 0.008529 -0.001868 -0.003048 0.000000 -0.002798 0.000000
# 2 -0.001868 0.010889 -0.000492 0.000000 -0.006298 0.000000
# 3 -0.003048 -0.000492 0.012475 0.000000 -0.001753 0.000000
# 4 0.000000 0.000000 0.000000 0.053908 0.000000 -0.012283
# 5 -0.002798 -0.006298 -0.001753 0.000000 0.054436 0.000000
# 6 0.000000 0.000000 0.000000 -0.012283 0.000000 0.056814
#
#
# Mechanical properties :
#
#
# Convention : Reuss Voigt Hill
#
# Bulk Modulus (GPa) = 47.44646 56.69176 52.06911
# Shear Modulus (GPa) = 23.26745 28.72810 25.99777
#
# Velocity S-wave (km/s) = 3.19752 3.55298 3.37992
# Velocity P-wave (km/s) = 5.87205 6.46087 6.17349
#
# Compressibility (1/GPa) = 0.02107639
#
# Stress axis : x y z
#
# Youngs Moduli (GPa) = 117.25057 91.83219 80.16320
#
# Poissons Ratio (x) = 0.17152 0.24436
# Poissons Ratio (y) = 0.21899 0.03945
# Poissons Ratio (z) = 0.35742 0.04519
#
# Static dielectric constant tensor:
#      x y z
#    x 2.096210 0.000000 -0.034610 
#    y 0.000000 1.895300 0.000000 
#    z -0.034610 0.000000 1.933630 
# 
# From -- ./inp_files/40865.got.cif
#   From: 2010.05.17/outbox.cif.g08.bks.cpg/sg5_21_cif.got.tgz:40865.got - 2010.06.03 18:56:24.
