data_PCOD9125770
_publ_section_title
;
Structure prediction by ZEFSAII (Michael W. Deem and Ramdas Pophale) SiO2 
 PCOD9125770
Probable space group: C 2
;
_chemical_formula_sum "Si O2"
_cell_formula_units_Z 24
_cell_length_a 7.226944
_cell_length_b 8.493743
_cell_length_c 14.662505
_cell_angle_alpha 90.000000
_cell_angle_beta 85.951785
_cell_angle_gamma 90.000000
_cell_volume 897.794744
_symmetry_space_group_name_H-M "C 2"
_symmetry_group_IT_number 5
_symmetry_cell_setting 'monoclinic'
loop_
_space_group_symop_operation_xyz
x,y,z
-x,y,-z
1/2+x,1/2+y,z
1/2-x,1/2+y,-z
loop_
_atom_site_type_symbol
_atom_site_label
_atom_site_fract_x
_atom_site_fract_y
_atom_site_fract_z
Si Si1 0.824421 0.790950 0.201368
Si Si2 0.723170 0.450805 0.973245
Si Si3 0.206973 0.797231 0.468237
Si Si4 0.182554 0.091548 0.693461
Si Si5 0.219717 0.090471 0.366264
Si Si6 0.253788 0.271125 0.862367
O O1 0.744760 0.811356 0.102459
O O2 0.807479 0.641627 0.267287
O O3 0.043803 0.818761 0.180788
O O4 0.741282 0.936410 0.261390
O O5 0.775296 0.614896 0.924554
O O6 0.500000 0.456570 0.000000
O O7 0.814972 0.405985 0.066526
O O8 0.194741 0.665617 0.389913
O O9 0.288809 0.727938 0.557961
O O10 0.000000 0.847021 0.500000
O O11 0.306750 0.942898 0.416037
O O12 0.145480 0.216235 0.776494
O O13 0.989188 0.050457 0.654025
#
# Coordination Sequence:
#
# PCOD9125770 Si02
#       6
#     4   4   4   4   4   4
#     4  10  23  45  66  94 134 171 213 265 317 379
#     4   9  21  40  65  98 133 169 215 266 315 373
#     4  12  26  44  67  95 130 168 214 268 322 384
#     4  11  24  44  68  95 130 170 214 267 320 378
#     4  12  25  44  67  96 130 167 214 268 323 382
#     4  10  21  43  69  94 132 173 212 264 319 376
#
# _framework density 26.732171000000001
#
# number of rings (size 3 to 8) (size 9 to 14) (size 15 to 20)
#    0.000    1.333    0.000    5.500    0.000   10.667 
#    0.000   13.333    0.000    0.000    0.000    0.000 
#    0.000    0.000    0.000    0.000    0.000    0.000 
#
# Total GULP energy -67240.510150 kJ/mol
# GULP energy per Si atom -5603.375846 kJ/mol
# Density = 2.667133 g / cm^3
# Si number density = 26.732171 Si / 1000 Ang^3
#
#
#
# Elastic Constant Matrix: (Units=GPa)
#
#
# Indices 1 2 3 4 5 6 
#
# 1 30.9058 4.1999 27.7976 0.0000 1.8090 0.0000
# 2 4.1999 71.3450 58.3118 0.0000 -8.4679 0.0000
# 3 27.7976 58.3118 193.5821 0.0000 -0.0834 0.0000
# 4 0.0000 0.0000 0.0000 89.6514 0.0000 -2.6934
# 5 1.8090 -8.4679 -0.0834 0.0000 43.9891 0.0000
# 6 0.0000 0.0000 0.0000 -2.6934 0.0000 26.1958
#
#
#
# Elastic Compliance Matrix: (Units=1/GPa)
#
#
# Indices 1 2 3 4 5 6 
#
# 1 0.037653 0.002760 -0.006239 0.000000 -0.001029 0.000000
# 2 0.002760 0.019374 -0.006231 0.000000 0.003604 0.000000
# 3 -0.006239 -0.006231 0.007938 0.000000 -0.000928 0.000000
# 4 0.000000 0.000000 0.000000 0.011189 0.000000 0.001150
# 5 -0.001029 0.003604 -0.000928 0.000000 0.023467 0.000000
# 6 0.000000 0.000000 0.000000 0.001150 0.000000 0.038292
#
#
# Mechanical properties :
#
#
# Convention : Reuss Voigt Hill
#
# Bulk Modulus (GPa) = 21.95545 52.93906 37.44726
# Shear Modulus (GPa) = 28.98312 45.66883 37.32597
#
# Velocity S-wave (km/s) = 3.29630 4.13775 3.74076
# Velocity P-wave (km/s) = 4.76638 6.53257 5.71808
#
# Compressibility (1/GPa) = 0.04554678
#
# Stress axis : x y z
#
# Youngs Moduli (GPa) = 26.55851 51.61475 125.97453
#
# Poissons Ratio (x) = -0.14248 0.78592
# Poissons Ratio (y) = -0.07331 0.78493
# Poissons Ratio (z) = 0.16569 0.32160
#
# Static dielectric constant tensor:
#      x y z
#    x 2.028790 0.000000 -0.017560 
#    y 0.000000 2.123200 0.000000 
#    z -0.017560 0.000000 2.028590 
# 
# From -- ./inp_files/49875.got.cif
#   From: 2010.05.17/outbox.cif.g08.bks.cpg/sg5_25_cif.got.tgz:49875.got - 2010.06.03 18:56:24.
