data_PCOD9125431
_publ_section_title
;
Structure prediction by ZEFSAII (Michael W. Deem and Ramdas Pophale) SiO2 
 PCOD9125431
Probable space group: C 2
;
_chemical_formula_sum "Si O2"
_cell_formula_units_Z 20
_cell_length_a 18.885149
_cell_length_b 6.554903
_cell_length_c 7.936986
_cell_angle_alpha 90.000000
_cell_angle_beta 75.819973
_cell_angle_gamma 90.000000
_cell_volume 952.585379
_symmetry_space_group_name_H-M "C 2"
_symmetry_group_IT_number 5
_symmetry_cell_setting 'monoclinic'
loop_
_space_group_symop_operation_xyz
x,y,z
-x,y,-z
1/2+x,1/2+y,z
1/2-x,1/2+y,-z
loop_
_atom_site_type_symbol
_atom_site_label
_atom_site_fract_x
_atom_site_fract_y
_atom_site_fract_z
Si Si1 0.718942 0.115800 0.263229
Si Si2 0.716464 0.230053 0.884833
Si Si3 0.576131 0.465526 0.864826
Si Si4 0.152661 0.351400 0.717740
Si Si5 0.579401 0.184080 0.534272
O O1 0.780446 0.195791 0.357314
O O2 0.642270 0.213710 0.358470
O O3 0.724642 0.870142 0.246604
O O4 0.738861 0.181437 0.061522
O O5 0.642357 0.362771 0.927335
O O6 0.692748 0.025683 0.803309
O O7 0.594342 0.704777 0.841766
O O8 0.577676 0.358255 0.679475
O O9 0.500000 0.426702 0.000000
O O10 0.108794 0.476219 0.603745
O O11 0.500000 0.164440 0.500000
#
# Coordination Sequence:
#
# PCOD9125431 Si02
#       5
#     4   4   4   4   4
#     4  11  22  40  68  97 135 175 226 270 331 395
#     4  10  21  41  65  99 127 177 222 271 326 400
#     4  10  23  43  66  95 132 173 222 276 336 396
#     4  10  24  41  65  97 132 181 221 275 330 392
#     4  11  26  43  66 101 138 175 220 280 331 398
#
# _framework density 20.995493
#
# number of rings (size 3 to 8) (size 9 to 14) (size 15 to 20)
#    0.000    1.600    2.000    1.200    8.400    5.600 
#    0.000    0.000    0.000    0.000    0.000    0.000 
#    0.000    0.000    0.000    0.000    0.000    0.000 
#
# Total GULP energy -55787.576442 kJ/mol
# GULP energy per Si atom -5578.757644 kJ/mol
# Density = 2.094771 g / cm^3
# Si number density = 20.995493 Si / 1000 Ang^3
#
#
#
# Elastic Constant Matrix: (Units=GPa)
#
#
# Indices 1 2 3 4 5 6 
#
# 1 125.5539 16.0320 39.3888 0.0000 3.2437 0.0000
# 2 16.0320 103.6788 40.0837 0.0000 7.7769 0.0000
# 3 39.3888 40.0837 80.3371 0.0000 -3.4982 0.0000
# 4 0.0000 0.0000 0.0000 24.0178 0.0000 3.2809
# 5 3.2437 7.7769 -3.4982 0.0000 43.9031 0.0000
# 6 0.0000 0.0000 0.0000 3.2809 0.0000 25.6240
#
#
#
# Elastic Compliance Matrix: (Units=1/GPa)
#
#
# Indices 1 2 3 4 5 6 
#
# 1 0.009487 0.000546 -0.004976 0.000000 -0.001194 0.000000
# 2 0.000546 0.012285 -0.006517 0.000000 -0.002736 0.000000
# 3 -0.004976 -0.006517 0.018268 0.000000 0.002978 0.000000
# 4 0.000000 0.000000 0.000000 0.042377 0.000000 -0.005426
# 5 -0.001194 -0.002736 0.002978 0.000000 0.023588 0.000000
# 6 0.000000 0.000000 0.000000 -0.005426 0.000000 0.039721
#
#
# Mechanical properties :
#
#
# Convention : Reuss Voigt Hill
#
# Bulk Modulus (GPa) = 55.10255 55.61987 55.36121
# Shear Modulus (GPa) = 28.79061 32.97998 30.88530
#
# Velocity S-wave (km/s) = 3.70709 3.96765 3.83958
# Velocity P-wave (km/s) = 6.68022 6.89482 6.78836
#
# Compressibility (1/GPa) = 0.01814798
#
# Stress axis : x y z
#
# Youngs Moduli (GPa) = 105.40904 81.39767 54.73942
#
# Poissons Ratio (x) = -0.04447 0.27238
# Poissons Ratio (y) = -0.05759 0.35672
# Poissons Ratio (z) = 0.52451 0.53045
#
# Static dielectric constant tensor:
#      x y z
#    x 1.722030 0.000000 -0.017100 
#    y 0.000000 1.824900 0.000000 
#    z -0.017100 0.000000 1.790470 
# 
# From -- ./inp_files/25953.got.cif
#   From: 2010.05.17/outbox.cif.g08.bks.cpg/sg5_13_cif.got.tgz:25953.got - 2010.06.03 18:56:24.
