data_PCOD9125929
_publ_section_title
;
Structure prediction by ZEFSAII (Michael W. Deem and Ramdas Pophale) SiO2 
 PCOD9125929
Probable space group: C 2
;
_chemical_formula_sum "Si O2"
_cell_formula_units_Z 16
_cell_length_a 8.720587
_cell_length_b 12.988731
_cell_length_c 7.167036
_cell_angle_alpha 90.000000
_cell_angle_beta 125.484437
_cell_angle_gamma 90.000000
_cell_volume 661.031538
_symmetry_space_group_name_H-M "C 2"
_symmetry_group_IT_number 5
_symmetry_cell_setting 'monoclinic'
loop_
_space_group_symop_operation_xyz
x,y,z
-x,y,-z
1/2+x,1/2+y,z
1/2-x,1/2+y,-z
loop_
_atom_site_type_symbol
_atom_site_label
_atom_site_fract_x
_atom_site_fract_y
_atom_site_fract_z
Si Si1 0.972376 0.991210 0.699227
Si Si2 0.694887 0.688850 0.255469
Si Si3 0.710205 0.819432 0.622833
Si Si4 0.815767 0.633017 0.974094
O O1 0.000000 0.969837 0.500000
O O2 0.881392 0.898647 0.748449
O O3 0.831257 0.086528 0.638870
O O4 0.172093 0.038911 0.901237
O O5 0.717243 0.778455 0.416878
O O6 0.850134 0.678164 0.204407
O O7 0.500000 0.702603 0.000000
O O8 0.500000 0.864536 0.500000
O O9 0.731943 0.724842 0.784533
O O10 0.000000 0.596490 0.000000
#
# Coordination Sequence:
#
# PCOD9125929 Si02
#       4
#     4   4   4   4
#     4  11  24  47  74 112 153 195 250 309 377 445
#     4  10  21  48  77 103 157 194 244 319 370 447
#     4  12  24  48  79 114 151 196 254 315 381 444
#     4  11  25  46  77 108 157 202 248 309 379 450
#
# _framework density 24.204592000000002
#
# number of rings (size 3 to 8) (size 9 to 14) (size 15 to 20)
#    0.000    1.000    7.500    0.000    3.500    5.000 
#    0.000    1.250    0.000    0.000    0.000    0.000 
#    0.000    0.000    0.000    0.000    0.000    0.000 
#
# Total GULP energy -44762.166171 kJ/mol
# GULP energy per Si atom -5595.270771 kJ/mol
# Density = 2.414950 g / cm^3
# Si number density = 24.204592 Si / 1000 Ang^3
#
#
#
# Elastic Constant Matrix: (Units=GPa)
#
#
# Indices 1 2 3 4 5 6 
#
# 1 209.0427 63.7503 61.2952 0.0000 -8.9021 0.0000
# 2 63.7503 93.7977 46.1342 0.0000 8.4573 0.0000
# 3 61.2952 46.1342 75.5752 0.0000 -18.0565 0.0000
# 4 0.0000 0.0000 0.0000 14.6267 0.0000 13.0699
# 5 -8.9021 8.4573 -18.0565 0.0000 44.8395 0.0000
# 6 0.0000 0.0000 0.0000 13.0699 0.0000 39.8871
#
#
#
# Elastic Compliance Matrix: (Units=1/GPa)
#
#
# Indices 1 2 3 4 5 6 
#
# 1 0.006728 -0.002818 -0.003640 0.000000 0.000401 0.000000
# 2 -0.002818 0.018951 -0.011364 0.000000 -0.008710 0.000000
# 3 -0.003640 -0.011364 0.025958 0.000000 0.011874 0.000000
# 4 0.000000 0.000000 0.000000 0.096674 0.000000 -0.031677
# 5 0.000401 -0.008710 0.011874 0.000000 0.028806 0.000000
# 6 0.000000 0.000000 0.000000 -0.031677 0.000000 0.035451
#
#
# Mechanical properties :
#
#
# Convention : Reuss Voigt Hill
#
# Bulk Modulus (GPa) = 62.52994 80.08611 71.30803
# Shear Modulus (GPa) = 19.72054 33.68640 26.70347
#
# Velocity S-wave (km/s) = 2.85747 3.73464 3.32511
# Velocity P-wave (km/s) = 6.06439 7.19415 6.65329
#
# Compressibility (1/GPa) = 0.01599234
#
# Stress axis : x y z
#
# Youngs Moduli (GPa) = 148.64066 52.76648 38.52350
#
# Poissons Ratio (x) = 0.14871 0.14023
# Poissons Ratio (y) = 0.41891 0.43778
# Poissons Ratio (z) = 0.54108 0.59964
#
# Static dielectric constant tensor:
#      x y z
#    x 1.938210 0.000000 0.040530 
#    y 0.000000 1.943660 0.000000 
#    z 0.040530 0.000000 1.965620 
# 
# From -- ./inp_files/14391.got.cif
#   From: 2010.05.17/outbox.cif.g08.bks.cpg/sg5_8_cif.got.tgz:14391.got - 2010.06.03 18:56:24.
