data_PCOD9125501
_publ_section_title
;
Structure prediction by ZEFSAII (Michael W. Deem and Ramdas Pophale) SiO2 
 PCOD9125501
Probable space group: C 2
;
_chemical_formula_sum "Si O2"
_cell_formula_units_Z 28
_cell_length_a 9.397220
_cell_length_b 7.152937
_cell_length_c 30.322434
_cell_angle_alpha 90.000000
_cell_angle_beta 35.662526
_cell_angle_gamma 90.000000
_cell_volume 1188.293766
_symmetry_space_group_name_H-M "C 2"
_symmetry_group_IT_number 5
_symmetry_cell_setting 'monoclinic'
loop_
_space_group_symop_operation_xyz
x,y,z
-x,y,-z
1/2+x,1/2+y,z
1/2-x,1/2+y,-z
loop_
_atom_site_type_symbol
_atom_site_label
_atom_site_fract_x
_atom_site_fract_y
_atom_site_fract_z
Si Si1 0.474274 0.824570 0.459324
Si Si2 0.731668 0.658251 0.165210
Si Si3 0.641835 0.364855 0.710597
Si Si4 0.777263 0.133257 0.931412
Si Si5 0.054602 0.884799 0.437295
Si Si6 0.556495 0.953778 0.274026
Si Si7 0.290646 0.707063 0.022973
O O1 0.500000 0.917432 0.500000
O O2 0.642157 0.910317 0.378913
O O3 0.556466 0.609877 0.440084
O O4 0.185718 0.821965 0.526610
O O5 0.587597 0.503193 0.229209
O O6 0.626884 0.667050 0.141659
O O7 0.686335 0.854095 0.200524
O O8 0.021380 0.618165 0.090604
O O9 0.776206 0.406259 0.724459
O O10 0.528862 0.161658 0.722623
O O11 0.755842 0.911973 0.945537
O O12 0.500000 0.206373 0.000000
O O13 0.888901 0.212220 0.948189
O O14 0.000000 0.816988 0.500000
O O15 0.306018 0.845035 0.349812
O O16 0.500000 0.617082 0.000000
#
# Coordination Sequence:
#
# PCOD9125501 Si02
#       7
#     4   4   4   4   4   4   4
#     4  10  23  40  70 101 141 200 258 326 384 461
#     4  11  25  48  76 110 152 198 251 316 400 476
#     4  11  26  50  71 111 163 200 267 329 400 471
#     4   9  21  46  70 105 140 186 236 300 375 464
#     4  10  21  41  69  97 142 195 260 315 379 458
#     4  11  26  48  74 112 154 211 259 330 401 473
#     4  10  22  48  76 107 141 190 246 306 382 466
#
# _framework density 23.563196999999999
#
# number of rings (size 3 to 8) (size 9 to 14) (size 15 to 20)
#    0.000    1.714    1.429    0.857    2.000    5.714 
#   33.429    0.000    0.000    0.000    0.000    0.000 
#    0.000    0.000    0.000    0.000    0.000    0.000 
#
# Total GULP energy -78080.844517 kJ/mol
# GULP energy per Si atom -5577.203180 kJ/mol
# Density = 2.350957 g / cm^3
# Si number density = 23.563197 Si / 1000 Ang^3
#
#
#
# Elastic Constant Matrix: (Units=GPa)
#
#
# Indices 1 2 3 4 5 6 
#
# 1 156.9855 31.2643 48.8882 0.0004 9.2677 -0.0009
# 2 31.2643 114.7567 39.0271 -0.0011 -2.7351 -0.0023
# 3 48.8882 39.0271 133.3784 0.0019 2.7288 0.0023
# 4 0.0004 -0.0011 0.0019 24.0163 0.0002 -12.5516
# 5 9.2677 -2.7351 2.7288 0.0002 40.9944 -0.0015
# 6 -0.0009 -0.0023 0.0023 -12.5516 -0.0015 -2.5283
#
#
#
# Elastic Compliance Matrix: (Units=1/GPa)
#
#
# Indices 1 2 3 4 5 6 
#
# 1 0.007442 -0.001277 -0.002321 0.000000 -0.001613 -0.000001
# 2 -0.001277 0.009925 -0.002459 -0.000001 0.001114 -0.000004
# 3 -0.002321 -0.002459 0.009073 0.000001 -0.000243 0.000004
# 4 0.000000 -0.000001 0.000001 0.011584 -0.000002 -0.057507
# 5 -0.001613 0.001114 -0.000243 -0.000002 0.024849 -0.000004
# 6 -0.000001 -0.000004 0.000004 -0.057507 -0.000004 -0.110034
#
#
# Mechanical properties :
#
#
# Convention : Reuss Voigt Hill
#
# Bulk Modulus (GPa) = 69.80234 71.49774 70.65004
# Shear Modulus (GPa) = -165.16702 31.55921 -66.80390
#
# Velocity S-wave (km/s) = -8.38138 3.66367 -5.33034
# Velocity P-wave (km/s) = 7.99847 6.95022 2.79911
#
# Compressibility (1/GPa) = 0.01432617
#
# Stress axis : x y z
#
# Youngs Moduli (GPa) = 134.36506 100.75895 110.21967
#
# Poissons Ratio (x) = 0.12863 0.25586
# Poissons Ratio (y) = 0.17153 0.27102
# Poissons Ratio (z) = 0.31191 0.24775
#
# Static dielectric constant tensor:
#      x y z
#    x 1.836970 0.000000 0.020030 
#    y 0.000000 1.923360 0.000000 
#    z 0.020030 0.000000 1.869560 
# 
# From -- ./inp_files/70142.got.cif
#   From: 2010.05.17/outbox.cif.g08.bks.cpg/sg5_36_cif.got.tgz:70142.got - 2010.06.03 18:56:24.
