data_PCOD9125220
_publ_section_title
;
Structure prediction by ZEFSAII (Michael W. Deem and Ramdas Pophale) SiO2 
 PCOD9125220
Probable space group: C 2
;
_chemical_formula_sum "Si O2"
_cell_formula_units_Z 20
_cell_length_a 10.265226
_cell_length_b 16.542036
_cell_length_c 7.647054
_cell_angle_alpha 90.000000
_cell_angle_beta 44.168222
_cell_angle_gamma 90.000000
_cell_volume 904.772603
_symmetry_space_group_name_H-M "C 2"
_symmetry_group_IT_number 5
_symmetry_cell_setting 'monoclinic'
loop_
_space_group_symop_operation_xyz
x,y,z
-x,y,-z
1/2+x,1/2+y,z
1/2-x,1/2+y,-z
loop_
_atom_site_type_symbol
_atom_site_label
_atom_site_fract_x
_atom_site_fract_y
_atom_site_fract_z
Si Si1 0.760890 0.248960 0.118637
Si Si2 0.000000 0.008421 0.000000
Si Si3 0.572903 0.654512 0.704965
Si Si4 0.335346 0.905005 0.520192
Si Si5 0.500000 0.898428 0.000000
Si Si6 0.116162 0.739679 0.714120
O O1 0.819294 0.193766 0.228711
O O2 0.835511 0.338840 0.085329
O O3 0.548394 0.239532 0.270524
O O4 0.898698 0.212972 0.837005
O O5 0.822009 0.955784 0.224863
O O6 0.009267 0.068875 0.158281
O O7 0.744667 0.662853 0.408436
O O8 0.500000 0.895139 0.500000
O O9 0.414298 0.939357 0.257803
O O10 0.243894 0.818557 0.564566
O O11 0.000000 0.750172 0.000000
#
# Coordination Sequence:
#
# PCOD9125220 Si02
#       6
#     4   2   4   4   2   4
#     4   9  18  37  64  93 122 167 212 271 321 382
#     4  10  25  46  64  91 138 184 210 268 351 394
#     4   9  21  41  65  89 127 174 220 261 327 403
#     4  12  25  42  68 102 137 174 222 279 331 397
#     4  10  21  40  64  99 136 162 222 276 323 390
#     4  12  22  34  68 101 129 167 227 277 327 385
#
# _framework density 22.104998999999999
#
# number of rings (size 3 to 8) (size 9 to 14) (size 15 to 20)
#    0.000    2.000    5.000    1.800    0.000    3.200 
#    1.800    0.000    8.800    0.000    0.000    0.000 
#    0.000    0.000    0.000    0.000    0.000    0.000 
#
# Total GULP energy -55712.216721 kJ/mol
# GULP energy per Si atom -5571.221672 kJ/mol
# Density = 2.205469 g / cm^3
# Si number density = 22.104999 Si / 1000 Ang^3
#
#
#
# Elastic Constant Matrix: (Units=GPa)
#
#
# Indices 1 2 3 4 5 6 
#
# 1 112.3565 22.9146 61.4865 0.0000 -14.3200 0.0000
# 2 22.9146 61.9264 37.8687 0.0000 -17.1806 0.0000
# 3 61.4865 37.8687 167.0984 0.0000 -14.2358 0.0000
# 4 0.0000 0.0000 0.0000 41.5588 0.0000 1.8952
# 5 -14.3200 -17.1806 -14.2358 0.0000 40.3240 0.0000
# 6 0.0000 0.0000 0.0000 1.8952 0.0000 -0.3659
#
#
#
# Elastic Compliance Matrix: (Units=1/GPa)
#
#
# Indices 1 2 3 4 5 6 
#
# 1 0.011502 -0.001365 -0.003737 0.000000 0.002184 0.000000
# 2 -0.001365 0.020838 -0.003614 0.000000 0.007118 0.000000
# 3 -0.003737 -0.003614 0.008180 0.000000 0.000021 0.000000
# 4 0.000000 0.000000 0.000000 0.019465 0.000000 0.100816
# 5 0.002184 0.007118 0.000021 0.000000 0.028615 0.000000
# 6 0.000000 0.000000 0.000000 0.100816 0.000000 -2.210737
#
#
# Mechanical properties :
#
#
# Convention : Reuss Voigt Hill
#
# Bulk Modulus (GPa) = 43.31105 65.10230 54.20668
# Shear Modulus (GPa) = -2.38435 30.91080 14.26323
#
# Velocity S-wave (km/s) = -1.03971 3.74353 2.54293
# Velocity P-wave (km/s) = 4.26551 6.94267 5.76174
#
# Compressibility (1/GPa) = 0.02308879
#
# Stress axis : x y z
#
# Youngs Moduli (GPa) = 86.94153 47.98960 122.24445
#
# Poissons Ratio (x) = 0.06551 0.45682
# Poissons Ratio (y) = 0.11868 0.44176
# Poissons Ratio (z) = 0.32490 0.17342
#
# Static dielectric constant tensor:
#      x y z
#    x 1.817480 0.000000 0.105730 
#    y 0.000000 1.834890 0.000000 
#    z 0.105730 0.000000 2.060370 
# 
# From -- ./inp_files/20876.got.cif
#   From: 2010.05.17/outbox.cif.g08.bks.cpg/sg5_11_cif.got.tgz:20876.got - 2010.06.03 18:56:24.
