data_PCOD9125316
_publ_section_title
;
Structure prediction by ZEFSAII (Michael W. Deem and Ramdas Pophale) SiO2 
 PCOD9125316
Probable space group: C 2
;
_chemical_formula_sum "Si O2"
_cell_formula_units_Z 26
_cell_length_a 8.967997
_cell_length_b 19.608108
_cell_length_c 8.684807
_cell_angle_alpha 90.000000
_cell_angle_beta 129.201563
_cell_angle_gamma 90.000000
_cell_volume 1183.456359
_symmetry_space_group_name_H-M "C 2"
_symmetry_group_IT_number 5
_symmetry_cell_setting 'monoclinic'
loop_
_space_group_symop_operation_xyz
x,y,z
-x,y,-z
1/2+x,1/2+y,z
1/2-x,1/2+y,-z
loop_
_atom_site_type_symbol
_atom_site_label
_atom_site_fract_x
_atom_site_fract_y
_atom_site_fract_z
Si Si1 0.290504 0.994580 0.287297
Si Si2 0.641015 0.400237 0.456190
Si Si3 0.558441 0.897704 0.873283
Si Si4 0.500000 0.608520 0.000000
Si Si5 0.003722 0.180179 0.668288
Si Si6 0.582499 0.242440 0.390498
Si Si7 0.177161 0.775203 0.019859
O O1 0.500000 0.008619 0.500000
O O2 0.165426 0.953076 0.332586
O O3 0.324661 0.946498 0.162748
O O4 0.181763 0.060681 0.157284
O O5 0.500000 0.425607 0.500000
O O6 0.570087 0.324781 0.366855
O O7 0.855470 0.385734 0.658066
O O8 0.685374 0.829559 0.974829
O O9 0.500000 0.927082 0.000000
O O10 0.472982 0.647318 0.146330
O O11 0.798298 0.217026 0.532987
O O12 0.000000 0.140242 0.500000
O O13 0.176375 0.235053 0.774383
O O14 0.500000 0.222065 0.500000
O O15 0.431894 0.221395 0.161162
O O16 0.000000 0.807168 0.000000
#
# Coordination Sequence:
#
# PCOD9125316 Si02
#       7
#     4   4   4   2   4   4   4
#     4  10  26  48  70 103 145 196 244 307 355 440
#     4  10  21  40  70 109 150 184 231 307 377 433
#     4  11  23  39  69 113 148 184 240 300 378 446
#     4  12  30  50  76 100 150 208 248 294 362 436
#     4  12  27  50  70 106 144 195 250 301 354 446
#     4  11  22  39  69 108 148 183 229 307 376 435
#     4  12  24  40  70 108 144 185 233 303 384 433
#
# _framework density 21.969546999999999
#
# number of rings (size 3 to 8) (size 9 to 14) (size 15 to 20)
#    0.000    0.923    3.077    3.692    6.462    2.462 
#    2.769    0.000    0.000    0.000    0.000    0.000 
#    0.000    0.000    0.000    0.000    0.000    0.000 
#
# Total GULP energy -72567.081472 kJ/mol
# GULP energy per Si atom -5582.083190 kJ/mol
# Density = 2.191954 g / cm^3
# Si number density = 21.969547 Si / 1000 Ang^3
#
#
#
# Elastic Constant Matrix: (Units=GPa)
#
#
# Indices 1 2 3 4 5 6 
#
# 1 166.2890 40.7540 65.4618 0.0000 -14.6653 0.0000
# 2 40.7540 45.6450 35.5619 0.0000 -1.6810 0.0000
# 3 65.4618 35.5619 136.0982 0.0000 -1.8218 0.0000
# 4 0.0000 0.0000 0.0000 34.6923 0.0000 9.1272
# 5 -14.6653 -1.6810 -1.8218 0.0000 53.4587 0.0000
# 6 0.0000 0.0000 0.0000 9.1272 0.0000 5.1076
#
#
#
# Elastic Compliance Matrix: (Units=1/GPa)
#
#
# Indices 1 2 3 4 5 6 
#
# 1 0.008602 -0.005527 -0.002665 0.000000 0.002095 0.000000
# 2 -0.005527 0.031079 -0.005472 0.000000 -0.000725 0.000000
# 3 -0.002665 -0.005472 0.010052 0.000000 -0.000561 0.000000
# 4 0.000000 0.000000 0.000000 0.054401 0.000000 -0.097214
# 5 0.002095 -0.000725 -0.000561 0.000000 0.019239 0.000000
# 6 0.000000 0.000000 0.000000 -0.097214 0.000000 0.369509
#
#
# Mechanical properties :
#
#
# Convention : Reuss Voigt Hill
#
# Bulk Modulus (GPa) = 44.63330 70.17641 57.40485
# Shear Modulus (GPa) = 9.47544 32.40200 20.93872
#
# Velocity S-wave (km/s) = 2.07903 3.84456 3.09055
# Velocity P-wave (km/s) = 5.11109 7.19162 6.23870
#
# Compressibility (1/GPa) = 0.02240480
#
# Stress axis : x y z
#
# Youngs Moduli (GPa) = 116.25018 32.17564 99.48194
#
# Poissons Ratio (x) = 0.17782 0.26516
# Poissons Ratio (y) = 0.64247 0.54440
# Poissons Ratio (z) = 0.30985 0.17608
#
# Static dielectric constant tensor:
#      x y z
#    x 1.871580 0.000000 -0.069740 
#    y 0.000000 1.809890 0.000000 
#    z -0.069740 0.000000 1.922350 
# 
# From -- ./inp_files/16889.got.cif
#   From: 2010.05.17/outbox.cif.g08.bks.cpg/sg5_9_cif.got.tgz:16889.got - 2010.06.03 18:56:24.
