data_PCOD9125887
_publ_section_title
;
Structure prediction by ZEFSAII (Michael W. Deem and Ramdas Pophale) SiO2 
 PCOD9125887
Probable space group: C 2
;
_chemical_formula_sum "Si O2"
_cell_formula_units_Z 32
_cell_length_a 9.387419
_cell_length_b 14.831261
_cell_length_c 23.529561
_cell_angle_alpha 90.000000
_cell_angle_beta 153.403301
_cell_angle_gamma 90.000000
_cell_volume 1466.670458
_symmetry_space_group_name_H-M "C 2"
_symmetry_group_IT_number 5
_symmetry_cell_setting 'monoclinic'
loop_
_space_group_symop_operation_xyz
x,y,z
-x,y,-z
1/2+x,1/2+y,z
1/2-x,1/2+y,-z
loop_
_atom_site_type_symbol
_atom_site_label
_atom_site_fract_x
_atom_site_fract_y
_atom_site_fract_z
Si Si1 0.981520 0.716100 0.819455
Si Si2 0.373143 0.576199 0.139623
Si Si3 0.277074 0.916480 0.260725
Si Si4 0.974263 0.219310 0.895997
Si Si5 0.625171 0.883661 0.875414
Si Si6 0.843720 0.414639 0.495139
Si Si7 0.290391 0.341468 0.373765
Si Si8 0.137518 0.046470 0.729347
O O1 0.164053 0.719975 0.824763
O O2 0.836662 0.813565 0.781715
O O3 0.717064 0.639745 0.727032
O O4 0.237683 0.690200 0.959564
O O5 0.493554 0.485843 0.150176
O O6 0.546239 0.654982 0.166051
O O7 0.407833 0.567428 0.220022
O O8 0.000000 0.590975 0.000000
O O9 0.391835 0.936657 0.364999
O O10 0.599835 0.921703 0.338717
O O11 0.060685 0.318903 0.905556
O O12 0.494422 0.825267 0.774106
O O13 0.421600 0.974619 0.815133
O O14 0.000000 0.901609 0.000000
O O15 0.569745 0.363328 0.430147
O O16 0.675003 0.500221 0.407183
O O17 0.000000 0.359209 0.500000
O O18 0.500000 0.294608 0.500000
#
# Coordination Sequence:
#
# PCOD9125887 Si02
#       8
#     4   4   4   4   4   4   4   4
#     4  11  26  44  66 103 146 183 230 288 356 419
#     4  12  25  40  68 103 143 183 231 283 351 413
#     4  11  24  44  72  99 136 188 236 287 346 417
#     4  11  26  42  64 104 150 182 229 289 350 427
#     4  11  24  41  72 101 139 187 238 291 354 415
#     4  10  21  45  70  95 130 178 231 292 340 412
#     4   9  22  40  67  97 133 175 231 284 349 410
#     4  11  25  44  69 101 138 185 231 290 352 416
#
# _framework density 21.818125999999999
#
# number of rings (size 3 to 8) (size 9 to 14) (size 15 to 20)
#    0.000    1.250    2.500    1.875   14.000    0.000 
#    0.000    5.625    0.000    0.000    0.000    0.000 
#    0.000    0.000    0.000    0.000    0.000    0.000 
#
# Total GULP energy -89164.945572 kJ/mol
# GULP energy per Si atom -5572.809098 kJ/mol
# Density = 2.176847 g / cm^3
# Si number density = 21.818126 Si / 1000 Ang^3
#
#
#
# Elastic Constant Matrix: (Units=GPa)
#
#
# Indices 1 2 3 4 5 6 
#
# 1 164.3588 41.9193 26.9867 -0.0001 15.1020 0.0003
# 2 41.9193 104.2802 0.5157 0.0025 13.7243 -0.0027
# 3 26.9867 0.5157 58.9699 0.0110 -5.3106 0.0041
# 4 -0.0001 0.0025 0.0110 9.3950 -0.0018 -4.1971
# 5 15.1020 13.7243 -5.3106 -0.0018 44.5673 0.0003
# 6 0.0003 -0.0027 0.0041 -4.1971 0.0003 39.8278
#
#
#
# Elastic Compliance Matrix: (Units=1/GPa)
#
#
# Indices 1 2 3 4 5 6 
#
# 1 0.007580 -0.002745 -0.003639 0.000005 -0.002157 0.000001
# 2 -0.002745 0.010997 0.000949 -0.000004 -0.002343 0.000000
# 3 -0.003639 0.000949 0.018902 -0.000024 0.003193 -0.000004
# 4 0.000005 -0.000004 -0.000024 0.111698 0.000001 0.011771
# 5 -0.002157 -0.002343 0.003193 0.000001 0.024271 -0.000001
# 6 0.000001 0.000000 -0.000004 0.011771 -0.000001 0.026348
#
#
# Mechanical properties :
#
#
# Convention : Reuss Voigt Hill
#
# Bulk Modulus (GPa) = 37.58147 51.82804 44.70475
# Shear Modulus (GPa) = 22.77525 35.97052 29.37288
#
# Velocity S-wave (km/s) = 3.23440 4.06477 3.67312
# Velocity P-wave (km/s) = 5.58666 6.77022 6.20672
#
# Compressibility (1/GPa) = 0.02660886
#
# Stress axis : x y z
#
# Youngs Moduli (GPa) = 131.92393 90.93574 52.90309
#
# Poissons Ratio (x) = 0.24964 0.19252
# Poissons Ratio (y) = 0.36216 -0.05021
# Poissons Ratio (z) = 0.48009 -0.08631
#
# Static dielectric constant tensor:
#      x y z
#    x 1.800080 0.000000 0.107410 
#    y 0.000000 1.778500 -0.000010 
#    z 0.107410 -0.000010 1.419070 
# 
# From -- ./inp_files/68048.got.cif
#   From: 2010.05.17/outbox.cif.g08.bks.cpg/sg5_35_cif.got.tgz:68048.got - 2010.06.03 18:56:24.
