data_PCOD9125853
_publ_section_title
;
Structure prediction by ZEFSAII (Michael W. Deem and Ramdas Pophale) SiO2 
 PCOD9125853
Probable space group: C 2
;
_chemical_formula_sum "Si O2"
_cell_formula_units_Z 32
_cell_length_a 12.063195
_cell_length_b 15.299841
_cell_length_c 8.185879
_cell_angle_alpha 90.000000
_cell_angle_beta 89.382565
_cell_angle_gamma 90.000000
_cell_volume 1510.738751
_symmetry_space_group_name_H-M "C 2"
_symmetry_group_IT_number 5
_symmetry_cell_setting 'monoclinic'
loop_
_space_group_symop_operation_xyz
x,y,z
-x,y,-z
1/2+x,1/2+y,z
1/2-x,1/2+y,-z
loop_
_atom_site_type_symbol
_atom_site_label
_atom_site_fract_x
_atom_site_fract_y
_atom_site_fract_z
Si Si1 0.404928 0.640570 0.140852
Si Si2 0.269252 0.054140 0.076649
Si Si3 0.514631 0.315589 0.194759
Si Si4 0.793267 0.916345 0.692059
Si Si5 0.444084 0.824405 0.322500
Si Si6 0.027816 0.624851 0.802739
Si Si7 0.385724 0.963020 0.797161
Si Si8 0.861279 0.967689 0.339228
O O1 0.414972 0.733257 0.232808
O O2 0.405949 0.559868 0.269133
O O3 0.500000 0.634842 0.000000
O O4 0.290191 0.621057 0.043796
O O5 0.343445 0.101447 0.209028
O O6 0.188764 0.988640 0.167983
O O7 0.353871 0.989426 0.981608
O O8 0.639722 0.333892 0.244675
O O9 0.487750 0.220539 0.264009
O O10 0.436108 0.390230 0.267654
O O11 0.500000 0.317164 0.000000
O O12 0.666552 0.885278 0.664633
O O13 0.850620 0.956243 0.532017
O O14 0.500000 0.809586 0.500000
O O15 0.537368 0.879295 0.223113
O O16 0.952667 0.547984 0.731665
O O17 0.000000 0.630642 0.000000
O O18 0.265648 0.954877 0.718499
#
# Coordination Sequence:
#
# PCOD9125853 Si02
#       8
#     4   4   4   4   4   4   4   4
#     4  11  27  45  74 104 140 187 242 295 357 423
#     4  10  22  43  71 101 133 184 235 291 354 411
#     4  11  24  42  69 101 136 179 238 290 350 417
#     4  12  25  43  71 100 145 189 231 290 364 423
#     4  12  27  46  68 112 146 190 235 297 368 432
#     4   9  20  38  66  99 128 166 228 292 336 399
#     4  10  21  44  70  99 137 184 235 291 351 424
#     4  11  24  47  69  98 145 185 235 292 360 429
#
# _framework density 21.181688999999999
#
# number of rings (size 3 to 8) (size 9 to 14) (size 15 to 20)
#    0.000    1.250    2.500    3.000    8.750    3.000 
#    2.250    2.500    0.000    0.000    0.000    0.000 
#    0.000    0.000    0.000    0.000    0.000    0.000 
#
# Total GULP energy -89333.942813 kJ/mol
# GULP energy per Si atom -5583.371426 kJ/mol
# Density = 2.113348 g / cm^3
# Si number density = 21.181689 Si / 1000 Ang^3
#
#
#
# Elastic Constant Matrix: (Units=GPa)
#
#
# Indices 1 2 3 4 5 6 
#
# 1 97.2473 47.4987 26.5177 0.0000 9.1746 0.0000
# 2 47.4987 132.9897 31.0254 0.0000 -2.6266 0.0000
# 3 26.5177 31.0254 71.9876 0.0000 -5.8376 0.0000
# 4 0.0000 0.0000 0.0000 48.9370 0.0000 -7.2762
# 5 9.1746 -2.6266 -5.8376 0.0000 31.4090 0.0000
# 6 0.0000 0.0000 0.0000 -7.2762 0.0000 34.2862
#
#
#
# Elastic Compliance Matrix: (Units=1/GPa)
#
#
# Indices 1 2 3 4 5 6 
#
# 1 0.013806 -0.004168 -0.003700 0.000000 -0.005069 0.000000
# 2 -0.004168 0.009618 -0.002483 0.000000 0.001560 0.000000
# 3 -0.003700 -0.002483 0.016646 0.000000 0.003967 0.000000
# 4 0.000000 0.000000 0.000000 0.021100 0.000000 0.004478
# 5 -0.005069 0.001560 0.003967 0.000000 0.034186 0.000000
# 6 0.000000 0.000000 0.000000 0.004478 0.000000 0.030117
#
#
# Mechanical properties :
#
#
# Convention : Reuss Voigt Hill
#
# Bulk Modulus (GPa) = 51.63383 56.92314 54.27849
# Shear Modulus (GPa) = 32.75831 36.07196 34.41513
#
# Velocity S-wave (km/s) = 3.93687 4.13119 4.03520
# Velocity P-wave (km/s) = 6.71527 7.04895 6.88413
#
# Compressibility (1/GPa) = 0.01936715
#
# Stress axis : x y z
#
# Youngs Moduli (GPa) = 72.43214 103.97022 60.07287
#
# Poissons Ratio (x) = 0.43333 0.22230
# Poissons Ratio (y) = 0.30188 0.14919
# Poissons Ratio (z) = 0.26803 0.25821
#
# Static dielectric constant tensor:
#      x y z
#    x 1.780330 0.000000 0.009470 
#    y 0.000000 1.754250 0.000000 
#    z 0.009470 0.000000 1.797370 
# 
# From -- ./inp_files/20654.got.cif
#   From: 2010.05.17/outbox.cif.g08.bks.cpg/sg5_11_cif.got.tgz:20654.got - 2010.06.03 18:56:24.
