data_PCOD9125015
_publ_section_title
;
Structure prediction by ZEFSAII (Michael W. Deem and Ramdas Pophale) SiO2 
 PCOD9125015
Probable space group: C 2
;
_chemical_formula_sum "Si O2"
_cell_formula_units_Z 22
_cell_length_a 5.499952
_cell_length_b 25.383255
_cell_length_c 7.258992
_cell_angle_alpha 90.000000
_cell_angle_beta 106.689501
_cell_angle_gamma 90.000000
_cell_volume 970.714305
_symmetry_space_group_name_H-M "C 2"
_symmetry_group_IT_number 5
_symmetry_cell_setting 'monoclinic'
loop_
_space_group_symop_operation_xyz
x,y,z
-x,y,-z
1/2+x,1/2+y,z
1/2-x,1/2+y,-z
loop_
_atom_site_type_symbol
_atom_site_label
_atom_site_fract_x
_atom_site_fract_y
_atom_site_fract_z
Si Si1 0.500000 0.844880 0.500000
Si Si2 0.201338 0.673476 0.879007
Si Si3 0.973108 0.887651 0.716359
Si Si4 0.080956 0.557170 0.727884
Si Si5 0.583295 0.502084 0.736478
Si Si6 0.279832 0.787417 0.798411
O O1 0.670812 0.882999 0.665078
O O2 0.369072 0.806452 0.617628
O O3 0.123730 0.618953 0.768345
O O4 0.177135 0.728216 0.763781
O O5 0.500000 0.668807 0.000000
O O6 0.000000 0.679630 0.000000
O O7 0.000000 0.886637 0.500000
O O8 0.087549 0.833593 0.815111
O O9 0.100511 0.941494 0.805315
O O10 0.352062 0.528447 0.796872
O O11 0.000000 0.549025 0.500000
O O12 0.847217 0.533828 0.795769
O O13 0.500000 0.500932 0.500000
O O14 0.500000 0.786501 0.000000
#
# Coordination Sequence:
#
# PCOD9125015 Si02
#       6
#     2   4   4   4   4   4
#     4  10  22  40  68  98 134 174 224 264 336 404
#     4  11  25  45  66  88 133 177 213 275 336 385
#     4   9  20  36  63  96 128 173 215 269 328 401
#     4  10  21  39  64  95 121 168 219 267 314 392
#     4   9  19  35  63  94 129 162 212 267 326 377
#     4  10  24  42  65  97 132 177 219 276 331 396
#
# _framework density 22.663724999999999
#
# number of rings (size 3 to 8) (size 9 to 14) (size 15 to 20)
#    0.000    2.182    0.000    1.091   14.000    2.182 
#    4.909    2.727    4.000    0.000    0.000    0.000 
#    0.000    0.000    0.000    0.000    0.000    0.000 
#
# Total GULP energy -61407.559957 kJ/mol
# GULP energy per Si atom -5582.505451 kJ/mol
# Density = 2.261214 g / cm^3
# Si number density = 22.663725 Si / 1000 Ang^3
#
#
#
# Elastic Constant Matrix: (Units=GPa)
#
#
# Indices 1 2 3 4 5 6 
#
# 1 155.2809 77.6368 25.7574 0.0000 6.0752 0.0000
# 2 77.6368 203.9982 18.5706 0.0000 25.2230 0.0000
# 3 25.7574 18.5706 58.9423 0.0000 10.0259 0.0000
# 4 0.0000 0.0000 0.0000 97.3174 0.0000 -60.4133
# 5 6.0752 25.2230 10.0259 0.0000 28.8743 0.0000
# 6 0.0000 0.0000 0.0000 -60.4133 0.0000 70.5071
#
#
#
# Elastic Compliance Matrix: (Units=1/GPa)
#
#
# Indices 1 2 3 4 5 6 
#
# 1 0.008464 -0.003200 -0.003043 0.000000 0.002071 0.000000
# 2 -0.003200 0.006759 0.000169 0.000000 -0.005289 0.000000
# 3 -0.003043 0.000169 0.019298 0.000000 -0.006208 0.000000
# 4 0.000000 0.000000 0.000000 0.021953 0.000000 0.018810
# 5 0.002071 -0.005289 -0.006208 0.000000 0.040973 0.000000
# 6 0.000000 0.000000 0.000000 0.018810 0.000000 0.030300
#
#
# Mechanical properties :
#
#
# Convention : Reuss Voigt Hill
#
# Bulk Modulus (GPa) = 44.69818 73.57232 59.13525
# Shear Modulus (GPa) = 33.93253 59.09020 46.51136
#
# Velocity S-wave (km/s) = 3.87359 5.11167 4.53508
# Velocity P-wave (km/s) = 6.30646 8.20804 7.31927
#
# Compressibility (1/GPa) = 0.02237227
#
# Stress axis : x y z
#
# Youngs Moduli (GPa) = 118.15296 147.96167 51.81847
#
# Poissons Ratio (x) = 0.47350 0.15766
# Poissons Ratio (y) = 0.37811 -0.00874
# Poissons Ratio (z) = 0.35949 -0.02497
#
# Static dielectric constant tensor:
#      x y z
#    x 2.019640 0.000000 0.065600 
#    y 0.000000 1.841240 0.000000 
#    z 0.065600 0.000000 1.858100 
# 
# From -- ./inp_files/12459.got.cif
#   From: 2010.05.17/outbox.cif.g08.bks.cpg/sg5_7_cif.got.tgz:12459.got - 2010.06.03 18:56:24.
