data_PCOD9125692
_publ_section_title
;
Structure prediction by ZEFSAII (Michael W. Deem and Ramdas Pophale) SiO2 
 PCOD9125692
Probable space group: C 2
;
_chemical_formula_sum "Si O2"
_cell_formula_units_Z 24
_cell_length_a 12.473473
_cell_length_b 7.620138
_cell_length_c 11.260705
_cell_angle_alpha 90.000000
_cell_angle_beta 99.835464
_cell_angle_gamma 90.000000
_cell_volume 1054.594083
_symmetry_space_group_name_H-M "C 2"
_symmetry_group_IT_number 5
_symmetry_cell_setting 'monoclinic'
loop_
_space_group_symop_operation_xyz
x,y,z
-x,y,-z
1/2+x,1/2+y,z
1/2-x,1/2+y,-z
loop_
_atom_site_type_symbol
_atom_site_label
_atom_site_fract_x
_atom_site_fract_y
_atom_site_fract_z
Si Si1 0.685006 0.826590 0.830342
Si Si2 0.235805 0.798129 0.646309
Si Si3 0.546317 0.794804 0.202998
Si Si4 0.967719 0.921796 0.237155
Si Si5 0.797217 0.887276 0.632794
Si Si6 0.634589 0.550769 0.008578
O O1 0.564038 0.906001 0.828690
O O2 0.711545 0.786049 0.699079
O O3 0.692834 0.658018 0.915245
O O4 0.779627 0.950264 0.896253
O O5 0.348946 0.878497 0.717292
O O6 0.133542 0.845711 0.709660
O O7 0.211835 0.853166 0.507693
O O8 0.263646 0.590476 0.649572
O O9 0.496893 0.628087 0.267288
O O10 0.585832 0.699154 0.089110
O O11 0.082372 0.838861 0.297094
O O12 0.939913 0.925630 0.090704
#
# Coordination Sequence:
#
# PCOD9125692 Si02
#       6
#     4   4   4   4   4   4
#     4  11  23  42  70 103 131 182 225 282 343 404
#     4  11  24  47  68  98 139 183 229 283 336 405
#     4  10  23  45  71  97 138 179 225 278 345 405
#     4  10  21  42  73  93 132 182 217 281 344 392
#     4  11  26  45  67 102 136 180 239 275 340 408
#     4  11  22  43  73 100 140 177 227 280 346 411
#
# _framework density 22.757572
#
# number of rings (size 3 to 8) (size 9 to 14) (size 15 to 20)
#    0.000    1.333    3.333    3.500    4.667    0.667 
#    6.000    1.667    7.333    0.000    0.000    0.000 
#    0.000    0.000    0.000    0.000    0.000    0.000 
#
# Total GULP energy -66913.356826 kJ/mol
# GULP energy per Si atom -5576.113069 kJ/mol
# Density = 2.270577 g / cm^3
# Si number density = 22.757572 Si / 1000 Ang^3
#
#
#
# Elastic Constant Matrix: (Units=GPa)
#
#
# Indices 1 2 3 4 5 6 
#
# 1 186.2164 29.4973 103.3839 0.0000 9.6874 0.0000
# 2 29.4973 22.2524 24.3768 0.0000 -1.3119 0.0000
# 3 103.3839 24.3768 200.3648 0.0000 -7.5851 0.0000
# 4 0.0000 0.0000 0.0000 29.0979 0.0000 -6.6157
# 5 9.6874 -1.3119 -7.5851 0.0000 36.5139 0.0000
# 6 0.0000 0.0000 0.0000 -6.6157 0.0000 37.5319
#
#
#
# Elastic Compliance Matrix: (Units=1/GPa)
#
#
# Indices 1 2 3 4 5 6 
#
# 1 0.008876 -0.007856 -0.003753 0.000000 -0.003417 0.000000
# 2 -0.007856 0.058813 -0.002966 0.000000 0.003581 0.000000
# 3 -0.003753 -0.002966 0.007380 0.000000 0.002422 0.000000
# 4 0.000000 0.000000 0.000000 0.035802 0.000000 0.006311
# 5 -0.003417 0.003581 0.002422 0.000000 0.028925 0.000000
# 6 0.000000 0.000000 0.000000 0.006311 0.000000 0.027756
#
#
# Mechanical properties :
#
#
# Convention : Reuss Voigt Hill
#
# Bulk Modulus (GPa) = 21.77784 80.37221 51.07502
# Shear Modulus (GPa) = 23.58387 37.40044 30.49216
#
# Velocity S-wave (km/s) = 3.22267 4.05832 3.66439
# Velocity P-wave (km/s) = 4.84125 7.57320 6.35575
#
# Compressibility (1/GPa) = 0.04591823
#
# Stress axis : x y z
#
# Youngs Moduli (GPa) = 112.66259 17.00307 135.49733
#
# Poissons Ratio (x) = 0.13357 0.50859
# Poissons Ratio (y) = 0.88503 0.40195
# Poissons Ratio (z) = 0.42288 0.05044
#
# Static dielectric constant tensor:
#      x y z
#    x 2.000180 0.000000 0.044200 
#    y 0.000000 1.955150 0.000000 
#    z 0.044200 0.000000 1.823610 
# 
# From -- ./inp_files/38367.got.cif
#   From: 2010.05.17/outbox.cif.g08.bks.cpg/sg5_20_cif.got.tgz:38367.got - 2010.06.03 18:56:24.
