data_PCOD9125764
_publ_section_title
;
Structure prediction by ZEFSAII (Michael W. Deem and Ramdas Pophale) SiO2 
 PCOD9125764
Probable space group: C 2
;
_chemical_formula_sum "Si O2"
_cell_formula_units_Z 28
_cell_length_a 20.811100
_cell_length_b 6.841029
_cell_length_c 8.921159
_cell_angle_alpha 90.000000
_cell_angle_beta 110.919904
_cell_angle_gamma 90.000000
_cell_volume 1186.375170
_symmetry_space_group_name_H-M "C 2"
_symmetry_group_IT_number 5
_symmetry_cell_setting 'monoclinic'
loop_
_space_group_symop_operation_xyz
x,y,z
-x,y,-z
1/2+x,1/2+y,z
1/2-x,1/2+y,-z
loop_
_atom_site_type_symbol
_atom_site_label
_atom_site_fract_x
_atom_site_fract_y
_atom_site_fract_z
Si Si1 0.104502 0.652100 0.102050
Si Si2 0.449531 0.234214 0.621530
Si Si3 0.354098 0.716298 0.308275
Si Si4 0.000000 0.298372 0.000000
Si Si5 0.264383 0.984948 0.665555
Si Si6 0.310831 0.103523 0.374827
Si Si7 0.561848 0.483394 0.831552
Si Si8 0.000000 0.380755 0.500000
O O1 0.082962 0.751391 0.241009
O O2 0.063634 0.447530 0.066863
O O3 0.184050 0.595801 0.180278
O O4 0.082586 0.801416 0.954785
O O5 0.384405 0.212943 0.456594
O O6 0.508510 0.395550 0.666767
O O7 0.489518 0.028922 0.630747
O O8 0.307492 0.598245 0.384785
O O9 0.369935 0.582558 0.178847
O O10 0.430229 0.762717 0.431127
O O11 0.319773 0.930247 0.263248
O O12 0.980071 0.151514 0.116775
O O13 0.247884 0.763351 0.697364
O O14 0.295154 0.003900 0.523984
#
# Coordination Sequence:
#
# PCOD9125764 Si02
#       8
#     4   4   4   2   4   4   4   2
#     4  11  24  46  69 103 141 192 242 295 359 438
#     4  10  21  43  69 101 147 172 236 306 353 430
#     4  11  26  42  68 107 142 189 238 302 365 430
#     4  12  22  44  70  98 134 196 242 286 354 424
#     4  11  24  45  72  99 148 184 237 302 362 448
#     4  10  23  43  70 107 140 185 237 300 371 424
#     4  12  25  43  72 106 144 190 241 297 361 428
#     4  10  24  42  70 110 142 182 236 314 366 414
#
# _framework density 23.601302
#
# number of rings (size 3 to 8) (size 9 to 14) (size 15 to 20)
#    0.000    1.143    4.286    0.857    6.000    2.286 
#    2.571    0.000    0.000    0.000    0.000    0.000 
#    0.000    0.000    0.000    0.000    0.000    0.000 
#
# Total GULP energy -78273.554693 kJ/mol
# GULP energy per Si atom -5590.968192 kJ/mol
# Density = 2.354758 g / cm^3
# Si number density = 23.601302 Si / 1000 Ang^3
#
#
#
# Elastic Constant Matrix: (Units=GPa)
#
#
# Indices 1 2 3 4 5 6 
#
# 1 124.1236 50.3488 14.8561 0.0000 -0.0928 0.0000
# 2 50.3488 140.2168 35.7146 0.0000 2.0910 0.0000
# 3 14.8561 35.7146 43.9265 0.0000 -10.0686 0.0000
# 4 0.0000 0.0000 0.0000 29.2029 0.0000 -9.4574
# 5 -0.0928 2.0910 -10.0686 0.0000 23.3702 0.0000
# 6 0.0000 0.0000 0.0000 -9.4574 0.0000 60.1875
#
#
#
# Elastic Compliance Matrix: (Units=1/GPa)
#
#
# Indices 1 2 3 4 5 6 
#
# 1 0.009441 -0.003259 -0.000519 0.000000 0.000106 0.000000
# 2 -0.003259 0.010545 -0.008533 0.000000 -0.004633 0.000000
# 3 -0.000519 -0.008533 0.033346 0.000000 0.015128 0.000000
# 4 0.000000 0.000000 0.000000 0.036079 0.000000 0.005669
# 5 0.000106 -0.004633 0.015128 0.000000 0.049722 0.000000
# 6 0.000000 0.000000 0.000000 0.005669 0.000000 0.017506
#
#
# Mechanical properties :
#
#
# Convention : Reuss Voigt Hill
#
# Bulk Modulus (GPa) = 34.83168 56.67842 45.75505
# Shear Modulus (GPa) = 26.20136 36.37528 31.28832
#
# Velocity S-wave (km/s) = 3.33553 3.93012 3.64497
# Velocity P-wave (km/s) = 5.44286 6.68293 6.09452
#
# Compressibility (1/GPa) = 0.02870950
#
# Stress axis : x y z
#
# Youngs Moduli (GPa) = 105.92340 94.83428 29.98872
#
# Poissons Ratio (x) = 0.30911 0.01555
# Poissons Ratio (y) = 0.34525 0.25589
# Poissons Ratio (z) = 0.05493 0.80921
#
# Static dielectric constant tensor:
#      x y z
#    x 1.905100 0.000000 -0.029390 
#    y 0.000000 1.927220 0.000000 
#    z -0.029390 0.000000 1.917830 
# 
# From -- ./inp_files/45719.got.cif
#   From: 2010.05.17/outbox.cif.g08.bks.cpg/sg5_23_cif.got.tgz:45719.got - 2010.06.03 18:56:24.
