data_PCOD9125553
_publ_section_title
;
Structure prediction by ZEFSAII (Michael W. Deem and Ramdas Pophale) SiO2 
 PCOD9125553
Probable space group: C 2
;
_chemical_formula_sum "Si O2"
_cell_formula_units_Z 28
_cell_length_a 19.833429
_cell_length_b 13.385367
_cell_length_c 6.657729
_cell_angle_alpha 90.000000
_cell_angle_beta 52.106598
_cell_angle_gamma 90.000000
_cell_volume 1394.814377
_symmetry_space_group_name_H-M "C 2"
_symmetry_group_IT_number 5
_symmetry_cell_setting 'monoclinic'
loop_
_space_group_symop_operation_xyz
x,y,z
-x,y,-z
1/2+x,1/2+y,z
1/2-x,1/2+y,-z
loop_
_atom_site_type_symbol
_atom_site_label
_atom_site_fract_x
_atom_site_fract_y
_atom_site_fract_z
Si Si1 0.715662 0.253740 0.878848
Si Si2 0.859908 0.631347 0.619474
Si Si3 0.423917 0.517010 0.281134
Si Si4 0.096642 0.811715 0.759578
Si Si5 0.868030 0.307662 0.885282
Si Si6 0.703501 0.666119 0.666558
Si Si7 0.000000 0.474303 0.500000
Si Si8 0.500000 0.641371 0.500000
O O1 0.650654 0.319010 0.866649
O O2 0.789468 0.310568 0.869795
O O3 0.759285 0.189522 0.621595
O O4 0.662673 0.182117 0.125750
O O5 0.883702 0.719002 0.420820
O O6 0.768233 0.603887 0.690159
O O7 0.933504 0.547763 0.504490
O O8 0.380005 0.411831 0.406791
O O9 0.374739 0.595443 0.236001
O O10 0.457555 0.572351 0.412405
O O11 0.500000 0.482703 0.000000
O O12 0.000000 0.792882 0.000000
O O13 0.927080 0.213438 0.719532
O O14 0.933990 0.401604 0.746425
O O15 0.825037 0.269871 0.172716
#
# Coordination Sequence:
#
# PCOD9125553 Si02
#       8
#     4   4   4   4   4   4   2   2
#     4  10  21  43  65  88 135 171 210 277 322 383
#     4  10  23  44  65  92 135 173 217 271 321 395
#     4  11  22  37  66  97 121 168 213 266 332 388
#     4  10  23  40  65  94 124 168 220 266 320 384
#     4  10  22  40  63  97 130 168 216 272 328 391
#     4  10  21  42  63  93 133 169 212 272 330 388
#     4  11  24  43  70  98 130 185 220 265 340 394
#     4  11  20  37  62  92 132 159 210 279 330 378
#
# _framework density 20.074356000000002
#
# number of rings (size 3 to 8) (size 9 to 14) (size 15 to 20)
#    0.000    1.714    2.857    0.857    2.000    2.857 
#    7.714    4.286    0.000    0.000    0.000    0.000 
#    0.000    0.000    0.000    0.000    0.000    0.000 
#
# Total GULP energy -77948.370218 kJ/mol
# GULP energy per Si atom -5567.740730 kJ/mol
# Density = 2.002867 g / cm^3
# Si number density = 20.074356 Si / 1000 Ang^3
#
#
#
# Elastic Constant Matrix: (Units=GPa)
#
#
# Indices 1 2 3 4 5 6 
#
# 1 137.0488 59.7758 34.6837 0.0000 9.5659 0.0000
# 2 59.7758 90.3097 24.7322 0.0000 16.3235 0.0000
# 3 34.6837 24.7322 80.8462 0.0000 8.9175 0.0000
# 4 0.0000 0.0000 0.0000 19.8851 0.0000 -10.9340
# 5 9.5659 16.3235 8.9175 0.0000 26.4761 0.0000
# 6 0.0000 0.0000 0.0000 -10.9340 0.0000 -31.6132
#
#
#
# Elastic Compliance Matrix: (Units=1/GPa)
#
#
# Indices 1 2 3 4 5 6 
#
# 1 0.010785 -0.006587 -0.002732 0.000000 0.001084 0.000000
# 2 -0.006587 0.017269 -0.001605 0.000000 -0.007727 0.000000
# 3 -0.002732 -0.001605 0.014347 0.000000 -0.002856 0.000000
# 4 0.000000 0.000000 0.000000 0.042253 0.000000 -0.014614
# 5 0.001084 -0.007727 -0.002856 0.000000 0.043104 0.000000
# 6 0.000000 0.000000 0.000000 -0.014614 0.000000 -0.026578
#
#
# Mechanical properties :
#
#
# Convention : Reuss Voigt Hill
#
# Bulk Modulus (GPa) = 48.65020 60.73202 54.69111
# Shear Modulus (GPa) = 38.49779 15.55045 27.02412
#
# Velocity S-wave (km/s) = 4.38397 2.78626 3.67304
# Velocity P-wave (km/s) = 7.06493 6.37732 6.72991
#
# Compressibility (1/GPa) = 0.02055490
#
# Stress axis : x y z
#
# Youngs Moduli (GPa) = 92.72047 57.90819 69.70103
#
# Poissons Ratio (x) = 0.38141 0.19039
# Poissons Ratio (y) = 0.61071 0.11186
# Poissons Ratio (z) = 0.25327 0.09293
#
# Static dielectric constant tensor:
#      x y z
#    x 1.749190 0.000000 -0.043940 
#    y 0.000000 1.759090 0.000000 
#    z -0.043940 0.000000 1.698700 
# 
# From -- ./inp_files/8631.got.cif
#   From: 2010.05.17/outbox.cif.g08.bks.cpg/sg5_5_cif.got.tgz:8631.got - 2010.06.03 18:56:24.
