data_PCOD9125952
_publ_section_title
;
Structure prediction by ZEFSAII (Michael W. Deem and Ramdas Pophale) SiO2 
 PCOD9125952
Probable space group: C 2
;
_chemical_formula_sum "Si O2"
_cell_formula_units_Z 30
_cell_length_a 5.224185
_cell_length_b 23.824666
_cell_length_c 13.052315
_cell_angle_alpha 90.000000
_cell_angle_beta 111.150115
_cell_angle_gamma 90.000000
_cell_volume 1515.116965
_symmetry_space_group_name_H-M "C 2"
_symmetry_group_IT_number 5
_symmetry_cell_setting 'monoclinic'
loop_
_space_group_symop_operation_xyz
x,y,z
-x,y,-z
1/2+x,1/2+y,z
1/2-x,1/2+y,-z
loop_
_atom_site_type_symbol
_atom_site_label
_atom_site_fract_x
_atom_site_fract_y
_atom_site_fract_z
Si Si1 0.729978 0.366230 0.890444
Si Si2 0.190461 0.734483 0.925220
Si Si3 0.894283 0.073249 0.368641
Si Si4 0.114987 0.392180 0.771602
Si Si5 0.005604 0.288075 0.612461
Si Si6 0.606843 0.000996 0.631081
Si Si7 0.122293 0.681735 0.300830
Si Si8 0.500000 0.206169 0.500000
O O1 0.699241 0.298356 0.882585
O O2 0.418331 0.386677 0.867863
O O3 0.847904 0.395747 0.805541
O O4 0.000000 0.375164 0.000000
O O5 0.083974 0.692895 0.821365
O O6 0.500000 0.720075 0.000000
O O7 0.000000 0.734127 0.000000
O O8 0.613799 0.038880 0.341222
O O9 0.835945 0.132710 0.306771
O O10 0.000000 0.083206 0.500000
O O11 0.113652 0.035581 0.341305
O O12 0.134822 0.443242 0.696042
O O13 0.052493 0.334244 0.703698
O O14 0.739582 0.248501 0.570114
O O15 0.000000 0.316316 0.500000
O O16 0.241579 0.242176 0.659952
O O17 0.500000 0.990367 0.500000
O O18 0.030923 0.667728 0.403979
#
# Coordination Sequence:
#
# PCOD9125952 Si02
#       8
#     4   4   4   4   4   4   4   2
#     4  11  23  39  63  92 122 161 214 262 313 377
#     4  11  24  41  63  94 135 176 216 264 322 391
#     4  10  22  40  62  90 124 166 216 257 307 381
#     4  12  22  40  64  88 127 163 207 255 326 380
#     4  10  22  35  54  94 126 164 193 257 321 395
#     4  10  23  41  61  91 126 166 210 255 312 382
#     4  11  23  38  65  93 129 170 216 270 321 391
#     4  10  22  36  58  98 136 160 216 256 352 382
#
# _framework density 19.800453000000001
#
# number of rings (size 3 to 8) (size 9 to 14) (size 15 to 20)
#    0.000    1.333    1.333    5.200    8.400    0.000 
#    3.600    0.000    0.000    8.000    0.000    0.000 
#    0.000    0.000    0.000    0.000    0.000    0.000 
#
# Total GULP energy -83654.184648 kJ/mol
# GULP energy per Si atom -5576.945643 kJ/mol
# Density = 1.975539 g / cm^3
# Si number density = 19.800453 Si / 1000 Ang^3
#
#
#
# Elastic Constant Matrix: (Units=GPa)
#
#
# Indices 1 2 3 4 5 6 
#
# 1 124.8459 17.9466 40.9877 0.0000 0.6026 0.0000
# 2 17.9466 72.0895 36.5200 0.0000 -2.6786 0.0000
# 3 40.9877 36.5200 70.7505 0.0000 5.2798 0.0000
# 4 0.0000 0.0000 0.0000 -31.4647 0.0000 -22.7946
# 5 0.6026 -2.6786 5.2798 0.0000 25.5996 0.0000
# 6 0.0000 0.0000 0.0000 -22.7946 0.0000 0.9971
#
#
#
# Elastic Compliance Matrix: (Units=1/GPa)
#
#
# Indices 1 2 3 4 5 6 
#
# 1 0.009941 0.000713 -0.006211 0.000000 0.001122 0.000000
# 2 0.000713 0.019252 -0.010664 0.000000 0.004197 0.000000
# 3 -0.006211 -0.010664 0.023674 0.000000 -0.005852 0.000000
# 4 0.000000 0.000000 0.000000 -0.001810 0.000000 -0.041372
# 5 0.001122 0.004197 -0.005852 0.000000 0.040683 0.000000
# 6 0.000000 0.000000 0.000000 -0.041372 0.000000 0.057108
#
#
# Mechanical properties :
#
#
# Convention : Reuss Voigt Hill
#
# Bulk Modulus (GPa) = 48.67728 50.95493 49.81610
# Shear Modulus (GPa) = 26.59291 10.50850 18.55070
#
# Velocity S-wave (km/s) = 3.66873 2.30624 3.06417
# Velocity P-wave (km/s) = 6.52560 5.73426 6.14269
#
# Compressibility (1/GPa) = 0.02054347
#
# Stress axis : x y z
#
# Youngs Moduli (GPa) = 100.59311 51.94167 42.24093
#
# Poissons Ratio (x) = -0.03705 0.26236
# Poissons Ratio (y) = -0.07175 0.45046
# Poissons Ratio (z) = 0.62479 0.55391
#
# Static dielectric constant tensor:
#      x y z
#    x 1.817730 0.000000 -0.034180 
#    y 0.000000 1.647430 0.000000 
#    z -0.034180 0.000000 1.772730 
# 
# From -- ./inp_files/34263.got.cif
#   From: 2010.05.17/outbox.cif.g08.bks.cpg/sg5_18_cif.got.tgz:34263.got - 2010.06.03 18:56:24.
