data_PCOD9125753
_publ_section_title
;
Structure prediction by ZEFSAII (Michael W. Deem and Ramdas Pophale) SiO2 
 PCOD9125753
Probable space group: C 2
;
_chemical_formula_sum "Si O2"
_cell_formula_units_Z 30
_cell_length_a 13.644387
_cell_length_b 11.356187
_cell_length_c 17.882984
_cell_angle_alpha 90.000000
_cell_angle_beta 148.748796
_cell_angle_gamma 90.000000
_cell_volume 1437.537466
_symmetry_space_group_name_H-M "C 2"
_symmetry_group_IT_number 5
_symmetry_cell_setting 'monoclinic'
loop_
_space_group_symop_operation_xyz
x,y,z
-x,y,-z
1/2+x,1/2+y,z
1/2-x,1/2+y,-z
loop_
_atom_site_type_symbol
_atom_site_label
_atom_site_fract_x
_atom_site_fract_y
_atom_site_fract_z
Si Si1 0.000000 0.082850 0.500000
Si Si2 0.807192 0.875306 0.461693
Si Si3 0.801690 0.486857 0.460074
Si Si4 0.495952 0.182928 0.333170
Si Si5 0.857529 0.075199 0.975053
Si Si6 0.365397 0.305747 0.984986
Si Si7 0.985340 0.181632 0.771074
Si Si8 0.194972 0.757218 0.313728
O O1 0.157686 0.173704 0.633227
O O2 0.118738 0.992080 0.528100
O O3 0.692949 0.914671 0.459907
O O4 0.987797 0.802080 0.609141
O O5 0.670097 0.786317 0.328216
O O6 0.967969 0.580517 0.581845
O O7 0.617582 0.571252 0.335602
O O8 0.781387 0.388150 0.383116
O O9 0.311981 0.152220 0.167414
O O10 0.651538 0.201714 0.367924
O O11 0.800507 0.940854 0.956368
O O12 0.955214 0.137034 0.108662
O O13 0.000000 0.063882 0.000000
O O14 0.177290 0.227171 0.857806
O O15 0.500000 0.298810 0.000000
O O16 0.500668 0.268752 0.141878
#
# Coordination Sequence:
#
# PCOD9125753 Si02
#       8
#     2   4   4   4   4   4   4   4
#     4  12  26  42  64 102 140 168 236 284 344 404
#     4  10  24  40  67  97 135 177 228 282 348 399
#     4  10  21  44  66  97 124 190 221 275 344 408
#     4  10  21  43  68  93 132 177 228 276 344 402
#     4  11  24  42  67 101 135 174 232 279 343 414
#     4  11  25  41  68 102 138 182 231 280 344 410
#     4  11  23  44  74  95 142 184 229 283 347 409
#     4  11  23  41  66  99 137 177 225 287 340 405
#
# _framework density 20.869021
#
# number of rings (size 3 to 8) (size 9 to 14) (size 15 to 20)
#    0.000    1.333    4.000    0.800    3.733    2.133 
#    0.000    0.000    0.000    0.000    0.000    0.000 
#    0.000    0.000    0.000    0.000    0.000    0.000 
#
# Total GULP energy -83660.240619 kJ/mol
# GULP energy per Si atom -5577.349375 kJ/mol
# Density = 2.082152 g / cm^3
# Si number density = 20.869021 Si / 1000 Ang^3
#
#
#
# Elastic Constant Matrix: (Units=GPa)
#
#
# Indices 1 2 3 4 5 6 
#
# 1 34.5690 19.5474 6.3390 -0.0005 -0.6217 0.0002
# 2 19.5474 122.3387 38.8376 -0.0024 -5.4442 0.0006
# 3 6.3390 38.8376 101.7482 -0.0051 -11.4939 0.0010
# 4 -0.0005 -0.0024 -0.0051 118.9400 -0.0018 -42.0428
# 5 -0.6217 -5.4442 -11.4939 -0.0018 19.0656 0.0004
# 6 0.0002 0.0006 0.0010 -42.0428 0.0004 45.4738
#
#
#
# Elastic Compliance Matrix: (Units=1/GPa)
#
#
# Indices 1 2 3 4 5 6 
#
# 1 0.031805 -0.005071 -0.000099 0.000000 -0.000471 0.000000
# 2 -0.005071 0.010115 -0.003474 0.000000 0.000629 0.000000
# 3 -0.000099 -0.003474 0.011855 0.000001 0.006152 0.000000
# 4 0.000000 0.000000 0.000001 0.012489 0.000001 0.011547
# 5 -0.000471 0.000629 0.006152 0.000001 0.056323 0.000001
# 6 0.000000 0.000000 0.000000 0.011547 0.000001 0.032666
#
#
# Mechanical properties :
#
#
# Convention : Reuss Voigt Hill
#
# Bulk Modulus (GPa) = 27.40708 43.12266 35.26487
# Shear Modulus (GPa) = 27.07015 49.62467 38.34741
#
# Velocity S-wave (km/s) = 3.60550 4.88167 4.29129
# Velocity P-wave (km/s) = 5.52216 7.24449 6.44115
#
# Compressibility (1/GPa) = 0.03648692
#
# Stress axis : x y z
#
# Youngs Moduli (GPa) = 31.44161 98.86136 84.35023
#
# Poissons Ratio (x) = 0.50136 0.00834
# Poissons Ratio (y) = 0.15945 0.29303
# Poissons Ratio (z) = 0.00311 0.34345
#
# Static dielectric constant tensor:
#      x y z
#    x 1.584620 0.000000 -0.034430 
#    y 0.000000 1.780940 0.000000 
#    z -0.034430 0.000000 1.714350 
# 
# From -- ./inp_files/61621.got.cif
#   From: 2010.05.17/outbox.cif.g08.bks.cpg/sg5_31_cif.got.tgz:61621.got - 2010.06.03 18:56:24.
