data_PCOD9125766
_publ_section_title
;
Structure prediction by ZEFSAII (Michael W. Deem and Ramdas Pophale) SiO2 
 PCOD9125766
Probable space group: C 2
;
_chemical_formula_sum "Si O2"
_cell_formula_units_Z 24
_cell_length_a 9.246826
_cell_length_b 18.033529
_cell_length_c 14.265610
_cell_angle_alpha 90.000000
_cell_angle_beta 28.817270
_cell_angle_gamma 90.000000
_cell_volume 1146.639292
_symmetry_space_group_name_H-M "C 2"
_symmetry_group_IT_number 5
_symmetry_cell_setting 'monoclinic'
loop_
_space_group_symop_operation_xyz
x,y,z
-x,y,-z
1/2+x,1/2+y,z
1/2-x,1/2+y,-z
loop_
_atom_site_type_symbol
_atom_site_label
_atom_site_fract_x
_atom_site_fract_y
_atom_site_fract_z
Si Si1 0.334791 0.523300 0.349834
Si Si2 0.937804 0.306731 0.638355
Si Si3 0.245552 0.549249 0.063853
Si Si4 0.703882 0.695482 0.610176
Si Si5 0.598222 0.194415 0.044789
Si Si6 0.272163 0.932445 0.411775
O O1 0.331257 0.608178 0.387967
O O2 0.381352 0.468496 0.409220
O O3 0.000000 0.510643 0.500000
O O4 0.577077 0.520142 0.128999
O O5 0.621224 0.263811 0.817047
O O6 0.000000 0.336305 0.500000
O O7 0.171593 0.241957 0.534240
O O8 0.001294 0.369578 0.678718
O O9 0.111360 0.630087 0.114076
O O10 0.979983 0.494817 0.245575
O O11 0.500000 0.555630 0.000000
O O12 0.000000 0.707754 0.500000
O O13 0.434015 0.719702 0.831982
O O14 0.500000 0.159572 0.000000
O O15 0.000000 0.906360 0.500000
#
# Coordination Sequence:
#
# PCOD9125766 Si02
#       6
#     4   4   4   4   4   4
#     4  10  21  43  69 107 138 180 236 294 340 428
#     4  11  25  43  65  96 143 190 235 282 357 419
#     4  11  24  41  74 106 142 181 234 298 357 407
#     4   9  20  40  70  96 138 174 232 294 344 404
#     4   9  22  42  67 102 135 181 240 285 340 420
#     4  12  28  44  69 102 147 188 239 286 364 415
#
# _framework density 20.930731999999999
#
# number of rings (size 3 to 8) (size 9 to 14) (size 15 to 20)
#    0.000    1.667    1.667    1.000    9.333    2.000 
#    0.000    0.000    3.667    0.000    0.000    0.000 
#    0.000    0.000    0.000    0.000    0.000    0.000 
#
# Total GULP energy -67012.886105 kJ/mol
# GULP energy per Si atom -5584.407175 kJ/mol
# Density = 2.088309 g / cm^3
# Si number density = 20.930732 Si / 1000 Ang^3
#
#
#
# Elastic Constant Matrix: (Units=GPa)
#
#
# Indices 1 2 3 4 5 6 
#
# 1 73.7588 46.2881 42.0789 -0.0994 -3.6548 0.0435
# 2 46.2881 102.0087 48.2151 -0.0270 3.2238 0.0416
# 3 42.0789 48.2151 90.9140 0.1380 -14.8367 0.1559
# 4 -0.0994 -0.0270 0.1380 16.4581 -0.0277 -1.1642
# 5 -3.6548 3.2238 -14.8367 -0.0277 37.2947 -0.0930
# 6 0.0435 0.0416 0.1559 -1.1642 -0.0930 46.0033
#
#
#
# Elastic Compliance Matrix: (Units=1/GPa)
#
#
# Indices 1 2 3 4 5 6 
#
# 1 0.021385 -0.006731 -0.006300 0.000172 0.000171 0.000012
# 2 -0.006731 0.015834 -0.006003 0.000029 -0.004416 0.000004
# 3 -0.006300 -0.006003 0.018269 -0.000192 0.007169 -0.000041
# 4 0.000172 0.000029 -0.000192 0.060872 -0.000013 0.001541
# 5 0.000171 -0.004416 0.007169 -0.000013 0.030064 0.000040
# 6 0.000012 0.000004 -0.000041 0.001541 0.000040 0.021777
#
#
# Mechanical properties :
#
#
# Convention : Reuss Voigt Hill
#
# Bulk Modulus (GPa) = 57.40602 59.98286 58.69444
# Shear Modulus (GPa) = 23.57629 28.62450 26.10040
#
# Velocity S-wave (km/s) = 3.35982 3.70210 3.53510
# Velocity P-wave (km/s) = 6.52207 6.85522 6.69072
#
# Compressibility (1/GPa) = 0.01741978
#
# Stress axis : x y z
#
# Youngs Moduli (GPa) = 46.76167 63.15382 54.73644
#
# Poissons Ratio (x) = 0.42510 0.34486
# Poissons Ratio (y) = 0.31476 0.32857
# Poissons Ratio (z) = 0.29462 0.37910
#
# Static dielectric constant tensor:
#      x y z
#    x 1.804280 -0.000030 -0.001030 
#    y -0.000030 1.779520 -0.000040 
#    z -0.001030 -0.000040 1.763700 
# 
# From -- ./inp_files/16867.got.cif
#   From: 2010.05.17/outbox.cif.g08.bks.cpg/sg5_9_cif.got.tgz:16867.got - 2010.06.03 18:56:24.
