data_PCOD9125437
_publ_section_title
;
Structure prediction by ZEFSAII (Michael W. Deem and Ramdas Pophale) SiO2 
 PCOD9125437
Probable space group: C 2
;
_chemical_formula_sum "Si O2"
_cell_formula_units_Z 20
_cell_length_a 18.021085
_cell_length_b 6.831884
_cell_length_c 12.295907
_cell_angle_alpha 90.000000
_cell_angle_beta 29.719435
_cell_angle_gamma 90.000000
_cell_volume 750.494629
_symmetry_space_group_name_H-M "C 2"
_symmetry_group_IT_number 5
_symmetry_cell_setting 'monoclinic'
loop_
_space_group_symop_operation_xyz
x,y,z
-x,y,-z
1/2+x,1/2+y,z
1/2-x,1/2+y,-z
loop_
_atom_site_type_symbol
_atom_site_label
_atom_site_fract_x
_atom_site_fract_y
_atom_site_fract_z
Si Si1 0.939659 0.683070 0.190145
Si Si2 0.140732 0.556353 0.383072
Si Si3 0.844049 0.866159 0.936433
Si Si4 0.839791 0.130005 0.315760
Si Si5 0.039659 0.265717 0.229669
O O1 0.908005 0.915919 0.211087
O O2 0.781322 0.608838 0.433840
O O3 0.060026 0.688355 0.135766
O O4 0.000000 0.605625 0.000000
O O5 0.243749 0.683092 0.332131
O O6 0.000000 0.652875 0.500000
O O7 0.061184 0.387884 0.558404
O O8 0.250255 0.452682 0.157871
O O9 0.953894 0.033109 0.752263
O O10 0.714759 0.816511 0.016153
O O11 0.967179 0.269804 0.202023
#
# Coordination Sequence:
#
# PCOD9125437 Si02
#       5
#     4   4   4   4   4
#     4  11  22  40  64  93 128 173 212 260 328 377
#     4  10  21  41  66  90 133 169 209 266 319 379
#     4  10  22  39  68  89 128 173 213 262 324 379
#     4  11  21  40  67  95 129 171 215 266 318 389
#     4  10  22  38  66  97 124 169 221 260 317 386
#
# _framework density 26.649090000000001
#
# number of rings (size 3 to 8) (size 9 to 14) (size 15 to 20)
#    0.000    1.600    4.000    0.000    5.600    0.000 
#    0.000    3.000   26.400    0.000    0.000    0.000 
#    0.000    0.000    0.000    0.000    0.000    0.000 
#
# Total GULP energy -56009.830309 kJ/mol
# GULP energy per Si atom -5600.983031 kJ/mol
# Density = 2.658844 g / cm^3
# Si number density = 26.649090 Si / 1000 Ang^3
#
#
#
# Elastic Constant Matrix: (Units=GPa)
#
#
# Indices 1 2 3 4 5 6 
#
# 1 234.5319 43.5573 49.6061 -0.0001 -47.3554 0.0000
# 2 43.5573 57.2058 35.1622 -0.0017 6.3961 0.0011
# 3 49.6061 35.1622 158.0958 -0.0005 0.2740 0.0004
# 4 -0.0001 -0.0017 -0.0005 43.4484 0.0002 -18.6659
# 5 -47.3554 6.3961 0.2740 0.0002 49.3544 0.0000
# 6 0.0000 0.0011 0.0004 -18.6659 0.0000 38.3221
#
#
#
# Elastic Compliance Matrix: (Units=1/GPa)
#
#
# Indices 1 2 3 4 5 6 
#
# 1 0.007009 -0.005572 -0.000973 0.000000 0.007453 0.000000
# 2 -0.005572 0.025018 -0.003801 0.000001 -0.008568 0.000000
# 3 -0.000973 -0.003801 0.007477 0.000000 -0.000482 0.000000
# 4 0.000000 0.000001 0.000000 0.029106 0.000000 0.014177
# 5 0.007453 -0.008568 -0.000482 0.000000 0.028526 0.000000
# 6 0.000000 0.000000 0.000000 0.014177 0.000000 0.033000
#
#
# Mechanical properties :
#
#
# Convention : Reuss Voigt Hill
#
# Bulk Modulus (GPa) = 53.15871 78.49830 65.82851
# Shear Modulus (GPa) = 31.82706 47.65883 39.74294
#
# Velocity S-wave (km/s) = 3.45962 4.23352 3.86598
# Velocity P-wave (km/s) = 5.99580 7.30870 6.68456
#
# Compressibility (1/GPa) = 0.01881159
#
# Stress axis : x y z
#
# Youngs Moduli (GPa) = 142.66651 39.97149 133.74779
#
# Poissons Ratio (x) = 0.22273 0.13013
# Poissons Ratio (y) = 0.79498 0.50837
# Poissons Ratio (z) = 0.13880 0.15193
#
# Static dielectric constant tensor:
#      x y z
#    x 2.156490 0.000000 -0.027610 
#    y 0.000000 2.164060 0.000000 
#    z -0.027610 0.000000 1.977630 
# 
# From -- ./inp_files/38239.got.cif
#   From: 2010.05.17/outbox.cif.g08.bks.cpg/sg5_20_cif.got.tgz:38239.got - 2010.06.03 18:56:24.
