data_PCOD9125071
_publ_section_title
;
Structure prediction by ZEFSAII (Michael W. Deem and Ramdas Pophale) SiO2 
 PCOD9125071
Probable space group: C 2
;
_chemical_formula_sum "Si O2"
_cell_formula_units_Z 20
_cell_length_a 8.861179
_cell_length_b 19.334567
_cell_length_c 5.172144
_cell_angle_alpha 90.000000
_cell_angle_beta 97.461594
_cell_angle_gamma 90.000000
_cell_volume 878.624604
_symmetry_space_group_name_H-M "C 2"
_symmetry_group_IT_number 5
_symmetry_cell_setting 'monoclinic'
loop_
_space_group_symop_operation_xyz
x,y,z
-x,y,-z
1/2+x,1/2+y,z
1/2-x,1/2+y,-z
loop_
_atom_site_type_symbol
_atom_site_label
_atom_site_fract_x
_atom_site_fract_y
_atom_site_fract_z
Si Si1 0.666489 0.886680 0.447362
Si Si2 0.102687 0.971968 0.270150
Si Si3 0.184019 0.748807 0.565299
Si Si4 0.682189 0.171523 0.061041
Si Si5 0.658617 0.041635 0.391972
O O1 0.500000 0.865995 0.500000
O O2 0.775461 0.909679 0.710665
O O3 0.750700 0.822866 0.338738
O O4 0.648631 0.961131 0.299145
O O5 0.000000 0.958223 0.500000
O O6 0.206606 0.037323 0.368641
O O7 0.000000 0.979112 0.000000
O O8 0.000000 0.752399 0.500000
O O9 0.764698 0.693519 0.208892
O O10 0.239783 0.723252 0.297357
O O11 0.300695 0.094495 0.822954
O O12 0.500000 0.180611 0.000000
O O13 0.500000 0.059866 0.500000
#
# Coordination Sequence:
#
# PCOD9125071 Si02
#       5
#     4   4   4   4   4
#     4   9  21  43  67 105 141 176 222 287 352 404
#     4  10  22  39  63  99 139 175 219 274 344 408
#     4  10  21  39  66  97 133 182 227 274 330 408
#     4  10  21  39  66  97 132 179 230 273 328 402
#     4   9  20  42  68 104 140 174 230 286 342 402
#
# _framework density 22.76285
#
# number of rings (size 3 to 8) (size 9 to 14) (size 15 to 20)
#    1.200    1.200    0.000    2.400    0.000    7.200 
#    0.000    5.000    0.000    4.800    0.000    0.000 
#    0.000    0.000    0.000    0.000    0.000    0.000 
#
# Total GULP energy -55774.949352 kJ/mol
# GULP energy per Si atom -5577.494935 kJ/mol
# Density = 2.271104 g / cm^3
# Si number density = 22.762850 Si / 1000 Ang^3
#
#
#
# Elastic Constant Matrix: (Units=GPa)
#
#
# Indices 1 2 3 4 5 6 
#
# 1 76.5984 23.2818 58.7989 0.0000 16.1637 0.0000
# 2 23.2818 142.2662 44.2371 0.0000 -7.3035 0.0000
# 3 58.7989 44.2371 150.5309 0.0000 6.3047 0.0000
# 4 0.0000 0.0000 0.0000 22.2966 0.0000 3.3947
# 5 16.1637 -7.3035 6.3047 0.0000 18.5341 0.0000
# 6 0.0000 0.0000 0.0000 3.3947 0.0000 0.6171
#
#
#
# Elastic Compliance Matrix: (Units=1/GPa)
#
#
# Indices 1 2 3 4 5 6 
#
# 1 0.023794 -0.002456 -0.007773 0.000000 -0.019074 0.000000
# 2 -0.002456 0.008274 -0.001723 0.000000 0.005988 0.000000
# 3 -0.007773 -0.001723 0.010074 0.000000 0.002673 0.000000
# 4 0.000000 0.000000 0.000000 0.275989 0.000000 -1.518122
# 5 -0.019074 0.005988 0.002673 0.000000 0.072040 0.000000
# 6 0.000000 0.000000 0.000000 -1.518122 0.000000 9.971029
#
#
# Mechanical properties :
#
#
# Convention : Reuss Voigt Hill
#
# Bulk Modulus (GPa) = 54.83375 69.11455 61.97415
# Shear Modulus (GPa) = 0.48118 24.49473 12.48796
#
# Velocity S-wave (km/s) = 0.46027 3.28393 2.34479
# Velocity P-wave (km/s) = 4.94205 6.69386 5.88352
#
# Compressibility (1/GPa) = 0.01823694
#
# Stress axis : x y z
#
# Youngs Moduli (GPa) = 42.02804 120.85763 99.26616
#
# Poissons Ratio (x) = 0.29681 0.77164
# Poissons Ratio (y) = 0.10322 0.17104
# Poissons Ratio (z) = 0.32670 0.20825
#
# Static dielectric constant tensor:
#      x y z
#    x 1.880420 0.000000 -0.019450 
#    y 0.000000 1.895400 0.000000 
#    z -0.019450 0.000000 1.862020 
# 
# From -- ./inp_files/3274.got.cif
#   From: 2010.05.17/outbox.cif.g08.bks.cpg/sg5_2_cif.got.tgz:3274.got - 2010.06.03 18:56:24.
