data_PCOD9125270
_publ_section_title
;
Structure prediction by ZEFSAII (Michael W. Deem and Ramdas Pophale) SiO2 
 PCOD9125270
Probable space group: C 2
;
_chemical_formula_sum "Si O2"
_cell_formula_units_Z 26
_cell_length_a 18.578209
_cell_length_b 5.246431
_cell_length_c 11.914451
_cell_angle_alpha 90.000000
_cell_angle_beta 114.673251
_cell_angle_gamma 90.000000
_cell_volume 1055.270712
_symmetry_space_group_name_H-M "C 2"
_symmetry_group_IT_number 5
_symmetry_cell_setting 'monoclinic'
loop_
_space_group_symop_operation_xyz
x,y,z
-x,y,-z
1/2+x,1/2+y,z
1/2-x,1/2+y,-z
loop_
_atom_site_type_symbol
_atom_site_label
_atom_site_fract_x
_atom_site_fract_y
_atom_site_fract_z
Si Si1 0.000000 0.838780 0.000000
Si Si2 0.784681 0.240417 0.175875
Si Si3 0.081631 0.629622 0.721265
Si Si4 0.676020 0.564361 0.375022
Si Si5 0.580066 0.063555 0.257816
Si Si6 0.318409 0.370692 0.382060
Si Si7 0.855660 0.964711 0.028350
O O1 0.956299 0.653200 0.883985
O O2 0.060449 0.017361 0.972181
O O3 0.862705 0.387700 0.266310
O O4 0.773358 0.001632 0.248762
O O5 0.808541 0.178840 0.063320
O O6 0.701973 0.379422 0.108307
O O7 0.992203 0.576901 0.699019
O O8 0.098384 0.795538 0.621121
O O9 0.121927 0.764830 0.857389
O O10 0.643636 0.284417 0.326060
O O11 0.674944 0.560898 0.509595
O O12 0.618878 0.785646 0.290495
O O13 0.763402 0.638001 0.388592
#
# Coordination Sequence:
#
# PCOD9125270 Si02
#       7
#     2   4   4   4   4   4   4
#     4  10  24  44  72 112 150 196 242 316 372 462
#     4  11  22  42  72 105 144 201 244 315 369 464
#     4  10  25  46  68 106 148 195 249 310 371 460
#     4  12  28  51  75 110 148 200 250 323 371 446
#     4  11  28  50  75 111 156 193 252 306 390 447
#     4  11  28  46  76 104 146 196 262 311 376 448
#     4  10  21  40  67 104 144 191 246 299 383 434
#
# _framework density 24.638224999999998
#
# number of rings (size 3 to 8) (size 9 to 14) (size 15 to 20)
#    0.000    1.231    1.538    1.846   15.077    1.231 
#    2.769    0.000    0.000    0.000    0.000    0.000 
#    0.000    0.000    0.000    0.000    0.000    0.000 
#
# Total GULP energy -72731.280336 kJ/mol
# GULP energy per Si atom -5594.713872 kJ/mol
# Density = 2.458215 g / cm^3
# Si number density = 24.638225 Si / 1000 Ang^3
#
#
#
# Elastic Constant Matrix: (Units=GPa)
#
#
# Indices 1 2 3 4 5 6 
#
# 1 119.0360 19.2690 23.7350 0.0000 -21.3535 0.0000
# 2 19.2690 39.5789 -6.2803 0.0000 1.3495 0.0000
# 3 23.7350 -6.2803 88.0618 0.0000 -13.9053 0.0000
# 4 0.0000 0.0000 0.0000 33.9468 0.0000 -3.7352
# 5 -21.3535 1.3495 -13.9053 0.0000 38.2384 0.0000
# 6 0.0000 0.0000 0.0000 -3.7352 0.0000 35.2410
#
#
#
# Elastic Compliance Matrix: (Units=1/GPa)
#
#
# Indices 1 2 3 4 5 6 
#
# 1 0.010797 -0.005832 -0.002484 0.000000 0.005332 0.000000
# 2 -0.005832 0.028708 0.003124 0.000000 -0.003134 0.000000
# 3 -0.002484 0.003124 0.012743 0.000000 0.003137 0.000000
# 4 0.000000 0.000000 0.000000 0.029805 0.000000 0.003159
# 5 0.005332 -0.003134 0.003137 0.000000 0.030380 0.000000
# 6 0.000000 0.000000 0.000000 0.003159 0.000000 0.028711
#
#
# Mechanical properties :
#
#
# Convention : Reuss Voigt Hill
#
# Bulk Modulus (GPa) = 23.88671 35.56935 29.72803
# Shear Modulus (GPa) = 30.21455 35.48211 32.84833
#
# Velocity S-wave (km/s) = 3.50570 3.79901 3.65530
# Velocity P-wave (km/s) = 5.10907 5.80615 5.46872
#
# Compressibility (1/GPa) = 0.04186429
#
# Stress axis : x y z
#
# Youngs Moduli (GPa) = 92.62121 34.83340 78.47267
#
# Poissons Ratio (x) = 0.20316 0.19493
# Poissons Ratio (y) = 0.54019 -0.24519
# Poissons Ratio (z) = 0.23007 -0.10884
#
# Static dielectric constant tensor:
#      x y z
#    x 1.914090 0.000000 -0.014480 
#    y 0.000000 1.993690 0.000000 
#    z -0.014480 0.000000 1.954920 
# 
# From -- ./inp_files/45492.got.cif
#   From: 2010.05.17/outbox.cif.g08.bks.cpg/sg5_23_cif.got.tgz:45492.got - 2010.06.03 18:56:24.
