data_PCOD9125762
_publ_section_title
;
Structure prediction by ZEFSAII (Michael W. Deem and Ramdas Pophale) SiO2 
 PCOD9125762
Probable space group: C 2
;
_chemical_formula_sum "Si O2"
_cell_formula_units_Z 26
_cell_length_a 14.100892
_cell_length_b 16.252028
_cell_length_c 7.928999
_cell_angle_alpha 90.000000
_cell_angle_beta 41.937556
_cell_angle_gamma 90.000000
_cell_volume 1214.387135
_symmetry_space_group_name_H-M "C 2"
_symmetry_group_IT_number 5
_symmetry_cell_setting 'monoclinic'
loop_
_space_group_symop_operation_xyz
x,y,z
-x,y,-z
1/2+x,1/2+y,z
1/2-x,1/2+y,-z
loop_
_atom_site_type_symbol
_atom_site_label
_atom_site_fract_x
_atom_site_fract_y
_atom_site_fract_z
Si Si1 0.140122 0.545630 0.629792
Si Si2 0.483566 0.431424 0.331971
Si Si3 0.812460 0.367130 0.414623
Si Si4 0.361263 0.297900 0.061319
Si Si5 0.852069 0.075262 0.038213
Si Si6 0.000000 0.227156 0.000000
Si Si7 0.169595 0.611665 0.957875
O O1 0.095506 0.449868 0.697674
O O2 0.251394 0.558606 0.332376
O O3 0.200351 0.573690 0.732300
O O4 0.997639 0.597116 0.789197
O O5 0.500000 0.460265 0.500000
O O6 0.327381 0.397339 0.500408
O O7 0.588872 0.355284 0.156507
O O8 0.531556 0.504156 0.143949
O O9 0.756737 0.343277 0.672585
O O10 0.887126 0.288458 0.234927
O O11 0.308418 0.209044 0.078982
O O12 0.500000 0.288150 0.000000
O O13 0.925060 0.163800 0.970299
O O14 0.758561 0.074927 0.992711
#
# Coordination Sequence:
#
# PCOD9125762 Si02
#       7
#     4   4   4   4   4   2   4
#     4  11  22  46  74 100 147 182 238 286 348 421
#     4  11  25  43  74  98 134 187 243 282 349 427
#     4  11  24  46  69  98 140 188 228 290 358 407
#     4  10  21  43  68  99 135 180 228 287 346 406
#     4  12  26  47  70 106 141 189 233 296 350 417
#     4  12  28  42  72 104 146 182 234 300 352 406
#     4  11  24  42  74 108 140 187 235 288 348 424
#
# _framework density 21.409976
#
# number of rings (size 3 to 8) (size 9 to 14) (size 15 to 20)
#    0.000    0.923    3.077    4.154    5.385    1.231 
#    0.000    0.000    0.000    0.000    0.000    0.000 
#    0.000    0.000    0.000    0.000    0.000    0.000 
#
# Total GULP energy -72737.552588 kJ/mol
# GULP energy per Si atom -5595.196353 kJ/mol
# Density = 2.136125 g / cm^3
# Si number density = 21.409976 Si / 1000 Ang^3
#
#
#
# Elastic Constant Matrix: (Units=GPa)
#
#
# Indices 1 2 3 4 5 6 
#
# 1 110.3662 14.8175 45.3698 0.0000 14.9850 0.0000
# 2 14.8175 130.1108 39.2952 0.0000 5.2374 0.0000
# 3 45.3698 39.2952 115.7893 0.0000 16.1603 0.0000
# 4 0.0000 0.0000 0.0000 43.6451 0.0000 -6.8222
# 5 14.9850 5.2374 16.1603 0.0000 21.6728 0.0000
# 6 0.0000 0.0000 0.0000 -6.8222 0.0000 34.1942
#
#
#
# Elastic Compliance Matrix: (Units=1/GPa)
#
#
# Indices 1 2 3 4 5 6 
#
# 1 0.011270 0.000045 -0.003730 0.000000 -0.005022 0.000000
# 2 0.000045 0.008564 -0.002936 0.000000 0.000089 0.000000
# 3 -0.003730 -0.002936 0.011871 0.000000 -0.005563 0.000000
# 4 0.000000 0.000000 0.000000 0.023650 0.000000 0.004718
# 5 -0.005022 0.000089 -0.005563 0.000000 0.053739 0.000000
# 6 0.000000 0.000000 0.000000 0.004718 0.000000 0.030186
#
#
# Mechanical properties :
#
#
# Convention : Reuss Voigt Hill
#
# Bulk Modulus (GPa) = 54.16621 61.69238 57.92929
# Shear Modulus (GPa) = 31.51057 37.02135 34.26596
#
# Velocity S-wave (km/s) = 3.84053 4.16283 4.00492
# Velocity P-wave (km/s) = 6.70974 7.20992 6.96432
#
# Compressibility (1/GPa) = 0.01846170
#
# Stress axis : x y z
#
# Youngs Moduli (GPa) = 88.73102 116.76966 84.23903
#
# Poissons Ratio (x) = -0.00529 0.31425
# Poissons Ratio (y) = -0.00402 0.24736
# Poissons Ratio (z) = 0.33101 0.34289
#
# Static dielectric constant tensor:
#      x y z
#    x 1.785610 0.000000 -0.032220 
#    y 0.000000 1.745380 0.000000 
#    z -0.032220 0.000000 1.746800 
# 
# From -- ./inp_files/24789.got.cif
#   From: 2010.05.17/outbox.cif.g08.bks.cpg/sg5_13_cif.got.tgz:24789.got - 2010.06.03 18:56:24.
