data_PCOD9125606
_publ_section_title
;
Structure prediction by ZEFSAII (Michael W. Deem and Ramdas Pophale) SiO2 
 PCOD9125606
Probable space group: C 2
;
_chemical_formula_sum "Si O2"
_cell_formula_units_Z 16
_cell_length_a 13.655074
_cell_length_b 5.298962
_cell_length_c 17.203140
_cell_angle_alpha 90.000000
_cell_angle_beta 148.289339
_cell_angle_gamma 90.000000
_cell_volume 654.293629
_symmetry_space_group_name_H-M "C 2"
_symmetry_group_IT_number 5
_symmetry_cell_setting 'monoclinic'
loop_
_space_group_symop_operation_xyz
x,y,z
-x,y,-z
1/2+x,1/2+y,z
1/2-x,1/2+y,-z
loop_
_atom_site_type_symbol
_atom_site_label
_atom_site_fract_x
_atom_site_fract_y
_atom_site_fract_z
Si Si1 0.672915 0.080320 0.985632
Si Si2 0.454857 0.942760 0.594555
Si Si3 0.420461 0.455085 0.290834
Si Si4 0.247670 0.248676 0.695586
O O1 0.461122 0.174925 0.838132
O O2 0.787667 0.334674 0.041079
O O3 0.741465 0.977610 0.115508
O O4 0.452860 0.211567 0.631981
O O5 0.453686 0.697090 0.647198
O O6 0.673408 0.942649 0.711003
O O7 0.330348 0.868582 0.436328
O O8 0.361571 0.506917 0.340762
#
# Coordination Sequence:
#
# PCOD9125606 Si02
#       4
#     4   4   4   4
#     4  12  27  43  62  99 146 181 215 269 341 406
#     4   9  21  37  75  96 123 161 239 278 324 373
#     4  10  21  42  66  99 127 173 226 273 328 391
#     4   9  23  40  72  97 129 171 226 277 331 390
#
# _framework density 24.453852000000001
#
# number of rings (size 3 to 8) (size 9 to 14) (size 15 to 20)
#    1.500    0.500    0.000    2.250   10.500    0.000 
#    4.500    5.000    0.000    0.000    0.000    0.000 
#    0.000    0.000    0.000    0.000    0.000    0.000 
#
# Total GULP energy -44537.803513 kJ/mol
# GULP energy per Si atom -5567.225439 kJ/mol
# Density = 2.439819 g / cm^3
# Si number density = 24.453852 Si / 1000 Ang^3
#
#
#
# Elastic Constant Matrix: (Units=GPa)
#
#
# Indices 1 2 3 4 5 6 
#
# 1 83.4666 27.3709 53.8455 0.0000 13.7268 0.0001
# 2 27.3709 194.7390 58.9653 0.0001 -4.1687 0.0009
# 3 53.8455 58.9653 185.4604 -0.0001 0.5096 0.0000
# 4 0.0000 0.0001 -0.0001 23.6997 0.0000 -29.9120
# 5 13.7268 -4.1687 0.5096 0.0000 31.3738 -0.0001
# 6 0.0001 0.0009 0.0000 -29.9120 -0.0001 -13.0276
#
#
#
# Elastic Compliance Matrix: (Units=1/GPa)
#
#
# Indices 1 2 3 4 5 6 
#
# 1 0.016362 -0.001131 -0.004371 0.000000 -0.007238 0.000000
# 2 -0.001131 0.005780 -0.001513 0.000000 0.001287 0.000000
# 3 -0.004371 -0.001513 0.007138 0.000000 0.001595 0.000000
# 4 0.000000 0.000000 0.000000 0.010825 0.000000 -0.024855
# 5 -0.007238 0.001287 0.001595 0.000000 0.035186 0.000000
# 6 0.000000 0.000000 0.000000 -0.024855 0.000000 -0.019693
#
#
# Mechanical properties :
#
#
# Convention : Reuss Voigt Hill
#
# Bulk Modulus (GPa) = 65.57560 82.66995 74.12277
# Shear Modulus (GPa) = 66.92583 29.97482 48.45032
#
# Velocity S-wave (km/s) = 5.23714 3.50490 4.45600
# Velocity P-wave (km/s) = 7.96520 7.08936 7.54001
#
# Compressibility (1/GPa) = 0.01524957
#
# Stress axis : x y z
#
# Youngs Moduli (GPa) = 61.11789 173.02059 140.10374
#
# Poissons Ratio (x) = 0.19571 0.61237
# Poissons Ratio (y) = 0.06913 0.21194
# Poissons Ratio (z) = 0.26714 0.26173
#
# Static dielectric constant tensor:
#      x y z
#    x 1.980300 0.000000 0.020540 
#    y 0.000000 2.122500 0.000000 
#    z 0.020540 0.000000 1.988390 
# 
# From -- ./inp_files/60947.got.cif
#   From: 2010.05.17/outbox.cif.g08.bks.cpg/sg5_31_cif.got.tgz:60947.got - 2010.06.03 18:56:24.
