data_PCOD9125828
_publ_section_title
;
Structure prediction by ZEFSAII (Michael W. Deem and Ramdas Pophale) SiO2 
 PCOD9125828
Probable space group: C 2
;
_chemical_formula_sum "Si O2"
_cell_formula_units_Z 26
_cell_length_a 16.092076
_cell_length_b 9.400546
_cell_length_c 21.015047
_cell_angle_alpha 90.000000
_cell_angle_beta 158.784414
_cell_angle_gamma 90.000000
_cell_volume 1150.423938
_symmetry_space_group_name_H-M "C 2"
_symmetry_group_IT_number 5
_symmetry_cell_setting 'monoclinic'
loop_
_space_group_symop_operation_xyz
x,y,z
-x,y,-z
1/2+x,1/2+y,z
1/2-x,1/2+y,-z
loop_
_atom_site_type_symbol
_atom_site_label
_atom_site_fract_x
_atom_site_fract_y
_atom_site_fract_z
Si Si1 0.347920 0.477560 0.606059
Si Si2 0.257810 0.114473 0.851467
Si Si3 0.291079 0.971505 0.633194
Si Si4 0.581938 0.749051 0.494296
Si Si5 0.235090 0.813973 0.020503
Si Si6 0.052401 0.094347 0.196215
Si Si7 0.500000 0.249000 0.500000
O O1 0.613845 0.481984 0.776213
O O2 0.220772 0.507166 0.449880
O O3 0.235193 0.342424 0.557206
O O4 0.345328 0.597500 0.658423
O O5 0.285203 0.230526 0.927154
O O6 0.117800 0.185558 0.693146
O O7 0.500000 0.065978 0.000000
O O8 0.233238 0.117197 0.627427
O O9 0.538304 0.910389 0.822295
O O10 0.100027 0.856906 0.517971
O O11 0.500000 0.826400 0.500000
O O12 0.320887 0.691646 0.031414
O O13 0.029487 0.930137 0.870283
O O14 0.274670 0.156541 0.317787
#
# Coordination Sequence:
#
# PCOD9125828 Si02
#       7
#     4   4   4   4   4   4   2
#     4  10  23  42  64  97 131 180 220 273 333 403
#     4  10  23  43  65  94 139 177 218 285 340 390
#     4  10  21  44  67  94 136 175 220 272 339 392
#     4  11  23  39  70 103 127 180 230 271 330 416
#     4  10  22  44  65  96 133 181 213 280 331 398
#     4  10  24  41  70  93 134 173 225 269 334 387
#     4  10  22  44  66 100 128 174 218 284 324 396
#
# _framework density 22.600363000000002
#
# number of rings (size 3 to 8) (size 9 to 14) (size 15 to 20)
#    0.000    1.846    2.308    0.000    7.538    1.231 
#    5.538    0.000    0.000    0.000    0.000    0.000 
#    0.000    0.000    0.000    0.000    0.000    0.000 
#
# Total GULP energy -72457.428217 kJ/mol
# GULP energy per Si atom -5573.648324 kJ/mol
# Density = 2.254892 g / cm^3
# Si number density = 22.600363 Si / 1000 Ang^3
#
#
#
# Elastic Constant Matrix: (Units=GPa)
#
#
# Indices 1 2 3 4 5 6 
#
# 1 91.3699 25.3607 32.4115 -0.0009 17.5986 -0.0009
# 2 25.3607 86.1289 20.9022 -0.0106 13.8943 -0.0010
# 3 32.4115 20.9022 60.1218 0.0004 27.7264 0.0003
# 4 -0.0009 -0.0106 0.0004 40.1405 0.0030 10.1589
# 5 17.5986 13.8943 27.7264 0.0030 40.9752 -0.0004
# 6 -0.0009 -0.0010 0.0003 10.1589 -0.0004 32.5285
#
#
#
# Elastic Compliance Matrix: (Units=1/GPa)
#
#
# Indices 1 2 3 4 5 6 
#
# 1 0.014035 -0.002457 -0.006274 0.000000 -0.000949 0.000000
# 2 -0.002457 0.013215 -0.002456 0.000004 -0.001764 -0.000001
# 3 -0.006274 -0.002456 0.027971 0.000000 -0.015399 -0.000001
# 4 0.000000 0.000004 0.000000 0.027051 -0.000003 -0.008448
# 5 -0.000949 -0.001764 -0.015399 -0.000003 0.035831 0.000002
# 6 0.000000 -0.000001 -0.000001 -0.008448 0.000002 0.033381
#
#
# Mechanical properties :
#
#
# Convention : Reuss Voigt Hill
#
# Bulk Modulus (GPa) = 30.44564 43.88548 37.16556
# Shear Modulus (GPa) = 27.05540 33.32528 30.19034
#
# Velocity S-wave (km/s) = 3.46370 3.84415 3.65887
# Velocity P-wave (km/s) = 5.43110 6.25807 5.85919
#
# Compressibility (1/GPa) = 0.03284542
#
# Stress axis : x y z
#
# Youngs Moduli (GPa) = 71.25083 75.67419 35.75131
#
# Poissons Ratio (x) = 0.18591 0.22431
# Poissons Ratio (y) = 0.17505 0.08782
# Poissons Ratio (z) = 0.44705 0.18589
#
# Static dielectric constant tensor:
#      x y z
#    x 1.876510 0.000000 0.002970 
#    y 0.000000 1.910060 0.000000 
#    z 0.002970 0.000000 1.898850 
# 
# From -- ./inp_files/69185.got.cif
#   From: 2010.05.17/outbox.cif.g08.bks.cpg/sg5_35_cif.got.tgz:69185.got - 2010.06.03 18:56:24.
