data_PCOD9125286
_publ_section_title
;
Structure prediction by ZEFSAII (Michael W. Deem and Ramdas Pophale) SiO2 
 PCOD9125286
Probable space group: C 2
;
_chemical_formula_sum "Si O2"
_cell_formula_units_Z 28
_cell_length_a 5.361116
_cell_length_b 15.341923
_cell_length_c 15.755304
_cell_angle_alpha 90.000000
_cell_angle_beta 64.175419
_cell_angle_gamma 90.000000
_cell_volume 1166.454963
_symmetry_space_group_name_H-M "C 2"
_symmetry_group_IT_number 5
_symmetry_cell_setting 'monoclinic'
loop_
_space_group_symop_operation_xyz
x,y,z
-x,y,-z
1/2+x,1/2+y,z
1/2-x,1/2+y,-z
loop_
_atom_site_type_symbol
_atom_site_label
_atom_site_fract_x
_atom_site_fract_y
_atom_site_fract_z
Si Si1 0.608746 0.798220 0.754294
Si Si2 0.971799 0.942535 0.748965
Si Si3 0.506421 0.047757 0.268048
Si Si4 0.312474 0.781921 0.451672
Si Si5 0.470625 0.355165 0.101828
Si Si6 0.286392 0.679250 0.108367
Si Si7 0.712016 0.088338 0.530801
O O1 0.906539 0.845795 0.722334
O O2 0.569297 0.787131 0.660505
O O3 0.352471 0.855833 0.825599
O O4 0.589763 0.716687 0.820969
O O5 0.879870 0.925339 0.860381
O O6 0.770255 0.001098 0.723184
O O7 0.269985 0.986401 0.716750
O O8 0.629248 0.095279 0.167407
O O9 0.416181 0.110532 0.358662
O O10 0.500000 0.818061 0.500000
O O11 0.284259 0.678494 0.473863
O O12 0.000000 0.817984 0.500000
O O13 0.594740 0.259066 0.103165
O O14 0.500000 0.374550 0.000000
O O15 0.500000 0.662091 0.000000
O O16 0.500000 0.041080 0.500000
O O17 0.000000 0.038779 0.500000
#
# Coordination Sequence:
#
# PCOD9125286 Si02
#       7
#     4   4   4   4   4   4   4
#     4  11  24  48  77 103 148 188 251 303 355 437
#     4  11  27  48  72 101 147 202 235 293 368 436
#     4  12  26  47  73 106 154 187 245 301 371 438
#     4  10  23  39  70 108 132 178 238 297 357 414
#     4  11  24  47  77 107 146 195 248 297 366 432
#     4  11  25  42  72 114 144 189 242 311 368 427
#     4  10  21  40  68 103 136 186 234 290 364 426
#
# _framework density 24.004355
#
# number of rings (size 3 to 8) (size 9 to 14) (size 15 to 20)
#    0.000    1.143    2.857    2.571   10.000    0.571 
#    2.571    2.857    0.000    0.000    0.000    0.000 
#    0.000    0.000    0.000    0.000    0.000    0.000 
#
# Total GULP energy -78172.014551 kJ/mol
# GULP energy per Si atom -5583.715325 kJ/mol
# Density = 2.394972 g / cm^3
# Si number density = 24.004355 Si / 1000 Ang^3
#
#
#
# Elastic Constant Matrix: (Units=GPa)
#
#
# Indices 1 2 3 4 5 6 
#
# 1 152.6151 -1.9669 42.2842 0.0000 20.3962 0.0000
# 2 -1.9669 30.2454 13.6971 0.0000 2.9028 0.0000
# 3 42.2842 13.6971 188.5227 0.0000 21.0844 0.0000
# 4 0.0000 0.0000 0.0000 -2.3604 0.0000 7.9977
# 5 20.3962 2.9028 21.0844 0.0000 38.5418 0.0000
# 6 0.0000 0.0000 0.0000 7.9977 0.0000 20.3079
#
#
#
# Elastic Compliance Matrix: (Units=1/GPa)
#
#
# Indices 1 2 3 4 5 6 
#
# 1 0.007393 0.001426 -0.001398 0.000000 -0.003255 0.000000
# 2 0.001426 0.034524 -0.002613 0.000000 -0.001926 0.000000
# 3 -0.001398 -0.002613 0.006075 0.000000 -0.002387 0.000000
# 4 0.000000 0.000000 0.000000 -0.181486 0.000000 0.071474
# 5 -0.003255 -0.001926 -0.002387 0.000000 0.029119 0.000000
# 6 0.000000 0.000000 0.000000 0.071474 0.000000 0.021094
#
#
# Mechanical properties :
#
#
# Convention : Reuss Voigt Hill
#
# Bulk Modulus (GPa) = 23.35213 53.26800 38.31006
# Shear Modulus (GPa) = -78.32312 32.45578 -22.93367
#
# Velocity S-wave (km/s) = -5.71835 3.68105 -3.09430
# Velocity P-wave (km/s) = 5.81807 6.34870 1.79667
#
# Compressibility (1/GPa) = 0.04282265
#
# Stress axis : x y z
#
# Youngs Moduli (GPa) = 135.26082 28.96563 164.61790
#
# Poissons Ratio (x) = -0.04131 0.23010
# Poissons Ratio (y) = -0.19291 0.43012
# Poissons Ratio (z) = 0.18907 0.07568
#
# Static dielectric constant tensor:
#      x y z
#    x 2.046160 0.000000 0.006500 
#    y 0.000000 1.977910 0.000000 
#    z 0.006500 0.000000 1.883900 
# 
# From -- ./inp_files/49176.got.cif
#   From: 2010.05.17/outbox.cif.g08.bks.cpg/sg5_25_cif.got.tgz:49176.got - 2010.06.03 18:56:24.
