data_PCOD9125959
_publ_section_title
;
Structure prediction by ZEFSAII (Michael W. Deem and Ramdas Pophale) SiO2 
 PCOD9125959
Probable space group: C 2
;
_chemical_formula_sum "Si O2"
_cell_formula_units_Z 30
_cell_length_a 11.291279
_cell_length_b 8.633638
_cell_length_c 27.594353
_cell_angle_alpha 90.000000
_cell_angle_beta 150.345968
_cell_angle_gamma 90.000000
_cell_volume 1330.923782
_symmetry_space_group_name_H-M "C 2"
_symmetry_group_IT_number 5
_symmetry_cell_setting 'monoclinic'
loop_
_space_group_symop_operation_xyz
x,y,z
-x,y,-z
1/2+x,1/2+y,z
1/2-x,1/2+y,-z
loop_
_atom_site_type_symbol
_atom_site_label
_atom_site_fract_x
_atom_site_fract_y
_atom_site_fract_z
Si Si1 0.020599 0.871250 0.349511
Si Si2 0.569823 0.541173 0.924369
Si Si3 0.337199 0.216071 0.185472
Si Si4 0.457441 0.208732 0.928036
Si Si5 0.260813 0.652114 0.616708
Si Si6 0.500000 0.693211 0.500000
Si Si7 0.721012 0.962934 0.332391
Si Si8 0.512474 0.530541 0.214442
O O1 0.283510 0.794160 0.445077
O O2 0.899499 0.789459 0.260329
O O3 0.858349 0.871170 0.339057
O O4 0.064692 0.051718 0.354348
O O5 0.435217 0.661278 0.911803
O O6 0.505933 0.367653 0.917296
O O7 0.463037 0.573162 0.832710
O O8 0.849453 0.581333 0.020782
O O9 0.418341 0.354433 0.179966
O O10 0.496324 0.062307 0.234657
O O11 0.194446 0.135114 0.834285
O O12 0.500000 0.240848 0.000000
O O13 0.344695 0.828036 0.653377
O O14 0.267929 0.557778 0.670729
O O15 0.000000 0.654463 0.500000
O O16 0.392048 0.584590 0.419930
#
# Coordination Sequence:
#
# PCOD9125959 Si02
#       8
#     4   4   4   4   4   2   4   4
#     4  10  23  40  59  83 124 166 207 269 319 365
#     4  11  22  42  69  97 133 170 208 265 328 385
#     4  10  23  40  60  94 126 162 214 260 312 388
#     4  10  23  41  66 100 130 167 212 263 323 394
#     4  11  22  41  63  92 125 173 223 265 316 382
#     4  10  22  36  54  84 112 152 218 262 310 372
#     4  11  23  38  59  87 119 164 215 267 316 371
#     4  10  23  42  64  93 135 170 215 268 322 380
#
# _framework density 22.540735999999999
#
# number of rings (size 3 to 8) (size 9 to 14) (size 15 to 20)
#    0.000    1.600    1.333    2.400    1.867    5.333 
#    0.000    2.667    0.000    0.000    0.000    0.000 
#    0.000    0.000    0.000    0.000    0.000    0.000 
#
# Total GULP energy -83838.798090 kJ/mol
# GULP energy per Si atom -5589.253206 kJ/mol
# Density = 2.248943 g / cm^3
# Si number density = 22.540736 Si / 1000 Ang^3
#
#
#
# Elastic Constant Matrix: (Units=GPa)
#
#
# Indices 1 2 3 4 5 6 
#
# 1 61.4698 30.3409 12.9709 0.0000 17.5993 0.0000
# 2 30.3409 123.7064 5.6808 0.0000 17.2291 0.0000
# 3 12.9709 5.6808 51.2460 0.0000 2.8024 0.0000
# 4 0.0000 0.0000 0.0000 24.8585 0.0000 1.4877
# 5 17.5993 17.2291 2.8024 0.0000 15.8478 0.0000
# 6 0.0000 0.0000 0.0000 1.4877 0.0000 38.3909
#
#
#
# Elastic Compliance Matrix: (Units=1/GPa)
#
#
# Indices 1 2 3 4 5 6 
#
# 1 0.025694 -0.002621 -0.004855 0.000000 -0.024826 0.000000
# 2 -0.002621 0.009806 0.000000 0.000000 -0.007749 0.000000
# 3 -0.004855 0.000000 0.020647 0.000000 0.001741 0.000000
# 4 0.000000 0.000000 0.000000 0.040321 0.000000 -0.001563
# 5 -0.024826 -0.007749 0.001741 0.000000 0.098787 0.000000
# 6 0.000000 0.000000 0.000000 -0.001563 0.000000 0.026108
#
#
# Mechanical properties :
#
#
# Convention : Reuss Voigt Hill
#
# Bulk Modulus (GPa) = 24.27488 37.15636 30.71562
# Shear Modulus (GPa) = 19.99605 28.31475 24.15540
#
# Velocity S-wave (km/s) = 2.98167 3.54808 3.27713
# Velocity P-wave (km/s) = 4.75883 5.77105 5.28921
#
# Compressibility (1/GPa) = 0.04119485
#
# Stress axis : x y z
#
# Youngs Moduli (GPa) = 38.91887 101.97958 48.43221
#
# Poissons Ratio (x) = 0.26733 0.23515
# Poissons Ratio (y) = 0.10202 -0.00001
# Poissons Ratio (z) = 0.18896 -0.00003
#
# Static dielectric constant tensor:
#      x y z
#    x 1.808300 0.000000 0.004500 
#    y 0.000000 1.828670 0.000000 
#    z 0.004500 0.000000 1.853600 
# 
# From -- ./inp_files/71711.got.cif
#   From: 2010.05.17/outbox.cif.g08.bks.cpg/sg5_36_cif.got.tgz:71711.got - 2010.06.03 18:56:24.
