data_PCOD9125744
_publ_section_title
;
Structure prediction by ZEFSAII (Michael W. Deem and Ramdas Pophale) SiO2 
 PCOD9125744
Probable space group: C 2
;
_chemical_formula_sum "Si O2"
_cell_formula_units_Z 30
_cell_length_a 10.595677
_cell_length_b 9.752536
_cell_length_c 13.916044
_cell_angle_alpha 90.000000
_cell_angle_beta 76.483522
_cell_angle_gamma 90.000000
_cell_volume 1398.181581
_symmetry_space_group_name_H-M "C 2"
_symmetry_group_IT_number 5
_symmetry_cell_setting 'monoclinic'
loop_
_space_group_symop_operation_xyz
x,y,z
-x,y,-z
1/2+x,1/2+y,z
1/2-x,1/2+y,-z
loop_
_atom_site_type_symbol
_atom_site_label
_atom_site_fract_x
_atom_site_fract_y
_atom_site_fract_z
Si Si1 0.828988 0.867790 0.671010
Si Si2 0.614837 0.532710 0.163826
Si Si3 0.814628 0.755794 0.177697
Si Si4 0.857377 0.427376 0.668047
Si Si5 0.659464 0.651343 0.448997
Si Si6 0.058733 0.668154 0.639784
Si Si7 0.000000 0.911911 0.000000
Si Si8 0.372703 0.636974 0.333605
O O1 0.698919 0.780705 0.675536
O O2 0.954078 0.777753 0.622802
O O3 0.849189 0.898788 0.780334
O O4 0.832778 0.013829 0.616835
O O5 0.739953 0.626555 0.150266
O O6 0.490929 0.600532 0.241553
O O7 0.580068 0.502091 0.061107
O O8 0.699929 0.862959 0.224277
O O9 0.887977 0.713044 0.263839
O O10 0.910370 0.820678 0.084454
O O11 0.872187 0.295576 0.597017
O O12 0.737842 0.521758 0.656026
O O13 0.983324 0.522912 0.654632
O O14 0.813583 0.667476 0.448132
O O15 0.585846 0.632331 0.562395
#
# Coordination Sequence:
#
# PCOD9125744 Si02
#       8
#     4   4   4   4   4   4   2   4
#     4  11  23  42  70  97 139 191 226 280 345 404
#     4  12  25  46  71 101 136 177 233 291 354 416
#     4  11  24  45  71  97 131 177 227 295 355 409
#     4  10  21  43  67  98 139 186 227 284 338 404
#     4  11  23  42  64 106 144 190 231 276 342 406
#     4  10  22  42  66  98 138 182 236 278 334 413
#     4  12  26  48  74 102 134 176 234 302 362 418
#     4  11  25  42  68 104 144 185 234 283 337 417
#
# _framework density 21.456441999999999
#
# number of rings (size 3 to 8) (size 9 to 14) (size 15 to 20)
#    0.000    1.067    5.333    1.600    1.867    5.867 
#    2.400    0.000    0.000    0.000    0.000    0.000 
#    0.000    0.000    0.000    0.000    0.000    0.000 
#
# Total GULP energy -83917.075998 kJ/mol
# GULP energy per Si atom -5594.471733 kJ/mol
# Density = 2.140761 g / cm^3
# Si number density = 21.456442 Si / 1000 Ang^3
#
#
#
# Elastic Constant Matrix: (Units=GPa)
#
#
# Indices 1 2 3 4 5 6 
#
# 1 48.3994 30.4810 19.3524 0.0000 9.7285 0.0000
# 2 30.4810 107.6215 7.2085 0.0000 8.8629 0.0000
# 3 19.3524 7.2085 65.6607 0.0000 20.5506 0.0000
# 4 0.0000 0.0000 0.0000-1458.8568 0.0000 400.9989
# 5 9.7285 8.8629 20.5506 0.0000 41.5352 0.0000
# 6 0.0000 0.0000 0.0000 400.9989 0.0000 -57.8241
#
#
#
# Elastic Compliance Matrix: (Units=1/GPa)
#
#
# Indices 1 2 3 4 5 6 
#
# 1 0.028520 -0.007473 -0.007092 0.000000 -0.001577 0.000000
# 2 -0.007473 0.011429 0.001376 0.000000 -0.001369 0.000000
# 3 -0.007092 0.001376 0.019808 0.000000 -0.008433 0.000000
# 4 0.000000 0.000000 0.000000 0.000756 0.000000 0.005246
# 5 -0.001577 -0.001369 -0.008433 0.000000 0.028910 0.000000
# 6 0.000000 0.000000 0.000000 0.005246 0.000000 0.019084
#
#
# Mechanical properties :
#
#
# Convention : Reuss Voigt Hill
#
# Bulk Modulus (GPa) = 29.95744 37.30726 33.63235
# Shear Modulus (GPa) = 34.24379 -284.05314 -124.90467
#
# Velocity S-wave (km/s) = 3.99929 -11.51839 -7.63803
# Velocity P-wave (km/s) = 5.94290 12.62825 7.87891
#
# Compressibility (1/GPa) = 0.03338069
#
# Stress axis : x y z
#
# Youngs Moduli (GPa) = 35.06284 87.49773 50.48362
#
# Poissons Ratio (x) = 0.65385 0.35803
# Poissons Ratio (y) = 0.26202 -0.06948
# Poissons Ratio (z) = 0.24867 -0.12043
#
# Static dielectric constant tensor:
#      x y z
#    x 1.939620 0.000000 -0.018430 
#    y 0.000000 1.802830 0.000000 
#    z -0.018430 0.000000 1.754590 
# 
# From -- ./inp_files/52438.got.cif
#   From: 2010.05.17/outbox.cif.g08.bks.cpg/sg5_27_cif.got.tgz:52438.got - 2010.06.03 18:56:24.
