data_PCOD9125257
_publ_section_title
;
Structure prediction by ZEFSAII (Michael W. Deem and Ramdas Pophale) SiO2 
 PCOD9125257
Probable space group: C 2
;
_chemical_formula_sum "Si O2"
_cell_formula_units_Z 24
_cell_length_a 16.003855
_cell_length_b 7.116095
_cell_length_c 15.015122
_cell_angle_alpha 90.000000
_cell_angle_beta 42.431963
_cell_angle_gamma 90.000000
_cell_volume 1153.758954
_symmetry_space_group_name_H-M "C 2"
_symmetry_group_IT_number 5
_symmetry_cell_setting 'monoclinic'
loop_
_space_group_symop_operation_xyz
x,y,z
-x,y,-z
1/2+x,1/2+y,z
1/2-x,1/2+y,-z
loop_
_atom_site_type_symbol
_atom_site_label
_atom_site_fract_x
_atom_site_fract_y
_atom_site_fract_z
Si Si1 0.684663 0.545480 0.702574
Si Si2 0.813968 0.706114 0.771146
Si Si3 0.484426 0.561435 0.614561
Si Si4 0.269305 0.368504 0.499684
Si Si5 0.996620 0.433770 0.723652
Si Si6 0.951572 0.262247 0.943807
O O1 0.775688 0.589480 0.712694
O O2 0.700370 0.359159 0.630651
O O3 0.717631 0.704536 0.603920
O O4 0.545326 0.589832 0.846137
O O5 0.871273 0.911837 0.706595
O O6 0.917606 0.595181 0.741974
O O7 0.690061 0.712757 0.927472
O O8 0.500000 0.622809 0.500000
O O9 0.610157 0.457206 0.548512
O O10 0.469402 0.740144 0.690954
O O11 0.139990 0.484667 0.601006
O O12 0.963767 0.401661 0.852029
O O13 0.000000 0.341107 0.000000
#
# Coordination Sequence:
#
# PCOD9125257 Si02
#       6
#     4   4   4   4   4   4
#     4  10  21  40  66  92 126 172 210 267 320 379
#     4  11  25  41  68  90 133 173 210 262 334 374
#     4  12  25  40  65  98 131 162 216 272 317 388
#     4  11  20  39  60  87 128 161 212 256 319 371
#     4  11  26  40  66  98 127 169 216 269 316 390
#     4   9  21  44  65  88 128 173 215 264 316 380
#
# _framework density 20.801573000000001
#
# number of rings (size 3 to 8) (size 9 to 14) (size 15 to 20)
#    0.000    1.333    5.000    1.000    4.667    0.000 
#    0.000    0.000    0.000    4.000    0.000    0.000 
#    0.000    0.000    0.000    0.000    0.000    0.000 
#
# Total GULP energy -66925.512190 kJ/mol
# GULP energy per Si atom -5577.126016 kJ/mol
# Density = 2.075423 g / cm^3
# Si number density = 20.801573 Si / 1000 Ang^3
#
#
#
# Elastic Constant Matrix: (Units=GPa)
#
#
# Indices 1 2 3 4 5 6 
#
# 1 84.7847 2.1319 57.3867 0.0000 11.1786 0.0000
# 2 2.1319 41.2354 23.1942 0.0000 6.5271 0.0000
# 3 57.3867 23.1942 123.4155 0.0000 14.5365 0.0000
# 4 0.0000 0.0000 0.0000 18.1255 0.0000 3.5809
# 5 11.1786 6.5271 14.5365 0.0000 44.2084 0.0000
# 6 0.0000 0.0000 0.0000 3.5809 0.0000 28.7784
#
#
#
# Elastic Compliance Matrix: (Units=1/GPa)
#
#
# Indices 1 2 3 4 5 6 
#
# 1 0.018050 0.004470 -0.008965 0.000000 -0.002276 0.000000
# 2 0.004470 0.028476 -0.007076 0.000000 -0.003008 0.000000
# 3 -0.008965 -0.007076 0.013743 0.000000 -0.001207 0.000000
# 4 0.000000 0.000000 0.000000 0.056561 0.000000 -0.007038
# 5 -0.002276 -0.003008 -0.001207 0.000000 0.024037 0.000000
# 6 0.000000 0.000000 0.000000 -0.007038 0.000000 0.035624
#
#
# Mechanical properties :
#
#
# Convention : Reuss Voigt Hill
#
# Bulk Modulus (GPa) = 26.93409 46.09567 36.51488
# Shear Modulus (GPa) = 23.58375 29.33729 26.46052
#
# Velocity S-wave (km/s) = 3.37077 3.75952 3.57044
# Velocity P-wave (km/s) = 5.30336 6.40727 5.88128
#
# Compressibility (1/GPa) = 0.03712768
#
# Stress axis : x y z
#
# Youngs Moduli (GPa) = 55.40043 35.11720 72.76216
#
# Poissons Ratio (x) = -0.15697 0.65232
# Poissons Ratio (y) = -0.24763 0.51485
# Poissons Ratio (z) = 0.49667 0.24848
#
# Static dielectric constant tensor:
#      x y z
#    x 1.759800 0.000000 -0.002060 
#    y 0.000000 1.906690 0.000000 
#    z -0.002060 0.000000 1.736380 
# 
# From -- ./inp_files/43918.got.cif
#   From: 2010.05.17/outbox.cif.g08.bks.cpg/sg5_22_cif.got.tgz:43918.got - 2010.06.03 18:56:24.
