data_PCOD9125046
_publ_section_title
;
Structure prediction by ZEFSAII (Michael W. Deem and Ramdas Pophale) SiO2 
 PCOD9125046
Probable space group: C 2
;
_chemical_formula_sum "Si O2"
_cell_formula_units_Z 32
_cell_length_a 19.831720
_cell_length_b 11.432913
_cell_length_c 10.440176
_cell_angle_alpha 90.000000
_cell_angle_beta 31.498765
_cell_angle_gamma 90.000000
_cell_volume 1236.787042
_symmetry_space_group_name_H-M "C 2"
_symmetry_group_IT_number 5
_symmetry_cell_setting 'monoclinic'
loop_
_space_group_symop_operation_xyz
x,y,z
-x,y,-z
1/2+x,1/2+y,z
1/2-x,1/2+y,-z
loop_
_atom_site_type_symbol
_atom_site_label
_atom_site_fract_x
_atom_site_fract_y
_atom_site_fract_z
Si Si1 0.290963 0.385330 0.883033
Si Si2 0.257714 0.824460 0.675689
Si Si3 0.595431 0.500876 0.053245
Si Si4 0.057338 0.610051 0.777413
Si Si5 0.393004 0.607870 0.565956
Si Si6 0.214931 0.719085 0.300721
Si Si7 0.349986 0.877225 0.263530
Si Si8 0.014880 0.466639 0.334245
O O1 0.332440 0.495798 0.731245
O O2 0.338399 0.264093 0.747090
O O3 0.355990 0.418482 0.910294
O O4 0.136928 0.382209 0.149948
O O5 0.128931 0.905097 0.889462
O O6 0.285514 0.705005 0.707073
O O7 0.290666 0.801932 0.474370
O O8 0.378886 0.904289 0.526945
O O9 0.689604 0.610695 0.873828
O O10 0.465900 0.561206 0.318532
O O11 0.118522 0.689754 0.570271
O O12 0.153072 0.511370 0.683726
O O13 0.963273 0.538057 0.833257
O O14 0.000000 0.664160 0.000000
O O15 0.500000 0.649794 0.500000
O O16 0.286216 0.834052 0.237948
O O17 0.500000 0.851523 0.000000
O O18 0.000000 0.524367 0.500000
#
# Coordination Sequence:
#
# PCOD9125046 Si02
#       8
#     4   4   4   4   4   4   4   4
#     4  11  24  40  67  99 134 185 218 288 379 420
#     4  11  21  41  70 100 131 185 236 290 360 432
#     4  11  23  44  67 103 138 177 236 295 356 437
#     4  10  22  42  62  97 139 176 235 287 340 435
#     4  10  24  42  63  98 144 179 228 292 358 434
#     4  12  23  44  70  95 142 178 229 306 353 426
#     4  10  21  39  65  95 127 177 235 285 351 428
#     4  11  19  39  67 103 131 171 241 289 347 433
#
# _framework density 25.873493
#
# number of rings (size 3 to 8) (size 9 to 14) (size 15 to 20)
#    0.000    1.250    3.750    4.125    3.500    2.000 
#    4.500    1.875    0.000    0.000    0.000    0.000 
#    0.000    0.000    0.000    0.000    0.000    0.000 
#
# Total GULP energy -89343.512741 kJ/mol
# GULP energy per Si atom -5583.969546 kJ/mol
# Density = 2.581460 g / cm^3
# Si number density = 25.873493 Si / 1000 Ang^3
#
#
#
# Elastic Constant Matrix: (Units=GPa)
#
#
# Indices 1 2 3 4 5 6 
#
# 1 67.1756 22.0204 12.0374 0.0000 20.0490 0.0000
# 2 22.0204 79.5673 23.0750 0.0000 4.9754 0.0000
# 3 12.0374 23.0750 104.1386 0.0000 34.0708 0.0000
# 4 0.0000 0.0000 0.0000 34.4779 0.0000 2.9516
# 5 20.0490 4.9754 34.0708 0.0000 42.9141 0.0000
# 6 0.0000 0.0000 0.0000 2.9516 0.0000 8.7371
#
#
#
# Elastic Compliance Matrix: (Units=1/GPa)
#
#
# Indices 1 2 3 4 5 6 
#
# 1 0.019281 -0.005365 0.002301 0.000000 -0.010213 0.000000
# 2 -0.005365 0.014962 -0.003982 0.000000 0.003933 0.000000
# 3 0.002301 -0.003982 0.014076 0.000000 -0.011789 0.000000
# 4 0.000000 0.000000 0.000000 0.029868 0.000000 -0.010090
# 5 -0.010213 0.003933 -0.011789 0.000000 0.036977 0.000000
# 6 0.000000 0.000000 0.000000 -0.010090 0.000000 0.117863
#
#
# Mechanical properties :
#
#
# Convention : Reuss Voigt Hill
#
# Bulk Modulus (GPa) = 29.21624 40.57189 34.89406
# Shear Modulus (GPa) = 19.34046 30.14241 24.74144
#
# Velocity S-wave (km/s) = 2.73701 3.41690 3.09568
# Velocity P-wave (km/s) = 4.61571 5.59302 5.12770
#
# Compressibility (1/GPa) = 0.03422754
#
# Stress axis : x y z
#
# Youngs Moduli (GPa) = 51.86540 66.83817 71.04433
#
# Poissons Ratio (x) = 0.35857 -0.16350
# Poissons Ratio (y) = 0.27825 0.28288
# Poissons Ratio (z) = -0.11936 0.26614
#
# Static dielectric constant tensor:
#      x y z
#    x 2.332950 0.000000 0.066400 
#    y 0.000000 2.056720 0.000000 
#    z 0.066400 0.000000 2.115070 
# 
# From -- ./inp_files/47491.got.cif
#   From: 2010.05.17/outbox.cif.g08.bks.cpg/sg5_24_cif.got.tgz:47491.got - 2010.06.03 18:56:24.
