data_PCOD9125131
_publ_section_title
;
Structure prediction by ZEFSAII (Michael W. Deem and Ramdas Pophale) SiO2 
 PCOD9125131
Probable space group: C 2
;
_chemical_formula_sum "Si O2"
_cell_formula_units_Z 30
_cell_length_a 15.189997
_cell_length_b 12.166735
_cell_length_c 7.397476
_cell_angle_alpha 90.000000
_cell_angle_beta 116.758659
_cell_angle_gamma 90.000000
_cell_volume 1220.740720
_symmetry_space_group_name_H-M "C 2"
_symmetry_group_IT_number 5
_symmetry_cell_setting 'monoclinic'
loop_
_space_group_symop_operation_xyz
x,y,z
-x,y,-z
1/2+x,1/2+y,z
1/2-x,1/2+y,-z
loop_
_atom_site_type_symbol
_atom_site_label
_atom_site_fract_x
_atom_site_fract_y
_atom_site_fract_z
Si Si1 0.032091 0.410150 0.239125
Si Si2 0.500000 0.513991 0.500000
Si Si3 0.261618 0.546349 0.771119
Si Si4 0.836899 0.336079 0.183273
Si Si5 0.295932 0.611842 0.211892
Si Si6 0.096108 0.881893 0.316422
Si Si7 0.921291 0.653578 0.585764
Si Si8 0.275100 0.891853 0.733381
O O1 0.037664 0.535342 0.310274
O O2 0.141562 0.361929 0.332501
O O3 0.954353 0.333325 0.268721
O O4 0.000000 0.412226 0.000000
O O5 0.401404 0.584162 0.395444
O O6 0.502534 0.441380 0.319318
O O7 0.183719 0.453201 0.752875
O O8 0.348585 0.472569 0.758369
O O9 0.192114 0.628910 0.590079
O O10 0.298097 0.595234 0.996059
O O11 0.781540 0.239391 0.233541
O O12 0.793039 0.337552 0.940924
O O13 0.220579 0.523552 0.223065
O O14 0.075681 0.752994 0.263656
O O15 0.169709 0.870638 0.555050
O O16 0.000000 0.685956 0.500000
#
# Coordination Sequence:
#
# PCOD9125131 Si02
#       8
#     4   2   4   4   4   4   4   4
#     4  10  21  40  60  93 128 162 211 262 310 387
#     4  10  24  46  60  88 136 166 212 266 316 394
#     4  11  24  41  67  99 125 164 227 265 301 404
#     4  10  21  40  64  96 129 167 207 269 322 370
#     4  10  23  43  65  90 127 174 211 263 326 367
#     4  11  23  42  64  92 126 174 211 262 324 371
#     4  12  23  42  67  95 134 166 207 266 328 375
#     4   9  20  41  62  88 132 164 213 256 313 387
#
# _framework density 24.575243
#
# number of rings (size 3 to 8) (size 9 to 14) (size 15 to 20)
#    0.000    1.600    3.333    0.800    1.867    1.600 
#   12.000    0.000    0.000    0.000    0.000    0.000 
#    0.000    0.000    0.000    0.000    0.000    0.000 
#
# Total GULP energy -83734.915415 kJ/mol
# GULP energy per Si atom -5582.327694 kJ/mol
# Density = 2.451931 g / cm^3
# Si number density = 24.575243 Si / 1000 Ang^3
#
#
#
# Elastic Constant Matrix: (Units=GPa)
#
#
# Indices 1 2 3 4 5 6 
#
# 1 79.1795 -9.5200 -14.4729 0.0000 -9.2642 0.0000
# 2 -9.5200 97.0052 2.5963 0.0000 -3.4096 0.0000
# 3 -14.4729 2.5963 83.5472 0.0000 -0.7794 0.0000
# 4 0.0000 0.0000 0.0000 23.8343 0.0000 -0.1232
# 5 -9.2642 -3.4096 -0.7794 0.0000 23.9290 0.0000
# 6 0.0000 0.0000 0.0000 -0.1232 0.0000 20.1600
#
#
#
# Elastic Compliance Matrix: (Units=1/GPa)
#
#
# Indices 1 2 3 4 5 6 
#
# 1 0.013916 0.001501 0.002417 0.000000 0.005680 0.000000
# 2 0.001501 0.010530 -0.000048 0.000000 0.002080 0.000000
# 3 0.002417 -0.000048 0.012402 0.000000 0.001333 0.000000
# 4 0.000000 0.000000 0.000000 0.041958 0.000000 0.000256
# 5 0.005680 0.002080 0.001333 0.000000 0.044329 0.000000
# 6 0.000000 0.000000 0.000000 0.000256 0.000000 0.049605
#
#
# Mechanical properties :
#
#
# Convention : Reuss Voigt Hill
#
# Bulk Modulus (GPa) = 22.42729 24.10430 23.26580
# Shear Modulus (GPa) = 27.79888 32.32656 30.06272
#
# Velocity S-wave (km/s) = 3.36694 3.63079 3.50135
# Velocity P-wave (km/s) = 4.92553 5.23513 5.08269
#
# Compressibility (1/GPa) = 0.04458854
#
# Stress axis : x y z
#
# Youngs Moduli (GPa) = 71.85774 94.96325 80.63268
#
# Poissons Ratio (x) = -0.14251 -0.19490
# Poissons Ratio (y) = -0.10784 0.00386
# Poissons Ratio (z) = -0.17369 0.00455
#
# Static dielectric constant tensor:
#      x y z
#    x 1.974730 0.000000 -0.003230 
#    y 0.000000 1.973270 0.000000 
#    z -0.003230 0.000000 1.997910 
# 
# From -- ./inp_files/23914.got.cif
#   From: 2010.05.17/outbox.cif.g08.bks.cpg/sg5_12_cif.got.tgz:23914.got - 2010.06.03 18:56:24.
