data_PCOD9125565
_publ_section_title
;
Structure prediction by ZEFSAII (Michael W. Deem and Ramdas Pophale) SiO2 
 PCOD9125565
Probable space group: C 2
;
_chemical_formula_sum "Si O2"
_cell_formula_units_Z 32
_cell_length_a 21.355208
_cell_length_b 9.383855
_cell_length_c 16.532444
_cell_angle_alpha 90.000000
_cell_angle_beta 26.339464
_cell_angle_gamma 90.000000
_cell_volume 1469.942647
_symmetry_space_group_name_H-M "C 2"
_symmetry_group_IT_number 5
_symmetry_cell_setting 'monoclinic'
loop_
_space_group_symop_operation_xyz
x,y,z
-x,y,-z
1/2+x,1/2+y,z
1/2-x,1/2+y,-z
loop_
_atom_site_type_symbol
_atom_site_label
_atom_site_fract_x
_atom_site_fract_y
_atom_site_fract_z
Si Si1 0.743225 0.211910 0.047266
Si Si2 0.857619 0.634462 0.210087
Si Si3 0.340898 0.426680 0.620298
Si Si4 0.055873 0.259108 0.700465
Si Si5 0.092690 0.311119 0.469451
Si Si6 0.817025 0.572176 0.427275
Si Si7 0.354952 0.505959 0.787369
Si Si8 0.448381 0.125534 0.448334
O O1 0.895597 0.230947 0.914519
O O2 0.680225 0.370656 0.115345
O O3 0.617905 0.130369 0.239755
O O4 0.776893 0.133939 0.923380
O O5 0.790934 0.476684 0.278973
O O6 0.744185 0.737450 0.299658
O O7 0.879547 0.658565 0.279156
O O8 0.000000 0.645420 0.000000
O O9 0.307179 0.472852 0.751062
O O10 0.388083 0.263941 0.562651
O O11 0.036817 0.284658 0.625572
O O12 0.136021 0.405623 0.633326
O O13 0.153430 0.122675 0.609072
O O14 0.101034 0.481079 0.453012
O O15 0.000000 0.261581 0.500000
O O16 0.024074 0.007074 0.576432
O O17 0.881228 0.625607 0.436676
#
# Coordination Sequence:
#
# PCOD9125565 Si02
#       8
#     4   4   4   4   4   4   4   4
#     4  11  23  39  65 103 128 169 228 276 328 393
#     4  11  25  40  65  97 130 177 227 274 333 393
#     4  10  23  41  65  97 133 175 212 275 344 390
#     4  10  22  40  66  93 127 175 220 269 329 391
#     4  10  23  41  64  91 132 171 211 267 343 402
#     4  10  21  42  64  90 133 179 221 269 333 411
#     4  10  22  40  65  96 138 165 220 274 334 398
#     4  10  23  43  68  95 131 177 219 276 343 401
#
# _framework density 21.769556999999999
#
# number of rings (size 3 to 8) (size 9 to 14) (size 15 to 20)
#    0.000    1.750    0.000    3.750   10.500    1.000 
#    0.000    4.375    0.000    0.000    0.000    0.000 
#    0.000    0.000    0.000    0.000    0.000    0.000 
#
# Total GULP energy -89264.461752 kJ/mol
# GULP energy per Si atom -5579.028860 kJ/mol
# Density = 2.172001 g / cm^3
# Si number density = 21.769557 Si / 1000 Ang^3
#
#
#
# Elastic Constant Matrix: (Units=GPa)
#
#
# Indices 1 2 3 4 5 6 
#
# 1 118.7237 49.2247 44.8826 0.0000 16.5757 0.0000
# 2 49.2247 131.1140 51.4492 0.0000 4.1203 0.0000
# 3 44.8826 51.4492 118.9612 0.0000 -5.1009 0.0000
# 4 0.0000 0.0000 0.0000 26.1361 0.0000 5.9813
# 5 16.5757 4.1203 -5.1009 0.0000 31.5069 0.0000
# 6 0.0000 0.0000 0.0000 5.9813 0.0000 23.4189
#
#
#
# Elastic Compliance Matrix: (Units=1/GPa)
#
#
# Indices 1 2 3 4 5 6 
#
# 1 0.011830 -0.002867 -0.003498 0.000000 -0.006415 0.000000
# 2 -0.002867 0.009990 -0.003253 0.000000 -0.000325 0.000000
# 3 -0.003498 -0.003253 0.011308 0.000000 0.004097 0.000000
# 4 0.000000 0.000000 0.000000 0.040636 0.000000 -0.010379
# 5 -0.006415 -0.000325 0.004097 0.000000 0.035820 0.000000
# 6 0.000000 0.000000 0.000000 -0.010379 0.000000 0.045351
#
#
# Mechanical properties :
#
#
# Convention : Reuss Voigt Hill
#
# Bulk Modulus (GPa) = 71.98423 73.32355 72.65389
# Shear Modulus (GPa) = 27.96383 31.09521 29.52952
#
# Velocity S-wave (km/s) = 3.58793 3.78349 3.68701
# Velocity P-wave (km/s) = 7.09243 7.26920 7.18136
#
# Compressibility (1/GPa) = 0.01389193
#
# Stress axis : x y z
#
# Youngs Moduli (GPa) = 84.53237 100.10121 88.42945
#
# Poissons Ratio (x) = 0.28698 0.30936
# Poissons Ratio (y) = 0.24235 0.28764
# Poissons Ratio (z) = 0.29573 0.32561
#
# Static dielectric constant tensor:
#      x y z
#    x 1.844270 0.000000 -0.005250 
#    y 0.000000 1.878800 0.000000 
#    z -0.005250 0.000000 1.789950 
# 
# From -- ./inp_files/57691.got.cif
#   From: 2010.05.17/outbox.cif.g08.bks.cpg/sg5_29_cif.got.tgz:57691.got - 2010.06.03 18:56:24.
