data_PCOD9125845
_publ_section_title
;
Structure prediction by ZEFSAII (Michael W. Deem and Ramdas Pophale) SiO2 
 PCOD9125845
Probable space group: C 2
;
_chemical_formula_sum "Si O2"
_cell_formula_units_Z 28
_cell_length_a 14.440047
_cell_length_b 5.086543
_cell_length_c 18.664309
_cell_angle_alpha 90.000000
_cell_angle_beta 126.148884
_cell_angle_gamma 90.000000
_cell_volume 1106.977327
_symmetry_space_group_name_H-M "C 2"
_symmetry_group_IT_number 5
_symmetry_cell_setting 'monoclinic'
loop_
_space_group_symop_operation_xyz
x,y,z
-x,y,-z
1/2+x,1/2+y,z
1/2-x,1/2+y,-z
loop_
_atom_site_type_symbol
_atom_site_label
_atom_site_fract_x
_atom_site_fract_y
_atom_site_fract_z
Si Si1 0.000000 0.334600 0.500000
Si Si2 0.850021 0.988861 0.715285
Si Si3 0.000000 0.079809 0.000000
Si Si4 0.581113 0.580793 0.680690
Si Si5 0.498348 0.077722 0.280951
Si Si6 0.512295 0.864307 0.864923
Si Si7 0.211783 0.644106 0.526509
Si Si8 0.814853 0.740396 0.834010
O O1 0.069711 0.156382 0.591038
O O2 0.092163 0.514461 0.498866
O O3 0.779814 0.170234 0.631692
O O4 0.778749 0.938216 0.754007
O O5 0.885194 0.720014 0.692053
O O6 0.964853 0.112564 0.800788
O O7 0.893369 0.900247 0.925097
O O8 0.054228 0.254660 0.960241
O O9 0.545743 0.285344 0.681574
O O10 0.693903 0.601008 0.784398
O O11 0.498651 0.798983 0.678997
O O12 0.430692 0.031255 0.173649
O O13 0.403659 0.033222 0.841516
O O14 0.221412 0.922659 0.490704
#
# Coordination Sequence:
#
# PCOD9125845 Si02
#       8
#     2   4   2   4   4   4   4   4
#     4  12  28  50  72 118 162 206 270 320 370 466
#     4  10  21  44  69  98 141 196 242 300 367 447
#     4  10  22  44  78 108 136 188 260 304 366 462
#     4  12  26  45  73 108 153 198 242 311 375 444
#     4  11  24  44  73 104 144 197 245 302 387 444
#     4  10  22  44  78 101 142 191 243 305 372 455
#     4  12  28  45  72 108 152 208 265 320 383 453
#     4  10  23  41  74 104 141 187 245 299 372 439
#
# _framework density 25.294105999999999
#
# number of rings (size 3 to 8) (size 9 to 14) (size 15 to 20)
#    0.000    1.143    2.857    2.143    8.000    2.286 
#    0.000    0.000   12.571    0.000    0.000    0.000 
#    0.000    0.000    0.000    0.000    0.000    0.000 
#
# Total GULP energy -78028.333280 kJ/mol
# GULP energy per Si atom -5573.452377 kJ/mol
# Density = 2.523654 g / cm^3
# Si number density = 25.294106 Si / 1000 Ang^3
#
#
#
# Elastic Constant Matrix: (Units=GPa)
#
#
# Indices 1 2 3 4 5 6 
#
# 1 60.6068 22.3567 20.0926 0.0000 0.9369 0.0000
# 2 22.3567 121.5810 31.6697 -0.0001 -10.3575 0.0001
# 3 20.0926 31.6697 147.0133 0.0000 -4.9090 0.0000
# 4 0.0000 -0.0001 0.0000 35.9091 0.0000 -6.7031
# 5 0.9369 -10.3575 -4.9090 0.0000 30.0636 0.0000
# 6 0.0000 0.0001 0.0000 -6.7031 0.0000 26.7735
#
#
#
# Elastic Compliance Matrix: (Units=1/GPa)
#
#
# Indices 1 2 3 4 5 6 
#
# 1 0.018280 -0.003028 -0.001910 0.000000 -0.001925 0.000000
# 2 -0.003028 0.009441 -0.001516 0.000000 0.003099 0.000000
# 3 -0.001910 -0.001516 0.007415 0.000000 0.000748 0.000000
# 4 0.000000 0.000000 0.000000 0.029213 0.000000 0.007314
# 5 -0.001925 0.003099 0.000748 0.000000 0.034513 0.000000
# 6 0.000000 0.000000 0.000000 0.007314 0.000000 0.039181
#
#
# Mechanical properties :
#
#
# Convention : Reuss Voigt Hill
#
# Bulk Modulus (GPa) = 44.99169 53.04879 49.02024
# Shear Modulus (GPa) = 31.57348 35.55470 33.56409
#
# Velocity S-wave (km/s) = 3.53690 3.75327 3.64669
# Velocity P-wave (km/s) = 5.87414 6.30881 6.09535
#
# Compressibility (1/GPa) = 0.02222633
#
# Stress axis : x y z
#
# Youngs Moduli (GPa) = 54.70536 105.92388 134.86459
#
# Poissons Ratio (x) = 0.32070 0.25764
# Poissons Ratio (y) = 0.16563 0.20451
# Poissons Ratio (z) = 0.10451 0.16063
#
# Static dielectric constant tensor:
#      x y z
#    x 2.118540 0.000000 -0.033430 
#    y 0.000000 2.081850 0.000000 
#    z -0.033430 0.000000 2.069520 
# 
# From -- ./inp_files/61281.got.cif
#   From: 2010.05.17/outbox.cif.g08.bks.cpg/sg5_31_cif.got.tgz:61281.got - 2010.06.03 18:56:24.
