data_PCOD9125040
_publ_section_title
;
Structure prediction by ZEFSAII (Michael W. Deem and Ramdas Pophale) SiO2 
 PCOD9125040
Probable space group: C 2
;
_chemical_formula_sum "Si O2"
_cell_formula_units_Z 28
_cell_length_a 12.041581
_cell_length_b 7.834369
_cell_length_c 14.073665
_cell_angle_alpha 90.000000
_cell_angle_beta 64.382770
_cell_angle_gamma 90.000000
_cell_volume 1197.176107
_symmetry_space_group_name_H-M "C 2"
_symmetry_group_IT_number 5
_symmetry_cell_setting 'monoclinic'
loop_
_space_group_symop_operation_xyz
x,y,z
-x,y,-z
1/2+x,1/2+y,z
1/2-x,1/2+y,-z
loop_
_atom_site_type_symbol
_atom_site_label
_atom_site_fract_x
_atom_site_fract_y
_atom_site_fract_z
Si Si1 0.368805 0.904320 0.958921
Si Si2 0.365200 0.025461 0.162039
Si Si3 0.229217 0.221441 0.363097
Si Si4 0.769583 0.697462 0.728892
Si Si5 0.365226 0.531377 0.061600
Si Si6 0.752966 0.877558 0.550066
Si Si7 0.521817 0.984658 0.384628
O O1 0.500724 0.946656 0.863365
O O2 0.249714 0.929906 0.938794
O O3 0.372055 0.714280 0.002735
O O4 0.361358 0.037741 0.049908
O O5 0.325488 0.178571 0.244296
O O6 0.260923 0.883461 0.221211
O O7 0.285456 0.325378 0.431364
O O8 0.115889 0.326993 0.362263
O O9 0.182918 0.044790 0.429744
O O10 0.670195 0.577945 0.817119
O O11 0.763404 0.719163 0.618091
O O12 0.904127 0.625665 0.701351
O O13 0.500000 0.451032 0.000000
O O14 0.608933 0.928834 0.605297
O O15 0.500000 0.049096 0.500000
#
# Coordination Sequence:
#
# PCOD9125040 Si02
#       7
#     4   4   4   4   4   4   4
#     4  10  21  44  67  91 136 167 214 275 322 378
#     4   9  20  43  66  93 132 174 211 270 326 381
#     4  10  21  39  65  93 124 169 216 253 322 378
#     4  10  21  39  66  92 126 170 213 255 325 376
#     4  11  23  43  67  95 129 170 215 268 323 389
#     4  10  21  40  62  88 134 166 205 274 308 373
#     4  10  22  40  62  91 126 171 215 259 315 381
#
# _framework density 23.388370999999999
#
# number of rings (size 3 to 8) (size 9 to 14) (size 15 to 20)
#    0.000    2.000    2.857    1.714    4.000    2.286 
#    5.143   20.000    0.000    0.000    0.000    0.000 
#    0.000    0.000    0.000    0.000    0.000    0.000 
#
# Total GULP energy -78211.678946 kJ/mol
# GULP energy per Si atom -5586.548496 kJ/mol
# Density = 2.333514 g / cm^3
# Si number density = 23.388371 Si / 1000 Ang^3
#
#
#
# Elastic Constant Matrix: (Units=GPa)
#
#
# Indices 1 2 3 4 5 6 
#
# 1 110.9677 29.6502 17.8684 0.0000 -14.0421 0.0000
# 2 29.6502 80.6448 42.0524 0.0000 -7.2128 0.0000
# 3 17.8684 42.0524 64.8799 0.0000 -21.6932 0.0000
# 4 0.0000 0.0000 0.0000 22.8867 0.0000 -13.5894
# 5 -14.0421 -7.2128 -21.6932 0.0000 33.8908 0.0000
# 6 0.0000 0.0000 0.0000 -13.5894 0.0000 30.9890
#
#
#
# Elastic Compliance Matrix: (Units=1/GPa)
#
#
# Indices 1 2 3 4 5 6 
#
# 1 0.010444 -0.004075 0.001173 0.000000 0.004211 0.000000
# 2 -0.004075 0.020959 -0.014677 0.000000 -0.006622 0.000000
# 3 0.001173 -0.014677 0.030180 0.000000 0.016680 0.000000
# 4 0.000000 0.000000 0.000000 0.059076 0.000000 0.025906
# 5 0.004211 -0.006622 0.016680 0.000000 0.040519 0.000000
# 6 0.000000 0.000000 0.000000 0.025906 0.000000 0.043630
#
#
# Mechanical properties :
#
#
# Convention : Reuss Voigt Hill
#
# Bulk Modulus (GPa) = 37.84186 48.40382 43.12284
# Shear Modulus (GPa) = 20.09847 28.68138 24.38992
#
# Velocity S-wave (km/s) = 2.93462 3.50567 3.23278
# Velocity P-wave (km/s) = 5.26285 6.09318 5.69317
#
# Compressibility (1/GPa) = 0.02642576
#
# Stress axis : x y z
#
# Youngs Moduli (GPa) = 95.74448 47.71161 33.13422
#
# Poissons Ratio (x) = 0.19442 -0.03885
# Poissons Ratio (y) = 0.39015 0.48631
# Poissons Ratio (z) = -0.11227 0.70026
#
# Static dielectric constant tensor:
#      x y z
#    x 1.850270 0.000000 0.036300 
#    y 0.000000 1.941360 0.000000 
#    z 0.036300 0.000000 1.926250 
# 
# From -- ./inp_files/52198.got.cif
#   From: 2010.05.17/outbox.cif.g08.bks.cpg/sg5_27_cif.got.tgz:52198.got - 2010.06.03 18:56:24.
