data_PCOD9125495
_publ_section_title
;
Structure prediction by ZEFSAII (Michael W. Deem and Ramdas Pophale) SiO2 
 PCOD9125495
Probable space group: C 2
;
_chemical_formula_sum "Si O2"
_cell_formula_units_Z 26
_cell_length_a 14.803387
_cell_length_b 11.326657
_cell_length_c 8.069514
_cell_angle_alpha 90.000000
_cell_angle_beta 120.947488
_cell_angle_gamma 90.000000
_cell_volume 1160.418734
_symmetry_space_group_name_H-M "C 2"
_symmetry_group_IT_number 5
_symmetry_cell_setting 'monoclinic'
loop_
_space_group_symop_operation_xyz
x,y,z
-x,y,-z
1/2+x,1/2+y,z
1/2-x,1/2+y,-z
loop_
_atom_site_type_symbol
_atom_site_label
_atom_site_fract_x
_atom_site_fract_y
_atom_site_fract_z
Si Si1 0.120415 0.030550 0.093266
Si Si2 0.169760 0.900647 0.636170
Si Si3 0.000000 0.337561 0.500000
Si Si4 0.353998 0.649443 0.224574
Si Si5 0.042495 0.696980 0.360805
Si Si6 0.316493 0.985930 0.513810
Si Si7 0.653171 0.280833 0.977244
O O1 0.210050 0.027351 0.317814
O O2 0.163037 0.101321 0.975992
O O3 0.000000 0.072242 0.000000
O O4 0.114024 0.894299 0.036313
O O5 0.088017 0.827369 0.444619
O O6 0.183673 0.829099 0.821160
O O7 0.132105 0.033025 0.648511
O O8 0.276307 0.911636 0.632203
O O9 0.946426 0.245381 0.321730
O O10 0.904171 0.413715 0.489626
O O11 0.247505 0.719906 0.162061
O O12 0.129353 0.607439 0.383124
O O13 0.000000 0.655688 0.500000
O O14 0.944844 0.697121 0.146942
#
# Coordination Sequence:
#
# PCOD9125495 Si02
#       7
#     4   4   2   4   4   4   4
#     4  11  24  42  68 100 134 177 229 278 336 410
#     4  10  25  41  72 103 133 183 234 279 343 418
#     4  12  28  44  66 100 140 188 224 298 354 406
#     4  11  26  44  69  97 143 179 231 289 347 401
#     4  10  21  41  69  94 135 179 226 275 339 412
#     4  12  25  45  70 102 139 180 229 285 352 406
#     4  10  22  45  65  98 138 179 225 278 338 414
#
# _framework density 22.405705000000001
#
# number of rings (size 3 to 8) (size 9 to 14) (size 15 to 20)
#    0.000    1.231    2.308    2.769    9.692    2.462 
#    0.000    1.538    0.000    0.000    0.000    0.000 
#    0.000    0.000    0.000    0.000    0.000    0.000 
#
# Total GULP energy -72630.365254 kJ/mol
# GULP energy per Si atom -5586.951173 kJ/mol
# Density = 2.235471 g / cm^3
# Si number density = 22.405705 Si / 1000 Ang^3
#
#
#
# Elastic Constant Matrix: (Units=GPa)
#
#
# Indices 1 2 3 4 5 6 
#
# 1 114.5859 32.7977 23.0217 0.0000 6.1851 0.0000
# 2 32.7977 79.6197 21.1750 0.0000 12.7535 0.0000
# 3 23.0217 21.1750 70.7184 0.0000 26.6517 0.0000
# 4 0.0000 0.0000 0.0000 -17.1561 0.0000 3.0180
# 5 6.1851 12.7535 26.6517 0.0000 35.4643 0.0000
# 6 0.0000 0.0000 0.0000 3.0180 0.0000 21.2116
#
#
#
# Elastic Compliance Matrix: (Units=1/GPa)
#
#
# Indices 1 2 3 4 5 6 
#
# 1 0.010284 -0.003747 -0.002871 0.000000 0.001711 0.000000
# 2 -0.003747 0.015181 -0.002113 0.000000 -0.003218 0.000000
# 3 -0.002871 -0.002113 0.021252 0.000000 -0.014710 0.000000
# 4 0.000000 0.000000 0.000000 -0.056865 0.000000 0.008091
# 5 0.001711 -0.003218 -0.014710 0.000000 0.040111 0.000000
# 6 0.000000 0.000000 0.000000 0.008091 0.000000 0.045993
#
#
# Mechanical properties :
#
#
# Convention : Reuss Voigt Hill
#
# Bulk Modulus (GPa) = 34.18260 46.54585 40.36423
# Shear Modulus (GPa) = 48.46457 20.43261 34.44859
#
# Velocity S-wave (km/s) = 4.65590 3.02311 3.92534
# Velocity P-wave (km/s) = 6.64775 5.74498 6.21278
#
# Compressibility (1/GPa) = 0.02925465
#
# Stress axis : x y z
#
# Youngs Moduli (GPa) = 97.23881 65.87390 47.05485
#
# Poissons Ratio (x) = 0.24682 0.13509
# Poissons Ratio (y) = 0.36434 0.09943
# Poissons Ratio (z) = 0.27916 0.13919
#
# Static dielectric constant tensor:
#      x y z
#    x 1.907720 0.000000 0.076600 
#    y 0.000000 1.806020 0.000000 
#    z 0.076600 0.000000 1.989590 
# 
# From -- ./inp_files/23713.got.cif
#   From: 2010.05.17/outbox.cif.g08.bks.cpg/sg5_12_cif.got.tgz:23713.got - 2010.06.03 18:56:24.
