data_PCOD9125101
_publ_section_title
;
Structure prediction by ZEFSAII (Michael W. Deem and Ramdas Pophale) SiO2 
 PCOD9125101
Probable space group: C 2
;
_chemical_formula_sum "Si O2"
_cell_formula_units_Z 28
_cell_length_a 17.748204
_cell_length_b 10.731406
_cell_length_c 6.331175
_cell_angle_alpha 90.000000
_cell_angle_beta 101.969450
_cell_angle_gamma 90.000000
_cell_volume 1179.638412
_symmetry_space_group_name_H-M "C 2"
_symmetry_group_IT_number 5
_symmetry_cell_setting 'monoclinic'
loop_
_space_group_symop_operation_xyz
x,y,z
-x,y,-z
1/2+x,1/2+y,z
1/2-x,1/2+y,-z
loop_
_atom_site_type_symbol
_atom_site_label
_atom_site_fract_x
_atom_site_fract_y
_atom_site_fract_z
Si Si1 0.727412 0.899970 0.598398
Si Si2 0.895679 0.307140 0.136672
Si Si3 0.098678 0.964836 0.680519
Si Si4 0.617446 0.261306 0.355249
Si Si5 0.279839 0.586108 0.971249
Si Si6 0.000000 0.170777 0.500000
Si Si7 0.000000 0.900381 0.000000
Si Si8 0.355768 0.020800 0.826296
O O1 0.656878 0.853924 0.698645
O O2 0.793121 0.796135 0.618210
O O3 0.697976 0.938057 0.354183
O O4 0.764971 0.018914 0.740366
O O5 0.838985 0.201897 0.000077
O O6 0.973522 0.252475 0.284073
O O7 0.905648 0.424485 0.989682
O O8 0.094292 0.834760 0.555034
O O9 0.035800 0.973976 0.828119
O O10 0.176918 0.988768 0.848417
O O11 0.074702 0.079827 0.516147
O O12 0.605144 0.115504 0.315705
O O13 0.568580 0.320992 0.138317
O O14 0.196831 0.600566 0.037845
#
# Coordination Sequence:
#
# PCOD9125101 Si02
#       8
#     4   4   4   4   4   2   2   4
#     4  11  23  40  69 101 136 185 238 298 356 415
#     4  10  24  45  66 105 143 191 242 291 366 428
#     4  11  22  42  72 109 137 184 240 307 366 418
#     4  12  24  43  69 102 144 183 248 293 356 437
#     4  10  21  39  70 102 142 174 236 297 354 428
#     4  10  22  48  72 102 150 186 250 306 348 440
#     4  12  24  44  70 104 138 184 238 298 368 424
#     4  11  25  42  68 104 143 197 231 293 366 426
#
# _framework density 23.736086
#
# number of rings (size 3 to 8) (size 9 to 14) (size 15 to 20)
#    0.000    1.143    5.714    0.000    2.000    2.286 
#    7.714    0.000    0.000    0.000    0.000    0.000 
#    0.000    0.000    0.000    0.000    0.000    0.000 
#
# Total GULP energy -78210.794232 kJ/mol
# GULP energy per Si atom -5586.485302 kJ/mol
# Density = 2.368206 g / cm^3
# Si number density = 23.736086 Si / 1000 Ang^3
#
#
#
# Elastic Constant Matrix: (Units=GPa)
#
#
# Indices 1 2 3 4 5 6 
#
# 1 56.2695 22.0265 30.8149 0.0000 0.2577 0.0000
# 2 22.0265 111.6690 45.4092 0.0000 -5.9810 0.0000
# 3 30.8149 45.4092 97.3314 0.0000 10.9450 0.0000
# 4 0.0000 0.0000 0.0000 37.1794 0.0000 6.9094
# 5 0.2577 -5.9810 10.9450 0.0000 31.2835 0.0000
# 6 0.0000 0.0000 0.0000 6.9094 0.0000 17.2154
#
#
#
# Elastic Compliance Matrix: (Units=1/GPa)
#
#
# Indices 1 2 3 4 5 6 
#
# 1 0.021888 -0.001638 -0.006360 0.000000 0.001732 0.000000
# 2 -0.001638 0.011698 -0.005404 0.000000 0.004141 0.000000
# 3 -0.006360 -0.005404 0.015530 0.000000 -0.006414 0.000000
# 4 0.000000 0.000000 0.000000 0.029064 0.000000 -0.011665
# 5 0.001732 0.004141 -0.006414 0.000000 0.034987 0.000000
# 6 0.000000 0.000000 0.000000 -0.011665 0.000000 0.062769
#
#
# Mechanical properties :
#
#
# Convention : Reuss Voigt Hill
#
# Bulk Modulus (GPa) = 44.82195 51.30788 48.06492
# Shear Modulus (GPa) = 23.78918 28.27027 26.02972
#
# Velocity S-wave (km/s) = 3.16925 3.45487 3.31513
# Velocity P-wave (km/s) = 5.68477 6.13007 5.91161
#
# Compressibility (1/GPa) = 0.02231050
#
# Stress axis : x y z
#
# Youngs Moduli (GPa) = 45.68718 85.48744 64.38975
#
# Poissons Ratio (x) = 0.14006 0.40952
# Poissons Ratio (y) = 0.07485 0.34799
# Poissons Ratio (z) = 0.29057 0.46201
#
# Static dielectric constant tensor:
#      x y z
#    x 1.951930 0.000000 -0.004390 
#    y 0.000000 1.976020 0.000000 
#    z -0.004390 0.000000 1.882030 
# 
# From -- ./inp_files/9495.got.cif
#   From: 2010.05.17/outbox.cif.g08.bks.cpg/sg5_5_cif.got.tgz:9495.got - 2010.06.03 18:56:24.
