data_PCOD9125587
_publ_section_title
;
Structure prediction by ZEFSAII (Michael W. Deem and Ramdas Pophale) SiO2 
 PCOD9125587
Probable space group: C 2
;
_chemical_formula_sum "Si O2"
_cell_formula_units_Z 32
_cell_length_a 11.175392
_cell_length_b 7.577692
_cell_length_c 28.795743
_cell_angle_alpha 90.000000
_cell_angle_beta 35.119894
_cell_angle_gamma 90.000000
_cell_volume 1402.859877
_symmetry_space_group_name_H-M "C 2"
_symmetry_group_IT_number 5
_symmetry_cell_setting 'monoclinic'
loop_
_space_group_symop_operation_xyz
x,y,z
-x,y,-z
1/2+x,1/2+y,z
1/2-x,1/2+y,-z
loop_
_atom_site_type_symbol
_atom_site_label
_atom_site_fract_x
_atom_site_fract_y
_atom_site_fract_z
Si Si1 0.976533 0.131380 0.652369
Si Si2 0.701340 0.622453 0.908659
Si Si3 0.662550 0.288589 0.410311
Si Si4 0.211980 0.696605 0.905668
Si Si5 0.878847 0.696175 0.171140
Si Si6 0.340853 0.614232 0.185521
Si Si7 0.455493 0.668864 0.467976
Si Si8 0.499123 0.226268 0.366973
O O1 0.111811 0.247289 0.643646
O O2 0.986247 0.235898 0.600807
O O3 0.756680 0.103908 0.745863
O O4 0.063318 0.934209 0.616825
O O5 0.704143 0.409432 0.906278
O O6 0.686001 0.680468 0.859374
O O7 0.890084 0.675670 0.882404
O O8 0.500000 0.684852 0.000000
O O9 0.500000 0.217261 0.500000
O O10 0.597911 0.493228 0.425981
O O11 0.641811 0.206979 0.366619
O O12 0.182383 0.632878 0.861370
O O13 0.433614 0.655379 0.861230
O O14 0.000000 0.639640 0.000000
O O15 0.831272 0.903246 0.187138
O O16 0.139306 0.676172 0.278844
O O17 0.500000 0.779382 0.500000
O O18 0.212276 0.627983 0.550932
#
# Coordination Sequence:
#
# PCOD9125587 Si02
#       8
#     4   4   4   4   4   4   4   4
#     4  11  24  43  67  93 127 171 215 264 319 378
#     4  10  23  44  68  97 131 171 215 263 324 388
#     4  10  21  42  66  87 124 167 213 266 315 369
#     4  10  22  45  69  94 131 173 215 265 323 386
#     4  11  25  40  67  99 133 171 212 269 324 380
#     4  11  25  40  66 100 133 170 214 269 322 383
#     4  10  24  41  64  90 124 169 211 267 313 372
#     4  11  24  42  65  95 126 168 219 259 319 382
#
# _framework density 22.810548000000001
#
# number of rings (size 3 to 8) (size 9 to 14) (size 15 to 20)
#    0.000    1.500    1.250    2.250    5.250    6.000 
#    0.000    0.000    0.000    0.000    0.000    0.000 
#    0.000    0.000    0.000    0.000    0.000    0.000 
#
# Total GULP energy -89268.985857 kJ/mol
# GULP energy per Si atom -5579.311616 kJ/mol
# Density = 2.275863 g / cm^3
# Si number density = 22.810548 Si / 1000 Ang^3
#
#
#
# Elastic Constant Matrix: (Units=GPa)
#
#
# Indices 1 2 3 4 5 6 
#
# 1 148.5312 1.3253 32.8004 -0.0001 25.4954 0.0002
# 2 1.3253 54.5478 -6.5969 0.0003 1.6388 0.0023
# 3 32.8004 -6.5969 95.8479 -0.0006 20.4306 -0.0007
# 4 -0.0001 0.0003 -0.0006 26.1957 -0.0002 -13.5512
# 5 25.4954 1.6388 20.4306 -0.0002 47.4582 -0.0002
# 6 0.0002 0.0023 -0.0007 -13.5512 -0.0002 -26.7831
#
#
#
# Elastic Compliance Matrix: (Units=1/GPa)
#
#
# Indices 1 2 3 4 5 6 
#
# 1 0.007736 -0.000327 -0.001967 0.000000 -0.003298 0.000000
# 2 -0.000327 0.018574 0.001640 0.000000 -0.001172 0.000001
# 3 -0.001967 0.001640 0.012118 0.000000 -0.004217 0.000000
# 4 0.000000 0.000000 0.000000 0.030255 0.000000 -0.015308
# 5 -0.003298 -0.001172 -0.004217 0.000000 0.024699 0.000000
# 6 0.000000 0.000001 0.000000 -0.015308 0.000000 -0.029592
#
#
# Mechanical properties :
#
#
# Convention : Reuss Voigt Hill
#
# Bulk Modulus (GPa) = 26.93915 39.33163 33.13539
# Shear Modulus (GPa) = 64.54041 27.46738 46.00389
#
# Velocity S-wave (km/s) = 5.32499 3.47385 4.49573
# Velocity P-wave (km/s) = 7.04578 5.77671 6.44257
#
# Compressibility (1/GPa) = 0.03712070
#
# Stress axis : x y z
#
# Youngs Moduli (GPa) = 129.26684 53.83862 82.52196
#
# Poissons Ratio (x) = 0.01759 0.16231
# Poissons Ratio (y) = 0.04224 -0.13534
# Poissons Ratio (z) = 0.25425 -0.08829
#
# Static dielectric constant tensor:
#      x y z
#    x 1.942290 0.000000 -0.007980 
#    y 0.000000 1.897230 0.000010 
#    z -0.007980 0.000010 2.231360 
# 
# From -- ./inp_files/71725.got.cif
#   From: 2010.05.17/outbox.cif.g08.bks.cpg/sg5_36_cif.got.tgz:71725.got - 2010.06.03 18:56:24.
