data_PCOD9125907
_publ_section_title
;
Structure prediction by ZEFSAII (Michael W. Deem and Ramdas Pophale) SiO2 
 PCOD9125907
Probable space group: C 2
;
_chemical_formula_sum "Si O2"
_cell_formula_units_Z 20
_cell_length_a 14.462700
_cell_length_b 4.703850
_cell_length_c 20.679765
_cell_angle_alpha 90.000000
_cell_angle_beta 150.312676
_cell_angle_gamma 90.000000
_cell_volume 696.766687
_symmetry_space_group_name_H-M "C 2"
_symmetry_group_IT_number 5
_symmetry_cell_setting 'monoclinic'
loop_
_space_group_symop_operation_xyz
x,y,z
-x,y,-z
1/2+x,1/2+y,z
1/2-x,1/2+y,-z
loop_
_atom_site_type_symbol
_atom_site_label
_atom_site_fract_x
_atom_site_fract_y
_atom_site_fract_z
Si Si1 0.720139 0.123220 0.435550
Si Si2 0.855146 0.351020 0.094009
Si Si3 0.000000 0.267685 0.500000
Si Si4 0.656029 0.457505 0.798284
Si Si5 0.500000 0.594805 0.000000
Si Si6 0.277912 0.647915 0.751359
O O1 0.812003 0.332551 0.545347
O O2 0.532545 0.284638 0.300044
O O3 0.858311 0.094850 0.459276
O O4 0.843493 0.250949 0.161980
O O5 0.062684 0.271799 0.197483
O O6 0.698416 0.161165 0.962538
O O7 0.126685 0.468894 0.621860
O O8 0.680376 0.392931 0.736134
O O9 0.846234 0.304513 0.936552
O O10 0.607991 0.458424 0.125528
#
# Coordination Sequence:
#
# PCOD9125907 Si02
#       6
#     4   4   2   4   2   4
#     4  12  27  50  75 109 154 200 252 315 377 446
#     4  12  24  46  76 112 148 198 256 309 378 450
#     4  12  24  48  78 114 148 206 256 306 378 458
#     4  10  21  46  72 108 152 192 248 315 372 438
#     4   8  18  44  68 108 142 190 238 306 366 440
#     4  10  21  46  73 110 150 195 250 310 372 449
#
# _framework density 28.704011999999999
#
# number of rings (size 3 to 8) (size 9 to 14) (size 15 to 20)
#    1.200    0.000    6.000    0.000    0.000    2.400 
#   10.800    2.000    0.000    0.000    0.000    0.000 
#    0.000    0.000    0.000    0.000    0.000    0.000 
#
# Total GULP energy -56083.251832 kJ/mol
# GULP energy per Si atom -5608.325183 kJ/mol
# Density = 2.863868 g / cm^3
# Si number density = 28.704012 Si / 1000 Ang^3
#
#
#
# Elastic Constant Matrix: (Units=GPa)
#
#
# Indices 1 2 3 4 5 6 
#
# 1 229.2435 28.1089 19.4560 0.0007 19.9529 0.0009
# 2 28.1089 76.2360 21.2013 0.0011 -17.1378 0.0130
# 3 19.4560 21.2013 209.3247 0.0025 -18.7780 0.0015
# 4 0.0007 0.0011 0.0025 54.1796 -0.0005 -10.8094
# 5 19.9529 -17.1378 -18.7780 -0.0005 55.4975 0.0001
# 6 0.0009 0.0130 0.0015 -10.8094 0.0001 34.7207
#
#
#
# Elastic Compliance Matrix: (Units=1/GPa)
#
#
# Indices 1 2 3 4 5 6 
#
# 1 0.004908 -0.002271 -0.000461 0.000000 -0.002622 0.000001
# 2 -0.002271 0.015382 -0.000874 -0.000001 0.005271 -0.000006
# 3 -0.000461 -0.000874 0.005053 0.000000 0.001606 0.000000
# 4 0.000000 -0.000001 0.000000 0.019679 0.000000 0.006127
# 5 -0.002622 0.005271 0.001606 0.000000 0.021132 -0.000002
# 6 0.000001 -0.000006 0.000000 0.006127 -0.000002 0.030709
#
#
# Mechanical properties :
#
#
# Convention : Reuss Voigt Hill
#
# Bulk Modulus (GPa) = 55.15529 72.48184 63.81857
# Shear Modulus (GPa) = 45.40526 58.61542 52.01034
#
# Velocity S-wave (km/s) = 3.98155 4.52382 4.26132
# Velocity P-wave (km/s) = 6.35562 7.25210 6.81861
#
# Compressibility (1/GPa) = 0.01813063
#
# Stress axis : x y z
#
# Youngs Moduli (GPa) = 203.75091 65.00963 197.91324
#
# Poissons Ratio (x) = 0.14762 0.09132
# Poissons Ratio (y) = 0.46265 0.17300
# Poissons Ratio (z) = 0.09401 0.05683
#
# Static dielectric constant tensor:
#      x y z
#    x 2.255080 0.000000 -0.091820 
#    y 0.000000 2.161960 0.000000 
#    z -0.091820 0.000000 2.249970 
# 
# From -- ./inp_files/41038.got.cif
#   From: 2010.05.17/outbox.cif.g08.bks.cpg/sg5_21_cif.got.tgz:41038.got - 2010.06.03 18:56:24.
