data_PCOD9125525
_publ_section_title
;
Structure prediction by ZEFSAII (Michael W. Deem and Ramdas Pophale) SiO2 
 PCOD9125525
Probable space group: C 2
;
_chemical_formula_sum "Si O2"
_cell_formula_units_Z 30
_cell_length_a 12.340162
_cell_length_b 7.903877
_cell_length_c 12.902883
_cell_angle_alpha 90.000000
_cell_angle_beta 106.125123
_cell_angle_gamma 90.000000
_cell_volume 1208.972314
_symmetry_space_group_name_H-M "C 2"
_symmetry_group_IT_number 5
_symmetry_cell_setting 'monoclinic'
loop_
_space_group_symop_operation_xyz
x,y,z
-x,y,-z
1/2+x,1/2+y,z
1/2-x,1/2+y,-z
loop_
_atom_site_type_symbol
_atom_site_label
_atom_site_fract_x
_atom_site_fract_y
_atom_site_fract_z
Si Si1 0.365375 0.441170 0.967147
Si Si2 0.217662 0.179645 0.631553
Si Si3 0.769489 0.549478 0.440535
Si Si4 0.469551 0.974798 0.870429
Si Si5 0.500000 0.248565 0.500000
Si Si6 0.520835 0.273838 0.271148
Si Si7 0.096113 0.130925 0.217533
Si Si8 0.731676 0.608229 0.854569
O O1 0.291354 0.280416 0.911986
O O2 0.347270 0.589968 0.878178
O O3 0.500000 0.400721 0.000000
O O4 0.325967 0.513055 0.066231
O O5 0.189339 0.364714 0.581782
O O6 0.351272 0.204953 0.685995
O O7 0.166167 0.144042 0.729725
O O8 0.203244 0.049409 0.533054
O O9 0.689026 0.635909 0.333373
O O10 0.884224 0.648548 0.485193
O O11 0.527367 0.126056 0.817955
O O12 0.334513 0.992531 0.841608
O O13 0.500000 0.976329 0.000000
O O14 0.479473 0.312369 0.376366
O O15 0.532424 0.455554 0.222957
O O16 0.016916 0.293404 0.180854
#
# Coordination Sequence:
#
# PCOD9125525 Si02
#       8
#     4   4   4   4   2   4   4   4
#     4  12  25  48  73 108 148 197 251 310 369 455
#     4   9  20  42  69  96 133 188 234 294 369 436
#     4  10  21  41  73  96 141 183 240 299 371 438
#     4  11  23  42  74 106 142 200 251 302 370 449
#     4  10  22  42  70 106 132 190 240 296 370 448
#     4   9  21  44  66  96 145 179 236 298 368 433
#     4  11  23  44  69 101 142 191 237 304 369 433
#     4  11  24  47  72 105 147 196 245 311 381 434
#
# _framework density 24.814464999999998
#
# number of rings (size 3 to 8) (size 9 to 14) (size 15 to 20)
#    0.000    1.600    4.000    1.600    5.600    1.600 
#    7.200    1.333    0.000    0.000    0.000    0.000 
#    0.000    0.000    0.000    0.000    0.000    0.000 
#
# Total GULP energy -83755.325705 kJ/mol
# GULP energy per Si atom -5583.688380 kJ/mol
# Density = 2.475799 g / cm^3
# Si number density = 24.814465 Si / 1000 Ang^3
#
#
#
# Elastic Constant Matrix: (Units=GPa)
#
#
# Indices 1 2 3 4 5 6 
#
# 1 50.6898 4.6467 44.1924 0.0000 -18.2447 0.0000
# 2 4.6467 84.8101 76.8337 0.0000 3.6215 0.0000
# 3 44.1924 76.8337 190.7070 0.0000 -37.9637 0.0000
# 4 0.0000 0.0000 0.0000 47.6135 0.0000 3.2729
# 5 -18.2447 3.6215 -37.9637 0.0000 49.5859 0.0000
# 6 0.0000 0.0000 0.0000 3.2729 0.0000 20.6371
#
#
#
# Elastic Compliance Matrix: (Units=1/GPa)
#
#
# Indices 1 2 3 4 5 6 
#
# 1 0.027340 0.005370 -0.007757 0.000000 0.003729 0.000000
# 2 0.005370 0.023110 -0.012386 0.000000 -0.009195 0.000000
# 3 -0.007757 -0.012386 0.013737 0.000000 0.008568 0.000000
# 4 0.000000 0.000000 0.000000 0.021234 0.000000 -0.003368
# 5 0.003729 -0.009195 0.008568 0.000000 0.028770 0.000000
# 6 0.000000 0.000000 0.000000 -0.003368 0.000000 0.048990
#
#
# Mechanical properties :
#
#
# Convention : Reuss Voigt Hill
#
# Bulk Modulus (GPa) = 28.86637 64.17250 46.51944
# Shear Modulus (GPa) = 24.47702 36.93625 30.70663
#
# Velocity S-wave (km/s) = 3.14411 3.86229 3.52156
# Velocity P-wave (km/s) = 4.98384 6.76807 5.94329
#
# Compressibility (1/GPa) = 0.03464239
#
# Stress axis : x y z
#
# Youngs Moduli (GPa) = 36.57625 43.27104 72.79783
#
# Poissons Ratio (x) = -0.23237 0.56468
# Poissons Ratio (y) = -0.19642 0.90164
# Poissons Ratio (z) = 0.28372 0.53594
#
# Static dielectric constant tensor:
#      x y z
#    x 1.958420 0.000000 -0.015680 
#    y 0.000000 2.084990 0.000000 
#    z -0.015680 0.000000 2.188660 
# 
# From -- ./inp_files/39220.got.cif
#   From: 2010.05.17/outbox.cif.g08.bks.cpg/sg5_20_cif.got.tgz:39220.got - 2010.06.03 18:56:24.
