data_PCOD9125272
_publ_section_title
;
Structure prediction by ZEFSAII (Michael W. Deem and Ramdas Pophale) SiO2 
 PCOD9125272
Probable space group: C 2
;
_chemical_formula_sum "Si O2"
_cell_formula_units_Z 32
_cell_length_a 19.228976
_cell_length_b 15.030728
_cell_length_c 12.884258
_cell_angle_alpha 90.000000
_cell_angle_beta 28.240679
_cell_angle_gamma 90.000000
_cell_volume 1762.051595
_symmetry_space_group_name_H-M "C 2"
_symmetry_group_IT_number 5
_symmetry_cell_setting 'monoclinic'
loop_
_space_group_symop_operation_xyz
x,y,z
-x,y,-z
1/2+x,1/2+y,z
1/2-x,1/2+y,-z
loop_
_atom_site_type_symbol
_atom_site_label
_atom_site_fract_x
_atom_site_fract_y
_atom_site_fract_z
Si Si1 0.845620 0.400770 0.762603
Si Si2 0.589749 0.610813 0.644164
Si Si3 0.343188 0.290243 0.650223
Si Si4 0.857688 0.564219 0.908378
Si Si5 0.345465 0.499362 0.642325
Si Si6 0.686837 0.132083 0.465484
Si Si7 0.618218 0.498493 0.929495
Si Si8 0.165102 0.229610 0.080107
O O1 0.847512 0.482963 0.840715
O O2 0.714248 0.422074 0.855880
O O3 0.823184 0.310055 0.854715
O O4 0.000000 0.398723 0.500000
O O5 0.649864 0.552798 0.470503
O O6 0.715246 0.637507 0.560223
O O7 0.499763 0.693482 0.715964
O O8 0.471638 0.552301 0.864649
O O9 0.500000 0.274733 0.500000
O O10 0.331781 0.394199 0.640061
O O11 0.329809 0.226613 0.569244
O O12 0.221929 0.263248 0.894225
O O13 0.026407 0.592572 0.698197
O O14 0.782298 0.532809 0.113759
O O15 0.765850 0.647512 0.984565
O O16 0.500000 0.513349 0.500000
O O17 0.772304 0.066817 0.272972
O O18 0.500000 0.466776 0.000000
#
# Coordination Sequence:
#
# PCOD9125272 Si02
#       8
#     4   4   4   4   4   4   4   4
#     4  12  24  41  66 101 128 167 227 270 319 387
#     4  11  24  42  66  93 134 172 209 263 341 388
#     4  11  22  39  66  99 123 163 226 275 314 381
#     4  12  23  42  67  95 131 170 221 271 319 383
#     4  11  23  42  67  94 132 173 215 269 331 389
#     4  11  23  42  66  98 127 170 219 275 321 379
#     4  10  21  40  67  94 128 169 213 271 327 379
#     4  12  24  40  67  96 128 170 215 266 326 389
#
# _framework density 18.160648999999999
#
# number of rings (size 3 to 8) (size 9 to 14) (size 15 to 20)
#    0.000    0.750    7.500    0.000    3.500    0.500 
#    2.250    2.500    0.000    0.000    0.000    0.000 
#    0.000    0.000    0.000    0.000    0.000    0.000 
#
# Total GULP energy -89460.193053 kJ/mol
# GULP energy per Si atom -5591.262066 kJ/mol
# Density = 1.811931 g / cm^3
# Si number density = 18.160649 Si / 1000 Ang^3
#
#
#
# Elastic Constant Matrix: (Units=GPa)
#
#
# Indices 1 2 3 4 5 6 
#
# 1 101.1693 57.1577 48.4236 0.0000 -1.9290 0.0000
# 2 57.1577 104.0887 43.8507 0.0000 10.0405 0.0000
# 3 48.4236 43.8507 121.4239 0.0000 7.5091 0.0000
# 4 0.0000 0.0000 0.0000 28.8895 0.0000 7.9499
# 5 -1.9290 10.0405 7.5091 0.0000 27.6682 0.0000
# 6 0.0000 0.0000 0.0000 7.9499 0.0000 16.1460
#
#
#
# Elastic Compliance Matrix: (Units=1/GPa)
#
#
# Indices 1 2 3 4 5 6 
#
# 1 0.016264 -0.007728 -0.004006 0.000000 0.005025 0.000000
# 2 -0.007728 0.015262 -0.002089 0.000000 -0.005510 0.000000
# 3 -0.004006 -0.002089 0.010738 0.000000 -0.002435 0.000000
# 4 0.000000 0.000000 0.000000 0.040040 0.000000 -0.019715
# 5 0.005025 -0.005510 -0.002435 0.000000 0.039154 0.000000
# 6 0.000000 0.000000 0.000000 -0.019715 0.000000 0.071642
#
#
# Mechanical properties :
#
#
# Convention : Reuss Voigt Hill
#
# Bulk Modulus (GPa) = 68.40694 69.50509 68.95602
# Shear Modulus (GPa) = 22.16134 26.35743 24.25938
#
# Velocity S-wave (km/s) = 3.49706 3.81379 3.65885
# Velocity P-wave (km/s) = 7.35224 7.59926 7.47677
#
# Compressibility (1/GPa) = 0.01461840
#
# Stress axis : x y z
#
# Youngs Moduli (GPa) = 61.48673 65.52020 93.12525
#
# Poissons Ratio (x) = 0.50634 0.37305
# Poissons Ratio (y) = 0.47517 0.19456
# Poissons Ratio (z) = 0.24631 0.13688
#
# Static dielectric constant tensor:
#      x y z
#    x 1.604940 0.000000 -0.004790 
#    y 0.000000 1.600170 0.000000 
#    z -0.004790 0.000000 1.616200 
# 
# From -- ./inp_files/31077.got.cif
#   From: 2010.05.17/outbox.cif.g08.bks.cpg/sg5_16_cif.got.tgz:31077.got - 2010.06.03 18:56:24.
