data_PCOD9125033
_publ_section_title
;
Structure prediction by ZEFSAII (Michael W. Deem and Ramdas Pophale) SiO2 
 PCOD9125033
Probable space group: C 2
;
_chemical_formula_sum "Si O2"
_cell_formula_units_Z 32
_cell_length_a 7.898787
_cell_length_b 14.337693
_cell_length_c 12.538435
_cell_angle_alpha 90.000000
_cell_angle_beta 88.966856
_cell_angle_gamma 90.000000
_cell_volume 1419.751723
_symmetry_space_group_name_H-M "C 2"
_symmetry_group_IT_number 5
_symmetry_cell_setting 'monoclinic'
loop_
_space_group_symop_operation_xyz
x,y,z
-x,y,-z
1/2+x,1/2+y,z
1/2-x,1/2+y,-z
loop_
_atom_site_type_symbol
_atom_site_label
_atom_site_fract_x
_atom_site_fract_y
_atom_site_fract_z
Si Si1 0.369472 0.020440 0.385911
Si Si2 0.316339 0.646024 0.444210
Si Si3 0.130979 0.283054 0.094647
Si Si4 0.202747 0.972571 0.977334
Si Si5 0.124057 0.025664 0.762684
Si Si6 0.651471 0.874958 0.314071
Si Si7 0.303879 0.337074 0.528122
Si Si8 0.252571 0.086273 0.169685
O O1 0.320115 0.096778 0.475758
O O2 0.357852 0.075165 0.274988
O O3 0.536764 0.957555 0.365167
O O4 0.240024 0.935436 0.416507
O O5 0.500000 0.644766 0.500000
O O6 0.328877 0.586913 0.337474
O O7 0.257103 0.747774 0.407036
O O8 0.239132 0.368230 0.046309
O O9 0.070838 0.322586 0.212818
O O10 0.231521 0.189515 0.123812
O O11 0.000000 0.260281 0.000000
O O12 0.227307 0.035626 0.871558
O O13 0.000000 0.973646 0.000000
O O14 0.302076 0.016036 0.075027
O O15 0.932196 0.049793 0.791086
O O16 0.172353 0.920521 0.728622
O O17 0.701510 0.818799 0.418376
O O18 0.500000 0.335199 0.500000
#
# Coordination Sequence:
#
# PCOD9125033 Si02
#       8
#     4   4   4   4   4   4   4   4
#     4  12  24  42  69  98 141 183 227 289 350 409
#     4  12  24  42  66 100 141 183 235 279 349 418
#     4  11  23  43  70 104 136 178 236 289 344 418
#     4   9  21  43  66  93 130 175 227 284 343 409
#     4  10  21  39  65  89 133 176 222 275 340 408
#     4  11  24  43  68 101 143 183 233 288 350 414
#     4  12  27  43  66 101 143 187 237 288 346 421
#     4  11  22  43  69  96 131 184 229 282 357 410
#
# _framework density 22.539151
#
# number of rings (size 3 to 8) (size 9 to 14) (size 15 to 20)
#    0.000    1.000    2.500    4.875    3.500    0.000 
#    2.250    4.375    0.000    0.000    0.000    0.000 
#    0.000    0.000    0.000    0.000    0.000    0.000 
#
# Total GULP energy -89305.822267 kJ/mol
# GULP energy per Si atom -5581.613892 kJ/mol
# Density = 2.248785 g / cm^3
# Si number density = 22.539151 Si / 1000 Ang^3
#
#
#
# Elastic Constant Matrix: (Units=GPa)
#
#
# Indices 1 2 3 4 5 6 
#
# 1 60.9164 19.9632 17.3357 0.0000 1.6128 0.0000
# 2 19.9632 100.2201 29.9747 0.0000 -0.2550 0.0000
# 3 17.3357 29.9747 126.7679 0.0000 7.0822 0.0000
# 4 0.0000 0.0000 0.0000 20.5745 0.0000 -1.9563
# 5 1.6128 -0.2550 7.0822 0.0000 22.5314 0.0000
# 6 0.0000 0.0000 0.0000 -1.9563 0.0000 15.0869
#
#
#
# Elastic Compliance Matrix: (Units=1/GPa)
#
#
# Indices 1 2 3 4 5 6 
#
# 1 0.017921 -0.003069 -0.001681 0.000000 -0.000789 0.000000
# 2 -0.003069 0.011282 -0.002308 0.000000 0.001073 0.000000
# 3 -0.001681 -0.002308 0.008814 0.000000 -0.002676 0.000000
# 4 0.000000 0.000000 0.000000 0.049211 0.000000 0.006381
# 5 -0.000789 0.001073 -0.002676 0.000000 0.045292 0.000000
# 6 0.000000 0.000000 0.000000 0.006381 0.000000 0.067110
#
#
# Mechanical properties :
#
#
# Convention : Reuss Voigt Hill
#
# Bulk Modulus (GPa) = 41.83928 46.93907 44.38917
# Shear Modulus (GPa) = 22.55169 26.34727 24.44948
#
# Velocity S-wave (km/s) = 3.16659 3.42271 3.29714
# Velocity P-wave (km/s) = 5.65446 6.04075 5.85080
#
# Compressibility (1/GPa) = 0.02390099
#
# Stress axis : x y z
#
# Youngs Moduli (GPa) = 55.80061 88.63366 113.46168
#
# Poissons Ratio (x) = 0.27202 0.19072
# Poissons Ratio (y) = 0.17125 0.26187
# Poissons Ratio (z) = 0.09380 0.20457
#
# Static dielectric constant tensor:
#      x y z
#    x 1.918170 0.000000 0.038020 
#    y 0.000000 1.797570 0.000000 
#    z 0.038020 0.000000 1.915100 
# 
# From -- ./inp_files/36415.got.cif
#   From: 2010.05.17/outbox.cif.g08.bks.cpg/sg5_19_cif.got.tgz:36415.got - 2010.06.03 18:56:24.
