data_PCOD9125364
_publ_section_title
;
Structure prediction by ZEFSAII (Michael W. Deem and Ramdas Pophale) SiO2 
 PCOD9125364
Probable space group: C 2
;
_chemical_formula_sum "Si O2"
_cell_formula_units_Z 22
_cell_length_a 12.342332
_cell_length_b 18.319397
_cell_length_c 5.156592
_cell_angle_alpha 90.000000
_cell_angle_beta 117.496523
_cell_angle_gamma 90.000000
_cell_volume 1034.222095
_symmetry_space_group_name_H-M "C 2"
_symmetry_group_IT_number 5
_symmetry_cell_setting 'monoclinic'
loop_
_space_group_symop_operation_xyz
x,y,z
-x,y,-z
1/2+x,1/2+y,z
1/2-x,1/2+y,-z
loop_
_atom_site_type_symbol
_atom_site_label
_atom_site_fract_x
_atom_site_fract_y
_atom_site_fract_z
Si Si1 0.357611 0.243730 0.302230
Si Si2 0.500000 0.847506 0.500000
Si Si3 0.868944 0.024906 0.422347
Si Si4 0.262244 0.318597 0.686956
Si Si5 0.182112 0.450863 0.898651
Si Si6 0.726995 0.592036 0.174298
O O1 0.500000 0.230139 0.500000
O O2 0.316622 0.303779 0.467263
O O3 0.282447 0.170586 0.280360
O O4 0.326534 0.269475 0.977243
O O5 0.615713 0.803672 0.523207
O O6 0.561224 0.902356 0.777980
O O7 0.854345 0.061846 0.682166
O O8 0.000000 0.991276 0.500000
O O9 0.758110 0.969058 0.239509
O O10 0.847053 0.086314 0.175889
O O11 0.267144 0.400845 0.805659
O O12 0.167889 0.530131 0.752610
#
# Coordination Sequence:
#
# PCOD9125364 Si02
#       6
#     4   2   4   4   4   4
#     4  12  26  46  67 101 137 181 225 278 340 403
#     4   8  20  48  66 100 130 176 228 276 324 406
#     4  10  21  41  63 101 133 169 216 278 333 398
#     4  10  24  45  65 102 134 180 223 270 339 397
#     4   8  22  40  70  96 129 172 229 274 337 377
#     4  10  23  42  67  99 132 168 229 269 347 385
#
# _framework density 21.272027000000001
#
# number of rings (size 3 to 8) (size 9 to 14) (size 15 to 20)
#    2.182    0.000    0.000    2.182    3.818    1.455 
#   16.364    1.818    0.000    0.000    0.000    0.000 
#    0.000    0.000    0.000    0.000    0.000    0.000 
#
# Total GULP energy -61246.281993 kJ/mol
# GULP energy per Si atom -5567.843818 kJ/mol
# Density = 2.122361 g / cm^3
# Si number density = 21.272027 Si / 1000 Ang^3
#
#
#
# Elastic Constant Matrix: (Units=GPa)
#
#
# Indices 1 2 3 4 5 6 
#
# 1 40.4323 -20.0355 32.6545 0.0000 7.7329 0.0000
# 2 -20.0355 64.5801 7.4142 0.0000 -0.8131 0.0000
# 3 32.6545 7.4142 73.5710 0.0000 -1.5945 0.0000
# 4 0.0000 0.0000 0.0000 13.5181 0.0000 -2.5283
# 5 7.7329 -0.8131 -1.5945 0.0000 39.3628 0.0000
# 6 0.0000 0.0000 0.0000 -2.5283 0.0000 13.6240
#
#
#
# Elastic Compliance Matrix: (Units=1/GPa)
#
#
# Indices 1 2 3 4 5 6 
#
# 1 0.063679 0.023134 -0.030883 0.000000 -0.013283 0.000000
# 2 0.023134 0.024073 -0.012793 0.000000 -0.004566 0.000000
# 3 -0.030883 -0.012793 0.028740 0.000000 0.006967 0.000000
# 4 0.000000 0.000000 0.000000 0.076635 0.000000 0.014221
# 5 -0.013283 -0.004566 0.006967 0.000000 0.028202 0.000000
# 6 0.000000 0.000000 0.000000 0.014221 0.000000 0.076039
#
#
# Mechanical properties :
#
#
# Convention : Reuss Voigt Hill
#
# Bulk Modulus (GPa) = 13.26111 24.29444 18.77777
# Shear Modulus (GPa) = 13.75179 23.87099 18.81139
#
# Velocity S-wave (km/s) = 2.54534 3.35353 2.97699
# Velocity P-wave (km/s) = 3.85823 5.14203 4.54568
#
# Compressibility (1/GPa) = 0.07540847
#
# Stress axis : x y z
#
# Youngs Moduli (GPa) = 15.70364 41.54003 34.79451
#
# Poissons Ratio (x) = -0.96100 1.07457
# Poissons Ratio (y) = -0.36329 0.44513
# Poissons Ratio (z) = 0.48498 0.53143
#
# Static dielectric constant tensor:
#      x y z
#    x 1.786820 0.000000 0.017600 
#    y 0.000000 1.746830 0.000000 
#    z 0.017600 0.000000 1.772490 
# 
# From -- ./inp_files/5056.got.cif
#   From: 2010.05.17/outbox.cif.g08.bks.cpg/sg5_3_cif.got.tgz:5056.got - 2010.06.03 18:56:24.
