data_PCOD9125432
_publ_section_title
;
Structure prediction by ZEFSAII (Michael W. Deem and Ramdas Pophale) SiO2 
 PCOD9125432
Probable space group: C 2
;
_chemical_formula_sum "Si O2"
_cell_formula_units_Z 30
_cell_length_a 16.815353
_cell_length_b 11.295945
_cell_length_c 7.935910
_cell_angle_alpha 90.000000
_cell_angle_beta 118.345827
_cell_angle_gamma 90.000000
_cell_volume 1326.649712
_symmetry_space_group_name_H-M "C 2"
_symmetry_group_IT_number 5
_symmetry_cell_setting 'monoclinic'
loop_
_space_group_symop_operation_xyz
x,y,z
-x,y,-z
1/2+x,1/2+y,z
1/2-x,1/2+y,-z
loop_
_atom_site_type_symbol
_atom_site_label
_atom_site_fract_x
_atom_site_fract_y
_atom_site_fract_z
Si Si1 0.973892 0.469630 0.170089
Si Si2 0.583205 0.201071 0.397058
Si Si3 0.032439 0.213185 0.345786
Si Si4 0.187681 0.952050 0.113193
Si Si5 0.291382 0.082892 0.988326
Si Si6 0.264043 0.722062 0.364532
Si Si7 0.597243 0.293296 0.788716
Si Si8 0.500000 0.549011 0.000000
O O1 0.028904 0.576548 0.318763
O O2 0.999724 0.346409 0.279142
O O3 0.864779 0.478953 0.060996
O O4 0.000000 0.475094 0.000000
O O5 0.675189 0.198527 0.386628
O O6 0.602540 0.242002 0.606932
O O7 0.507641 0.298154 0.266817
O O8 0.141235 0.217201 0.445067
O O9 0.993915 0.129795 0.160804
O O10 0.000000 0.176692 0.500000
O O11 0.247523 0.852838 0.265932
O O12 0.241074 0.069706 0.115626
O O13 0.093552 0.977473 0.107972
O O14 0.156649 0.905460 0.895756
O O15 0.358695 0.194465 0.049877
O O16 0.230471 0.117497 0.769531
#
# Coordination Sequence:
#
# PCOD9125432 Si02
#       8
#     4   4   4   4   4   4   4   2
#     4  11  22  42  72  97 140 183 231 284 355 402
#     4  10  21  41  66 102 129 170 229 287 342 399
#     4  12  28  47  67 104 144 184 232 283 348 423
#     4  11  24  45  68  96 135 188 228 279 359 406
#     4  10  22  41  67  94 130 176 225 286 337 407
#     4  11  24  43  69  99 133 172 239 290 326 422
#     4   9  22  40  66  98 134 172 225 289 337 412
#     4  12  28  50  70  96 150 192 222 286 356 426
#
# _framework density 22.613353
#
# number of rings (size 3 to 8) (size 9 to 14) (size 15 to 20)
#    0.000    1.333    2.000    2.400    7.467    2.133 
#   12.000    0.000    0.000    0.000    0.000    0.000 
#    0.000    0.000    0.000    0.000    0.000    0.000 
#
# Total GULP energy -83708.538422 kJ/mol
# GULP energy per Si atom -5580.569228 kJ/mol
# Density = 2.256188 g / cm^3
# Si number density = 22.613353 Si / 1000 Ang^3
#
#
#
# Elastic Constant Matrix: (Units=GPa)
#
#
# Indices 1 2 3 4 5 6 
#
# 1 88.0020 5.5177 -3.3753 0.0000 -6.3561 0.0000
# 2 5.5177 41.5315 24.9140 0.0000 -2.7440 0.0000
# 3 -3.3753 24.9140 66.8997 0.0000 -4.7332 0.0000
# 4 0.0000 0.0000 0.0000 28.2521 0.0000 0.7548
# 5 -6.3561 -2.7440 -4.7332 0.0000 43.9282 0.0000
# 6 0.0000 0.0000 0.0000 0.7548 0.0000 25.6517
#
#
#
# Elastic Compliance Matrix: (Units=1/GPa)
#
#
# Indices 1 2 3 4 5 6 
#
# 1 0.011700 -0.002405 0.001607 0.000000 0.001716 0.000000
# 2 -0.002405 0.031520 -0.011835 0.000000 0.000346 0.000000
# 3 0.001607 -0.011835 0.019550 0.000000 0.001600 0.000000
# 4 0.000000 0.000000 0.000000 0.035423 0.000000 -0.001042
# 5 0.001716 0.000346 0.001600 0.000000 0.023207 0.000000
# 6 0.000000 0.000000 0.000000 -0.001042 0.000000 0.039014
#
#
# Mechanical properties :
#
#
# Convention : Reuss Voigt Hill
#
# Bulk Modulus (GPa) = 26.66432 27.83846 27.25139
# Shear Modulus (GPa) = 25.22937 30.85817 28.04377
#
# Velocity S-wave (km/s) = 3.34381 3.69806 3.52539
# Velocity P-wave (km/s) = 5.16963 5.52915 5.35241
#
# Compressibility (1/GPa) = 0.03750330
#
# Stress axis : x y z
#
# Youngs Moduli (GPa) = 85.47173 31.72562 51.15191
#
# Poissons Ratio (x) = 0.07631 -0.08222
# Poissons Ratio (y) = 0.20558 0.60540
# Poissons Ratio (z) = -0.13739 0.37548
#
# Static dielectric constant tensor:
#      x y z
#    x 1.894020 0.000000 0.022960 
#    y 0.000000 1.908860 0.000000 
#    z 0.022960 0.000000 1.891080 
# 
# From -- ./inp_files/27421.got.cif
#   From: 2010.05.17/outbox.cif.g08.bks.cpg/sg5_14_cif.got.tgz:27421.got - 2010.06.03 18:56:24.
