data_PCOD9125841
_publ_section_title
;
Structure prediction by ZEFSAII (Michael W. Deem and Ramdas Pophale) SiO2 
 PCOD9125841
Probable space group: C 2
;
_chemical_formula_sum "Si O2"
_cell_formula_units_Z 22
_cell_length_a 9.391070
_cell_length_b 10.677167
_cell_length_c 12.124125
_cell_angle_alpha 90.000000
_cell_angle_beta 131.229730
_cell_angle_gamma 90.000000
_cell_volume 914.284862
_symmetry_space_group_name_H-M "C 2"
_symmetry_group_IT_number 5
_symmetry_cell_setting 'monoclinic'
loop_
_space_group_symop_operation_xyz
x,y,z
-x,y,-z
1/2+x,1/2+y,z
1/2-x,1/2+y,-z
loop_
_atom_site_type_symbol
_atom_site_label
_atom_site_fract_x
_atom_site_fract_y
_atom_site_fract_z
Si Si1 0.625603 0.049180 0.928665
Si Si2 0.206848 0.471564 0.509428
Si Si3 0.500000 0.587729 0.500000
Si Si4 0.805338 0.586417 0.278063
Si Si5 0.726298 0.165538 0.178901
Si Si6 0.555140 0.808804 0.251274
O O1 0.738207 0.066254 0.872904
O O2 0.488154 0.167596 0.885817
O O3 0.480014 0.935306 0.834841
O O4 0.739518 0.045769 0.100754
O O5 0.389801 0.508520 0.534904
O O6 0.244721 0.477539 0.658876
O O7 0.135390 0.347367 0.412307
O O8 0.036700 0.574600 0.401588
O O9 0.345795 0.658965 0.350964
O O10 0.694339 0.708281 0.266240
O O11 0.841623 0.263294 0.163998
#
# Coordination Sequence:
#
# PCOD9125841 Si02
#       6
#     4   4   2   4   4   4
#     4  10  25  48  67 104 145 179 243 291 337 430
#     4  10  23  43  65 108 141 174 237 288 337 425
#     4  12  20  46  70  98 142 184 220 300 338 406
#     4  10  21  44  69 103 143 177 235 291 336 418
#     4  11  24  45  74  99 145 185 232 292 348 417
#     4  11  23  46  75  99 138 198 223 286 366 401
#
# _framework density 24.062522999999999
#
# number of rings (size 3 to 8) (size 9 to 14) (size 15 to 20)
#    0.000    1.455    5.455    0.000    0.000    8.000 
#    0.000   16.364    4.000    0.000    0.000    0.000 
#    0.000    0.000    0.000    0.000    0.000    0.000 
#
# Total GULP energy -61265.963357 kJ/mol
# GULP energy per Si atom -5569.633032 kJ/mol
# Density = 2.400776 g / cm^3
# Si number density = 24.062523 Si / 1000 Ang^3
#
#
#
# Elastic Constant Matrix: (Units=GPa)
#
#
# Indices 1 2 3 4 5 6 
#
# 1 149.3518 46.9176 26.3668 0.0000 -30.3373 0.0000
# 2 46.9176 68.1394 25.2053 0.0000 -14.0523 0.0000
# 3 26.3668 25.2053 122.5932 0.0000 -46.8661 0.0000
# 4 0.0000 0.0000 0.0000 15.4567 0.0000 1.8124
# 5 -30.3373 -14.0523 -46.8661 0.0000 54.8702 0.0000
# 6 0.0000 0.0000 0.0000 1.8124 0.0000 40.6292
#
#
#
# Elastic Compliance Matrix: (Units=1/GPa)
#
#
# Indices 1 2 3 4 5 6 
#
# 1 0.009249 -0.005789 0.000875 0.000000 0.004378 0.000000
# 2 -0.005789 0.019642 -0.003109 0.000000 -0.000826 0.000000
# 3 0.000875 -0.003109 0.012604 0.000000 0.010453 0.000000
# 4 0.000000 0.000000 0.000000 0.065037 0.000000 -0.002901
# 5 0.004378 -0.000826 0.010453 0.000000 0.029362 0.000000
# 6 0.000000 0.000000 0.000000 -0.002901 0.000000 0.024742
#
#
# Mechanical properties :
#
#
# Convention : Reuss Voigt Hill
#
# Bulk Modulus (GPa) = 39.29556 59.67379 49.48467
# Shear Modulus (GPa) = 27.00280 38.29753 32.65016
#
# Velocity S-wave (km/s) = 3.35355 3.99379 3.68759
# Velocity P-wave (km/s) = 5.60010 6.79121 6.22421
#
# Compressibility (1/GPa) = 0.02544817
#
# Stress axis : x y z
#
# Youngs Moduli (GPa) = 108.11811 50.91220 79.33858
#
# Poissons Ratio (x) = 0.29474 -0.06940
# Poissons Ratio (y) = 0.62592 0.24667
# Poissons Ratio (z) = -0.09458 0.15829
#
# Static dielectric constant tensor:
#      x y z
#    x 2.022190 0.000000 0.116500 
#    y 0.000000 1.982700 0.000000 
#    z 0.116500 0.000000 2.084980 
# 
# From -- ./inp_files/35484.got.cif
#   From: 2010.05.17/outbox.cif.g08.bks.cpg/sg5_18_cif.got.tgz:35484.got - 2010.06.03 18:56:24.
