data_PCOD9125243
_publ_section_title
;
Structure prediction by ZEFSAII (Michael W. Deem and Ramdas Pophale) SiO2 
 PCOD9125243
Probable space group: C 2
;
_chemical_formula_sum "Si O2"
_cell_formula_units_Z 20
_cell_length_a 15.362150
_cell_length_b 9.464937
_cell_length_c 11.656229
_cell_angle_alpha 90.000000
_cell_angle_beta 153.678223
_cell_angle_gamma 90.000000
_cell_volume 751.510651
_symmetry_space_group_name_H-M "C 2"
_symmetry_group_IT_number 5
_symmetry_cell_setting 'monoclinic'
loop_
_space_group_symop_operation_xyz
x,y,z
-x,y,-z
1/2+x,1/2+y,z
1/2-x,1/2+y,-z
loop_
_atom_site_type_symbol
_atom_site_label
_atom_site_fract_x
_atom_site_fract_y
_atom_site_fract_z
Si Si1 0.944368 0.347680 0.684508
Si Si2 0.210057 0.831571 0.185009
Si Si3 0.243779 0.551920 0.106224
Si Si4 0.652443 0.399747 0.545928
Si Si5 0.814165 0.151347 0.865437
O O1 0.270353 0.217970 0.891758
O O2 0.863945 0.301069 0.467926
O O3 0.761312 0.379951 0.554050
O O4 0.062362 0.493505 0.821307
O O5 0.242595 0.990843 0.181590
O O6 0.000000 0.821016 0.000000
O O7 0.443789 0.478471 0.297836
O O8 0.093885 0.235417 0.918513
O O9 0.774884 0.491046 0.784352
O O10 0.657975 0.245829 0.611770
O O11 0.000000 0.144421 0.000000
#
# Coordination Sequence:
#
# PCOD9125243 Si02
#       5
#     4   4   4   4   4
#     4  10  21  43  70  93 131 186 223 273 351 409
#     4  11  23  39  69 106 134 174 236 288 340 414
#     4  10  21  40  65  98 136 177 224 283 342 406
#     4   9  19  40  67  94 135 180 224 277 342 412
#     4   8  18  38  65  97 132 174 227 281 335 408
#
# _framework density 26.613060999999998
#
# number of rings (size 3 to 8) (size 9 to 14) (size 15 to 20)
#    0.000    2.400    0.000    3.000    0.000    9.600 
#    0.000   22.000    0.000   24.000    0.000    0.000 
#    0.000    0.000    0.000    0.000    0.000    0.000 
#
# Total GULP energy -56092.127048 kJ/mol
# GULP energy per Si atom -5609.212705 kJ/mol
# Density = 2.655249 g / cm^3
# Si number density = 26.613061 Si / 1000 Ang^3
#
#
#
# Elastic Constant Matrix: (Units=GPa)
#
#
# Indices 1 2 3 4 5 6 
#
# 1 148.9642 53.8344 41.8117 0.0000 16.5062 0.0000
# 2 53.8344 238.4137 67.4152 0.0000 11.2745 0.0000
# 3 41.8117 67.4152 113.8459 0.0000 6.7563 0.0000
# 4 0.0000 0.0000 0.0000 37.3903 0.0000 1.2276
# 5 16.5062 11.2745 6.7563 0.0000 49.7087 0.0000
# 6 0.0000 0.0000 0.0000 1.2276 0.0000 11.8035
#
#
#
# Elastic Compliance Matrix: (Units=1/GPa)
#
#
# Indices 1 2 3 4 5 6 
#
# 1 0.007941 -0.001086 -0.002149 0.000000 -0.002099 0.000000
# 2 -0.001086 0.005214 -0.002661 0.000000 -0.000460 0.000000
# 3 -0.002149 -0.002661 0.011161 0.000000 -0.000200 0.000000
# 4 0.000000 0.000000 0.000000 0.026837 0.000000 -0.002791
# 5 -0.002099 -0.000460 -0.000200 0.000000 0.020946 0.000000
# 6 0.000000 0.000000 0.000000 -0.002791 0.000000 0.085011
#
#
# Mechanical properties :
#
#
# Convention : Reuss Voigt Hill
#
# Bulk Modulus (GPa) = 79.85095 91.92738 85.88916
# Shear Modulus (GPa) = 28.88901 42.32466 35.60683
#
# Velocity S-wave (km/s) = 3.29830 3.99227 3.66176
# Velocity P-wave (km/s) = 6.67642 7.47450 7.08670
#
# Compressibility (1/GPa) = 0.01252333
#
# Stress axis : x y z
#
# Youngs Moduli (GPa) = 125.92479 191.79327 89.60019
#
# Poissons Ratio (x) = 0.20835 0.19253
# Poissons Ratio (y) = 0.13680 0.23845
# Poissons Ratio (z) = 0.27058 0.51040
#
# Static dielectric constant tensor:
#      x y z
#    x 2.083710 0.000000 0.019640 
#    y 0.000000 2.105360 0.000000 
#    z 0.019640 0.000000 2.048620 
# 
# From -- ./inp_files/43182.got.cif
#   From: 2010.05.17/outbox.cif.g08.bks.cpg/sg5_22_cif.got.tgz:43182.got - 2010.06.03 18:56:24.
