data_PCOD9125738
_publ_section_title
;
Structure prediction by ZEFSAII (Michael W. Deem and Ramdas Pophale) SiO2 
 PCOD9125738
Probable space group: C 2
;
_chemical_formula_sum "Si O2"
_cell_formula_units_Z 20
_cell_length_a 8.066908
_cell_length_b 25.276542
_cell_length_c 9.172935
_cell_angle_alpha 90.000000
_cell_angle_beta 147.001238
_cell_angle_gamma 90.000000
_cell_volume 1018.655639
_symmetry_space_group_name_H-M "C 2"
_symmetry_group_IT_number 5
_symmetry_cell_setting 'monoclinic'
loop_
_space_group_symop_operation_xyz
x,y,z
-x,y,-z
1/2+x,1/2+y,z
1/2-x,1/2+y,-z
loop_
_atom_site_type_symbol
_atom_site_label
_atom_site_fract_x
_atom_site_fract_y
_atom_site_fract_z
Si Si1 0.638795 0.930390 0.747887
Si Si2 0.000000 0.530937 0.500000
Si Si3 0.796170 0.251662 0.487362
Si Si4 0.293809 0.180338 0.987435
Si Si5 0.336335 0.850180 0.731010
Si Si6 0.500000 0.603183 0.000000
O O1 0.500000 0.903586 0.500000
O O2 0.548394 0.894261 0.814439
O O3 0.492020 0.989107 0.628934
O O4 0.000000 0.935814 0.000000
O O5 0.709168 0.567032 0.257950
O O6 0.477607 0.229503 0.193799
O O7 0.784133 0.299505 0.590113
O O8 0.000000 0.268323 0.500000
O O9 0.976588 0.202648 0.692152
O O10 0.216675 0.138352 0.055781
O O11 0.500000 0.162478 0.000000
O O12 0.000000 0.874015 0.500000
O O13 0.500000 0.833571 0.000000
#
# Coordination Sequence:
#
# PCOD9125738 Si02
#       6
#     4   2   4   4   4   2
#     4  10  21  43  67  83 127 169 217 260 313 398
#     4  10  22  42  68  92 114 170 230 250 328 384
#     4  10  22  41  60  88 129 176 208 248 314 394
#     4  10  23  40  62  93 131 168 213 262 319 388
#     4  12  25  37  62  99 133 165 216 265 325 377
#     4  12  22  40  70  94 124 172 212 282 320 366
#
# _framework density 19.63372
#
# number of rings (size 3 to 8) (size 9 to 14) (size 15 to 20)
#    0.600    0.800    1.000    4.200    4.200    2.400 
#    0.000    3.000    0.000    0.000    0.000    0.000 
#    0.000    0.000    0.000    0.000    0.000    0.000 
#
# Total GULP energy -55801.774074 kJ/mol
# GULP energy per Si atom -5580.177407 kJ/mol
# Density = 1.958903 g / cm^3
# Si number density = 19.633720 Si / 1000 Ang^3
#
#
#
# Elastic Constant Matrix: (Units=GPa)
#
#
# Indices 1 2 3 4 5 6 
#
# 1 90.4133 58.7950 31.2925 0.0000 -6.7042 0.0000
# 2 58.7950 80.2847 12.2238 0.0000 -7.1932 0.0000
# 3 31.2925 12.2238 104.0752 0.0000 -2.4131 0.0000
# 4 0.0000 0.0000 0.0000 -8.9681 0.0000 25.0911
# 5 -6.7042 -7.1932 -2.4131 0.0000 28.1296 0.0000
# 6 0.0000 0.0000 0.0000 25.0911 0.0000 21.3071
#
#
#
# Elastic Compliance Matrix: (Units=1/GPa)
#
#
# Indices 1 2 3 4 5 6 
#
# 1 0.023571 -0.016391 -0.005139 0.000000 0.000985 0.000000
# 2 -0.016391 0.024360 0.002125 0.000000 0.002505 0.000000
# 3 -0.005139 0.002125 0.010910 0.000000 0.000255 0.000000
# 4 0.000000 0.000000 0.000000 -0.025964 0.000000 0.030575
# 5 0.000985 0.002505 0.000255 0.000000 0.036447 0.000000
# 6 0.000000 0.000000 0.000000 0.030575 0.000000 0.010928
#
#
# Mechanical properties :
#
#
# Convention : Reuss Voigt Hill
#
# Bulk Modulus (GPa) = 49.92186 53.26620 51.59403
# Shear Modulus (GPa) = 39.76473 19.59117 29.67795
#
# Velocity S-wave (km/s) = 4.50525 3.16228 3.89212
# Velocity P-wave (km/s) = 7.24878 6.36570 6.82155
#
# Compressibility (1/GPa) = 0.02003130
#
# Stress axis : x y z
#
# Youngs Moduli (GPa) = 42.42490 41.05052 91.65972
#
# Poissons Ratio (x) = 0.67286 0.47105
# Poissons Ratio (y) = 0.69539 -0.19480
# Poissons Ratio (z) = 0.21803 -0.08724
#
# Static dielectric constant tensor:
#      x y z
#    x 1.711260 0.000000 -0.034140 
#    y 0.000000 1.673170 0.000000 
#    z -0.034140 0.000000 1.680650 
# 
# From -- ./inp_files/2678.got.cif
#   From: 2010.05.17/outbox.cif.g08.bks.cpg/sg5_2_cif.got.tgz:2678.got - 2010.06.03 18:56:24.
