data_PCOD9125421
_publ_section_title
;
Structure prediction by ZEFSAII (Michael W. Deem and Ramdas Pophale) SiO2 
 PCOD9125421
Probable space group: C 2
;
_chemical_formula_sum "Si O2"
_cell_formula_units_Z 32
_cell_length_a 15.687677
_cell_length_b 20.486548
_cell_length_c 9.253048
_cell_angle_alpha 90.000000
_cell_angle_beta 26.138934
_cell_angle_gamma 90.000000
_cell_volume 1310.106969
_symmetry_space_group_name_H-M "C 2"
_symmetry_group_IT_number 5
_symmetry_cell_setting 'monoclinic'
loop_
_space_group_symop_operation_xyz
x,y,z
-x,y,-z
1/2+x,1/2+y,z
1/2-x,1/2+y,-z
loop_
_atom_site_type_symbol
_atom_site_label
_atom_site_fract_x
_atom_site_fract_y
_atom_site_fract_z
Si Si1 0.985284 0.240780 0.694343
Si Si2 0.706659 0.528478 0.624557
Si Si3 0.711973 0.121890 0.115518
Si Si4 0.590426 0.477555 0.502494
Si Si5 0.712582 0.970126 0.221437
Si Si6 0.293840 0.344830 0.738470
Si Si7 0.497807 0.142564 0.174915
Si Si8 0.786593 0.255683 0.387974
O O1 0.000000 0.242967 0.500000
O O2 0.181548 0.250677 0.488147
O O3 0.880400 0.172545 0.899615
O O4 0.855572 0.301410 0.945038
O O5 0.687258 0.516455 0.484264
O O6 0.761564 0.468416 0.645117
O O7 0.866888 0.580971 0.412037
O O8 0.500000 0.551201 0.000000
O O9 0.500000 0.142378 0.500000
O O10 0.732528 0.046761 0.136541
O O11 0.689110 0.130915 0.976756
O O12 0.500000 0.512645 0.500000
O O13 0.733651 0.422634 0.224066
O O14 0.406313 0.440695 0.857269
O O15 0.500000 0.947382 0.500000
O O16 0.500000 0.332217 0.500000
O O17 0.270524 0.321567 0.607594
O O18 0.380559 0.206035 0.400986
O O19 0.500000 0.143753 0.000000
O O20 0.000000 0.238151 0.000000
#
# Coordination Sequence:
#
# PCOD9125421 Si02
#       8
#     4   4   4   4   4   4   4   4
#     4  11  23  40  66 104 135 169 223 278 335 401
#     4  10  22  40  63  90 130 173 223 266 326 392
#     4  11  21  38  64  96 142 181 207 269 340 408
#     4  10  24  43  68  92 126 179 228 279 330 390
#     4  10  21  41  65  96 132 176 224 269 334 400
#     4  10  22  46  69  89 128 178 225 274 341 391
#     4  12  23  35  57  99 136 174 208 272 332 393
#     4  10  22  39  66  94 129 173 223 264 334 403
#
# _framework density 24.425487
#
# number of rings (size 3 to 8) (size 9 to 14) (size 15 to 20)
#    0.000    1.500    2.500    3.750    5.250    0.500 
#    0.000   21.250    0.000    0.000    0.000    0.000 
#    0.000    0.000    0.000    0.000    0.000    0.000 
#
# Total GULP energy -89401.234920 kJ/mol
# GULP energy per Si atom -5587.577183 kJ/mol
# Density = 2.436989 g / cm^3
# Si number density = 24.425487 Si / 1000 Ang^3
#
#
#
# Elastic Constant Matrix: (Units=GPa)
#
#
# Indices 1 2 3 4 5 6 
#
# 1 184.5158 24.9005 -3.8264 -0.0341 6.2438 0.0000
# 2 24.9005 53.7401 7.9275 -0.0398 -0.5600 0.0046
# 3 -3.8264 7.9275 37.4127 -0.0659 -3.2445 0.0086
# 4 -0.0341 -0.0398 -0.0659 25.9848 0.0141 -2.3338
# 5 6.2438 -0.5600 -3.2445 0.0141 39.0845 -0.0051
# 6 0.0000 0.0046 0.0086 -2.3338 -0.0051 35.3812
#
#
#
# Elastic Compliance Matrix: (Units=1/GPa)
#
#
# Indices 1 2 3 4 5 6 
#
# 1 0.005864 -0.002894 0.001136 0.000007 -0.000884 0.000000
# 2 -0.002894 0.020637 -0.004636 0.000016 0.000373 0.000000
# 3 0.001136 -0.004636 0.028008 0.000064 0.002077 -0.000002
# 4 0.000007 0.000016 0.000064 0.038714 -0.000009 0.002554
# 5 -0.000884 0.000373 0.002077 -0.000009 0.025905 0.000003
# 6 0.000000 0.000000 -0.000002 0.002554 0.000003 0.028432
#
#
# Mechanical properties :
#
#
# Convention : Reuss Voigt Hill
#
# Bulk Modulus (GPa) = 23.96915 37.07467 30.52191
# Shear Modulus (GPa) = 28.69395 36.53454 32.61425
#
# Velocity S-wave (km/s) = 3.43119 3.87169 3.65808
# Velocity P-wave (km/s) = 5.05291 5.93282 5.51045
#
# Compressibility (1/GPa) = 0.04172030
#
# Stress axis : x y z
#
# Youngs Moduli (GPa) = 170.54454 48.45734 35.70443
#
# Poissons Ratio (x) = 0.14022 -0.04057
# Poissons Ratio (y) = 0.49351 0.16554
# Poissons Ratio (z) = -0.19378 0.22467
#
# Static dielectric constant tensor:
#      x y z
#    x 1.911940 -0.000070 0.156090 
#    y -0.000070 1.936180 0.000090 
#    z 0.156090 0.000090 1.870280 
# 
# From -- ./inp_files/25631.got.cif
#   From: 2010.05.17/outbox.cif.g08.bks.cpg/sg5_13_cif.got.tgz:25631.got - 2010.06.03 18:56:24.
