data_PCOD9125793
_publ_section_title
;
Structure prediction by ZEFSAII (Michael W. Deem and Ramdas Pophale) SiO2 
 PCOD9125793
Probable space group: C 2
;
_chemical_formula_sum "Si O2"
_cell_formula_units_Z 24
_cell_length_a 8.351211
_cell_length_b 18.203240
_cell_length_c 8.272628
_cell_angle_alpha 90.000000
_cell_angle_beta 54.374561
_cell_angle_gamma 90.000000
_cell_volume 1022.228303
_symmetry_space_group_name_H-M "C 2"
_symmetry_group_IT_number 5
_symmetry_cell_setting 'monoclinic'
loop_
_space_group_symop_operation_xyz
x,y,z
-x,y,-z
1/2+x,1/2+y,z
1/2-x,1/2+y,-z
loop_
_atom_site_type_symbol
_atom_site_label
_atom_site_fract_x
_atom_site_fract_y
_atom_site_fract_z
Si Si1 0.920069 0.968420 0.365659
Si Si2 0.295649 0.843779 0.673112
Si Si3 0.639580 0.111175 0.075288
Si Si4 0.447064 0.631774 0.340713
Si Si5 0.836711 0.442611 0.955290
Si Si6 0.911186 0.731955 0.398030
O O1 0.753041 0.911063 0.418969
O O2 0.000000 0.966258 0.500000
O O3 0.856319 0.051196 0.362996
O O4 0.114659 0.948463 0.151137
O O5 0.500000 0.808822 0.500000
O O6 0.325344 0.878712 0.830167
O O7 0.131242 0.783679 0.729978
O O8 0.552360 0.166505 0.257109
O O9 0.627387 0.025411 0.133066
O O10 0.500000 0.115917 0.000000
O O11 0.857696 0.133784 0.885005
O O12 0.500000 0.631134 0.500000
O O13 0.289180 0.695480 0.418163
O O14 0.000000 0.430102 0.000000
O O15 0.000000 0.774053 0.500000
#
# Coordination Sequence:
#
# PCOD9125793 Si02
#       6
#     4   4   4   4   4   4
#     4  10  22  42  73 106 144 186 243 304 355 429
#     4  12  27  45  70 102 153 195 244 294 374 435
#     4  10  22  42  77 108 144 187 246 313 366 425
#     4  10  21  43  74 107 141 192 251 300 357 438
#     4  10  23  44  73 112 138 187 251 301 362 433
#     4  12  28  46  71 107 154 197 246 297 377 438
#
# _framework density 23.478120000000001
#
# number of rings (size 3 to 8) (size 9 to 14) (size 15 to 20)
#    0.000    1.333    1.667    2.500    7.000    2.000 
#    0.000    0.000    3.667    0.000    0.000    0.000 
#    0.000    0.000    0.000    0.000    0.000    0.000 
#
# Total GULP energy -67128.389123 kJ/mol
# GULP energy per Si atom -5594.032427 kJ/mol
# Density = 2.342468 g / cm^3
# Si number density = 23.478120 Si / 1000 Ang^3
#
#
#
# Elastic Constant Matrix: (Units=GPa)
#
#
# Indices 1 2 3 4 5 6 
#
# 1 105.9384 54.9922 27.7944 0.0000 21.5233 0.0000
# 2 54.9922 107.6382 42.2306 0.0000 3.4197 0.0000
# 3 27.7944 42.2306 71.6252 0.0000 -2.1005 0.0000
# 4 0.0000 0.0000 0.0000 5.7567 0.0000 10.3784
# 5 21.5233 3.4197 -2.1005 0.0000 31.8322 0.0000
# 6 0.0000 0.0000 0.0000 10.3784 0.0000 22.9038
#
#
#
# Elastic Compliance Matrix: (Units=1/GPa)
#
#
# Indices 1 2 3 4 5 6 
#
# 1 0.015568 -0.006703 -0.002381 0.000000 -0.009963 0.000000
# 2 -0.006703 0.015073 -0.006213 0.000000 0.002503 0.000000
# 3 -0.002381 -0.006213 0.018651 0.000000 0.003508 0.000000
# 4 0.000000 0.000000 0.000000 0.948770 0.000000 -0.429916
# 5 -0.009963 0.002503 0.003508 0.000000 0.038114 0.000000
# 6 0.000000 0.000000 0.000000 -0.429916 0.000000 0.238468
#
#
# Mechanical properties :
#
#
# Convention : Reuss Voigt Hill
#
# Bulk Modulus (GPa) = 53.47949 59.47068 56.47509
# Shear Modulus (GPa) = 3.81251 22.77751 13.29501
#
# Velocity S-wave (km/s) = 1.27569 3.11812 2.38223
# Velocity P-wave (km/s) = 4.99977 6.19264 5.62790
#
# Compressibility (1/GPa) = 0.01869876
#
# Stress axis : x y z
#
# Youngs Moduli (GPa) = 64.23517 66.34512 53.61502
#
# Poissons Ratio (x) = 0.44469 0.12768
# Poissons Ratio (y) = 0.43055 0.33308
# Poissons Ratio (z) = 0.15297 0.41217
#
# Static dielectric constant tensor:
#      x y z
#    x 1.854200 0.000000 -0.024220 
#    y 0.000000 1.877460 0.000000 
#    z -0.024220 0.000000 1.840660 
# 
# From -- ./inp_files/16703.got.cif
#   From: 2010.05.17/outbox.cif.g08.bks.cpg/sg5_9_cif.got.tgz:16703.got - 2010.06.03 18:56:24.
