data_PCOD9125889
_publ_section_title
;
Structure prediction by ZEFSAII (Michael W. Deem and Ramdas Pophale) SiO2 
 PCOD9125889
Probable space group: C 2
;
_chemical_formula_sum "Si O2"
_cell_formula_units_Z 26
_cell_length_a 11.600649
_cell_length_b 10.326710
_cell_length_c 10.593018
_cell_angle_alpha 90.000000
_cell_angle_beta 59.838526
_cell_angle_gamma 90.000000
_cell_volume 1097.199646
_symmetry_space_group_name_H-M "C 2"
_symmetry_group_IT_number 5
_symmetry_cell_setting 'monoclinic'
loop_
_space_group_symop_operation_xyz
x,y,z
-x,y,-z
1/2+x,1/2+y,z
1/2-x,1/2+y,-z
loop_
_atom_site_type_symbol
_atom_site_label
_atom_site_fract_x
_atom_site_fract_y
_atom_site_fract_z
Si Si1 0.402274 0.581780 0.311108
Si Si2 0.764761 0.417621 0.953408
Si Si3 0.500000 0.529674 0.000000
Si Si4 0.080904 0.271690 0.347067
Si Si5 0.740614 0.523129 0.378167
Si Si6 0.389347 0.351606 0.741073
Si Si7 0.515021 0.127724 0.138789
O O1 0.462230 0.713450 0.329671
O O2 0.274055 0.539953 0.462601
O O3 0.509323 0.471192 0.291043
O O4 0.411824 0.596639 0.156450
O O5 0.612897 0.447391 0.004553
O O6 0.824847 0.345369 0.800644
O O7 0.850895 0.543895 0.932132
O O8 0.744230 0.346946 0.097827
O O9 0.161405 0.149822 0.364195
O O10 0.000000 0.346932 0.500000
O O11 0.668712 0.392649 0.364762
O O12 0.888730 0.538767 0.243762
O O13 0.470495 0.230499 0.754330
O O14 0.500000 0.174169 0.000000
#
# Coordination Sequence:
#
# PCOD9125889 Si02
#       7
#     4   4   2   4   4   4   4
#     4   9  21  43  67  99 133 185 236 289 359 427
#     4  11  24  41  65 101 137 185 241 296 352 432
#     4  10  24  42  64  96 134 186 236 282 362 422
#     4   9  20  41  69  92 133 184 232 293 356 416
#     4  10  21  45  71  98 138 185 244 288 356 430
#     4  10  22  40  70  97 135 187 234 289 356 431
#     4  12  25  44  69 107 145 187 243 297 360 427
#
# _framework density 23.69669
#
# number of rings (size 3 to 8) (size 9 to 14) (size 15 to 20)
#    0.000    1.846    1.538    2.308   12.923    1.231 
#    6.923    3.077    0.000    0.000    0.000    0.000 
#    0.000    0.000    0.000    0.000    0.000    0.000 
#
# Total GULP energy -72418.544665 kJ/mol
# GULP energy per Si atom -5570.657282 kJ/mol
# Density = 2.364276 g / cm^3
# Si number density = 23.696690 Si / 1000 Ang^3
#
#
#
# Elastic Constant Matrix: (Units=GPa)
#
#
# Indices 1 2 3 4 5 6 
#
# 1 67.4075 28.7243 24.7921 0.0000 -4.0220 0.0000
# 2 28.7243 41.3490 12.0569 0.0000 7.3515 0.0000
# 3 24.7921 12.0569 154.0926 0.0000 15.9530 0.0000
# 4 0.0000 0.0000 0.0000 18.2764 0.0000 1.3171
# 5 -4.0220 7.3515 15.9530 0.0000 35.6908 0.0000
# 6 0.0000 0.0000 0.0000 1.3171 0.0000 25.9773
#
#
#
# Elastic Compliance Matrix: (Units=1/GPa)
#
#
# Indices 1 2 3 4 5 6 
#
# 1 0.023669 -0.016838 -0.003278 0.000000 0.007601 0.000000
# 2 -0.016838 0.037417 0.000813 0.000000 -0.009968 0.000000
# 3 -0.003278 0.000813 0.007349 0.000000 -0.003822 0.000000
# 4 0.000000 0.000000 0.000000 0.054916 0.000000 -0.002784
# 5 0.007601 -0.009968 -0.003822 0.000000 0.032636 0.000000
# 6 0.000000 0.000000 0.000000 -0.002784 0.000000 0.038636
#
#
# Mechanical properties :
#
#
# Convention : Reuss Voigt Hill
#
# Bulk Modulus (GPa) = 33.52308 43.77730 38.65019
# Shear Modulus (GPa) = 20.56160 29.14063 24.85112
#
# Velocity S-wave (km/s) = 2.94887 3.51056 3.24190
# Velocity P-wave (km/s) = 5.07660 5.91153 5.50990
#
# Compressibility (1/GPa) = 0.02983020
#
# Stress axis : x y z
#
# Youngs Moduli (GPa) = 42.24867 26.72611 136.07395
#
# Poissons Ratio (x) = 0.45002 0.44599
# Poissons Ratio (y) = 0.71139 -0.11069
# Poissons Ratio (z) = 0.13847 -0.02174
#
# Static dielectric constant tensor:
#      x y z
#    x 2.016010 0.000000 0.115330 
#    y 0.000000 1.935910 0.000000 
#    z 0.115330 0.000000 2.074300 
# 
# From -- ./inp_files/39109.got.cif
#   From: 2010.05.17/outbox.cif.g08.bks.cpg/sg5_20_cif.got.tgz:39109.got - 2010.06.03 18:56:24.
