data_PCOD9125367
_publ_section_title
;
Structure prediction by ZEFSAII (Michael W. Deem and Ramdas Pophale) SiO2 
 PCOD9125367
Probable space group: C 2
;
_chemical_formula_sum "Si O2"
_cell_formula_units_Z 32
_cell_length_a 23.438971
_cell_length_b 14.752798
_cell_length_c 8.703028
_cell_angle_alpha 90.000000
_cell_angle_beta 26.120043
_cell_angle_gamma 90.000000
_cell_volume 1324.908622
_symmetry_space_group_name_H-M "C 2"
_symmetry_group_IT_number 5
_symmetry_cell_setting 'monoclinic'
loop_
_space_group_symop_operation_xyz
x,y,z
-x,y,-z
1/2+x,1/2+y,z
1/2-x,1/2+y,-z
loop_
_atom_site_type_symbol
_atom_site_label
_atom_site_fract_x
_atom_site_fract_y
_atom_site_fract_z
Si Si1 0.220847 0.480650 0.250378
Si Si2 0.633812 0.193929 0.963713
Si Si3 0.227239 0.528568 0.890674
Si Si4 0.901992 0.299092 0.374813
Si Si5 0.018127 0.142599 0.637936
Si Si6 0.554904 0.379518 0.123591
Si Si7 0.767300 0.659839 0.602571
Si Si8 0.196341 0.869724 0.453091
O O1 0.125775 0.404438 0.543903
O O2 0.365014 0.443849 0.955126
O O3 0.190616 0.581423 0.382941
O O4 0.208352 0.482776 0.099319
O O5 0.631094 0.110328 0.082804
O O6 0.768591 0.248768 0.657967
O O7 0.536416 0.276062 0.224707
O O8 0.644670 0.159451 0.762111
O O9 0.366336 0.582348 0.570888
O O10 0.206253 0.451762 0.811237
O O11 0.947565 0.248136 0.417765
O O12 0.000000 0.282006 0.000000
O O13 0.000000 0.124907 0.500000
O O14 0.883458 0.131652 0.056360
O O15 0.639618 0.375887 0.761609
O O16 0.413488 0.401267 0.402631
O O17 0.767355 0.764618 0.659339
#
# Coordination Sequence:
#
# PCOD9125367 Si02
#       8
#     4   4   4   4   4   4   4   4
#     4  11  23  38  61  90 125 157 206 252 318 364
#     4   9  20  39  63  87 120 157 211 255 304 364
#     4  11  23  36  59  95 121 157 201 258 310 367
#     4  10  21  41  63  91 117 161 206 256 307 369
#     4  11  22  38  63  90 125 157 206 253 313 364
#     4   9  20  41  60  86 117 164 205 254 301 370
#     4  11  21  38  60  89 121 163 206 254 301 369
#     4  10  22  37  61  88 123 159 210 249 306 363
#
# _framework density 24.152612000000001
#
# number of rings (size 3 to 8) (size 9 to 14) (size 15 to 20)
#    0.000    1.750    2.500    1.500    1.750    2.000 
#    4.500    0.000    0.000    0.000    0.000    0.000 
#    0.000    0.000    0.000    0.000    0.000    0.000 
#
# Total GULP energy -89365.806242 kJ/mol
# GULP energy per Si atom -5585.362890 kJ/mol
# Density = 2.409764 g / cm^3
# Si number density = 24.152612 Si / 1000 Ang^3
#
#
#
# Elastic Constant Matrix: (Units=GPa)
#
#
# Indices 1 2 3 4 5 6 
#
# 1 59.2354 27.8403 4.0161 0.0000 8.8751 0.0000
# 2 27.8403 159.9272 9.8777 0.0000 13.7632 0.0000
# 3 4.0161 9.8777 28.7992 0.0000 7.6081 0.0000
# 4 0.0000 0.0000 0.0000 239.9918 0.0000 -179.7342
# 5 8.8751 13.7632 7.6081 0.0000 18.5330 0.0000
# 6 0.0000 0.0000 0.0000 -179.7342 0.0000 203.6403
#
#
#
# Elastic Compliance Matrix: (Units=1/GPa)
#
#
# Indices 1 2 3 4 5 6 
#
# 1 0.019243 -0.002736 0.000171 0.000000 -0.007253 0.000000
# 2 -0.002736 0.007100 -0.001129 0.000000 -0.003499 0.000000
# 3 0.000171 -0.001129 0.039130 0.000000 -0.015307 0.000000
# 4 0.000000 0.000000 0.000000 0.012291 0.000000 0.010849
# 5 -0.007253 -0.003499 -0.015307 0.000000 0.066313 0.000000
# 6 0.000000 0.000000 0.000000 0.010849 0.000000 0.014486
#
#
# Mechanical properties :
#
#
# Convention : Reuss Voigt Hill
#
# Bulk Modulus (GPa) = 17.21624 36.82557 27.02091
# Shear Modulus (GPa) = 26.98124 106.18154 66.58139
#
# Velocity S-wave (km/s) = 3.34595 6.63763 5.25612
# Velocity P-wave (km/s) = 4.69796 8.60374 6.93164
#
# Compressibility (1/GPa) = 0.05808468
#
# Stress axis : x y z
#
# Youngs Moduli (GPa) = 51.96712 140.84474 25.55558
#
# Poissons Ratio (x) = 0.38538 -0.00437
# Poissons Ratio (y) = 0.14219 0.02886
# Poissons Ratio (z) = -0.00890 0.15906
#
# Static dielectric constant tensor:
#      x y z
#    x 1.766180 0.000000 -0.084010 
#    y 0.000000 1.978950 0.000000 
#    z -0.084010 0.000000 1.926840 
# 
# From -- ./inp_files/31066.got.cif
#   From: 2010.05.17/outbox.cif.g08.bks.cpg/sg5_16_cif.got.tgz:31066.got - 2010.06.03 18:56:24.
