data_PCOD9125998
_publ_section_title
;
Structure prediction by ZEFSAII (Michael W. Deem and Ramdas Pophale) SiO2 
 PCOD9125998
Probable space group: C 2
;
_chemical_formula_sum "Si O2"
_cell_formula_units_Z 22
_cell_length_a 5.693684
_cell_length_b 18.284306
_cell_length_c 10.821841
_cell_angle_alpha 90.000000
_cell_angle_beta 62.124696
_cell_angle_gamma 90.000000
_cell_volume 995.884927
_symmetry_space_group_name_H-M "C 2"
_symmetry_group_IT_number 5
_symmetry_cell_setting 'monoclinic'
loop_
_space_group_symop_operation_xyz
x,y,z
-x,y,-z
1/2+x,1/2+y,z
1/2-x,1/2+y,-z
loop_
_atom_site_type_symbol
_atom_site_label
_atom_site_fract_x
_atom_site_fract_y
_atom_site_fract_z
Si Si1 0.000000 0.092371 0.000000
Si Si2 0.601162 0.747084 0.647760
Si Si3 0.686845 0.944565 0.339232
Si Si4 0.919224 0.801739 0.328651
Si Si5 0.993484 0.486916 0.138550
Si Si6 0.989248 0.092041 0.271383
O O1 0.251853 0.039524 0.933020
O O2 0.986097 0.129296 0.870600
O O3 0.755105 0.785290 0.495551
O O4 0.290898 0.770807 0.721179
O O5 0.589456 0.659951 0.625784
O O6 0.792614 0.767170 0.716493
O O7 0.500000 0.928951 0.500000
O O8 0.929677 0.888153 0.295587
O O9 0.541514 0.935118 0.243862
O O10 0.769776 0.028877 0.326744
O O11 0.752805 0.543295 0.225445
O O12 0.000000 0.451753 0.000000
#
# Coordination Sequence:
#
# PCOD9125998 Si02
#       6
#     2   4   4   4   4   4
#     4   8  18  40  58  92 120 164 208 282 322 382
#     4  10  22  39  61  87 129 179 201 263 325 397
#     4  11  23  37  62  99 130 171 215 275 319 393
#     4  10  23  41  57  88 142 175 204 254 347 380
#     4   9  20  39  64  94 126 166 218 278 330 383
#     4  10  22  36  69  91 125 164 227 267 325 386
#
# _framework density 22.090904999999999
#
# number of rings (size 3 to 8) (size 9 to 14) (size 15 to 20)
#    0.000    2.182    1.818    0.000   10.182    2.182 
#    0.000    0.000    2.000    0.000    0.000    0.000 
#    0.000    0.000    0.000    0.000    0.000    0.000 
#
# Total GULP energy -61239.649058 kJ/mol
# GULP energy per Si atom -5567.240823 kJ/mol
# Density = 2.204063 g / cm^3
# Si number density = 22.090905 Si / 1000 Ang^3
#
#
#
# Elastic Constant Matrix: (Units=GPa)
#
#
# Indices 1 2 3 4 5 6 
#
# 1 147.3200 32.0404 27.4678 0.0000 14.0386 0.0000
# 2 32.0404 127.0354 21.4073 0.0000 16.9860 0.0000
# 3 27.4678 21.4073 75.5556 0.0000 19.1829 0.0000
# 4 0.0000 0.0000 0.0000 7.4838 0.0000 -10.5989
# 5 14.0386 16.9860 19.1829 0.0000 21.4517 0.0000
# 6 0.0000 0.0000 0.0000 -10.5989 0.0000 29.3215
#
#
#
# Elastic Compliance Matrix: (Units=1/GPa)
#
#
# Indices 1 2 3 4 5 6 
#
# 1 0.007633 -0.001307 -0.001810 0.000000 -0.002342 0.000000
# 2 -0.001307 0.009079 -0.000633 0.000000 -0.005768 0.000000
# 3 -0.001810 -0.000633 0.017652 0.000000 -0.014100 0.000000
# 4 0.000000 0.000000 0.000000 0.273777 0.000000 0.098963
# 5 -0.002342 -0.005768 -0.014100 0.000000 0.065325 0.000000
# 6 0.000000 0.000000 0.000000 0.098963 0.000000 0.069877
#
#
# Mechanical properties :
#
#
# Convention : Reuss Voigt Hill
#
# Bulk Modulus (GPa) = 37.22346 56.86022 47.04184
# Shear Modulus (GPa) = 10.87433 29.58445 20.22939
#
# Velocity S-wave (km/s) = 2.22109 3.66350 3.02939
# Velocity P-wave (km/s) = 4.84400 6.60984 5.79458
#
# Compressibility (1/GPa) = 0.02686478
#
# Stress axis : x y z
#
# Youngs Moduli (GPa) = 131.01308 110.13997 56.64943
#
# Poissons Ratio (x) = 0.14395 0.10254
# Poissons Ratio (y) = 0.17123 0.03585
# Poissons Ratio (z) = 0.23714 0.06970
#
# Static dielectric constant tensor:
#      x y z
#    x 1.922670 0.000000 0.066220 
#    y 0.000000 1.770500 0.000000 
#    z 0.066220 0.000000 1.859260 
# 
# From -- ./inp_files/33478.got.cif
#   From: 2010.05.17/outbox.cif.g08.bks.cpg/sg5_17_cif.got.tgz:33478.got - 2010.06.03 18:56:24.
