data_PCOD9125789
_publ_section_title
;
Structure prediction by ZEFSAII (Michael W. Deem and Ramdas Pophale) SiO2 
 PCOD9125789
Probable space group: C 2
;
_chemical_formula_sum "Si O2"
_cell_formula_units_Z 24
_cell_length_a 8.475130
_cell_length_b 11.479367
_cell_length_c 10.005591
_cell_angle_alpha 90.000000
_cell_angle_beta 104.779520
_cell_angle_gamma 90.000000
_cell_volume 941.228760
_symmetry_space_group_name_H-M "C 2"
_symmetry_group_IT_number 5
_symmetry_cell_setting 'monoclinic'
loop_
_space_group_symop_operation_xyz
x,y,z
-x,y,-z
1/2+x,1/2+y,z
1/2-x,1/2+y,-z
loop_
_atom_site_type_symbol
_atom_site_label
_atom_site_fract_x
_atom_site_fract_y
_atom_site_fract_z
Si Si1 0.269658 0.658780 0.090973
Si Si2 0.819842 0.544586 0.354176
Si Si3 0.961294 0.713524 0.186438
Si Si4 0.980715 0.982884 0.187348
Si Si5 0.681159 0.435299 0.584086
Si Si6 0.000412 0.298782 0.653493
O O1 0.358100 0.541146 0.057703
O O2 0.400986 0.730941 0.209232
O O3 0.105945 0.644295 0.144027
O O4 0.198175 0.718608 0.942640
O O5 0.924560 0.650335 0.318204
O O6 0.647977 0.548575 0.242676
O O7 0.762842 0.522460 0.494326
O O8 0.909624 0.423801 0.338491
O O9 0.018992 0.846882 0.197700
O O10 0.866145 0.000482 0.292450
O O11 0.500000 0.393625 0.500000
O O12 0.811593 0.333028 0.638854
O O13 0.000000 0.247728 0.500000
#
# Coordination Sequence:
#
# PCOD9125789 Si02
#       6
#     4   4   4   4   4   4
#     4  11  26  45  71 110 149 198 245 309 367 446
#     4  10  22  45  73 103 142 191 246 300 375 430
#     4  11  26  47  74 105 153 201 243 307 369 443
#     4  11  24  46  69 107 147 188 252 300 370 445
#     4   9  21  43  71 108 146 186 242 307 365 445
#     4  10  21  43  73 104 145 193 243 307 369 430
#
# _framework density 25.498583
#
# number of rings (size 3 to 8) (size 9 to 14) (size 15 to 20)
#    0.000    1.667    1.667    1.000    4.667    2.667 
#    3.000    5.833    0.000    0.000    0.000    0.000 
#    0.000    0.000    0.000    0.000    0.000    0.000 
#
# Total GULP energy -67018.273622 kJ/mol
# GULP energy per Si atom -5584.856135 kJ/mol
# Density = 2.544055 g / cm^3
# Si number density = 25.498583 Si / 1000 Ang^3
#
#
#
# Elastic Constant Matrix: (Units=GPa)
#
#
# Indices 1 2 3 4 5 6 
#
# 1 142.2452 34.2237 40.0860 0.0000 18.2120 0.0000
# 2 34.2237 47.4128 -4.9636 0.0000 13.7962 0.0000
# 3 40.0860 -4.9636 108.4129 0.0000 18.8406 0.0000
# 4 0.0000 0.0000 0.0000 30.3410 0.0000 19.0849
# 5 18.2120 13.7962 18.8406 0.0000 52.1825 0.0000
# 6 0.0000 0.0000 0.0000 19.0849 0.0000 50.0733
#
#
#
# Elastic Compliance Matrix: (Units=1/GPa)
#
#
# Indices 1 2 3 4 5 6 
#
# 1 0.010013 -0.007649 -0.004051 0.000000 -0.000010 0.000000
# 2 -0.007649 0.029212 0.005382 0.000000 -0.006997 0.000000
# 3 -0.004051 0.005382 0.011704 0.000000 -0.004235 0.000000
# 4 0.000000 0.000000 0.000000 0.043352 0.000000 -0.016523
# 5 -0.000010 -0.006997 -0.004235 0.000000 0.022546 0.000000
# 6 0.000000 0.000000 0.000000 -0.016523 0.000000 0.026268
#
#
# Mechanical properties :
#
#
# Convention : Reuss Voigt Hill
#
# Bulk Modulus (GPa) = 26.11465 48.52923 37.32194
# Shear Modulus (GPa) = 29.67417 41.76766 35.72092
#
# Velocity S-wave (km/s) = 3.41509 4.05166 3.74692
# Velocity P-wave (km/s) = 5.08078 6.40011 5.77822
#
# Compressibility (1/GPa) = 0.03829269
#
# Stress axis : x y z
#
# Youngs Moduli (GPa) = 99.86699 34.23252 85.43934
#
# Poissons Ratio (x) = 0.26185 0.34611
# Poissons Ratio (y) = 0.76389 -0.45981
# Poissons Ratio (z) = 0.40456 -0.18423
#
# Static dielectric constant tensor:
#      x y z
#    x 1.969170 0.000000 -0.021750 
#    y 0.000000 2.063200 0.000000 
#    z -0.021750 0.000000 2.128760 
# 
# From -- ./inp_files/35485.got.cif
#   From: 2010.05.17/outbox.cif.g08.bks.cpg/sg5_18_cif.got.tgz:35485.got - 2010.06.03 18:56:24.
