data_PCOD9125346
_publ_section_title
;
Structure prediction by ZEFSAII (Michael W. Deem and Ramdas Pophale) SiO2 
 PCOD9125346
Probable space group: C 2
;
_chemical_formula_sum "Si O2"
_cell_formula_units_Z 32
_cell_length_a 21.574917
_cell_length_b 9.445353
_cell_length_c 13.687507
_cell_angle_alpha 90.000000
_cell_angle_beta 147.528949
_cell_angle_gamma 90.000000
_cell_volume 1497.488782
_symmetry_space_group_name_H-M "C 2"
_symmetry_group_IT_number 5
_symmetry_cell_setting 'monoclinic'
loop_
_space_group_symop_operation_xyz
x,y,z
-x,y,-z
1/2+x,1/2+y,z
1/2-x,1/2+y,-z
loop_
_atom_site_type_symbol
_atom_site_label
_atom_site_fract_x
_atom_site_fract_y
_atom_site_fract_z
Si Si1 0.567721 0.582930 0.369969
Si Si2 0.112660 0.637508 0.714115
Si Si3 0.309059 0.965093 0.748175
Si Si4 0.621575 0.660582 0.216131
Si Si5 0.589841 0.313432 0.871911
Si Si6 0.986137 0.375073 0.637229
Si Si7 0.253866 0.472386 0.768122
Si Si8 0.499240 0.037510 0.149158
O O1 0.686430 0.540623 0.581313
O O2 0.600384 0.629230 0.301995
O O3 0.488537 0.446048 0.258566
O O4 0.499683 0.707857 0.335268
O O5 0.137023 0.743510 0.834984
O O6 0.220055 0.611508 0.786233
O O7 0.000000 0.681098 0.500000
O O8 0.079434 0.482141 0.714749
O O9 0.303448 0.801593 0.705334
O O10 0.397482 0.038219 0.790098
O O11 0.379166 0.984770 0.941846
O O12 0.676920 0.526236 0.234246
O O13 0.500000 0.689635 0.000000
O O14 0.515967 0.189903 0.823569
O O15 0.678480 0.367483 0.071256
O O16 0.866512 0.404825 0.423567
O O17 0.969541 0.429570 0.724654
#
# Coordination Sequence:
#
# PCOD9125346 Si02
#       8
#     4   4   4   4   4   4   4   4
#     4  12  25  38  66 104 132 171 219 271 331 388
#     4   9  23  47  70  90 128 179 221 272 332 382
#     4  11  23  37  62  95 137 178 214 264 327 397
#     4  12  23  42  63  99 137 174 217 268 328 398
#     4  11  25  42  65 102 129 170 221 278 320 391
#     4  10  21  44  69  91 130 174 218 270 324 393
#     4  11  24  44  70  95 133 177 220 268 333 387
#     4  10  21  41  61  90 135 174 216 260 330 385
#
# _framework density 21.369108000000001
#
# number of rings (size 3 to 8) (size 9 to 14) (size 15 to 20)
#    0.000    1.250    3.750    1.500    7.000    3.000 
#    2.250    3.125    0.000    0.000    0.000    0.000 
#    0.000    0.000    0.000    0.000    0.000    0.000 
#
# Total GULP energy -89435.994807 kJ/mol
# GULP energy per Si atom -5589.749675 kJ/mol
# Density = 2.132047 g / cm^3
# Si number density = 21.369108 Si / 1000 Ang^3
#
#
#
# Elastic Constant Matrix: (Units=GPa)
#
#
# Indices 1 2 3 4 5 6 
#
# 1 53.7831 13.0507 1.0872 0.0000 -16.0725 0.0000
# 2 13.0507 102.2613 26.9091 0.0000 -9.8304 0.0000
# 3 1.0872 26.9091 60.4585 0.0000 -10.8136 0.0000
# 4 0.0000 0.0000 0.0000 22.3506 0.0000 -5.8172
# 5 -16.0725 -9.8304 -10.8136 0.0000 23.3791 0.0000
# 6 0.0000 0.0000 0.0000 -5.8172 0.0000 17.5108
#
#
#
# Elastic Compliance Matrix: (Units=1/GPa)
#
#
# Indices 1 2 3 4 5 6 
#
# 1 0.024314 -0.002415 0.003757 0.000000 0.017437 0.000000
# 2 -0.002415 0.011462 -0.004898 0.000000 0.000893 0.000000
# 3 0.003757 -0.004898 0.020437 0.000000 0.009976 0.000000
# 4 0.000000 0.000000 0.000000 0.048976 0.000000 0.016270
# 5 0.017437 0.000893 0.009976 0.000000 0.059751 0.000000
# 6 0.000000 0.000000 0.000000 0.016270 0.000000 0.062513
#
#
# Mechanical properties :
#
#
# Convention : Reuss Voigt Hill
#
# Bulk Modulus (GPa) = 20.36682 33.17742 26.77212
# Shear Modulus (GPa) = 19.92561 24.34516 22.13539
#
# Velocity S-wave (km/s) = 3.05692 3.37897 3.22197
# Velocity P-wave (km/s) = 4.69162 5.54823 5.13781
#
# Compressibility (1/GPa) = 0.04909946
#
# Stress axis : x y z
#
# Youngs Moduli (GPa) = 41.12807 87.24530 48.93053
#
# Poissons Ratio (x) = 0.21072 -0.18381
# Poissons Ratio (y) = 0.09934 0.23968
# Poissons Ratio (z) = -0.15450 0.42735
#
# Static dielectric constant tensor:
#      x y z
#    x 1.767770 0.000000 -0.020120 
#    y 0.000000 1.783920 0.000000 
#    z -0.020120 0.000000 1.759530 
# 
# From -- ./inp_files/54162.got.cif
#   From: 2010.05.17/outbox.cif.g08.bks.cpg/sg5_28_cif.got.tgz:54162.got - 2010.06.03 18:56:24.
