data_PCOD9125001
_publ_section_title
;
Structure prediction by ZEFSAII (Michael W. Deem and Ramdas Pophale) SiO2 
 PCOD9125001
Probable space group: C 2
;
_chemical_formula_sum "Si O2"
_cell_formula_units_Z 22
_cell_length_a 14.231365
_cell_length_b 14.361106
_cell_length_c 11.162049
_cell_angle_alpha 90.000000
_cell_angle_beta 151.976236
_cell_angle_gamma 90.000000
_cell_volume 1071.830874
_symmetry_space_group_name_H-M "C 2"
_symmetry_group_IT_number 5
_symmetry_cell_setting 'monoclinic'
loop_
_space_group_symop_operation_xyz
x,y,z
-x,y,-z
1/2+x,1/2+y,z
1/2-x,1/2+y,-z
loop_
_atom_site_type_symbol
_atom_site_label
_atom_site_fract_x
_atom_site_fract_y
_atom_site_fract_z
Si Si1 0.267165 0.601890 0.367230
Si Si2 0.500000 0.458613 0.000000
Si Si3 0.365173 0.011456 0.009141
Si Si4 0.584870 0.803564 0.958787
Si Si5 0.840447 0.309858 0.433971
Si Si6 0.348027 0.598283 0.028513
O O1 0.275851 0.564366 0.242938
O O2 0.224938 0.711358 0.303847
O O3 0.461954 0.598397 0.668174
O O4 0.090699 0.538893 0.225409
O O5 0.318009 0.392681 0.754406
O O6 0.589920 0.527857 0.003829
O O7 0.332963 0.053102 0.103226
O O8 0.308907 0.903360 0.932995
O O9 0.440742 0.812063 0.679273
O O10 0.690658 0.703912 0.057709
O O11 0.500000 0.800959 0.000000
O O12 0.000000 0.311342 0.500000
#
# Coordination Sequence:
#
# PCOD9125001 Si02
#       6
#     4   2   4   4   4   4
#     4  10  21  39  64  91 124 165 218 263 309 386
#     4  12  24  38  64  94 130 172 218 258 324 394
#     4  11  21  39  69  91 124 170 221 255 321 389
#     4  11  22  43  66  93 135 167 206 277 324 366
#     4  11  24  42  66  94 133 173 216 267 325 390
#     4  11  24  40  63  93 130 169 210 267 326 381
#
# _framework density 20.525627
#
# number of rings (size 3 to 8) (size 9 to 14) (size 15 to 20)
#    0.000    1.091    2.727    6.000    0.000    1.455 
#    0.000    0.000    0.000    0.000    0.000    0.000 
#    0.000    0.000    0.000    0.000    0.000    0.000 
#
# Total GULP energy -61319.802816 kJ/mol
# GULP energy per Si atom -5574.527529 kJ/mol
# Density = 2.047891 g / cm^3
# Si number density = 20.525627 Si / 1000 Ang^3
#
#
#
# Elastic Constant Matrix: (Units=GPa)
#
#
# Indices 1 2 3 4 5 6 
#
# 1 138.9317 41.7749 4.3998 0.0000 -15.6770 0.0000
# 2 41.7749 168.6574 -6.7611 0.0000 -17.1218 0.0000
# 3 4.3998 -6.7611 21.0663 0.0000 -13.8036 0.0000
# 4 0.0000 0.0000 0.0000 -50.0490 0.0000 -47.5708
# 5 -15.6770 -17.1218 -13.8036 0.0000 31.8656 0.0000
# 6 0.0000 0.0000 0.0000 -47.5708 0.0000 27.1949
#
#
#
# Elastic Compliance Matrix: (Units=1/GPa)
#
#
# Indices 1 2 3 4 5 6 
#
# 1 0.008050 -0.001713 -0.000334 0.000000 0.002895 0.000000
# 2 -0.001713 0.007208 0.006502 0.000000 0.005846 0.000000
# 3 -0.000334 0.006502 0.072340 0.000000 0.034665 0.000000
# 4 0.000000 0.000000 0.000000 -0.007504 0.000000 -0.013126
# 5 0.002895 0.005846 0.034665 0.000000 0.050964 0.000000
# 6 0.000000 0.000000 0.000000 -0.013126 0.000000 0.013810
#
#
# Mechanical properties :
#
#
# Convention : Reuss Voigt Hill
#
# Bulk Modulus (GPa) = 10.36206 45.27587 27.81897
# Shear Modulus (GPa) = 29.73922 21.08508 25.41215
#
# Velocity S-wave (km/s) = 3.81055 3.20856 3.52244
# Velocity P-wave (km/s) = 4.94163 5.98603 5.48873
#
# Compressibility (1/GPa) = 0.09650586
#
# Stress axis : x y z
#
# Youngs Moduli (GPa) = 124.21961 138.73962 13.82366
#
# Poissons Ratio (x) = 0.23773 0.00462
# Poissons Ratio (y) = 0.21285 -0.08988
# Poissons Ratio (z) = 0.04153 -0.90207
#
# Static dielectric constant tensor:
#      x y z
#    x 1.709990 0.000000 0.012980 
#    y 0.000000 1.734410 0.000000 
#    z 0.012980 0.000000 1.755320 
# 
# From -- ./inp_files/42730.got.cif
#   From: 2010.05.17/outbox.cif.g08.bks.cpg/sg5_22_cif.got.tgz:42730.got - 2010.06.03 18:56:24.
