data_PCOD9125080
_publ_section_title
;
Structure prediction by ZEFSAII (Michael W. Deem and Ramdas Pophale) SiO2 
 PCOD9125080
Probable space group: C 2
;
_chemical_formula_sum "Si O2"
_cell_formula_units_Z 24
_cell_length_a 7.249532
_cell_length_b 27.457867
_cell_length_c 5.264606
_cell_angle_alpha 90.000000
_cell_angle_beta 105.590841
_cell_angle_gamma 90.000000
_cell_volume 1009.396084
_symmetry_space_group_name_H-M "C 2"
_symmetry_group_IT_number 5
_symmetry_cell_setting 'monoclinic'
loop_
_space_group_symop_operation_xyz
x,y,z
-x,y,-z
1/2+x,1/2+y,z
1/2-x,1/2+y,-z
loop_
_atom_site_type_symbol
_atom_site_label
_atom_site_fract_x
_atom_site_fract_y
_atom_site_fract_z
Si Si1 0.289413 0.361810 0.711696
Si Si2 0.369809 0.719581 0.697895
Si Si3 0.731475 0.620674 0.558598
Si Si4 0.221384 0.821886 0.794382
Si Si5 0.121607 0.458578 0.804325
Si Si6 0.269604 0.565447 0.935379
O O1 0.503083 0.340495 0.752393
O O2 0.198308 0.354570 0.403275
O O3 0.277504 0.417554 0.792094
O O4 0.192834 0.330163 0.896710
O O5 0.500000 0.732074 0.500000
O O6 0.242385 0.674945 0.543199
O O7 0.245008 0.766068 0.727663
O O8 0.500000 0.706445 0.000000
O O9 0.500000 0.618716 0.500000
O O10 0.797548 0.585979 0.358092
O O11 0.794278 0.599600 0.853508
O O12 0.206202 0.509774 0.930578
O O13 0.000000 0.465680 0.500000
O O14 0.000000 0.440303 0.000000
O O15 0.500000 0.566717 0.000000
#
# Coordination Sequence:
#
# PCOD9125080 Si02
#       6
#     4   4   4   4   4   4
#     4  10  23  42  62  88 133 172 227 273 328 402
#     4  11  21  35  64 101 138 175 220 276 335 385
#     4   9  18  36  60  97 127 165 222 270 318 398
#     4  10  22  40  63  91 132 175 225 271 323 399
#     4  12  26  43  66  97 135 176 224 282 344 387
#     4  10  21  39  67  94 127 174 221 268 326 398
#
# _framework density 23.776591
#
# number of rings (size 3 to 8) (size 9 to 14) (size 15 to 20)
#    0.000    1.667    0.000    5.500    2.333    4.000 
#    6.000    0.000   14.667    0.000    0.000    0.000 
#    0.000    0.000    0.000    0.000    0.000    0.000 
#
# Total GULP energy -67042.481053 kJ/mol
# GULP energy per Si atom -5586.873421 kJ/mol
# Density = 2.372247 g / cm^3
# Si number density = 23.776591 Si / 1000 Ang^3
#
#
#
# Elastic Constant Matrix: (Units=GPa)
#
#
# Indices 1 2 3 4 5 6 
#
# 1 98.3370 51.7382 58.0102 0.0000 9.3356 0.0000
# 2 51.7382 184.0380 51.5230 0.0000 -18.1674 0.0000
# 3 58.0102 51.5230 197.9816 0.0000 -33.2469 0.0000
# 4 0.0000 0.0000 0.0000 47.7748 0.0000 -7.6487
# 5 9.3356 -18.1674 -33.2469 0.0000 31.9738 0.0000
# 6 0.0000 0.0000 0.0000 -7.6487 0.0000 21.0145
#
#
#
# Elastic Compliance Matrix: (Units=1/GPa)
#
#
# Indices 1 2 3 4 5 6 
#
# 1 0.017787 -0.004630 -0.006446 0.000000 -0.014527 0.000000
# 2 -0.004630 0.007186 0.000484 0.000000 0.005938 0.000000
# 3 -0.006446 0.000484 0.008694 0.000000 0.011197 0.000000
# 4 0.000000 0.000000 0.000000 0.022227 0.000000 0.008090
# 5 -0.014527 0.005938 0.011197 0.000000 0.050534 0.000000
# 6 0.000000 0.000000 0.000000 0.008090 0.000000 0.050531
#
#
# Mechanical properties :
#
#
# Convention : Reuss Voigt Hill
#
# Bulk Modulus (GPa) = 80.11433 89.21104 84.66269
# Shear Modulus (GPa) = 27.42663 41.42496 34.42580
#
# Velocity S-wave (km/s) = 3.40003 4.17856 3.80924
# Velocity P-wave (km/s) = 7.01294 7.80273 7.41835
#
# Compressibility (1/GPa) = 0.01248216
#
# Stress axis : x y z
#
# Youngs Moduli (GPa) = 56.22145 139.16036 115.01725
#
# Poissons Ratio (x) = 0.64427 0.74144
# Poissons Ratio (y) = 0.26029 -0.05562
# Poissons Ratio (z) = 0.36242 -0.06729
#
# Static dielectric constant tensor:
#      x y z
#    x 1.897560 0.000000 -0.014290 
#    y 0.000000 1.893710 0.000000 
#    z -0.014290 0.000000 1.885260 
# 
# From -- ./inp_files/3401.got.cif
#   From: 2010.05.17/outbox.cif.g08.bks.cpg/sg5_2_cif.got.tgz:3401.got - 2010.06.03 18:56:24.
