data_PCOD9125222
_publ_section_title
;
Structure prediction by ZEFSAII (Michael W. Deem and Ramdas Pophale) SiO2 
 PCOD9125222
Probable space group: C 2
;
_chemical_formula_sum "Si O2"
_cell_formula_units_Z 32
_cell_length_a 13.619414
_cell_length_b 5.111923
_cell_length_c 21.150149
_cell_angle_alpha 90.000000
_cell_angle_beta 123.121920
_cell_angle_gamma 90.000000
_cell_volume 1233.235499
_symmetry_space_group_name_H-M "C 2"
_symmetry_group_IT_number 5
_symmetry_cell_setting 'monoclinic'
loop_
_space_group_symop_operation_xyz
x,y,z
-x,y,-z
1/2+x,1/2+y,z
1/2-x,1/2+y,-z
loop_
_atom_site_type_symbol
_atom_site_label
_atom_site_fract_x
_atom_site_fract_y
_atom_site_fract_z
Si Si1 0.423769 0.488020 0.896065
Si Si2 0.756624 0.090537 0.284369
Si Si3 0.222049 0.458757 0.137333
Si Si4 0.434576 0.214607 0.572325
Si Si5 0.093488 0.977330 0.255027
Si Si6 0.681010 0.339924 0.957460
Si Si7 0.820314 0.694184 0.405234
Si Si8 0.993640 0.244253 0.333290
O O1 0.379030 0.748081 0.914511
O O2 0.417162 0.571893 0.819865
O O3 0.334567 0.248889 0.879674
O O4 0.442898 0.389944 0.052018
O O5 0.764334 0.909377 0.224444
O O6 0.800727 0.973085 0.365348
O O7 0.622597 0.174801 0.248994
O O8 0.856713 0.295905 0.298519
O O9 0.318195 0.410263 0.116956
O O10 0.331558 0.197787 0.484663
O O11 0.551924 0.122232 0.576590
O O12 0.458051 0.507683 0.605183
O O13 0.431180 0.004168 0.627499
O O14 0.212434 0.037408 0.337474
O O15 0.002143 0.118195 0.267345
O O16 0.776493 0.543862 0.018304
#
# Coordination Sequence:
#
# PCOD9125222 Si02
#       8
#     4   4   4   4   4   4   4   4
#     4  11  25  45  70 107 135 181 235 276 334 409
#     4  10  22  43  65  97 130 177 225 281 344 394
#     4  11  24  44  73 102 141 182 226 282 337 402
#     4  10  24  39  60  93 126 177 219 276 344 412
#     4  11  23  40  68  93 131 171 225 287 329 394
#     4  12  27  47  73 107 146 183 221 275 337 409
#     4  10  21  40  65  86 133 170 222 277 342 389
#     4  11  24  39  62  91 129 172 225 279 341 405
#
# _framework density 25.948007
#
# number of rings (size 3 to 8) (size 9 to 14) (size 15 to 20)
#    0.000    1.250    2.500    2.250    3.500    5.000 
#    0.000    2.500    0.000    0.000    0.000    0.000 
#    0.000    0.000    0.000    0.000    0.000    0.000 
#
# Total GULP energy -89298.799674 kJ/mol
# GULP energy per Si atom -5581.174980 kJ/mol
# Density = 2.588895 g / cm^3
# Si number density = 25.948007 Si / 1000 Ang^3
#
#
#
# Elastic Constant Matrix: (Units=GPa)
#
#
# Indices 1 2 3 4 5 6 
#
# 1 77.7514 13.8136 -16.7180 0.0000 -12.8304 0.0000
# 2 13.8136 72.7629 -5.1382 0.0000 -4.8611 0.0000
# 3 -16.7180 -5.1382 82.7499 0.0000 -8.6868 0.0000
# 4 0.0000 0.0000 0.0000 25.0171 0.0000 -3.0357
# 5 -12.8304 -4.8611 -8.6868 0.0000 39.7639 0.0000
# 6 0.0000 0.0000 0.0000 -3.0357 0.0000 26.6182
#
#
#
# Elastic Compliance Matrix: (Units=1/GPa)
#
#
# Indices 1 2 3 4 5 6 
#
# 1 0.014862 -0.002228 0.003417 0.000000 0.005270 0.000000
# 2 -0.002228 0.014282 0.000557 0.000000 0.001149 0.000000
# 3 0.003417 0.000557 0.013236 0.000000 0.004062 0.000000
# 4 0.000000 0.000000 0.000000 0.040534 0.000000 0.004623
# 5 0.005270 0.001149 0.004062 0.000000 0.027877 0.000000
# 6 0.000000 0.000000 0.000000 0.004623 0.000000 0.038095
#
#
# Mechanical properties :
#
#
# Convention : Reuss Voigt Hill
#
# Bulk Modulus (GPa) = 21.79913 24.13099 22.96506
# Shear Modulus (GPa) = 31.11704 34.36698 32.74201
#
# Velocity S-wave (km/s) = 3.46671 3.64325 3.55608
# Velocity P-wave (km/s) = 4.94403 5.19785 5.07253
#
# Compressibility (1/GPa) = 0.04587339
#
# Stress axis : x y z
#
# Youngs Moduli (GPa) = 67.28703 70.01648 75.55105
#
# Poissons Ratio (x) = 0.15600 -0.25818
# Poissons Ratio (y) = 0.14992 -0.04211
# Poissons Ratio (z) = -0.22994 -0.03902
#
# Static dielectric constant tensor:
#      x y z
#    x 2.090540 0.000000 0.018950 
#    y 0.000000 2.140950 0.000000 
#    z 0.018950 0.000000 2.097110 
# 
# From -- ./inp_files/65689.got.cif
#   From: 2010.05.17/outbox.cif.g08.bks.cpg/sg5_33_cif.got.tgz:65689.got - 2010.06.03 18:56:24.
