data_PCOD9125694
_publ_section_title
;
Structure prediction by ZEFSAII (Michael W. Deem and Ramdas Pophale) SiO2 
 PCOD9125694
Probable space group: C 2
;
_chemical_formula_sum "Si O2"
_cell_formula_units_Z 20
_cell_length_a 8.067013
_cell_length_b 19.523328
_cell_length_c 5.366191
_cell_angle_alpha 90.000000
_cell_angle_beta 95.640979
_cell_angle_gamma 90.000000
_cell_volume 841.055180
_symmetry_space_group_name_H-M "C 2"
_symmetry_group_IT_number 5
_symmetry_cell_setting 'monoclinic'
loop_
_space_group_symop_operation_xyz
x,y,z
-x,y,-z
1/2+x,1/2+y,z
1/2-x,1/2+y,-z
loop_
_atom_site_type_symbol
_atom_site_label
_atom_site_fract_x
_atom_site_fract_y
_atom_site_fract_z
Si Si1 0.000000 0.266731 0.500000
Si Si2 0.725556 0.694272 0.930522
Si Si3 0.655805 0.464721 0.686188
Si Si4 0.000000 0.082437 0.000000
Si Si5 0.187553 0.336062 0.139122
Si Si6 0.500000 0.097042 0.000000
Si Si7 0.500000 0.013609 0.500000
O O1 0.089250 0.218586 0.712224
O O2 0.143253 0.316284 0.416079
O O3 0.643461 0.636604 0.099237
O O4 0.874678 0.650358 0.848319
O O5 0.772236 0.766396 0.057294
O O6 0.500000 0.440687 0.500000
O O7 0.587999 0.533078 0.812738
O O8 0.708278 0.404071 0.880187
O O9 0.825888 0.477781 0.556592
O O10 0.000000 0.343511 0.000000
O O11 0.548445 0.050727 0.769817
#
# Coordination Sequence:
#
# PCOD9125694 Si02
#       7
#     2   4   4   2   4   2   2
#     4  10  21  42  74 102 155 206 268 314 409 466
#     4  11  24  45  77 109 153 211 264 330 397 484
#     4  12  29  47  81 113 158 207 270 334 404 479
#     4  12  24  47  75 110 150 198 266 318 400 471
#     4  10  24  45  72 108 155 209 262 326 403 477
#     4  12  28  47  77 118 158 206 266 336 398 481
#     4  12  29  52  80 118 165 208 266 334 415 474
#
# _framework density 23.779653
#
# number of rings (size 3 to 8) (size 9 to 14) (size 15 to 20)
#    0.000    0.800    5.000    1.800    5.600    5.600 
#    0.000    0.000    0.000    0.000    0.000    0.000 
#    0.000    0.000    0.000    0.000    0.000    0.000 
#
# Total GULP energy -55710.251391 kJ/mol
# GULP energy per Si atom -5571.025139 kJ/mol
# Density = 2.372553 g / cm^3
# Si number density = 23.779653 Si / 1000 Ang^3
#
#
#
# Elastic Constant Matrix: (Units=GPa)
#
#
# Indices 1 2 3 4 5 6 
#
# 1 87.2359 42.5328 10.1623 0.0000 4.9943 0.0000
# 2 42.5328 145.2680 42.6976 0.0000 5.4188 0.0000
# 3 10.1623 42.6976 60.5388 0.0000 -8.7916 0.0000
# 4 0.0000 0.0000 0.0000 45.6630 0.0000 -25.1227
# 5 4.9943 5.4188 -8.7916 0.0000 28.6737 0.0000
# 6 0.0000 0.0000 0.0000 -25.1227 0.0000 44.2362
#
#
#
# Elastic Compliance Matrix: (Units=1/GPa)
#
#
# Indices 1 2 3 4 5 6 
#
# 1 0.013450 -0.003981 0.000334 0.000000 -0.001488 0.000000
# 2 -0.003981 0.010250 -0.007056 0.000000 -0.003407 0.000000
# 3 0.000334 -0.007056 0.022632 0.000000 0.008215 0.000000
# 4 0.000000 0.000000 0.000000 0.031852 0.000000 0.018089
# 5 -0.001488 -0.003407 0.008215 0.000000 0.038297 0.000000
# 6 0.000000 0.000000 0.000000 0.018089 0.000000 0.032879
#
#
# Mechanical properties :
#
#
# Convention : Reuss Voigt Hill
#
# Bulk Modulus (GPa) = 40.11845 53.75870 46.93858
# Shear Modulus (GPa) = 27.92116 36.89126 32.40621
#
# Velocity S-wave (km/s) = 3.43032 3.94303 3.69558
# Velocity P-wave (km/s) = 5.70938 6.58681 6.16373
#
# Compressibility (1/GPa) = 0.02492619
#
# Stress axis : x y z
#
# Youngs Moduli (GPa) = 74.34775 97.55759 44.18546
#
# Poissons Ratio (x) = 0.38834 -0.01474
# Poissons Ratio (y) = 0.29595 0.31178
# Poissons Ratio (z) = -0.02480 0.68838
#
# Static dielectric constant tensor:
#      x y z
#    x 1.961550 0.000000 -0.053180 
#    y 0.000000 1.917920 0.000000 
#    z -0.053180 0.000000 1.960800 
# 
# From -- ./inp_files/2391.got.cif
#   From: 2010.05.17/outbox.cif.g08.bks.cpg/sg5_2_cif.got.tgz:2391.got - 2010.06.03 18:56:24.
