data_PCOD9125304
_publ_section_title
;
Structure prediction by ZEFSAII (Michael W. Deem and Ramdas Pophale) SiO2 
 PCOD9125304
Probable space group: C 2
;
_chemical_formula_sum "Si O2"
_cell_formula_units_Z 24
_cell_length_a 9.706633
_cell_length_b 10.498233
_cell_length_c 11.346605
_cell_angle_alpha 90.000000
_cell_angle_beta 104.579154
_cell_angle_gamma 90.000000
_cell_volume 1119.017138
_symmetry_space_group_name_H-M "C 2"
_symmetry_group_IT_number 5
_symmetry_cell_setting 'monoclinic'
loop_
_space_group_symop_operation_xyz
x,y,z
-x,y,-z
1/2+x,1/2+y,z
1/2-x,1/2+y,-z
loop_
_atom_site_type_symbol
_atom_site_label
_atom_site_fract_x
_atom_site_fract_y
_atom_site_fract_z
Si Si1 0.500000 0.364161 0.500000
Si Si2 0.443352 0.188041 0.683419
Si Si3 0.874303 0.683705 0.058529
Si Si4 0.211170 0.393132 0.721019
Si Si5 0.000000 0.272757 0.500000
Si Si6 0.222721 0.067326 0.464474
Si Si7 0.161234 0.406252 0.988195
O O1 0.536219 0.275852 0.617626
O O2 0.635131 0.449150 0.499138
O O3 0.541085 0.135546 0.807571
O O4 0.329138 0.284468 0.718173
O O5 0.358372 0.095035 0.576765
O O6 0.805107 0.557174 0.984500
O O7 0.766314 0.798335 0.062517
O O8 0.000000 0.732292 0.000000
O O9 0.255497 0.525398 0.666275
O O10 0.180831 0.390050 0.852007
O O11 0.075050 0.353572 0.616019
O O12 0.881429 0.186017 0.537848
O O13 0.000000 0.387533 0.000000
#
# Coordination Sequence:
#
# PCOD9125304 Si02
#       7
#     2   4   4   4   2   4   4
#     4   9  20  35  56 102 132 161 207 268 342 402
#     4  10  21  40  69  94 130 170 224 274 338 404
#     4  11  25  48  69  96 135 186 234 287 340 401
#     4  10  21  41  67  96 133 173 222 276 340 402
#     4   9  20  37  60 100 138 161 207 276 346 402
#     4   9  20  37  59  98 131 168 206 273 341 400
#     4  11  27  47  68 101 135 187 237 284 340 406
#
# _framework density 21.447392000000001
#
# number of rings (size 3 to 8) (size 9 to 14) (size 15 to 20)
#    0.000    2.000    1.667    0.000    4.667    4.667 
#    9.000    0.000    0.000    0.000    0.000    0.000 
#    0.000    0.000    0.000    0.000    0.000    0.000 
#
# Total GULP energy -66983.418019 kJ/mol
# GULP energy per Si atom -5581.951502 kJ/mol
# Density = 2.139858 g / cm^3
# Si number density = 21.447392 Si / 1000 Ang^3
#
#
#
# Elastic Constant Matrix: (Units=GPa)
#
#
# Indices 1 2 3 4 5 6 
#
# 1 81.8302 34.5188 21.2793 0.0000 -13.5777 0.0000
# 2 34.5188 67.5723 -13.9819 0.0000 11.6263 0.0000
# 3 21.2793 -13.9819 67.7321 0.0000 -10.9822 0.0000
# 4 0.0000 0.0000 0.0000 28.4195 0.0000 6.3653
# 5 -13.5777 11.6263 -10.9822 0.0000 40.7854 0.0000
# 6 0.0000 0.0000 0.0000 6.3653 0.0000 27.8302
#
#
#
# Elastic Compliance Matrix: (Units=1/GPa)
#
#
# Indices 1 2 3 4 5 6 
#
# 1 0.022152 -0.014667 -0.008484 0.000000 0.009271 0.000000
# 2 -0.014667 0.025726 0.008300 0.000000 -0.009981 0.000000
# 3 -0.008484 0.008300 0.019137 0.000000 -0.000037 0.000000
# 4 0.000000 0.000000 0.000000 0.037087 0.000000 -0.008483
# 5 0.009271 -0.009981 -0.000037 0.000000 0.030440 0.000000
# 6 0.000000 0.000000 0.000000 -0.008483 0.000000 0.037872
#
#
# Mechanical properties :
#
#
# Convention : Reuss Voigt Hill
#
# Bulk Modulus (GPa) = 26.79981 33.41856 30.10919
# Shear Modulus (GPa) = 23.30431 31.09492 27.19962
#
# Velocity S-wave (km/s) = 3.29991 3.81178 3.56505
# Velocity P-wave (km/s) = 5.20018 5.91510 5.56913
#
# Compressibility (1/GPa) = 0.03731370
#
# Stress axis : x y z
#
# Youngs Moduli (GPa) = 45.14316 38.87105 52.25568
#
# Poissons Ratio (x) = 0.57011 0.44333
# Poissons Ratio (y) = 0.66210 -0.43372
# Poissons Ratio (z) = 0.38298 -0.32263
#
# Static dielectric constant tensor:
#      x y z
#    x 1.814560 0.000000 -0.031040 
#    y 0.000000 1.830480 0.000000 
#    z -0.031040 0.000000 1.772440 
# 
# From -- ./inp_files/35491.got.cif
#   From: 2010.05.17/outbox.cif.g08.bks.cpg/sg5_18_cif.got.tgz:35491.got - 2010.06.03 18:56:24.
