data_PCOD9125792
_publ_section_title
;
Structure prediction by ZEFSAII (Michael W. Deem and Ramdas Pophale) SiO2 
 PCOD9125792
Probable space group: C 2
;
_chemical_formula_sum "Si O2"
_cell_formula_units_Z 32
_cell_length_a 19.280620
_cell_length_b 5.461490
_cell_length_c 15.519193
_cell_angle_alpha 90.000000
_cell_angle_beta 53.268752
_cell_angle_gamma 90.000000
_cell_volume 1309.717059
_symmetry_space_group_name_H-M "C 2"
_symmetry_group_IT_number 5
_symmetry_cell_setting 'monoclinic'
loop_
_space_group_symop_operation_xyz
x,y,z
-x,y,-z
1/2+x,1/2+y,z
1/2-x,1/2+y,-z
loop_
_atom_site_type_symbol
_atom_site_label
_atom_site_fract_x
_atom_site_fract_y
_atom_site_fract_z
Si Si1 0.917731 0.146910 0.707960
Si Si2 0.204637 0.812647 0.131018
Si Si3 0.384747 0.451955 0.246407
Si Si4 0.590249 0.417297 0.567653
Si Si5 0.341767 0.147303 0.013149
Si Si6 0.474451 0.958370 0.119508
Si Si7 0.438385 0.910040 0.461991
Si Si8 0.239129 0.426010 0.229500
O O1 0.988043 0.364040 0.667944
O O2 0.835124 0.217989 0.711441
O O3 0.867604 0.024929 0.824422
O O4 0.986505 0.945391 0.625028
O O5 0.209533 0.681871 0.037068
O O6 0.183326 0.636950 0.225368
O O7 0.298117 0.911994 0.087867
O O8 0.391983 0.421985 0.343783
O O9 0.410303 0.186380 0.186093
O O10 0.289694 0.495209 0.277175
O O11 0.441843 0.693639 0.177625
O O12 0.621950 0.672284 0.504281
O O13 0.612642 0.158698 0.510837
O O14 0.436686 0.079838 0.912727
O O15 0.313024 0.354377 0.102488
O O16 0.500000 0.930705 0.000000
O O17 0.500000 0.900597 0.500000
#
# Coordination Sequence:
#
# PCOD9125792 Si02
#       8
#     4   4   4   4   4   4   4   4
#     4   9  23  38  62  96 124 163 207 261 322 384
#     4  11  21  37  57  83 125 167 225 267 322 355
#     4  12  26  41  61  86 130 168 219 267 316 388
#     4  10  22  41  65 101 123 166 196 258 323 385
#     4  11  23  35  56  82 118 176 227 280 304 368
#     4  12  25  40  57  82 122 177 229 268 317 355
#     4  10  21  43  74 104 126 154 202 260 324 397
#     4  11  23  40  56  88 122 177 219 268 321 362
#
# _framework density 24.432756999999999
#
# number of rings (size 3 to 8) (size 9 to 14) (size 15 to 20)
#    0.750    0.500    2.500    3.750    5.250    0.000 
#    0.000    0.000    0.000    1.500    0.000    0.000 
#    0.000    0.000    0.000    0.000    0.000    0.000 
#
# Total GULP energy -89097.885850 kJ/mol
# GULP energy per Si atom -5568.617866 kJ/mol
# Density = 2.437715 g / cm^3
# Si number density = 24.432757 Si / 1000 Ang^3
#
#
#
# Elastic Constant Matrix: (Units=GPa)
#
#
# Indices 1 2 3 4 5 6 
#
# 1 59.3917 19.0561 20.2123 -0.0062 8.1084 0.0048
# 2 19.0561 138.6701 27.3109 -0.0308 21.1835 0.0124
# 3 20.2123 27.3109 64.6963 -0.0100 18.6841 0.0086
# 4 -0.0062 -0.0308 -0.0100 11.6204 -0.0036 8.7011
# 5 8.1084 21.1835 18.6841 -0.0036 44.8918 0.0084
# 6 0.0048 0.0124 0.0086 8.7011 0.0084 19.9643
#
#
#
# Elastic Compliance Matrix: (Units=1/GPa)
#
#
# Indices 1 2 3 4 5 6 
#
# 1 0.019168 -0.001525 -0.005175 0.000004 -0.000589 -0.000003
# 2 -0.001525 0.008274 -0.002237 0.000030 -0.002698 -0.000016
# 3 -0.005175 -0.002237 0.019826 0.000013 -0.006261 -0.000009
# 4 0.000004 0.000030 0.000013 0.127743 0.000000 -0.055675
# 5 -0.000589 -0.002698 -0.006261 0.000000 0.026261 -0.000007
# 6 -0.000003 -0.000016 -0.000009 -0.055675 -0.000007 0.074354
#
#
# Mechanical properties :
#
#
# Convention : Reuss Voigt Hill
#
# Bulk Modulus (GPa) = 34.02018 43.99076 39.00547
# Shear Modulus (GPa) = 16.48544 28.37390 22.42967
#
# Velocity S-wave (km/s) = 2.60037 3.41149 3.03317
# Velocity P-wave (km/s) = 4.79272 5.79324 5.31657
#
# Compressibility (1/GPa) = 0.02939432
#
# Stress axis : x y z
#
# Youngs Moduli (GPa) = 52.17003 120.86596 50.43844
#
# Poissons Ratio (x) = 0.18432 0.26100
# Poissons Ratio (y) = 0.07956 0.11284
# Poissons Ratio (z) = 0.26996 0.27039
#
# Static dielectric constant tensor:
#      x y z
#    x 1.961310 -0.000010 0.005750 
#    y -0.000010 2.095520 -0.000020 
#    z 0.005750 -0.000020 1.966240 
# 
# From -- ./inp_files/56545.got.cif
#   From: 2010.05.17/outbox.cif.g08.bks.cpg/sg5_29_cif.got.tgz:56545.got - 2010.06.03 18:56:24.
