data_PCOD9125874
_publ_section_title
;
Structure prediction by ZEFSAII (Michael W. Deem and Ramdas Pophale) SiO2 
 PCOD9125874
Probable space group: C 2
;
_chemical_formula_sum "Si O2"
_cell_formula_units_Z 28
_cell_length_a 11.804426
_cell_length_b 12.509697
_cell_length_c 22.322476
_cell_angle_alpha 90.000000
_cell_angle_beta 25.361746
_cell_angle_gamma 90.000000
_cell_volume 1411.934233
_symmetry_space_group_name_H-M "C 2"
_symmetry_group_IT_number 5
_symmetry_cell_setting 'monoclinic'
loop_
_space_group_symop_operation_xyz
x,y,z
-x,y,-z
1/2+x,1/2+y,z
1/2-x,1/2+y,-z
loop_
_atom_site_type_symbol
_atom_site_label
_atom_site_fract_x
_atom_site_fract_y
_atom_site_fract_z
Si Si1 0.783015 0.672210 0.381815
Si Si2 0.238617 0.196781 0.929205
Si Si3 0.915800 0.102196 0.187887
Si Si4 0.451248 0.963787 0.347693
Si Si5 0.789932 0.942204 0.869888
Si Si6 0.269413 0.812175 0.333502
Si Si7 0.960799 0.870318 0.370129
O O1 0.500000 0.719991 0.500000
O O2 0.744034 0.554740 0.426436
O O3 0.924377 0.749677 0.362367
O O4 0.981074 0.660442 0.231063
O O5 0.247923 0.324844 0.918674
O O6 0.000000 0.160768 0.000000
O O7 0.142718 0.154765 0.038257
O O8 0.836887 0.196768 0.272315
O O9 0.698023 0.037892 0.251076
O O10 0.037263 0.009563 0.168847
O O11 0.463765 0.877939 0.286258
O O12 0.316408 0.905729 0.468616
O O13 0.939258 0.932589 0.735463
O O14 0.500000 0.990121 0.000000
O O15 0.000000 0.798953 0.500000
O O16 0.182375 0.877260 0.315792
#
# Coordination Sequence:
#
# PCOD9125874 Si02
#       7
#     4   4   4   4   4   4   4
#     4  11  22  39  66 100 133 180 237 283 350 425
#     4  10  21  45  65  90 135 179 229 282 352 424
#     4  12  24  43  70 100 140 187 231 297 356 421
#     4  11  24  40  69 104 131 191 230 289 364 409
#     4  10  24  42  65  94 131 190 226 281 367 417
#     4  10  22  43  66 101 143 178 233 295 349 424
#     4  10  22  41  67  94 140 175 229 293 347 426
#
# _framework density 19.830952
#
# number of rings (size 3 to 8) (size 9 to 14) (size 15 to 20)
#    0.000    1.429    2.857    3.000    6.000    3.429 
#    2.571    0.000    0.000    0.000    0.000    0.000 
#    0.000    0.000    0.000    0.000    0.000    0.000 
#
# Total GULP energy -77996.967615 kJ/mol
# GULP energy per Si atom -5571.211973 kJ/mol
# Density = 1.978582 g / cm^3
# Si number density = 19.830952 Si / 1000 Ang^3
#
#
#
# Elastic Constant Matrix: (Units=GPa)
#
#
# Indices 1 2 3 4 5 6 
#
# 1 115.4502 47.5343 54.5915 -0.0042 15.1707 -0.0075
# 2 47.5343 62.6559 35.2936 -0.0060 11.3160 -0.0079
# 3 54.5915 35.2936 103.2076 -0.0435 19.3248 -0.0359
# 4 -0.0042 -0.0060 -0.0435 22.5546 0.0055 -6.8277
# 5 15.1707 11.3160 19.3248 0.0055 33.0901 0.0137
# 6 -0.0075 -0.0079 -0.0359 -6.8277 0.0137 27.4158
#
#
#
# Elastic Compliance Matrix: (Units=1/GPa)
#
#
# Indices 1 2 3 4 5 6 
#
# 1 0.014301 -0.008057 -0.004601 -0.000010 -0.001114 -0.000006
# 2 -0.008057 0.024605 -0.003670 -0.000001 -0.002577 0.000001
# 3 -0.004601 -0.003670 0.014313 0.000035 -0.004995 0.000028
# 4 -0.000010 -0.000001 0.000035 0.047952 -0.000029 0.011942
# 5 -0.001114 -0.002577 -0.004995 -0.000029 0.034530 -0.000032
# 6 -0.000006 0.000001 0.000028 0.011942 -0.000032 0.039450
#
#
# Mechanical properties :
#
#
# Convention : Reuss Voigt Hill
#
# Bulk Modulus (GPa) = 48.62773 61.79471 55.21122
# Shear Modulus (GPa) = 23.29272 26.20506 24.74889
#
# Velocity S-wave (km/s) = 3.43091 3.63908 3.53653
# Velocity P-wave (km/s) = 6.34580 6.99182 6.67663
#
# Compressibility (1/GPa) = 0.02056440
#
# Stress axis : x y z
#
# Youngs Moduli (GPa) = 69.92632 40.64180 69.86690
#
# Poissons Ratio (x) = 0.32744 0.32143
# Poissons Ratio (y) = 0.56337 0.25641
# Poissons Ratio (z) = 0.32170 0.14916
#
# Static dielectric constant tensor:
#      x y z
#    x 1.748880 0.000000 -0.026130 
#    y 0.000000 1.712830 0.000010 
#    z -0.026130 0.000010 1.709940 
# 
# From -- ./inp_files/46396.got.cif
#   From: 2010.05.17/outbox.cif.g08.bks.cpg/sg5_24_cif.got.tgz:46396.got - 2010.06.03 18:56:24.
