data_PCOD9125492
_publ_section_title
;
Structure prediction by ZEFSAII (Michael W. Deem and Ramdas Pophale) SiO2 
 PCOD9125492
Probable space group: C 2
;
_chemical_formula_sum "Si O2"
_cell_formula_units_Z 28
_cell_length_a 19.239618
_cell_length_b 12.651664
_cell_length_c 5.251776
_cell_angle_alpha 90.000000
_cell_angle_beta 70.581775
_cell_angle_gamma 90.000000
_cell_volume 1205.634982
_symmetry_space_group_name_H-M "C 2"
_symmetry_group_IT_number 5
_symmetry_cell_setting 'monoclinic'
loop_
_space_group_symop_operation_xyz
x,y,z
-x,y,-z
1/2+x,1/2+y,z
1/2-x,1/2+y,-z
loop_
_atom_site_type_symbol
_atom_site_label
_atom_site_fract_x
_atom_site_fract_y
_atom_site_fract_z
Si Si1 0.147305 0.212430 0.903936
Si Si2 0.189917 0.386750 0.252779
Si Si3 0.687621 0.525305 0.141229
Si Si4 0.264100 0.187101 0.398650
Si Si5 0.578987 0.345653 0.383271
Si Si6 0.421446 0.200421 0.117504
Si Si7 0.549550 0.851807 0.695651
O O1 0.233605 0.199993 0.718897
O O2 0.090972 0.245602 0.750191
O O3 0.150395 0.312762 0.088565
O O4 0.133165 0.097276 0.035931
O O5 0.247623 0.304098 0.309158
O O6 0.122413 0.418281 0.521646
O O7 0.239303 0.481113 0.087065
O O8 0.709642 0.604794 0.335749
O O9 0.645635 0.425390 0.301716
O O10 0.343955 0.143786 0.235355
O O11 0.500000 0.402458 0.500000
O O12 0.580004 0.268769 0.623157
O O13 0.581885 0.276840 0.122746
O O14 0.500000 0.142518 0.000000
O O15 0.500000 0.839726 0.500000
O O16 0.500000 0.886423 0.000000
#
# Coordination Sequence:
#
# PCOD9125492 Si02
#       7
#     4   4   4   4   4   4   4
#     4  10  23  41  66 102 131 179 222 269 341 384
#     4  10  21  42  69  95 131 183 218 278 330 397
#     4  11  23  40  67 103 133 172 227 273 326 403
#     4  10  22  37  65  97 131 173 221 269 326 394
#     4  10  22  41  65  95 129 169 212 266 331 384
#     4  10  21  41  69  91 125 174 212 266 330 384
#     4  11  22  44  72  96 133 181 225 273 339 401
#
# _framework density 23.224278000000002
#
# number of rings (size 3 to 8) (size 9 to 14) (size 15 to 20)
#    0.000    1.714    2.857    0.857    4.000    2.286 
#    7.714    0.000    6.286    0.000    0.000    0.000 
#    0.000    0.000    0.000    0.000    0.000    0.000 
#
# Total GULP energy -78083.819602 kJ/mol
# GULP energy per Si atom -5577.415686 kJ/mol
# Density = 2.317142 g / cm^3
# Si number density = 23.224278 Si / 1000 Ang^3
#
#
#
# Elastic Constant Matrix: (Units=GPa)
#
#
# Indices 1 2 3 4 5 6 
#
# 1 98.4179 16.2518 38.6090 0.0000 -18.9307 0.0000
# 2 16.2518 64.3027 25.9749 0.0000 7.8429 0.0000
# 3 38.6090 25.9749 137.2708 0.0000 -13.5314 0.0000
# 4 0.0000 0.0000 0.0000 16.6252 0.0000 -0.3190
# 5 -18.9307 7.8429 -13.5314 0.0000 51.4577 0.0000
# 6 0.0000 0.0000 0.0000 -0.3190 0.0000 1.4328
#
#
#
# Elastic Compliance Matrix: (Units=1/GPa)
#
#
# Indices 1 2 3 4 5 6 
#
# 1 0.012431 -0.002625 -0.002576 0.000000 0.004296 0.000000
# 2 -0.002625 0.018028 -0.003120 0.000000 -0.004534 0.000000
# 3 -0.002576 -0.003120 0.008781 0.000000 0.001837 0.000000
# 4 0.000000 0.000000 0.000000 0.060408 0.000000 0.013449
# 5 0.004296 -0.004534 0.001837 0.000000 0.022188 0.000000
# 6 0.000000 0.000000 0.000000 0.013449 0.000000 0.700920
#
#
# Mechanical properties :
#
#
# Convention : Reuss Voigt Hill
#
# Bulk Modulus (GPa) = 44.25234 51.29587 47.77410
# Shear Modulus (GPa) = 5.90367 28.51353 17.20860
#
# Velocity S-wave (km/s) = 1.59610 3.50772 2.72504
# Velocity P-wave (km/s) = 4.74262 6.20811 5.52418
#
# Compressibility (1/GPa) = 0.02259768
#
# Stress axis : x y z
#
# Youngs Moduli (GPa) = 80.44261 55.46862 113.88371
#
# Poissons Ratio (x) = 0.14562 0.29339
# Poissons Ratio (y) = 0.21118 0.35531
# Poissons Ratio (z) = 0.20724 0.17306
#
# Static dielectric constant tensor:
#      x y z
#    x 1.972590 0.000000 -0.007920 
#    y 0.000000 1.807700 0.000000 
#    z -0.007920 0.000000 1.948620 
# 
# From -- ./inp_files/9553.got.cif
#   From: 2010.05.17/outbox.cif.g08.bks.cpg/sg5_5_cif.got.tgz:9553.got - 2010.06.03 18:56:24.
