data_PCOD9125902
_publ_section_title
;
Structure prediction by ZEFSAII (Michael W. Deem and Ramdas Pophale) SiO2 
 PCOD9125902
Probable space group: C 2
;
_chemical_formula_sum "Si O2"
_cell_formula_units_Z 26
_cell_length_a 25.342864
_cell_length_b 9.094151
_cell_length_c 11.721790
_cell_angle_alpha 90.000000
_cell_angle_beta 151.702827
_cell_angle_gamma 90.000000
_cell_volume 1280.652040
_symmetry_space_group_name_H-M "C 2"
_symmetry_group_IT_number 5
_symmetry_cell_setting 'monoclinic'
loop_
_space_group_symop_operation_xyz
x,y,z
-x,y,-z
1/2+x,1/2+y,z
1/2-x,1/2+y,-z
loop_
_atom_site_type_symbol
_atom_site_label
_atom_site_fract_x
_atom_site_fract_y
_atom_site_fract_z
Si Si1 0.603398 0.440300 0.784575
Si Si2 0.878479 0.484297 0.812986
Si Si3 0.166492 0.145070 0.339109
Si Si4 0.880589 0.367579 0.062227
Si Si5 0.474923 0.574898 0.142810
Si Si6 0.500000 0.019598 0.500000
Si Si7 0.209997 0.691051 0.861513
O O1 0.500000 0.445563 0.500000
O O2 0.550893 0.456660 0.809779
O O3 0.674501 0.292582 0.900435
O O4 0.691043 0.573884 0.930415
O O5 0.851098 0.319253 0.713805
O O6 0.791134 0.599644 0.599366
O O7 0.875177 0.474286 0.944046
O O8 0.000000 0.520667 0.000000
O O9 0.091610 0.082856 0.300167
O O10 0.118207 0.070455 0.132955
O O11 0.958147 0.232170 0.172015
O O12 0.930731 0.431525 0.273733
O O13 0.759583 0.299940 0.860717
O O14 0.594341 0.111626 0.612645
#
# Coordination Sequence:
#
# PCOD9125902 Si02
#       7
#     4   4   4   4   4   2   4
#     4  11  24  41  64  94 131 169 213 261 318 380
#     4  11  23  46  67  97 127 169 216 266 321 379
#     4  10  21  46  69  91 133 163 215 272 316 378
#     4  10  23  43  65  95 131 170 212 263 320 383
#     4   9  21  43  68  92 127 173 212 262 324 376
#     4  12  24  42  64  98 136 166 216 262 318 384
#     4  11  24  41  61  97 132 168 215 258 315 385
#
# _framework density 20.302157999999999
#
# number of rings (size 3 to 8) (size 9 to 14) (size 15 to 20)
#    0.000    1.538    5.385    0.000    6.462    3.692 
#    8.308    0.000    0.000    0.000    0.000    0.000 
#    0.000    0.000    0.000    0.000    0.000    0.000 
#
# Total GULP energy -72568.773620 kJ/mol
# GULP energy per Si atom -5582.213355 kJ/mol
# Density = 2.025595 g / cm^3
# Si number density = 20.302158 Si / 1000 Ang^3
#
#
#
# Elastic Constant Matrix: (Units=GPa)
#
#
# Indices 1 2 3 4 5 6 
#
# 1 118.0207 23.5963 57.5641 0.0000 5.3937 0.0000
# 2 23.5963 20.4438 23.3115 0.0000 1.9440 0.0000
# 3 57.5641 23.3115 110.9091 0.0000 31.7157 0.0000
# 4 0.0000 0.0000 0.0000 24.4244 0.0000 11.3529
# 5 5.3937 1.9440 31.7157 0.0000 19.0714 0.0000
# 6 0.0000 0.0000 0.0000 11.3529 0.0000 24.7013
#
#
#
# Elastic Compliance Matrix: (Units=1/GPa)
#
#
# Indices 1 2 3 4 5 6 
#
# 1 0.013709 -0.006458 -0.009224 0.000000 0.012121 0.000000
# 2 -0.006458 0.078148 -0.021581 0.000000 0.029750 0.000000
# 3 -0.009224 -0.021581 0.032348 0.000000 -0.048986 0.000000
# 4 0.000000 0.000000 0.000000 0.052065 0.000000 -0.023930
# 5 0.012121 0.029750 -0.048986 0.000000 0.127438 0.000000
# 6 0.000000 0.000000 0.000000 -0.023930 0.000000 0.051482
#
#
# Mechanical properties :
#
#
# Convention : Reuss Voigt Hill
#
# Bulk Modulus (GPa) = 20.12924 50.92415 35.52670
# Shear Modulus (GPa) = 11.20383 23.29955 17.25169
#
# Velocity S-wave (km/s) = 2.35171 3.39136 2.91820
# Velocity P-wave (km/s) = 4.16057 6.36181 5.37508
#
# Compressibility (1/GPa) = 0.04967897
#
# Stress axis : x y z
#
# Youngs Moduli (GPa) = 72.94307 12.79628 30.91376
#
# Poissons Ratio (x) = 0.08264 0.28515
# Poissons Ratio (y) = 0.47106 0.66715
# Poissons Ratio (z) = 0.67284 0.27616
#
# Static dielectric constant tensor:
#      x y z
#    x 1.742070 0.000000 0.001460 
#    y 0.000000 1.760540 0.000000 
#    z 0.001460 0.000000 1.689950 
# 
# From -- ./inp_files/47955.got.cif
#   From: 2010.05.17/outbox.cif.g08.bks.cpg/sg5_24_cif.got.tgz:47955.got - 2010.06.03 18:56:24.
