data_PCOD9125123
_publ_section_title
;
Structure prediction by ZEFSAII (Michael W. Deem and Ramdas Pophale) SiO2 
 PCOD9125123
Probable space group: C 2
;
_chemical_formula_sum "Si O2"
_cell_formula_units_Z 24
_cell_length_a 11.735872
_cell_length_b 8.659758
_cell_length_c 14.416642
_cell_angle_alpha 90.000000
_cell_angle_beta 128.135097
_cell_angle_gamma 90.000000
_cell_volume 1152.432192
_symmetry_space_group_name_H-M "C 2"
_symmetry_group_IT_number 5
_symmetry_cell_setting 'monoclinic'
loop_
_space_group_symop_operation_xyz
x,y,z
-x,y,-z
1/2+x,1/2+y,z
1/2-x,1/2+y,-z
loop_
_atom_site_type_symbol
_atom_site_label
_atom_site_fract_x
_atom_site_fract_y
_atom_site_fract_z
Si Si1 0.932237 0.284640 0.234580
Si Si2 0.665536 0.762963 0.012598
Si Si3 0.300632 0.583600 0.601375
Si Si4 0.453911 0.296808 0.580992
Si Si5 0.338892 0.120081 0.945469
Si Si6 0.789125 0.596190 0.231737
O O1 0.791070 0.178986 0.185116
O O2 0.881755 0.453593 0.238430
O O3 0.078174 0.217454 0.349277
O O4 0.946971 0.269446 0.129731
O O5 0.663510 0.645090 0.096783
O O6 0.673660 0.936872 0.051519
O O7 0.805452 0.704896 0.025690
O O8 0.367966 0.431563 0.589555
O O9 0.152625 0.649176 0.483612
O O10 0.268800 0.559115 0.694734
O O11 0.500000 0.345506 0.500000
O O12 0.600308 0.240156 0.703947
O O13 0.500000 0.162014 0.000000
#
# Coordination Sequence:
#
# PCOD9125123 Si02
#       6
#     4   4   4   4   4   4
#     4  10  22  41  59  95 128 161 208 249 305 373
#     4  10  21  40  59  93 129 163 210 245 301 376
#     4  11  24  43  68  92 123 167 206 266 320 364
#     4  10  24  44  65  93 123 161 213 264 317 374
#     4  10  22  38  58  85 128 168 200 248 298 361
#     4  11  23  41  65  93 129 165 210 258 307 374
#
# _framework density 20.825519
#
# number of rings (size 3 to 8) (size 9 to 14) (size 15 to 20)
#    1.000    0.667    1.667    2.000    2.333    4.000 
#    0.000    0.833    0.000    0.000    0.000    0.000 
#    0.000    0.000    0.000    0.000    0.000    0.000 
#
# Total GULP energy -66908.760165 kJ/mol
# GULP energy per Si atom -5575.730014 kJ/mol
# Density = 2.077812 g / cm^3
# Si number density = 20.825519 Si / 1000 Ang^3
#
#
#
# Elastic Constant Matrix: (Units=GPa)
#
#
# Indices 1 2 3 4 5 6 
#
# 1 119.9876 31.4060 18.6132 0.0000 -2.6098 0.0000
# 2 31.4060 52.0677 12.8789 0.0000 -12.9210 0.0000
# 3 18.6132 12.8789 66.7886 0.0000 6.6950 0.0000
# 4 0.0000 0.0000 0.0000 9.5490 0.0000 -14.8812
# 5 -2.6098 -12.9210 6.6950 0.0000 21.6395 0.0000
# 6 0.0000 0.0000 0.0000 -14.8812 0.0000 1.4705
#
#
#
# Elastic Compliance Matrix: (Units=1/GPa)
#
#
# Indices 1 2 3 4 5 6 
#
# 1 0.010155 -0.006300 -0.001405 0.000000 -0.002102 0.000000
# 2 -0.006300 0.028938 -0.005656 0.000000 0.018269 0.000000
# 3 -0.001405 -0.005656 0.017348 0.000000 -0.008914 0.000000
# 4 0.000000 0.000000 0.000000 -0.007090 0.000000 -0.071748
# 5 -0.002102 0.018269 -0.008914 0.000000 0.059625 0.000000
# 6 0.000000 0.000000 0.000000 -0.071748 0.000000 -0.046040
#
#
# Mechanical properties :
#
#
# Convention : Reuss Voigt Hill
#
# Bulk Modulus (GPa) = 33.64586 40.51558 37.08072
# Shear Modulus (GPa) = 50.21883 18.26152 34.24017
#
# Velocity S-wave (km/s) = 4.91594 2.96443 4.05920
# Velocity P-wave (km/s) = 6.95795 5.58696 6.30980
#
# Compressibility (1/GPa) = 0.02972134
#
# Stress axis : x y z
#
# Youngs Moduli (GPa) = 98.47109 34.55636 57.64271
#
# Poissons Ratio (x) = 0.21769 0.08097
# Poissons Ratio (y) = 0.62033 0.32602
# Poissons Ratio (z) = 0.13832 0.19545
#
# Static dielectric constant tensor:
#      x y z
#    x 1.759350 0.000000 -0.001490 
#    y 0.000000 1.708310 0.000000 
#    z -0.001490 0.000000 1.782960 
# 
# From -- ./inp_files/60231.got.cif
#   From: 2010.05.17/outbox.cif.g08.bks.cpg/sg5_31_cif.got.tgz:60231.got - 2010.06.03 18:56:24.
