data_PCOD9125381
_publ_section_title
;
Structure prediction by ZEFSAII (Michael W. Deem and Ramdas Pophale) SiO2 
 PCOD9125381
Probable space group: C 2
;
_chemical_formula_sum "Si O2"
_cell_formula_units_Z 30
_cell_length_a 23.461318
_cell_length_b 11.556408
_cell_length_c 9.307210
_cell_angle_alpha 90.000000
_cell_angle_beta 140.535331
_cell_angle_gamma 90.000000
_cell_volume 1603.910882
_symmetry_space_group_name_H-M "C 2"
_symmetry_group_IT_number 5
_symmetry_cell_setting 'monoclinic'
loop_
_space_group_symop_operation_xyz
x,y,z
-x,y,-z
1/2+x,1/2+y,z
1/2-x,1/2+y,-z
loop_
_atom_site_type_symbol
_atom_site_label
_atom_site_fract_x
_atom_site_fract_y
_atom_site_fract_z
Si Si1 0.352747 0.274280 0.032628
Si Si2 0.680168 0.757356 0.893553
Si Si3 0.678715 0.536367 0.036205
Si Si4 0.899316 0.394557 0.762528
Si Si5 0.880643 0.454271 0.399206
Si Si6 0.768044 0.236865 0.689214
Si Si7 0.500000 0.141155 0.500000
Si Si8 0.604950 0.166711 0.189427
O O1 0.427206 0.217957 0.278532
O O2 0.257114 0.253602 0.922894
O O3 0.366029 0.412284 0.042553
O O4 0.358428 0.214895 0.889254
O O5 0.613363 0.856922 0.712211
O O6 0.640929 0.629984 0.849272
O O7 0.725267 0.787322 0.135749
O O8 0.782181 0.511434 0.194153
O O9 0.687048 0.609607 0.199839
O O10 0.888403 0.396744 0.569851
O O11 0.826223 0.314341 0.696118
O O12 0.887936 0.527593 0.790601
O O13 0.000000 0.357660 0.000000
O O14 0.951966 0.555618 0.519169
O O15 0.668092 0.218418 0.437039
O O16 0.500000 0.196578 0.000000
#
# Coordination Sequence:
#
# PCOD9125381 Si02
#       8
#     4   4   4   4   4   4   2   4
#     4  11  23  37  65  90 127 167 205 260 325 369
#     4   9  21  38  65  88 123 165 205 258 321 372
#     4   9  20  41  59  89 126 161 204 259 310 390
#     4  11  23  40  64  94 125 166 215 263 316 379
#     4  11  21  38  62  94 127 158 213 270 305 377
#     4  10  21  41  64  89 131 161 204 270 316 372
#     4  12  22  36  64  98 122 158 212 270 308 368
#     4  11  24  39  65  95 126 168 217 258 317 383
#
# _framework density 18.704281999999999
#
# number of rings (size 3 to 8) (size 9 to 14) (size 15 to 20)
#    0.800    0.800    2.667    3.200    5.600    0.000 
#    0.000    2.667    0.000    0.000    0.000    0.000 
#    0.000    0.000    0.000    0.000    0.000    0.000 
#
# Total GULP energy -83651.951371 kJ/mol
# GULP energy per Si atom -5576.796758 kJ/mol
# Density = 1.866171 g / cm^3
# Si number density = 18.704282 Si / 1000 Ang^3
#
#
#
# Elastic Constant Matrix: (Units=GPa)
#
#
# Indices 1 2 3 4 5 6 
#
# 1 68.5795 29.0677 35.7482 0.0000 -5.7195 0.0000
# 2 29.0677 92.1139 58.2770 0.0000 0.7547 0.0000
# 3 35.7482 58.2770 74.3799 0.0000 -6.5501 0.0000
# 4 0.0000 0.0000 0.0000 32.2252 0.0000 -1.9848
# 5 -5.7195 0.7547 -6.5501 0.0000 33.0192 0.0000
# 6 0.0000 0.0000 0.0000 -1.9848 0.0000 34.7058
#
#
#
# Elastic Compliance Matrix: (Units=1/GPa)
#
#
# Indices 1 2 3 4 5 6 
#
# 1 0.019553 -0.000657 -0.008736 0.000000 0.001669 0.000000
# 2 -0.000657 0.022056 -0.017322 0.000000 -0.004054 0.000000
# 3 -0.008736 -0.017322 0.031669 0.000000 0.005165 0.000000
# 4 0.000000 0.000000 0.000000 0.031141 0.000000 0.001781
# 5 0.001669 -0.004054 0.005165 0.000000 0.031692 0.000000
# 6 0.000000 0.000000 0.000000 0.001781 0.000000 0.028915
#
#
# Mechanical properties :
#
#
# Convention : Reuss Voigt Hill
#
# Bulk Modulus (GPa) = 50.38063 53.47323 51.92693
# Shear Modulus (GPa) = 22.21512 27.45539 24.83526
#
# Velocity S-wave (km/s) = 3.45004 3.83543 3.64783
# Velocity P-wave (km/s) = 6.54708 6.94729 6.75015
#
# Compressibility (1/GPa) = 0.01984890
#
# Stress axis : x y z
#
# Youngs Moduli (GPa) = 51.14325 45.34007 31.57615
#
# Poissons Ratio (x) = 0.02980 0.27584
# Poissons Ratio (y) = 0.03361 0.54695
# Poissons Ratio (z) = 0.44677 0.78537
#
# Static dielectric constant tensor:
#      x y z
#    x 1.641050 0.000000 -0.004520 
#    y 0.000000 1.662800 0.000000 
#    z -0.004520 0.000000 1.653960 
# 
# From -- ./inp_files/30939.got.cif
#   From: 2010.05.17/outbox.cif.g08.bks.cpg/sg5_16_cif.got.tgz:30939.got - 2010.06.03 18:56:24.
