data_PCOD9125422
_publ_section_title
;
Structure prediction by ZEFSAII (Michael W. Deem and Ramdas Pophale) SiO2 
 PCOD9125422
Probable space group: C 2
;
_chemical_formula_sum "Si O2"
_cell_formula_units_Z 22
_cell_length_a 26.991035
_cell_length_b 4.923652
_cell_length_c 18.245765
_cell_angle_alpha 90.000000
_cell_angle_beta 158.889210
_cell_angle_gamma 90.000000
_cell_volume 873.332277
_symmetry_space_group_name_H-M "C 2"
_symmetry_group_IT_number 5
_symmetry_cell_setting 'monoclinic'
loop_
_space_group_symop_operation_xyz
x,y,z
-x,y,-z
1/2+x,1/2+y,z
1/2-x,1/2+y,-z
loop_
_atom_site_type_symbol
_atom_site_label
_atom_site_fract_x
_atom_site_fract_y
_atom_site_fract_z
Si Si1 0.574700 0.340640 0.234846
Si Si2 0.136199 0.350100 0.417076
Si Si3 0.000000 0.427548 0.500000
Si Si4 0.940653 0.727144 0.555862
Si Si5 0.173247 0.079416 0.927947
Si Si6 0.779733 0.020406 0.841178
O O1 0.698081 0.383367 0.347930
O O2 0.612547 0.544765 0.354954
O O3 0.586726 0.035857 0.280949
O O4 0.417317 0.396530 0.998000
O O5 0.067947 0.505761 0.391434
O O6 0.029876 0.619523 0.610441
O O7 0.850904 0.316175 0.319811
O O8 0.790601 0.732805 0.311460
O O9 0.019946 0.992111 0.691275
O O10 0.261322 0.812841 0.030134
O O11 0.177720 0.138386 0.020684
#
# Coordination Sequence:
#
# PCOD9125422 Si02
#       6
#     4   4   2   4   4   4
#     4  10  22  41  66  94 126 171 222 269 331 395
#     4  10  22  41  66  94 126 171 222 269 331 395
#     4   8  20  40  56 104 126 166 230 262 326 424
#     4  10  21  41  65  96 133 170 222 273 330 398
#     4  12  24  42  68  94 138 184 224 272 344 396
#     4  10  21  41  65  96 133 170 222 273 330 398
#
# _framework density 25.19087
#
# number of rings (size 3 to 8) (size 9 to 14) (size 15 to 20)
#    1.091    0.727    3.636    0.000    2.545    0.727 
#    0.000   17.273    0.000    6.545    0.000    0.000 
#    0.000    0.000    0.000    0.000    0.000    0.000 
#
# Total GULP energy -61338.030473 kJ/mol
# GULP energy per Si atom -5576.184588 kJ/mol
# Density = 2.513353 g / cm^3
# Si number density = 25.190870 Si / 1000 Ang^3
#
#
#
# Elastic Constant Matrix: (Units=GPa)
#
#
# Indices 1 2 3 4 5 6 
#
# 1 43.8331 2.4985 -10.8762 0.0002 0.6818 0.0000
# 2 2.4985 92.1530 7.6645 0.0010 -1.4968 -0.0006
# 3 -10.8762 7.6645 162.8657 0.0000 14.6273 0.0000
# 4 0.0002 0.0010 0.0000 20.2989 0.0000 9.3769
# 5 0.6818 -1.4968 14.6273 0.0000 63.6314 0.0000
# 6 0.0000 -0.0006 0.0000 9.3769 0.0000 16.6815
#
#
#
# Elastic Compliance Matrix: (Units=1/GPa)
#
#
# Indices 1 2 3 4 5 6 
#
# 1 0.023277 -0.000779 0.001649 0.000000 -0.000647 0.000000
# 2 -0.000779 0.010929 -0.000603 -0.000001 0.000404 0.000001
# 3 0.001649 -0.000603 0.006414 0.000000 -0.001506 0.000000
# 4 0.000000 -0.000001 0.000000 0.066542 0.000000 -0.037405
# 5 -0.000647 0.000404 -0.001506 0.000000 0.016078 0.000000
# 6 0.000000 0.000001 0.000000 -0.037405 0.000000 0.080973
#
#
# Mechanical properties :
#
#
# Convention : Reuss Voigt Hill
#
# Bulk Modulus (GPa) = 24.29767 33.04727 28.67247
# Shear Modulus (GPa) = 22.99941 40.09334 31.54638
#
# Velocity S-wave (km/s) = 3.02488 3.99379 3.54262
# Velocity P-wave (km/s) = 4.67613 5.86638 5.30474
#
# Compressibility (1/GPa) = 0.04115621
#
# Stress axis : x y z
#
# Youngs Moduli (GPa) = 42.95996 91.49701 155.91379
#
# Poissons Ratio (x) = 0.07126 -0.25714
# Poissons Ratio (y) = 0.03346 0.09396
# Poissons Ratio (z) = -0.07085 0.05514
#
# Static dielectric constant tensor:
#      x y z
#    x 1.989040 0.000000 0.060130 
#    y 0.000000 1.942240 0.000000 
#    z 0.060130 0.000000 2.146820 
# 
# From -- ./inp_files/67647.got.cif
#   From: 2010.05.17/outbox.cif.g08.bks.cpg/sg5_34_cif.got.tgz:67647.got - 2010.06.03 18:56:24.
