data_PCOD9125089
_publ_section_title
;
Structure prediction by ZEFSAII (Michael W. Deem and Ramdas Pophale) SiO2 
 PCOD9125089
Probable space group: C 2
;
_chemical_formula_sum "Si O2"
_cell_formula_units_Z 32
_cell_length_a 14.897233
_cell_length_b 6.827191
_cell_length_c 14.345732
_cell_angle_alpha 90.000000
_cell_angle_beta 72.141133
_cell_angle_gamma 90.000000
_cell_volume 1388.746046
_symmetry_space_group_name_H-M "C 2"
_symmetry_group_IT_number 5
_symmetry_cell_setting 'monoclinic'
loop_
_space_group_symop_operation_xyz
x,y,z
-x,y,-z
1/2+x,1/2+y,z
1/2-x,1/2+y,-z
loop_
_atom_site_type_symbol
_atom_site_label
_atom_site_fract_x
_atom_site_fract_y
_atom_site_fract_z
Si Si1 0.746760 0.264260 0.264145
Si Si2 0.486423 0.292982 0.866883
Si Si3 0.109834 0.867928 0.475836
Si Si4 0.595076 0.009446 0.722808
Si Si5 0.315569 0.487854 0.886782
Si Si6 0.837586 0.800884 0.063510
Si Si7 0.407178 0.902291 0.479112
Si Si8 0.283860 0.382673 0.372816
O O1 0.676500 0.371871 0.362193
O O2 0.848432 0.368590 0.227595
O O3 0.707436 0.304129 0.173688
O O4 0.762906 0.049138 0.302529
O O5 0.504082 0.119297 0.789136
O O6 0.429976 0.482562 0.846477
O O7 0.586981 0.353652 0.880115
O O8 0.413511 0.206531 0.966672
O O9 0.105014 0.634800 0.498809
O O10 0.157156 0.954244 0.554858
O O11 0.000000 0.925283 0.500000
O O12 0.582182 0.886692 0.633838
O O13 0.662629 0.194264 0.681167
O O14 0.248879 0.665814 0.877253
O O15 0.296770 0.460865 0.003914
O O16 0.500000 0.836382 0.500000
O O17 0.315288 0.813207 0.553899
#
# Coordination Sequence:
#
# PCOD9125089 Si02
#       8
#     4   4   4   4   4   4   4   4
#     4  11  22  38  61  92 124 167 217 260 315 388
#     4   9  21  39  66  88 125 165 206 263 337 388
#     4   9  19  35  60  82 123 168 209 256 313 370
#     4  11  21  39  63  85 130 167 205 275 313 370
#     4  10  21  39  68  92 124 161 212 262 328 401
#     4   9  20  41  65  89 122 165 200 261 339 390
#     4   9  19  34  59  85 120 171 209 250 318 369
#     4  10  22  37  57  92 124 166 218 259 312 378
#
# _framework density 23.042373000000001
#
# number of rings (size 3 to 8) (size 9 to 14) (size 15 to 20)
#    0.750    1.500    2.500    0.000    7.000    1.000 
#    0.000    3.750    5.500    0.000    0.000    0.000 
#    0.000    0.000    0.000    0.000    0.000    0.000 
#
# Total GULP energy -89092.734795 kJ/mol
# GULP energy per Si atom -5568.295925 kJ/mol
# Density = 2.298993 g / cm^3
# Si number density = 23.042373 Si / 1000 Ang^3
#
#
#
# Elastic Constant Matrix: (Units=GPa)
#
#
# Indices 1 2 3 4 5 6 
#
# 1 144.5707 11.4620 19.8156 0.0000 9.5626 0.0000
# 2 11.4620 57.6188 -1.8570 0.0000 4.2121 0.0000
# 3 19.8156 -1.8570 46.0503 0.0000 0.8722 0.0000
# 4 0.0000 0.0000 0.0000 41.4224 0.0000 -11.1304
# 5 9.5626 4.2121 0.8722 0.0000 42.2440 0.0000
# 6 0.0000 0.0000 0.0000 -11.1304 0.0000 27.0386
#
#
#
# Elastic Compliance Matrix: (Units=1/GPa)
#
#
# Indices 1 2 3 4 5 6 
#
# 1 0.007588 -0.001506 -0.003297 0.000000 -0.001499 0.000000
# 2 -0.001506 0.017807 0.001394 0.000000 -0.001463 0.000000
# 3 -0.003297 0.001394 0.023188 0.000000 0.000129 0.000000
# 4 0.000000 0.000000 0.000000 0.027144 0.000000 0.011174
# 5 -0.001499 -0.001463 0.000129 0.000000 0.024155 0.000000
# 6 0.000000 0.000000 0.000000 0.011174 0.000000 0.041584
#
#
# Mechanical properties :
#
#
# Convention : Reuss Voigt Hill
#
# Bulk Modulus (GPa) = 23.94434 34.12010 29.03222
# Shear Modulus (GPa) = 30.82519 36.72895 33.77707
#
# Velocity S-wave (km/s) = 3.66151 3.99679 3.83282
# Velocity P-wave (km/s) = 5.31879 6.01156 5.67575
#
# Compressibility (1/GPa) = 0.04176352
#
# Stress axis : x y z
#
# Youngs Moduli (GPa) = 131.79483 56.15793 43.12578
#
# Poissons Ratio (x) = 0.08458 0.14220
# Poissons Ratio (y) = 0.19849 -0.06011
# Poissons Ratio (z) = 0.43457 -0.07828
#
# Static dielectric constant tensor:
#      x y z
#    x 1.867660 0.000000 0.152950 
#    y 0.000000 1.908950 0.000000 
#    z 0.152950 0.000000 1.635780 
# 
# From -- ./inp_files/54028.got.cif
#   From: 2010.05.17/outbox.cif.g08.bks.cpg/sg5_28_cif.got.tgz:54028.got - 2010.06.03 18:56:24.
