data_PCOD9125571
_publ_section_title
;
Structure prediction by ZEFSAII (Michael W. Deem and Ramdas Pophale) SiO2 
 PCOD9125571
Probable space group: C 2
;
_chemical_formula_sum "Si O2"
_cell_formula_units_Z 24
_cell_length_a 11.276701
_cell_length_b 11.584973
_cell_length_c 20.896704
_cell_angle_alpha 90.000000
_cell_angle_beta 25.402033
_cell_angle_gamma 90.000000
_cell_volume 1171.059480
_symmetry_space_group_name_H-M "C 2"
_symmetry_group_IT_number 5
_symmetry_cell_setting 'monoclinic'
loop_
_space_group_symop_operation_xyz
x,y,z
-x,y,-z
1/2+x,1/2+y,z
1/2-x,1/2+y,-z
loop_
_atom_site_type_symbol
_atom_site_label
_atom_site_fract_x
_atom_site_fract_y
_atom_site_fract_z
Si Si1 0.424510 0.046900 0.898034
Si Si2 0.805869 0.353539 0.859723
Si Si3 0.338112 0.718546 0.645186
Si Si4 0.989964 0.037549 0.340871
Si Si5 0.561913 0.952358 0.343085
Si Si6 0.563774 0.626154 0.774206
O O1 0.553528 0.146297 0.789080
O O2 0.696291 0.996912 0.800842
O O3 0.281087 0.949228 0.926426
O O4 0.213375 0.097577 0.051524
O O5 0.889457 0.417211 0.753650
O O6 0.032279 0.260014 0.770756
O O7 0.500000 0.298341 0.000000
O O8 0.500000 0.704250 0.500000
O O9 0.511656 0.657714 0.617986
O O10 0.300364 0.851391 0.681525
O O11 0.929433 0.060978 0.296867
O O12 0.761155 0.955887 0.482721
O O13 0.690369 0.074610 0.302524
#
# Coordination Sequence:
#
# PCOD9125571 Si02
#       6
#     4   4   4   4   4   4
#     4  10  24  41  72  96 134 188 231 284 351 416
#     4  12  23  46  72  99 141 185 232 295 346 417
#     4  10  21  42  64  94 136 178 228 285 341 403
#     4  10  23  41  65 102 132 179 226 286 338 418
#     4  12  24  42  71 101 138 184 231 287 352 415
#     4  12  23  44  70 101 134 184 232 280 364 407
#
# _framework density 20.494264000000001
#
# number of rings (size 3 to 8) (size 9 to 14) (size 15 to 20)
#    1.000    0.000    3.333    5.000    0.000    1.333 
#    3.000    1.667    3.667    0.000    0.000    0.000 
#    0.000    0.000    0.000    0.000    0.000    0.000 
#
# Total GULP energy -66957.947513 kJ/mol
# GULP energy per Si atom -5579.828959 kJ/mol
# Density = 2.044762 g / cm^3
# Si number density = 20.494264 Si / 1000 Ang^3
#
#
#
# Elastic Constant Matrix: (Units=GPa)
#
#
# Indices 1 2 3 4 5 6 
#
# 1 68.0872 27.0622 22.8715 -0.0027 24.6498 -0.0111
# 2 27.0622 61.8341 -6.0328 0.0110 6.7185 -0.0214
# 3 22.8715 -6.0328 81.1371 -0.0368 19.7489 0.0097
# 4 -0.0027 0.0110 -0.0368 24.2072 0.0033 -4.5586
# 5 24.6498 6.7185 19.7489 0.0033 42.2040 0.0113
# 6 -0.0111 -0.0214 0.0097 -4.5586 0.0113 30.7993
#
#
#
# Elastic Compliance Matrix: (Units=1/GPa)
#
#
# Indices 1 2 3 4 5 6 
#
# 1 0.023946 -0.009879 -0.005037 0.000002 -0.010057 0.000007
# 2 -0.009879 0.020856 0.004220 -0.000003 0.000475 0.000009
# 3 -0.005037 0.004220 0.015242 0.000022 -0.004862 0.000001
# 4 0.000002 -0.000003 0.000022 0.042495 -0.000016 0.006290
# 5 -0.010057 0.000475 -0.004862 -0.000016 0.031768 -0.000016
# 6 0.000007 0.000009 0.000001 0.006290 -0.000016 0.033399
#
#
# Mechanical properties :
#
#
# Convention : Reuss Voigt Hill
#
# Bulk Modulus (GPa) = 25.87195 33.20669 29.53932
# Shear Modulus (GPa) = 24.75465 30.58592 27.67028
#
# Velocity S-wave (km/s) = 3.47923 3.86737 3.67842
# Velocity P-wave (km/s) = 5.36577 6.01499 5.69963
#
# Compressibility (1/GPa) = 0.03865190
#
# Stress axis : x y z
#
# Youngs Moduli (GPa) = 41.75984 47.94776 65.60866
#
# Poissons Ratio (x) = 0.47368 0.33047
# Poissons Ratio (y) = 0.41255 -0.27686
# Poissons Ratio (z) = 0.21034 -0.20233
#
# Static dielectric constant tensor:
#      x y z
#    x 1.722210 0.000000 -0.015740 
#    y 0.000000 1.745620 0.000030 
#    z -0.015740 0.000030 1.713560 
# 
# From -- ./inp_files/65216.got.cif
#   From: 2010.05.17/outbox.cif.g08.bks.cpg/sg5_33_cif.got.tgz:65216.got - 2010.06.03 18:56:24.
