data_PCOD9125748
_publ_section_title
;
Structure prediction by ZEFSAII (Michael W. Deem and Ramdas Pophale) SiO2 
 PCOD9125748
Probable space group: C 2
;
_chemical_formula_sum "Si O2"
_cell_formula_units_Z 28
_cell_length_a 15.828025
_cell_length_b 12.417747
_cell_length_c 7.326566
_cell_angle_alpha 90.000000
_cell_angle_beta 74.264514
_cell_angle_gamma 90.000000
_cell_volume 1386.058476
_symmetry_space_group_name_H-M "C 2"
_symmetry_group_IT_number 5
_symmetry_cell_setting 'monoclinic'
loop_
_space_group_symop_operation_xyz
x,y,z
-x,y,-z
1/2+x,1/2+y,z
1/2-x,1/2+y,-z
loop_
_atom_site_type_symbol
_atom_site_label
_atom_site_fract_x
_atom_site_fract_y
_atom_site_fract_z
Si Si1 0.433478 0.767480 0.202840
Si Si2 0.659352 0.217151 0.725298
Si Si3 0.584537 0.010355 0.848473
Si Si4 0.223670 0.598759 0.015546
Si Si5 0.725815 0.268039 0.298707
Si Si6 0.000000 0.124399 0.500000
Si Si7 0.621135 0.471957 0.199454
Si Si8 0.000000 0.848430 0.000000
O O1 0.330658 0.756839 0.214451
O O2 0.461386 0.698725 0.361262
O O3 0.439928 0.897036 0.222739
O O4 0.500000 0.738700 0.000000
O O5 0.724824 0.189080 0.853330
O O6 0.622368 0.099272 0.690460
O O7 0.703459 0.268550 0.525470
O O8 0.578539 0.281458 0.860214
O O9 0.500000 0.055691 0.000000
O O10 0.656812 0.010759 0.969218
O O11 0.191135 0.662533 0.211033
O O12 0.317086 0.542185 0.969432
O O13 0.680591 0.375119 0.244931
O O14 0.077671 0.048488 0.376518
O O15 0.543243 0.419892 0.131033
#
# Coordination Sequence:
#
# PCOD9125748 Si02
#       8
#     4   4   4   4   4   2   4   2
#     4  11  25  47  69  99 144 185 227 285 348 414
#     4  10  21  43  68 102 137 175 233 291 334 412
#     4   9  19  44  66  93 138 175 224 288 344 398
#     4  10  22  43  64 102 138 171 231 285 338 403
#     4  12  23  43  73 103 132 188 236 280 345 411
#     4  12  28  46  68 102 140 182 240 276 344 428
#     4  12  25  46  68 102 140 186 226 290 346 408
#     4  12  24  46  70 102 144 184 226 288 356 398
#
# _framework density 20.201166000000001
#
# number of rings (size 3 to 8) (size 9 to 14) (size 15 to 20)
#    0.857    0.286    3.571    2.571    3.000    0.000 
#   10.286    0.000    0.000    0.000    0.000    0.000 
#    0.000    0.000    0.000    0.000    0.000    0.000 
#
# Total GULP energy -78034.950378 kJ/mol
# GULP energy per Si atom -5573.925027 kJ/mol
# Density = 2.015519 g / cm^3
# Si number density = 20.201166 Si / 1000 Ang^3
#
#
#
# Elastic Constant Matrix: (Units=GPa)
#
#
# Indices 1 2 3 4 5 6 
#
# 1 77.7825 30.4930 10.0727 0.0000 -1.0842 0.0000
# 2 30.4930 80.5575 25.7495 0.0000 6.4600 0.0000
# 3 10.0727 25.7495 65.9763 0.0000 2.9666 0.0000
# 4 0.0000 0.0000 0.0000 19.4972 0.0000 -6.0498
# 5 -1.0842 6.4600 2.9666 0.0000 30.2201 0.0000
# 6 0.0000 0.0000 0.0000 -6.0498 0.0000 22.0859
#
#
#
# Elastic Compliance Matrix: (Units=1/GPa)
#
#
# Indices 1 2 3 4 5 6 
#
# 1 0.015194 -0.005860 -0.000114 0.000000 0.001809 0.000000
# 2 -0.005860 0.016633 -0.005452 0.000000 -0.003231 0.000000
# 3 -0.000114 -0.005452 0.017326 0.000000 -0.000540 0.000000
# 4 0.000000 0.000000 0.000000 0.056054 0.000000 0.015354
# 5 0.001809 -0.003231 -0.000540 0.000000 0.033899 0.000000
# 6 0.000000 0.000000 0.000000 0.015354 0.000000 0.049484
#
#
# Mechanical properties :
#
#
# Convention : Reuss Voigt Hill
#
# Bulk Modulus (GPa) = 38.01982 39.66072 38.84027
# Shear Modulus (GPa) = 22.70581 24.89404 23.79992
#
# Velocity S-wave (km/s) = 3.35623 3.51423 3.43614
# Velocity P-wave (km/s) = 5.82069 6.01182 5.91703
#
# Compressibility (1/GPa) = 0.02630207
#
# Stress axis : x y z
#
# Youngs Moduli (GPa) = 65.81748 60.12057 57.71550
#
# Poissons Ratio (x) = 0.35229 0.00658
# Poissons Ratio (y) = 0.38567 0.31465
# Poissons Ratio (z) = 0.00750 0.32777
#
# Static dielectric constant tensor:
#      x y z
#    x 1.731410 0.000000 -0.016310 
#    y 0.000000 1.745940 0.000000 
#    z -0.016310 0.000000 1.688740 
# 
# From -- ./inp_files/23825.got.cif
#   From: 2010.05.17/outbox.cif.g08.bks.cpg/sg5_12_cif.got.tgz:23825.got - 2010.06.03 18:56:24.
