data_PCOD9125804
_publ_section_title
;
Structure prediction by ZEFSAII (Michael W. Deem and Ramdas Pophale) SiO2 
 PCOD9125804
Probable space group: C 2
;
_chemical_formula_sum "Si O2"
_cell_formula_units_Z 22
_cell_length_a 8.017422
_cell_length_b 21.809246
_cell_length_c 5.257673
_cell_angle_alpha 90.000000
_cell_angle_beta 95.217530
_cell_angle_gamma 90.000000
_cell_volume 915.515670
_symmetry_space_group_name_H-M "C 2"
_symmetry_group_IT_number 5
_symmetry_cell_setting 'monoclinic'
loop_
_space_group_symop_operation_xyz
x,y,z
-x,y,-z
1/2+x,1/2+y,z
1/2-x,1/2+y,-z
loop_
_atom_site_type_symbol
_atom_site_label
_atom_site_fract_x
_atom_site_fract_y
_atom_site_fract_z
Si Si1 0.692703 0.157960 0.926940
Si Si2 0.000000 0.606917 0.500000
Si Si3 0.000000 0.439377 0.000000
Si Si4 0.000000 0.874774 0.000000
Si Si5 0.000000 0.357833 0.500000
Si Si6 0.000000 0.958703 0.500000
Si Si7 0.816910 0.289390 0.100773
Si Si8 0.232509 0.535600 0.174793
O O1 0.653431 0.148118 0.623020
O O2 0.500000 0.161228 0.000000
O O3 0.774604 0.219322 0.038226
O O4 0.787246 0.096500 0.032685
O O5 0.928187 0.561681 0.699837
O O6 0.027745 0.401949 0.263065
O O7 0.164793 0.481038 0.990045
O O8 0.972203 0.916000 0.743972
O O9 0.835976 0.831776 0.016141
O O10 0.150438 0.312642 0.605976
O O11 0.853913 0.004692 0.392431
O O12 0.000000 0.297858 0.000000
#
# Coordination Sequence:
#
# PCOD9125804 Si02
#       8
#     4   2   2   2   2   2   4   4
#     4  10  23  46  74 112 151 207 255 330 394 459
#     4  10  21  43  78 112 155 201 258 308 416 454
#     4  12  22  45  78 105 156 198 262 300 394 466
#     4  12  30  55  74 119 158 214 254 328 386 468
#     4  12  27  45  74 119 146 209 256 322 372 468
#     4  12  30  48  78 113 165 196 256 326 394 466
#     4  12  28  51  81 112 159 209 271 323 387 469
#     4  11  24  44  75 115 148 205 249 327 390 472
#
# _framework density 24.030172
#
# number of rings (size 3 to 8) (size 9 to 14) (size 15 to 20)
#    0.000    0.727    4.545    2.727    5.091    5.818 
#    0.000    0.000    0.000    0.000    0.000    0.000 
#    0.000    0.000    0.000    0.000    0.000    0.000 
#
# Total GULP energy -61431.755832 kJ/mol
# GULP energy per Si atom -5584.705076 kJ/mol
# Density = 2.397548 g / cm^3
# Si number density = 24.030172 Si / 1000 Ang^3
#
#
#
# Elastic Constant Matrix: (Units=GPa)
#
#
# Indices 1 2 3 4 5 6 
#
# 1 100.7924 58.5262 43.0117 0.0000 20.0983 0.0000
# 2 58.5262 221.9902 112.0800 0.0000 29.7000 0.0000
# 3 43.0117 112.0800 166.9389 0.0000 28.6433 0.0000
# 4 0.0000 0.0000 0.0000 72.8443 0.0000 51.6162
# 5 20.0983 29.7000 28.6433 0.0000 42.0191 0.0000
# 6 0.0000 0.0000 0.0000 51.6162 0.0000 62.4848
#
#
#
# Elastic Compliance Matrix: (Units=1/GPa)
#
#
# Indices 1 2 3 4 5 6 
#
# 1 0.012403 -0.002248 -0.001066 0.000000 -0.003617 0.000000
# 2 -0.002248 0.007362 -0.004139 0.000000 -0.001307 0.000000
# 3 -0.001066 -0.004139 0.009574 0.000000 -0.003091 0.000000
# 4 0.000000 0.000000 0.000000 0.033106 0.000000 -0.027347
# 5 -0.003617 -0.001307 -0.003091 0.000000 0.028559 0.000000
# 6 0.000000 0.000000 0.000000 -0.027347 0.000000 0.038594
#
#
# Mechanical properties :
#
#
# Convention : Reuss Voigt Hill
#
# Bulk Modulus (GPa) = 69.28571 101.88416 85.58493
# Shear Modulus (GPa) = 33.48604 53.87653 43.68129
#
# Velocity S-wave (km/s) = 3.73701 4.74015 4.26815
# Velocity P-wave (km/s) = 6.89317 8.51171 7.74483
#
# Compressibility (1/GPa) = 0.01443299
#
# Stress axis : x y z
#
# Youngs Moduli (GPa) = 80.62778 135.83059 104.44640
#
# Poissons Ratio (x) = 0.30533 0.11131
# Poissons Ratio (y) = 0.18124 0.43235
# Poissons Ratio (z) = 0.08593 0.56226
#
# Static dielectric constant tensor:
#      x y z
#    x 1.931910 0.000000 -0.010820 
#    y 0.000000 1.970190 0.000000 
#    z -0.010820 0.000000 2.143610 
# 
# From -- ./inp_files/3073.got.cif
#   From: 2010.05.17/outbox.cif.g08.bks.cpg/sg5_2_cif.got.tgz:3073.got - 2010.06.03 18:56:24.
