data_PCOD9125472
_publ_section_title
;
Structure prediction by ZEFSAII (Michael W. Deem and Ramdas Pophale) SiO2 
 PCOD9125472
Probable space group: C 2
;
_chemical_formula_sum "Si O2"
_cell_formula_units_Z 32
_cell_length_a 27.137190
_cell_length_b 5.730491
_cell_length_c 15.229948
_cell_angle_alpha 90.000000
_cell_angle_beta 34.264712
_cell_angle_gamma 90.000000
_cell_volume 1333.450070
_symmetry_space_group_name_H-M "C 2"
_symmetry_group_IT_number 5
_symmetry_cell_setting 'monoclinic'
loop_
_space_group_symop_operation_xyz
x,y,z
-x,y,-z
1/2+x,1/2+y,z
1/2-x,1/2+y,-z
loop_
_atom_site_type_symbol
_atom_site_label
_atom_site_fract_x
_atom_site_fract_y
_atom_site_fract_z
Si Si1 0.310475 0.440810 0.599679
Si Si2 0.565408 0.050369 0.669719
Si Si3 0.129502 0.349096 0.414425
Si Si4 0.351557 0.659359 0.361331
Si Si5 0.304613 0.559978 0.237539
Si Si6 0.357906 0.556177 0.878347
Si Si7 0.147596 0.555186 0.206465
Si Si8 0.540111 0.419328 0.101046
O O1 0.379410 0.249717 0.462047
O O2 0.354920 0.572823 0.615763
O O3 0.299860 0.587247 0.525237
O O4 0.219846 0.320912 0.759093
O O5 0.479466 0.156828 0.838183
O O6 0.561058 0.872048 0.594982
O O7 0.620776 0.927308 0.664718
O O8 0.226370 0.416558 0.308214
O O9 0.111422 0.504881 0.357547
O O10 0.303162 0.590371 0.344289
O O11 0.445293 0.528377 0.222560
O O12 0.395859 0.454569 0.074204
O O13 0.374494 0.808162 0.809090
O O14 0.411887 0.541067 0.888514
O O15 0.377455 0.309119 0.797437
O O16 0.253880 0.553323 0.052607
#
# Coordination Sequence:
#
# PCOD9125472 Si02
#       8
#     4   4   4   4   4   4   4   4
#     4   9  22  37  65  94 132 169 232 284 340 403
#     4   9  22  42  64  87 139 175 224 282 353 405
#     4  10  21  41  68 101 128 179 227 293 341 423
#     4  10  23  41  64  94 138 183 225 291 345 418
#     4  11  23  37  67 102 129 179 236 273 345 419
#     4  10  23  40  70 102 136 180 224 301 362 420
#     4  10  22  41  70 103 136 169 240 296 358 419
#     4  11  23  43  64  96 141 180 226 279 361 423
#
# _framework density 23.997900000000001
#
# number of rings (size 3 to 8) (size 9 to 14) (size 15 to 20)
#    0.000    2.000    1.250    0.375   10.500    3.000 
#    0.000    3.125    0.000    0.000    0.000    0.000 
#    0.000    0.000    0.000    0.000    0.000    0.000 
#
# Total GULP energy -89242.222938 kJ/mol
# GULP energy per Si atom -5577.638934 kJ/mol
# Density = 2.394328 g / cm^3
# Si number density = 23.997900 Si / 1000 Ang^3
#
#
#
# Elastic Constant Matrix: (Units=GPa)
#
#
# Indices 1 2 3 4 5 6 
#
# 1 75.5817 7.8104 3.4256 0.0002 -0.1415 0.0050
# 2 7.8104 66.6543 17.9860 0.0048 -3.7361 0.0337
# 3 3.4256 17.9860 90.9930 -0.0192 0.4160 0.0129
# 4 0.0002 0.0048 -0.0192 34.9953 0.0160 -3.0346
# 5 -0.1415 -3.7361 0.4160 0.0160 32.1415 -0.0029
# 6 0.0050 0.0337 0.0129 -3.0346 -0.0029 31.6641
#
#
#
# Elastic Compliance Matrix: (Units=1/GPa)
#
#
# Indices 1 2 3 4 5 6 
#
# 1 0.013397 -0.001521 -0.000203 0.000000 -0.000115 0.000000
# 2 -0.001521 0.016136 -0.003141 -0.000006 0.001910 -0.000016
# 3 -0.000203 -0.003141 0.011621 0.000007 -0.000516 -0.000001
# 4 0.000000 -0.000006 0.000007 0.028815 -0.000015 0.002762
# 5 -0.000115 0.001910 -0.000516 -0.000015 0.031341 0.000000
# 6 0.000000 -0.000016 -0.000001 0.002762 0.000000 0.031846
#
#
# Mechanical properties :
#
#
# Convention : Reuss Voigt Hill
#
# Bulk Modulus (GPa) = 31.82443 32.40809 32.11626
# Shear Modulus (GPa) = 32.60309 33.36066 32.98187
#
# Velocity S-wave (km/s) = 3.68989 3.73252 3.71126
# Velocity P-wave (km/s) = 5.60748 5.66652 5.63708
#
# Compressibility (1/GPa) = 0.03142240
#
# Stress axis : x y z
#
# Youngs Moduli (GPa) = 74.64395 61.97463 86.05329
#
# Poissons Ratio (x) = 0.09429 0.01748
# Poissons Ratio (y) = 0.11357 0.27028
# Poissons Ratio (z) = 0.01516 0.19465
#
# Static dielectric constant tensor:
#      x y z
#    x 1.919280 -0.000010 0.006330 
#    y -0.000010 2.197910 0.000000 
#    z 0.006330 0.000000 1.910810 
# 
# From -- ./inp_files/58310.got.cif
#   From: 2010.05.17/outbox.cif.g08.bks.cpg/sg5_30_cif.got.tgz:58310.got - 2010.06.03 18:56:24.
