data_PCOD9125377
_publ_section_title
;
Structure prediction by ZEFSAII (Michael W. Deem and Ramdas Pophale) SiO2 
 PCOD9125377
Probable space group: C 2
;
_chemical_formula_sum "Si O2"
_cell_formula_units_Z 20
_cell_length_a 5.103703
_cell_length_b 27.168046
_cell_length_c 7.125532
_cell_angle_alpha 90.000000
_cell_angle_beta 77.094269
_cell_angle_gamma 90.000000
_cell_volume 963.051190
_symmetry_space_group_name_H-M "C 2"
_symmetry_group_IT_number 5
_symmetry_cell_setting 'monoclinic'
loop_
_space_group_symop_operation_xyz
x,y,z
-x,y,-z
1/2+x,1/2+y,z
1/2-x,1/2+y,-z
loop_
_atom_site_type_symbol
_atom_site_label
_atom_site_fract_x
_atom_site_fract_y
_atom_site_fract_z
Si Si1 0.797057 0.675930 0.362688
Si Si2 0.721360 0.469116 0.127710
Si Si3 0.500000 0.246059 0.000000
Si Si4 0.774568 0.379900 0.377603
Si Si5 0.706586 0.063073 0.635367
Si Si6 0.500000 0.815937 0.000000
O O1 0.500000 0.681702 0.500000
O O2 0.837987 0.619070 0.291777
O O3 0.000000 0.684425 0.500000
O O4 0.877218 0.711927 0.183082
O O5 0.659354 0.429445 0.297845
O O6 0.786804 0.521997 0.206699
O O7 0.500000 0.471677 0.000000
O O8 0.000000 0.450592 0.000000
O O9 0.257628 0.281321 0.980504
O O10 0.500000 0.354717 0.500000
O O11 0.000000 0.390341 0.500000
O O12 0.928694 0.348404 0.194242
O O13 0.500000 0.051413 0.500000
O O14 0.000000 0.062308 0.500000
#
# Coordination Sequence:
#
# PCOD9125377 Si02
#       6
#     4   4   2   4   4   2
#     4  10  23  43  68  98 136 176 223 271 329 402
#     4  12  24  40  67 102 139 173 223 273 324 404
#     4  12  26  44  71  98 133 174 222 290 338 388
#     4  12  26  46  72  97 136 183 218 277 343 396
#     4  10  21  41  63  96 136 178 222 263 323 402
#     4  12  28  46  67 104 131 166 240 280 332 408
#
# _framework density 20.767327999999999
#
# number of rings (size 3 to 8) (size 9 to 14) (size 15 to 20)
#    0.000    0.800    1.000    6.000    2.800    4.800 
#    1.800    0.000    0.000    0.000    0.000    0.000 
#    0.000    0.000    0.000    0.000    0.000    0.000 
#
# Total GULP energy -55894.370316 kJ/mol
# GULP energy per Si atom -5589.437032 kJ/mol
# Density = 2.072006 g / cm^3
# Si number density = 20.767328 Si / 1000 Ang^3
#
#
#
# Elastic Constant Matrix: (Units=GPa)
#
#
# Indices 1 2 3 4 5 6 
#
# 1 171.6059 45.8440 64.5733 0.0000 31.5089 0.0000
# 2 45.8440 121.5491 92.1323 0.0000 25.6760 0.0000
# 3 64.5733 92.1323 132.3352 0.0000 8.3243 0.0000
# 4 0.0000 0.0000 0.0000 41.0102 0.0000 5.6199
# 5 31.5089 25.6760 8.3243 0.0000 40.2562 0.0000
# 6 0.0000 0.0000 0.0000 5.6199 0.0000 43.6049
#
#
#
# Elastic Compliance Matrix: (Units=1/GPa)
#
#
# Indices 1 2 3 4 5 6 
#
# 1 0.008499 0.002300 -0.005307 0.000000 -0.007022 0.000000
# 2 0.002300 0.021694 -0.015443 0.000000 -0.012444 0.000000
# 3 -0.005307 -0.015443 0.020280 0.000000 0.009810 0.000000
# 4 0.000000 0.000000 0.000000 0.024823 0.000000 -0.003199
# 5 -0.007022 -0.012444 0.009810 0.000000 0.036245 0.000000
# 6 0.000000 0.000000 0.000000 -0.003199 0.000000 0.023346
#
#
# Mechanical properties :
#
#
# Convention : Reuss Voigt Hill
#
# Bulk Modulus (GPa) = 73.66933 92.28772 82.97852
# Shear Modulus (GPa) = 28.35909 39.83697 34.09803
#
# Velocity S-wave (km/s) = 3.69936 4.38454 4.05644
# Velocity P-wave (km/s) = 7.33469 8.37661 7.87291
#
# Compressibility (1/GPa) = 0.01357417
#
# Stress axis : x y z
#
# Youngs Moduli (GPa) = 117.65998 46.09662 49.30852
#
# Poissons Ratio (x) = -0.10604 0.26168
# Poissons Ratio (y) = -0.27067 0.76147
# Poissons Ratio (z) = 0.62442 0.71187
#
# Static dielectric constant tensor:
#      x y z
#    x 1.675550 0.000000 0.016530 
#    y 0.000000 1.795380 0.000000 
#    z 0.016530 0.000000 1.677310 
# 
# From -- ./inp_files/1097.got.cif
#   From: 2010.05.17/outbox.cif.g08.bks.cpg/sg5_1_cif.got.tgz:1097.got - 2010.06.03 18:56:24.
