data_PCOD9125523
_publ_section_title
;
Structure prediction by ZEFSAII (Michael W. Deem and Ramdas Pophale) SiO2 
 PCOD9125523
Probable space group: C 2
;
_chemical_formula_sum "Si O2"
_cell_formula_units_Z 28
_cell_length_a 28.939766
_cell_length_b 7.781644
_cell_length_c 7.263087
_cell_angle_alpha 90.000000
_cell_angle_beta 40.955622
_cell_angle_gamma 90.000000
_cell_volume 1072.119694
_symmetry_space_group_name_H-M "C 2"
_symmetry_group_IT_number 5
_symmetry_cell_setting 'monoclinic'
loop_
_space_group_symop_operation_xyz
x,y,z
-x,y,-z
1/2+x,1/2+y,z
1/2-x,1/2+y,-z
loop_
_atom_site_type_symbol
_atom_site_label
_atom_site_fract_x
_atom_site_fract_y
_atom_site_fract_z
Si Si1 0.621288 0.400410 0.267124
Si Si2 0.652651 0.771706 0.017713
Si Si3 0.000000 0.961811 0.000000
Si Si4 0.717004 0.876773 0.197821
Si Si5 0.204012 0.704566 0.507053
Si Si6 0.500000 0.926210 0.500000
Si Si7 0.437376 0.195093 0.889892
Si Si8 0.369800 0.556702 0.385121
O O1 0.638779 0.577193 0.117278
O O2 0.575567 0.291578 0.265589
O O3 0.589141 0.459092 0.561855
O O4 0.700080 0.328939 0.059842
O O5 0.690038 0.879951 0.068932
O O6 0.573832 0.837083 0.252668
O O7 0.714869 0.743334 0.679383
O O8 0.036348 0.817161 0.030387
O O9 0.943268 0.109097 0.075868
O O10 0.674671 0.715851 0.410400
O O11 0.707238 0.056583 0.337879
O O12 0.176153 0.899844 0.553035
O O13 0.142940 0.632898 0.823737
O O14 0.495486 0.048682 0.691846
#
# Coordination Sequence:
#
# PCOD9125523 Si02
#       8
#     4   4   2   4   4   2   4   4
#     4  10  22  43  72 100 132 185 244 289 354 429
#     4  10  24  43  71 105 145 185 241 300 359 438
#     4  10  24  46  62 100 140 192 228 296 374 428
#     4  10  22  42  72 106 131 189 236 302 352 429
#     4  10  23  45  70 102 146 189 247 297 353 438
#     4  12  28  42  70 110 148 192 242 300 380 438
#     4  11  26  44  73 101 147 197 239 308 365 447
#     4  10  21  41  72  95 139 184 235 285 362 433
#
# _framework density 26.116486999999999
#
# number of rings (size 3 to 8) (size 9 to 14) (size 15 to 20)
#    0.000    1.714    1.429    0.857    8.000    5.143 
#   15.429    0.000    0.000    0.000    0.000    0.000 
#    0.000    0.000    0.000    0.000    0.000    0.000 
#
# Total GULP energy -77942.095045 kJ/mol
# GULP energy per Si atom -5567.292503 kJ/mol
# Density = 2.605704 g / cm^3
# Si number density = 26.116487 Si / 1000 Ang^3
#
#
#
# Elastic Constant Matrix: (Units=GPa)
#
#
# Indices 1 2 3 4 5 6 
#
# 1 103.6039 18.1591 47.2069 0.0000 -13.1151 0.0000
# 2 18.1591 98.2669 50.2397 0.0000 -15.8231 0.0000
# 3 47.2069 50.2397 131.4844 0.0000 -39.4110 0.0000
# 4 0.0000 0.0000 0.0000 62.1812 0.0000 -6.2876
# 5 -13.1151 -15.8231 -39.4110 0.0000 44.6561 0.0000
# 6 0.0000 0.0000 0.0000 -6.2876 0.0000 25.5245
#
#
#
# Elastic Compliance Matrix: (Units=1/GPa)
#
#
# Indices 1 2 3 4 5 6 
#
# 1 0.011544 -0.000021 -0.004246 0.000000 -0.000364 0.000000
# 2 -0.000021 0.012650 -0.004737 0.000000 0.000295 0.000000
# 3 -0.004246 -0.004737 0.013683 0.000000 0.009150 0.000000
# 4 0.000000 0.000000 0.000000 0.016493 0.000000 0.004063
# 5 -0.000364 0.000295 0.009150 0.000000 0.030466 0.000000
# 6 0.000000 0.000000 0.000000 0.004063 0.000000 0.040179
#
#
# Mechanical properties :
#
#
# Convention : Reuss Voigt Hill
#
# Bulk Modulus (GPa) = 50.33262 62.72962 56.53112
# Shear Modulus (GPa) = 33.41218 40.98901 37.20060
#
# Velocity S-wave (km/s) = 3.58068 3.96595 3.77823
# Velocity P-wave (km/s) = 6.03401 6.71141 6.38170
#
# Compressibility (1/GPa) = 0.01986783
#
# Stress axis : x y z
#
# Youngs Moduli (GPa) = 86.62230 79.05251 73.08579
#
# Poissons Ratio (x) = 0.00168 0.31031
# Poissons Ratio (y) = 0.00184 0.34623
# Poissons Ratio (z) = 0.36778 0.37450
#
# Static dielectric constant tensor:
#      x y z
#    x 2.194300 0.000000 0.011260 
#    y 0.000000 2.091450 0.000000 
#    z 0.011260 0.000000 1.484170 
# 
# From -- ./inp_files/32508.got.cif
#   From: 2010.05.17/outbox.cif.g08.bks.cpg/sg5_17_cif.got.tgz:32508.got - 2010.06.03 18:56:24.
