data_PCOD9125058
_publ_section_title
;
Structure prediction by ZEFSAII (Michael W. Deem and Ramdas Pophale) SiO2 
 PCOD9125058
Probable space group: C 2
;
_chemical_formula_sum "Si O2"
_cell_formula_units_Z 26
_cell_length_a 20.452958
_cell_length_b 9.700970
_cell_length_c 7.915532
_cell_angle_alpha 90.000000
_cell_angle_beta 137.896109
_cell_angle_gamma 90.000000
_cell_volume 1053.016764
_symmetry_space_group_name_H-M "C 2"
_symmetry_group_IT_number 5
_symmetry_cell_setting 'monoclinic'
loop_
_space_group_symop_operation_xyz
x,y,z
-x,y,-z
1/2+x,1/2+y,z
1/2-x,1/2+y,-z
loop_
_atom_site_type_symbol
_atom_site_label
_atom_site_fract_x
_atom_site_fract_y
_atom_site_fract_z
Si Si1 0.118296 0.416790 0.074841
Si Si2 0.299503 0.309972 0.224611
Si Si3 0.102230 0.126481 0.199686
Si Si4 0.198724 0.538184 0.572701
Si Si5 0.276820 0.747930 0.269547
Si Si6 0.000000 0.862653 0.500000
Si Si7 0.559012 0.194589 0.941667
O O1 0.216612 0.398305 0.157122
O O2 0.082682 0.264275 0.049484
O O3 0.141702 0.485539 0.299816
O O4 0.049950 0.533374 0.866990
O O5 0.330068 0.186692 0.410974
O O6 0.388816 0.407908 0.335744
O O7 0.252579 0.221764 0.979960
O O8 0.189159 0.050271 0.272510
O O9 0.142825 0.170467 0.462011
O O10 0.000000 0.048302 0.000000
O O11 0.192864 0.408459 0.684210
O O12 0.175370 0.727789 0.178360
O O13 0.024895 0.782567 0.718527
O O14 0.500000 0.219280 0.000000
#
# Coordination Sequence:
#
# PCOD9125058 Si02
#       7
#     4   4   4   4   4   2   4
#     4  10  21  40  65  90 125 170 204 270 319 375
#     4  10  23  42  63  93 134 164 215 266 323 378
#     4  10  21  40  60  92 121 164 223 251 313 394
#     4  10  21  39  66  87 123 176 206 258 325 380
#     4  10  23  39  62  92 130 170 203 271 328 367
#     4  10  24  38  64  98 126 162 222 266 314 390
#     4  11  22  40  66  99 125 168 216 271 320 385
#
# _framework density 24.690963
#
# number of rings (size 3 to 8) (size 9 to 14) (size 15 to 20)
#    0.000    1.846    1.538    1.385    8.615    1.846 
#    2.769    2.308    0.000    0.000    0.000    0.000 
#    0.000    0.000    0.000    0.000    0.000    0.000 
#
# Total GULP energy -72577.277068 kJ/mol
# GULP energy per Si atom -5582.867467 kJ/mol
# Density = 2.463477 g / cm^3
# Si number density = 24.690963 Si / 1000 Ang^3
#
#
#
# Elastic Constant Matrix: (Units=GPa)
#
#
# Indices 1 2 3 4 5 6 
#
# 1 133.2914 7.5949 26.4230 0.0000 14.2950 0.0000
# 2 7.5949 56.8081 -14.8928 0.0000 -7.8532 0.0000
# 3 26.4230 -14.8928 89.4530 0.0000 4.7795 0.0000
# 4 0.0000 0.0000 0.0000 163.9154 0.0000 -18.5628
# 5 14.2950 -7.8532 4.7795 0.0000 47.4843 0.0000
# 6 0.0000 0.0000 0.0000 -18.5628 0.0000 27.5112
#
#
#
# Elastic Compliance Matrix: (Units=1/GPa)
#
#
# Indices 1 2 3 4 5 6 
#
# 1 0.008451 -0.002208 -0.002723 0.000000 -0.002635 0.000000
# 2 -0.002208 0.019348 0.003687 0.000000 0.003493 0.000000
# 3 -0.002723 0.003687 0.012588 0.000000 0.000162 0.000000
# 4 0.000000 0.000000 0.000000 0.006605 0.000000 0.004457
# 5 -0.002635 0.003493 0.000162 0.000000 0.022414 0.000000
# 6 0.000000 0.000000 0.000000 0.004457 0.000000 0.039356
#
#
# Mechanical properties :
#
#
# Convention : Reuss Voigt Hill
#
# Bulk Modulus (GPa) = 26.38634 35.31142 30.84888
# Shear Modulus (GPa) = 40.36039 65.14401 52.75220
#
# Velocity S-wave (km/s) = 4.04743 5.14208 4.62724
# Velocity P-wave (km/s) = 5.70545 7.04181 6.40856
#
# Compressibility (1/GPa) = 0.03789840
#
# Stress axis : x y z
#
# Youngs Moduli (GPa) = 118.33532 51.68559 79.43767
#
# Poissons Ratio (x) = 0.11412 0.21631
# Poissons Ratio (y) = 0.26128 -0.29286
# Poissons Ratio (z) = 0.32222 -0.19055
#
# Static dielectric constant tensor:
#      x y z
#    x 1.964190 0.000000 0.070170 
#    y 0.000000 2.057020 0.000000 
#    z 0.070170 0.000000 1.786910 
# 
# From -- ./inp_files/29649.got.cif
#   From: 2010.05.17/outbox.cif.g08.bks.cpg/sg5_15_cif.got.tgz:29649.got - 2010.06.03 18:56:24.
