data_PCOD9125448
_publ_section_title
;
Structure prediction by ZEFSAII (Michael W. Deem and Ramdas Pophale) SiO2 
 PCOD9125448
Probable space group: C 2
;
_chemical_formula_sum "Si O2"
_cell_formula_units_Z 28
_cell_length_a 16.085306
_cell_length_b 16.854128
_cell_length_c 5.345972
_cell_angle_alpha 90.000000
_cell_angle_beta 118.456821
_cell_angle_gamma 90.000000
_cell_volume 1274.202183
_symmetry_space_group_name_H-M "C 2"
_symmetry_group_IT_number 5
_symmetry_cell_setting 'monoclinic'
loop_
_space_group_symop_operation_xyz
x,y,z
-x,y,-z
1/2+x,1/2+y,z
1/2-x,1/2+y,-z
loop_
_atom_site_type_symbol
_atom_site_label
_atom_site_fract_x
_atom_site_fract_y
_atom_site_fract_z
Si Si1 0.748811 0.520170 0.486388
Si Si2 0.235214 0.677264 0.229237
Si Si3 0.609658 0.894498 0.159658
Si Si4 0.605451 0.091469 0.657308
Si Si5 0.911378 0.752527 0.688116
Si Si6 0.941050 0.925838 0.656880
Si Si7 0.889895 0.291420 0.332738
O O1 0.726361 0.609773 0.534319
O O2 0.824549 0.470933 0.755280
O O3 0.811723 0.534036 0.326118
O O4 0.652608 0.472352 0.391243
O O5 0.184779 0.750111 0.293792
O O6 0.321386 0.715987 0.208119
O O7 0.150544 0.632193 0.964940
O O8 0.626497 0.842826 0.436651
O O9 0.500000 0.918932 0.000000
O O10 0.626098 0.843540 0.935740
O O11 0.500000 0.053797 0.500000
O O12 0.590558 0.170018 0.463203
O O13 0.914558 0.834887 0.545256
O O14 0.000000 0.750947 0.000000
O O15 0.000000 0.957862 0.500000
O O16 0.000000 0.922782 0.000000
O O17 0.000000 0.267346 0.500000
#
# Coordination Sequence:
#
# PCOD9125448 Si02
#       7
#     4   4   4   4   4   4   4
#     4  11  28  42  67 105 139 186 228 287 357 421
#     4  11  25  41  69  98 139 180 229 281 353 413
#     4  10  24  44  72  99 135 175 228 287 343 403
#     4  11  24  41  68 102 140 179 228 287 358 421
#     4  10  21  41  67 101 131 180 225 287 343 413
#     4  11  27  47  72 100 142 186 239 289 345 414
#     4  10  24  46  69  98 129 182 234 283 331 400
#
# _framework density 21.974536000000001
#
# number of rings (size 3 to 8) (size 9 to 14) (size 15 to 20)
#    0.000    1.429    1.429    1.286   14.000    1.143 
#    0.000    0.000    0.000    0.000    0.000    0.000 
#    0.000    0.000    0.000    0.000    0.000    0.000 
#
# Total GULP energy -78107.008762 kJ/mol
# GULP energy per Si atom -5579.072054 kJ/mol
# Density = 2.192452 g / cm^3
# Si number density = 21.974536 Si / 1000 Ang^3
#
#
#
# Elastic Constant Matrix: (Units=GPa)
#
#
# Indices 1 2 3 4 5 6 
#
# 1 138.8134 65.4429 38.6166 0.0000 1.7874 0.0000
# 2 65.4429 64.9586 17.4743 0.0000 17.4734 0.0000
# 3 38.6166 17.4743 56.2830 0.0000 -10.9072 0.0000
# 4 0.0000 0.0000 0.0000 -1.6697 0.0000 -6.1212
# 5 1.7874 17.4734 -10.9072 0.0000 26.9325 0.0000
# 6 0.0000 0.0000 0.0000 -6.1212 0.0000 20.7244
#
#
#
# Elastic Compliance Matrix: (Units=1/GPa)
#
#
# Indices 1 2 3 4 5 6 
#
# 1 0.016888 -0.018360 -0.004119 0.000000 0.009123 0.000000
# 2 -0.018360 0.043769 -0.006792 0.000000 -0.029929 0.000000
# 3 -0.004119 -0.006792 0.025620 0.000000 0.015056 0.000000
# 4 0.000000 0.000000 0.000000 -0.287549 0.000000 -0.084931
# 5 0.009123 -0.029929 0.015056 0.000000 0.062039 0.000000
# 6 0.000000 0.000000 0.000000 -0.084931 0.000000 0.023167
#
#
# Mechanical properties :
#
#
# Convention : Reuss Voigt Hill
#
# Bulk Modulus (GPa) = 36.05554 55.90250 45.97902
# Shear Modulus (GPa) = -103.56226 18.43219 -42.56504
#
# Velocity S-wave (km/s) = -6.87245 2.89934 -4.40593
# Velocity P-wave (km/s) = 6.82134 6.05831 2.21670
#
# Compressibility (1/GPa) = 0.02773499
#
# Stress axis : x y z
#
# Youngs Moduli (GPa) = 59.21409 22.84737 39.03223
#
# Poissons Ratio (x) = 0.41947 0.16077
# Poissons Ratio (y) = 1.08715 0.26511
# Poissons Ratio (z) = 0.24390 0.15518
#
# Static dielectric constant tensor:
#      x y z
#    x 1.889080 0.000000 -0.034120 
#    y 0.000000 1.828270 0.000000 
#    z -0.034120 0.000000 1.845080 
# 
# From -- ./inp_files/7192.got.cif
#   From: 2010.05.17/outbox.cif.g08.bks.cpg/sg5_4_cif.got.tgz:7192.got - 2010.06.03 18:56:24.
