data_PCOD9125382
_publ_section_title
;
Structure prediction by ZEFSAII (Michael W. Deem and Ramdas Pophale) SiO2 
 PCOD9125382
Probable space group: C 2
;
_chemical_formula_sum "Si O2"
_cell_formula_units_Z 26
_cell_length_a 14.476069
_cell_length_b 7.950843
_cell_length_c 13.922324
_cell_angle_alpha 90.000000
_cell_angle_beta 137.234233
_cell_angle_gamma 90.000000
_cell_volume 1088.045660
_symmetry_space_group_name_H-M "C 2"
_symmetry_group_IT_number 5
_symmetry_cell_setting 'monoclinic'
loop_
_space_group_symop_operation_xyz
x,y,z
-x,y,-z
1/2+x,1/2+y,z
1/2-x,1/2+y,-z
loop_
_atom_site_type_symbol
_atom_site_label
_atom_site_fract_x
_atom_site_fract_y
_atom_site_fract_z
Si Si1 0.546466 0.327280 0.426363
Si Si2 0.500000 0.558035 0.000000
Si Si3 0.024196 0.243220 0.213563
Si Si4 0.248287 0.126760 0.522475
Si Si5 0.032224 0.561785 0.913548
Si Si6 0.680734 0.578550 0.813041
Si Si7 0.682724 0.306667 0.242617
O O1 0.500000 0.291385 0.500000
O O2 0.604061 0.164710 0.413955
O O3 0.668294 0.468548 0.510583
O O4 0.414876 0.419601 0.280053
O O5 0.473405 0.666956 0.074632
O O6 0.638844 0.459645 0.139665
O O7 0.154183 0.153032 0.356320
O O8 0.052696 0.436627 0.215892
O O9 0.910371 0.217074 0.205492
O O10 0.241683 0.280036 0.597586
O O11 0.972323 0.745428 0.852140
O O12 0.190851 0.537673 0.022279
O O13 0.000000 0.521894 0.000000
O O14 0.743450 0.667505 0.767114
#
# Coordination Sequence:
#
# PCOD9125382 Si02
#       7
#     4   2   4   4   4   4   4
#     4  11  23  43  72  98 140 189 233 291 357 431
#     4  12  24  40  62 104 136 182 214 300 360 400
#     4  11  25  39  65  99 138 177 231 301 349 414
#     4  11  24  44  70 103 140 187 240 296 361 427
#     4  10  21  41  64  90 127 181 220 279 342 417
#     4  10  22  39  67  96 127 178 241 275 352 427
#     4  11  21  42  71  94 137 186 233 283 361 424
#
# _framework density 23.896055
#
# number of rings (size 3 to 8) (size 9 to 14) (size 15 to 20)
#    0.000    1.231    4.615    2.769    4.308    1.231 
#    0.000    0.769    6.769    0.000    0.000    0.000 
#    0.000    0.000    0.000    0.000    0.000    0.000 
#
# Total GULP energy -72398.338575 kJ/mol
# GULP energy per Si atom -5569.102967 kJ/mol
# Density = 2.384167 g / cm^3
# Si number density = 23.896055 Si / 1000 Ang^3
#
#
#
# Elastic Constant Matrix: (Units=GPa)
#
#
# Indices 1 2 3 4 5 6 
#
# 1 104.1944 15.1598 28.4637 0.0000 -6.9216 0.0000
# 2 15.1598 42.7898 -0.7356 0.0000 -5.7133 0.0000
# 3 28.4637 -0.7356 85.2397 0.0000 -6.0441 0.0000
# 4 0.0000 0.0000 0.0000 44.0699 0.0000 0.0272
# 5 -6.9216 -5.7133 -6.0441 0.0000 51.6592 0.0000
# 6 0.0000 0.0000 0.0000 0.0272 0.0000 40.7296
#
#
#
# Elastic Compliance Matrix: (Units=1/GPa)
#
#
# Indices 1 2 3 4 5 6 
#
# 1 0.011238 -0.003962 -0.003742 0.000000 0.000630 0.000000
# 2 -0.003962 0.025130 0.001713 0.000000 0.002449 0.000000
# 3 -0.003742 0.001713 0.013082 0.000000 0.001219 0.000000
# 4 0.000000 0.000000 0.000000 0.022691 0.000000 -0.000015
# 5 0.000630 0.002449 0.001219 0.000000 0.019855 0.000000
# 6 0.000000 0.000000 0.000000 -0.000015 0.000000 0.024552
#
#
# Mechanical properties :
#
#
# Convention : Reuss Voigt Hill
#
# Bulk Modulus (GPa) = 26.68831 35.33328 31.01080
# Shear Modulus (GPa) = 35.45594 39.91413 37.68504
#
# Velocity S-wave (km/s) = 3.85614 4.09139 3.97550
# Velocity P-wave (km/s) = 5.56948 6.09407 5.83767
#
# Compressibility (1/GPa) = 0.03746959
#
# Stress axis : x y z
#
# Youngs Moduli (GPa) = 88.98405 39.79296 76.43837
#
# Poissons Ratio (x) = 0.15765 0.28605
# Poissons Ratio (y) = 0.35253 -0.13097
# Poissons Ratio (z) = 0.33299 -0.06818
#
# Static dielectric constant tensor:
#      x y z
#    x 1.854720 0.000000 0.006890 
#    y 0.000000 1.998410 0.000000 
#    z 0.006890 0.000000 2.024760 
# 
# From -- ./inp_files/54338.got.cif
#   From: 2010.05.17/outbox.cif.g08.bks.cpg/sg5_28_cif.got.tgz:54338.got - 2010.06.03 18:56:24.
