data_PCOD9125619
_publ_section_title
;
Structure prediction by ZEFSAII (Michael W. Deem and Ramdas Pophale) SiO2 
 PCOD9125619
Probable space group: C 2
;
_chemical_formula_sum "Si O2"
_cell_formula_units_Z 30
_cell_length_a 25.141019
_cell_length_b 8.962733
_cell_length_c 6.353187
_cell_angle_alpha 90.000000
_cell_angle_beta 79.067859
_cell_angle_gamma 90.000000
_cell_volume 1405.598277
_symmetry_space_group_name_H-M "C 2"
_symmetry_group_IT_number 5
_symmetry_cell_setting 'monoclinic'
loop_
_space_group_symop_operation_xyz
x,y,z
-x,y,-z
1/2+x,1/2+y,z
1/2-x,1/2+y,-z
loop_
_atom_site_type_symbol
_atom_site_label
_atom_site_fract_x
_atom_site_fract_y
_atom_site_fract_z
Si Si1 0.150152 0.377760 0.175754
Si Si2 0.799066 0.494421 0.250888
Si Si3 0.018666 0.308188 0.753904
Si Si4 0.592441 0.053596 0.570368
Si Si5 0.286183 0.713214 0.500642
Si Si6 0.551529 0.356102 0.809933
Si Si7 0.000000 0.066331 0.500000
Si Si8 0.881798 0.130783 0.151015
O O1 0.111159 0.498365 0.322706
O O2 0.180133 0.287792 0.336097
O O3 0.190928 0.475953 0.003100
O O4 0.128735 0.248623 0.030743
O O5 0.858284 0.500753 0.315090
O O6 0.763949 0.629677 0.360676
O O7 0.769554 0.346607 0.358343
O O8 0.037397 0.461928 0.644597
O O9 0.976362 0.195382 0.674607
O O10 0.074341 0.214705 0.734054
O O11 0.000000 0.338134 0.000000
O O12 0.579879 0.217909 0.670576
O O13 0.326945 0.614386 0.327926
O O14 0.530385 0.456624 0.632636
O O15 0.591671 0.468108 0.909745
O O16 0.500000 0.317702 0.000000
#
# Coordination Sequence:
#
# PCOD9125619 Si02
#       8
#     4   4   4   4   4   4   2   4
#     4  10  21  42  69  96 130 174 233 261 340 415
#     4  10  23  43  67  95 133 171 219 274 335 406
#     4  11  22  39  69  93 123 177 223 270 331 404
#     4  11  24  43  65  95 139 173 219 279 340 397
#     4  10  22  41  68  96 130 168 220 274 334 397
#     4  11  26  43  65 100 141 173 220 289 349 384
#     4  10  24  40  64  96 122 170 228 272 328 408
#     4  10  21  42  67  96 128 173 222 276 328 411
#
# _framework density 21.343226000000001
#
# number of rings (size 3 to 8) (size 9 to 14) (size 15 to 20)
#    0.000    1.600    4.000    2.000    5.600    5.867 
#    0.000    0.000    0.000    0.000    0.000    0.000 
#    0.000    0.000    0.000    0.000    0.000    0.000 
#
# Total GULP energy -83504.257723 kJ/mol
# GULP energy per Si atom -5566.950515 kJ/mol
# Density = 2.129465 g / cm^3
# Si number density = 21.343226 Si / 1000 Ang^3
#
#
#
# Elastic Constant Matrix: (Units=GPa)
#
#
# Indices 1 2 3 4 5 6 
#
# 1 42.1141 25.0745 34.4276 0.0000 -12.8958 0.0000
# 2 25.0745 125.2733 55.8907 0.0000 -28.6354 0.0000
# 3 34.4276 55.8907 148.6917 0.0000 -32.8408 0.0000
# 4 0.0000 0.0000 0.0000 26.4510 0.0000 0.4149
# 5 -12.8958 -28.6354 -32.8408 0.0000 25.4262 0.0000
# 6 0.0000 0.0000 0.0000 0.4149 0.0000 16.6278
#
#
#
# Elastic Compliance Matrix: (Units=1/GPa)
#
#
# Indices 1 2 3 4 5 6 
#
# 1 0.031257 -0.002576 -0.004769 0.000000 0.006793 0.000000
# 2 -0.002576 0.011365 -0.001591 0.000000 0.009438 0.000000
# 3 -0.004769 -0.001591 0.010490 0.000000 0.009339 0.000000
# 4 0.000000 0.000000 0.000000 0.037821 0.000000 -0.000944
# 5 0.006793 0.009438 0.009339 0.000000 0.065467 0.000000
# 6 0.000000 0.000000 0.000000 -0.000944 0.000000 0.060164
#
#
# Mechanical properties :
#
#
# Convention : Reuss Voigt Hill
#
# Bulk Modulus (GPa) = 28.37590 60.76272 44.56931
# Shear Modulus (GPa) = 20.31016 27.08006 23.69511
#
# Velocity S-wave (km/s) = 3.08814 3.56587 3.33557
# Velocity P-wave (km/s) = 5.10288 6.74426 5.98015
#
# Compressibility (1/GPa) = 0.03524117
#
# Stress axis : x y z
#
# Youngs Moduli (GPa) = 31.99274 87.98566 95.32840
#
# Poissons Ratio (x) = 0.22667 0.45458
# Poissons Ratio (y) = 0.08242 0.15167
# Poissons Ratio (z) = 0.15256 0.13998
#
# Static dielectric constant tensor:
#      x y z
#    x 1.817190 0.000000 0.022130 
#    y 0.000000 1.813190 0.000000 
#    z 0.022130 0.000000 1.835930 
# 
# From -- ./inp_files/11223.got.cif
#   From: 2010.05.17/outbox.cif.g08.bks.cpg/sg5_6_cif.got.tgz:11223.got - 2010.06.03 18:56:24.
