data_PCOD9125585
_publ_section_title
;
Structure prediction by ZEFSAII (Michael W. Deem and Ramdas Pophale) SiO2 
 PCOD9125585
Probable space group: C 2
;
_chemical_formula_sum "Si O2"
_cell_formula_units_Z 22
_cell_length_a 11.656094
_cell_length_b 9.299727
_cell_length_c 11.637634
_cell_angle_alpha 90.000000
_cell_angle_beta 62.958360
_cell_angle_gamma 90.000000
_cell_volume 1123.589975
_symmetry_space_group_name_H-M "C 2"
_symmetry_group_IT_number 5
_symmetry_cell_setting 'monoclinic'
loop_
_space_group_symop_operation_xyz
x,y,z
-x,y,-z
1/2+x,1/2+y,z
1/2-x,1/2+y,-z
loop_
_atom_site_type_symbol
_atom_site_label
_atom_site_fract_x
_atom_site_fract_y
_atom_site_fract_z
Si Si1 0.563611 0.575240 0.851327
Si Si2 0.232282 0.816137 0.677720
Si Si3 0.000000 0.434916 0.500000
Si Si4 0.501023 0.215304 0.629210
Si Si5 0.292352 0.627492 0.871902
Si Si6 0.245559 0.301335 0.878564
O O1 0.665909 0.462314 0.755479
O O2 0.445965 0.602622 0.818365
O O3 0.636032 0.721674 0.853958
O O4 0.500000 0.518738 0.000000
O O5 0.368929 0.847542 0.556917
O O6 0.131848 0.750160 0.634253
O O7 0.257146 0.711010 0.772981
O O8 0.010470 0.544197 0.387337
O O9 0.500000 0.277165 0.500000
O O10 0.380944 0.274046 0.754375
O O11 0.227382 0.470740 0.902805
O O12 0.251937 0.721913 0.000032
#
# Coordination Sequence:
#
# PCOD9125585 Si02
#       6
#     4   4   2   4   4   4
#     4  10  21  42  66 100 140 168 212 279 331 394
#     4  12  24  44  71  98 129 182 224 276 332 393
#     4  10  26  46  64  96 134 180 222 276 322 404
#     4  10  24  44  67  93 135 180 217 279 324 392
#     4  11  25  40  71 104 131 175 220 277 336 394
#     4  11  22  45  67 101 140 172 217 276 336 392
#
# _framework density 19.580096000000001
#
# number of rings (size 3 to 8) (size 9 to 14) (size 15 to 20)
#    0.545    0.727    3.636    2.182    0.000    5.818 
#    8.182    0.000    0.000    0.000    0.000    0.000 
#    0.000    0.000    0.000    0.000    0.000    0.000 
#
# Total GULP energy -61452.011741 kJ/mol
# GULP energy per Si atom -5586.546522 kJ/mol
# Density = 1.953553 g / cm^3
# Si number density = 19.580096 Si / 1000 Ang^3
#
#
#
# Elastic Constant Matrix: (Units=GPa)
#
#
# Indices 1 2 3 4 5 6 
#
# 1 130.5432 28.8021 40.9343 0.0000 16.9187 0.0000
# 2 28.8021 93.6160 19.7941 0.0000 17.8847 0.0000
# 3 40.9343 19.7941 70.6147 0.0000 -1.9761 0.0000
# 4 0.0000 0.0000 0.0000 13.6965 0.0000 -3.7906
# 5 16.9187 17.8847 -1.9761 0.0000 41.1640 0.0000
# 6 0.0000 0.0000 0.0000 -3.7906 0.0000 31.6482
#
#
#
# Elastic Compliance Matrix: (Units=1/GPa)
#
#
# Indices 1 2 3 4 5 6 
#
# 1 0.010224 -0.001182 -0.005706 0.000000 -0.003962 0.000000
# 2 -0.001182 0.012668 -0.003010 0.000000 -0.005163 0.000000
# 3 -0.005706 -0.003010 0.018440 0.000000 0.004538 0.000000
# 4 0.000000 0.000000 0.000000 0.075515 0.000000 0.009045
# 5 -0.003962 -0.005163 0.004538 0.000000 0.028383 0.000000
# 6 0.000000 0.000000 0.000000 0.009045 0.000000 0.032681
#
#
# Mechanical properties :
#
#
# Convention : Reuss Voigt Hill
#
# Bulk Modulus (GPa) = 46.43572 52.64833 49.54202
# Shear Modulus (GPa) = 24.40379 30.98462 27.69420
#
# Velocity S-wave (km/s) = 3.53421 3.98232 3.76494
# Velocity P-wave (km/s) = 6.35778 6.93486 6.65258
#
# Compressibility (1/GPa) = 0.02153515
#
# Stress axis : x y z
#
# Youngs Moduli (GPa) = 97.80973 78.93636 54.22985
#
# Poissons Ratio (x) = 0.09330 0.30945
# Poissons Ratio (y) = 0.11561 0.16325
# Poissons Ratio (z) = 0.55812 0.23763
#
# Static dielectric constant tensor:
#      x y z
#    x 1.666150 0.000000 -0.000150 
#    y 0.000000 1.684140 0.000000 
#    z -0.000150 0.000000 1.669430 
# 
# From -- ./inp_files/38090.got.cif
#   From: 2010.05.17/outbox.cif.g08.bks.cpg/sg5_20_cif.got.tgz:38090.got - 2010.06.03 18:56:24.
