data_PCOD9125042
_publ_section_title
;
Structure prediction by ZEFSAII (Michael W. Deem and Ramdas Pophale) SiO2 
 PCOD9125042
Probable space group: C 2
;
_chemical_formula_sum "Si O2"
_cell_formula_units_Z 16
_cell_length_a 5.999970
_cell_length_b 13.805468
_cell_length_c 6.867953
_cell_angle_alpha 90.000000
_cell_angle_beta 89.999870
_cell_angle_gamma 90.000000
_cell_volume 568.888988
_symmetry_space_group_name_H-M "C 2"
_symmetry_group_IT_number 5
_symmetry_cell_setting 'monoclinic'
loop_
_space_group_symop_operation_xyz
x,y,z
-x,y,-z
1/2+x,1/2+y,z
1/2-x,1/2+y,-z
loop_
_atom_site_type_symbol
_atom_site_label
_atom_site_fract_x
_atom_site_fract_y
_atom_site_fract_z
Si Si1 0.240737 0.411790 0.338319
Si Si2 0.000000 0.324897 0.000000
Si Si3 0.759262 0.158616 0.838319
Si Si4 0.500000 0.084644 0.500000
Si Si5 0.000000 0.985762 0.000000
Si Si6 0.000000 0.245509 0.500000
O O1 0.199582 0.509978 0.453944
O O2 0.444666 0.425284 0.192265
O O3 0.033947 0.391355 0.187916
O O4 0.211153 0.318599 0.476355
O O5 0.211153 0.251807 0.023646
O O6 0.555333 0.145121 0.692265
O O7 0.966052 0.179051 0.687916
O O8 0.800417 0.060428 0.953946
#
# Coordination Sequence:
#
# PCOD9125042 Si02
#       6
#     4   2   4   2   2   2
#     4  10  21  39  65  94 128 167 214 266 320 381
#     4   9  20  42  62  89 130 168 208 263 320 382
#     4  10  21  39  65  94 128 167 214 266 320 381
#     4  11  22  40  68  97 126 170 220 267 320 384
#     4  11  22  40  68  97 126 170 220 267 320 384
#     4   9  20  42  62  89 130 168 208 263 320 382
#
# _framework density 28.124997
#
# number of rings (size 3 to 8) (size 9 to 14) (size 15 to 20)
#    0.000    2.000    0.000    3.000    0.000    0.000 
#    0.000   40.000    0.000    0.000    0.000    0.000 
#    0.000    0.000    0.000    0.000    0.000    0.000 
#
# Total GULP energy -44667.327376 kJ/mol
# GULP energy per Si atom -5583.415922 kJ/mol
# Density = 2.806098 g / cm^3
# Si number density = 28.124997 Si / 1000 Ang^3
#
#
#
# Elastic Constant Matrix: (Units=GPa)
#
#
# Indices 1 2 3 4 5 6 
#
# 1 63.8381 44.9633 32.6433 0.0000 -12.5641 0.0000
# 2 44.9633 109.0770 7.3432 0.0000 3.7745 0.0000
# 3 32.6433 7.3432 88.6348 0.0000 10.0744 0.0000
# 4 0.0000 0.0000 0.0000 50.6706 0.0000 -2.3371
# 5 -12.5641 3.7745 10.0744 0.0000 75.9324 0.0000
# 6 0.0000 0.0000 0.0000 -2.3371 0.0000 27.3728
#
#
#
# Elastic Compliance Matrix: (Units=1/GPa)
#
#
# Indices 1 2 3 4 5 6 
#
# 1 0.031959 -0.012653 -0.011569 0.000000 0.007452 0.000000
# 2 -0.012653 0.014239 0.003857 0.000000 -0.003313 0.000000
# 3 -0.011569 0.003857 0.015700 0.000000 -0.004189 0.000000
# 4 0.000000 0.000000 0.000000 0.019813 0.000000 0.001692
# 5 0.007452 -0.003313 -0.004189 0.000000 0.015123 0.000000
# 6 0.000000 0.000000 0.000000 0.001692 0.000000 0.036677
#
#
# Mechanical properties :
#
#
# Convention : Reuss Voigt Hill
#
# Bulk Modulus (GPa) = 47.24310 47.93882 47.59096
# Shear Modulus (GPa) = 27.57921 42.56851 35.07386
#
# Velocity S-wave (km/s) = 3.13484 3.89465 3.53522
# Velocity P-wave (km/s) = 5.47147 6.10789 5.79842
#
# Compressibility (1/GPa) = 0.02116711
#
# Stress axis : x y z
#
# Youngs Moduli (GPa) = 31.29024 70.23168 63.69625
#
# Poissons Ratio (x) = 0.88864 0.73689
# Poissons Ratio (y) = 0.39591 -0.24567
# Poissons Ratio (z) = 0.36199 -0.27088
#
# Static dielectric constant tensor:
#      x y z
#    x 2.189920 0.000000 0.002520 
#    y 0.000000 2.156340 0.000000 
#    z 0.002520 0.000000 2.164790 
# 
# From -- ./inp_files/11646.got.cif
#   From: 2010.05.17/outbox.cif.g08.bks.cpg/sg5_6_cif.got.tgz:11646.got - 2010.06.03 18:56:24.
