data_PCOD9125426
_publ_section_title
;
Structure prediction by ZEFSAII (Michael W. Deem and Ramdas Pophale) SiO2 
 PCOD9125426
Probable space group: C 2
;
_chemical_formula_sum "Si O2"
_cell_formula_units_Z 32
_cell_length_a 15.306062
_cell_length_b 11.381221
_cell_length_c 9.650360
_cell_angle_alpha 90.000000
_cell_angle_beta 101.497382
_cell_angle_gamma 90.000000
_cell_volume 1647.375425
_symmetry_space_group_name_H-M "C 2"
_symmetry_group_IT_number 5
_symmetry_cell_setting 'monoclinic'
loop_
_space_group_symop_operation_xyz
x,y,z
-x,y,-z
1/2+x,1/2+y,z
1/2-x,1/2+y,-z
loop_
_atom_site_type_symbol
_atom_site_label
_atom_site_fract_x
_atom_site_fract_y
_atom_site_fract_z
Si Si1 0.540193 0.546520 0.141311
Si Si2 0.107308 0.506294 0.016421
Si Si3 0.425583 0.555666 0.352209
Si Si4 0.832324 0.237193 0.945980
Si Si5 0.681894 0.099223 0.745317
Si Si6 0.693079 0.404084 0.342469
Si Si7 0.250421 0.166866 0.785760
Si Si8 0.600379 0.312978 0.584186
O O1 0.473736 0.602142 0.231066
O O2 0.591064 0.650085 0.079499
O O3 0.607044 0.467349 0.250471
O O4 0.500000 0.474169 0.000000
O O5 0.135610 0.370741 0.046590
O O6 0.168755 0.580562 0.143890
O O7 0.137563 0.545365 0.870219
O O8 0.000000 0.521265 0.000000
O O9 0.500000 0.564839 0.500000
O O10 0.329088 0.615962 0.337336
O O11 0.402763 0.419703 0.307257
O O12 0.753160 0.197706 0.818204
O O13 0.796740 0.203740 0.085922
O O14 0.618528 0.181519 0.636144
O O15 0.728375 0.997131 0.668505
O O16 0.712044 0.283745 0.270207
O O17 0.667971 0.365179 0.490031
O O18 0.500000 0.312888 0.500000
#
# Coordination Sequence:
#
# PCOD9125426 Si02
#       8
#     4   4   4   4   4   4   4   4
#     4  11  21  38  71  97 127 171 223 277 335 388
#     4  11  24  41  66  98 135 170 219 278 342 396
#     4  11  23  43  68  98 131 175 227 274 329 407
#     4  10  21  41  65  98 131 167 219 281 333 394
#     4  10  24  43  66  94 131 175 219 276 338 399
#     4  11  24  42  64  96 132 172 219 275 330 403
#     4  11  24  40  65  97 132 171 217 276 331 399
#     4  11  24  43  65  90 133 175 227 273 325 401
#
# _framework density 19.424835999999999
#
# number of rings (size 3 to 8) (size 9 to 14) (size 15 to 20)
#    0.000    1.250    5.000    1.125    3.500    2.500 
#    0.000    0.625    0.000    0.000    0.000    0.000 
#    0.000    0.000    0.000    0.000    0.000    0.000 
#
# Total GULP energy -89146.194068 kJ/mol
# GULP energy per Si atom -5571.637129 kJ/mol
# Density = 1.938062 g / cm^3
# Si number density = 19.424836 Si / 1000 Ang^3
#
#
#
# Elastic Constant Matrix: (Units=GPa)
#
#
# Indices 1 2 3 4 5 6 
#
# 1 102.8867 37.0662 14.3314 0.0000 -3.5490 0.0000
# 2 37.0662 108.6839 14.8293 0.0000 6.0546 0.0000
# 3 14.3314 14.8293 55.0933 0.0000 -11.5554 0.0000
# 4 0.0000 0.0000 0.0000 27.9024 0.0000 -0.2145
# 5 -3.5490 6.0546 -11.5554 0.0000 28.1123 0.0000
# 6 0.0000 0.0000 0.0000 -0.2145 0.0000 18.5992
#
#
#
# Elastic Compliance Matrix: (Units=1/GPa)
#
#
# Indices 1 2 3 4 5 6 
#
# 1 0.011345 -0.003736 -0.001616 0.000000 0.001573 0.000000
# 2 -0.003736 0.011090 -0.002860 0.000000 -0.004036 0.000000
# 3 -0.001616 -0.002860 0.021260 0.000000 0.009151 0.000000
# 4 0.000000 0.000000 0.000000 0.035842 0.000000 0.000413
# 5 0.001573 -0.004036 0.009151 0.000000 0.040401 0.000000
# 6 0.000000 0.000000 0.000000 0.000413 0.000000 0.053770
#
#
# Mechanical properties :
#
#
# Convention : Reuss Voigt Hill
#
# Bulk Modulus (GPa) = 36.66714 44.34642 40.50678
# Shear Modulus (GPa) = 25.09756 28.28525 26.69140
#
# Velocity S-wave (km/s) = 3.59839 3.82008 3.71089
# Velocity P-wave (km/s) = 6.01514 6.50666 6.26572
#
# Compressibility (1/GPa) = 0.02727237
#
# Stress axis : x y z
#
# Youngs Moduli (GPa) = 88.14645 90.16939 47.03602
#
# Poissons Ratio (x) = 0.33690 0.07599
# Poissons Ratio (y) = 0.32934 0.13451
# Poissons Ratio (z) = 0.14240 0.25785
#
# Static dielectric constant tensor:
#      x y z
#    x 1.769420 0.000000 0.051520 
#    y 0.000000 1.658280 0.000000 
#    z 0.051520 0.000000 1.778470 
# 
# From -- ./inp_files/23883.got.cif
#   From: 2010.05.17/outbox.cif.g08.bks.cpg/sg5_12_cif.got.tgz:23883.got - 2010.06.03 18:56:24.
