data_PCOD9125564
_publ_section_title
;
Structure prediction by ZEFSAII (Michael W. Deem and Ramdas Pophale) SiO2 
 PCOD9125564
Probable space group: C 2
;
_chemical_formula_sum "Si O2"
_cell_formula_units_Z 24
_cell_length_a 13.722625
_cell_length_b 7.636874
_cell_length_c 9.339020
_cell_angle_alpha 90.000000
_cell_angle_beta 94.880441
_cell_angle_gamma 90.000000
_cell_volume 975.161812
_symmetry_space_group_name_H-M "C 2"
_symmetry_group_IT_number 5
_symmetry_cell_setting 'monoclinic'
loop_
_space_group_symop_operation_xyz
x,y,z
-x,y,-z
1/2+x,1/2+y,z
1/2-x,1/2+y,-z
loop_
_atom_site_type_symbol
_atom_site_label
_atom_site_fract_x
_atom_site_fract_y
_atom_site_fract_z
Si Si1 0.671667 0.702310 0.641797
Si Si2 0.340675 0.963618 0.578460
Si Si3 0.500000 0.454975 0.500000
Si Si4 0.292906 0.333587 0.894100
Si Si5 0.020638 0.675874 0.246205
Si Si6 0.688469 0.744907 0.151666
Si Si7 0.000000 0.444054 0.000000
O O1 0.657471 0.894275 0.578920
O O2 0.771096 0.628446 0.585973
O O3 0.588078 0.582474 0.561541
O O4 0.700325 0.730404 0.810426
O O5 0.301993 0.820571 0.687469
O O6 0.444836 0.019924 0.647233
O O7 0.504478 0.331925 0.358043
O O8 0.388786 0.239578 0.842979
O O9 0.304709 0.536019 0.852380
O O10 0.273151 0.321105 0.060020
O O11 0.956983 0.571942 0.119965
O O12 0.585871 0.823873 0.077645
#
# Coordination Sequence:
#
# PCOD9125564 Si02
#       7
#     4   4   2   4   4   4   2
#     4  11  23  40  65  93 126 170 215 263 318 377
#     4  10  21  42  64  89 127 170 212 259 318 389
#     4  12  26  42  64  98 130 166 216 272 320 366
#     4  11  24  43  65  91 129 174 214 256 317 391
#     4  10  24  44  63  93 131 168 211 264 320 379
#     4  11  23  42  67  97 129 169 214 261 317 382
#     4  10  24  42  68 100 130 162 212 270 320 368
#
# _framework density 24.611298000000001
#
# number of rings (size 3 to 8) (size 9 to 14) (size 15 to 20)
#    0.000    1.333    0.000    7.000    0.000   10.667 
#    0.000    0.000    0.000    0.000    0.000    0.000 
#    0.000    0.000    0.000    0.000    0.000    0.000 
#
# Total GULP energy -66986.124304 kJ/mol
# GULP energy per Si atom -5582.177025 kJ/mol
# Density = 2.455528 g / cm^3
# Si number density = 24.611298 Si / 1000 Ang^3
#
#
#
# Elastic Constant Matrix: (Units=GPa)
#
#
# Indices 1 2 3 4 5 6 
#
# 1 50.9357 7.2418 26.7342 0.0000 3.5010 0.0000
# 2 7.2418 85.7315 28.9257 0.0000 12.3322 0.0000
# 3 26.7342 28.9257 99.0495 0.0000 7.3952 0.0000
# 4 0.0000 0.0000 0.0000 54.4385 0.0000 1.5821
# 5 3.5010 12.3322 7.3952 0.0000 36.6193 0.0000
# 6 0.0000 0.0000 0.0000 1.5821 0.0000 28.6524
#
#
#
# Elastic Compliance Matrix: (Units=1/GPa)
#
#
# Indices 1 2 3 4 5 6 
#
# 1 0.022913 0.000305 -0.006196 0.000000 -0.001042 0.000000
# 2 0.000305 0.013442 -0.003724 0.000000 -0.003804 0.000000
# 3 -0.006196 -0.003724 0.012912 0.000000 -0.000761 0.000000
# 4 0.000000 0.000000 0.000000 0.018399 0.000000 -0.001016
# 5 -0.001042 -0.003804 -0.000761 0.000000 0.028842 0.000000
# 6 0.000000 0.000000 0.000000 -0.001016 0.000000 0.034957
#
#
# Mechanical properties :
#
#
# Convention : Reuss Voigt Hill
#
# Bulk Modulus (GPa) = 33.29080 40.16888 36.72984
# Shear Modulus (GPa) = 31.11239 35.46303 33.28771
#
# Velocity S-wave (km/s) = 3.55935 3.80007 3.68168
# Velocity P-wave (km/s) = 5.51796 5.96748 5.74712
#
# Compressibility (1/GPa) = 0.03003833
#
# Stress axis : x y z
#
# Youngs Moduli (GPa) = 43.64399 74.39270 77.44444
#
# Poissons Ratio (x) = -0.02268 0.47981
# Poissons Ratio (y) = -0.01330 0.28839
# Poissons Ratio (z) = 0.27040 0.27702
#
# Static dielectric constant tensor:
#      x y z
#    x 1.991370 0.000000 0.009240 
#    y 0.000000 1.976680 0.000000 
#    z 0.009240 0.000000 1.971920 
# 
# From -- ./inp_files/22929.got.cif
#   From: 2010.05.17/outbox.cif.g08.bks.cpg/sg5_12_cif.got.tgz:22929.got - 2010.06.03 18:56:24.
