data_PCOD9125816
_publ_section_title
;
Structure prediction by ZEFSAII (Michael W. Deem and Ramdas Pophale) SiO2 
 PCOD9125816
Probable space group: C 2
;
_chemical_formula_sum "Si O2"
_cell_formula_units_Z 28
_cell_length_a 29.510816
_cell_length_b 4.738304
_cell_length_c 7.933092
_cell_angle_alpha 90.000000
_cell_angle_beta 69.815976
_cell_angle_gamma 90.000000
_cell_volume 1041.171361
_symmetry_space_group_name_H-M "C 2"
_symmetry_group_IT_number 5
_symmetry_cell_setting 'monoclinic'
loop_
_space_group_symop_operation_xyz
x,y,z
-x,y,-z
1/2+x,1/2+y,z
1/2-x,1/2+y,-z
loop_
_atom_site_type_symbol
_atom_site_label
_atom_site_fract_x
_atom_site_fract_y
_atom_site_fract_z
Si Si1 0.343910 0.314580 0.807397
Si Si2 0.049562 0.531700 0.025369
Si Si3 0.224052 0.555951 0.606874
Si Si4 0.606955 0.533649 0.821073
Si Si5 0.627183 0.000545 0.548894
Si Si6 0.313342 0.786733 0.045866
Si Si7 0.553864 0.266582 0.392915
O O1 0.340265 0.120860 0.647583
O O2 0.398257 0.448126 0.720568
O O3 0.307856 0.566226 0.900864
O O4 0.340163 0.067719 0.950119
O O5 0.064399 0.215623 0.962014
O O6 0.087075 0.721340 0.868934
O O7 0.048184 0.586719 0.226956
O O8 0.000000 0.598456 0.000000
O O9 0.247229 0.342780 0.443105
O O10 0.167678 0.596437 0.636957
O O11 0.228201 0.402093 0.781226
O O12 0.652795 0.604263 0.874895
O O13 0.617101 0.677591 0.625324
O O14 0.575524 0.100657 0.529431
O O15 0.500000 0.383264 0.500000
#
# Coordination Sequence:
#
# PCOD9125816 Si02
#       7
#     4   4   4   4   4   4   4
#     4  10  22  41  67  99 139 192 230 287 361 421
#     4  12  24  38  61  92 138 181 247 286 346 409
#     4  11  25  45  74 109 138 181 241 301 364 440
#     4  11  20  41  60  91 124 184 229 287 349 414
#     4   9  23  42  71  98 143 183 234 295 361 416
#     4  11  20  43  70  95 137 184 226 290 364 427
#     4  10  21  44  65 104 145 196 245 297 343 423
#
# _framework density 26.892787999999999
#
# number of rings (size 3 to 8) (size 9 to 14) (size 15 to 20)
#    0.857    0.571    2.857    2.143    0.000    5.714 
#    0.000    4.286    0.000    0.000    0.000    0.000 
#    0.000    0.000    0.000    0.000    0.000    0.000 
#
# Total GULP energy -78054.455291 kJ/mol
# GULP energy per Si atom -5575.318235 kJ/mol
# Density = 2.683158 g / cm^3
# Si number density = 26.892788 Si / 1000 Ang^3
#
#
#
# Elastic Constant Matrix: (Units=GPa)
#
#
# Indices 1 2 3 4 5 6 
#
# 1 151.4228 35.4706 56.9836 0.0000 4.1477 0.0000
# 2 35.4706 71.8521 26.5188 0.0000 2.0015 0.0000
# 3 56.9836 26.5188 125.8695 0.0000 -4.7303 0.0000
# 4 0.0000 0.0000 0.0000 44.8676 0.0000 0.5805
# 5 4.1477 2.0015 -4.7303 0.0000 26.9257 0.0000
# 6 0.0000 0.0000 0.0000 0.5805 0.0000 20.4097
#
#
#
# Elastic Compliance Matrix: (Units=1/GPa)
#
#
# Indices 1 2 3 4 5 6 
#
# 1 0.008599 -0.002969 -0.003331 0.000000 -0.001689 0.000000
# 2 -0.002969 0.016193 -0.002110 0.000000 -0.001117 0.000000
# 3 -0.003331 -0.002110 0.009988 0.000000 0.002425 0.000000
# 4 0.000000 0.000000 0.000000 0.022296 0.000000 -0.000634
# 5 -0.001689 -0.001117 0.002425 0.000000 0.037908 0.000000
# 6 0.000000 0.000000 0.000000 -0.000634 0.000000 0.049014
#
#
# Mechanical properties :
#
#
# Convention : Reuss Voigt Hill
#
# Bulk Modulus (GPa) = 55.67402 65.23227 60.45314
# Shear Modulus (GPa) = 29.97515 33.78537 31.88026
#
# Velocity S-wave (km/s) = 3.34221 3.54828 3.44678
# Velocity P-wave (km/s) = 5.97001 6.41062 6.19423
#
# Compressibility (1/GPa) = 0.01796170
#
# Stress axis : x y z
#
# Youngs Moduli (GPa) = 116.28916 61.75631 100.11654
#
# Poissons Ratio (x) = 0.18333 0.33350
# Poissons Ratio (y) = 0.34522 0.21120
# Poissons Ratio (z) = 0.38737 0.13028
#
# Static dielectric constant tensor:
#      x y z
#    x 2.076890 0.000000 -0.010310 
#    y 0.000000 2.145490 0.000000 
#    z -0.010310 0.000000 2.354750 
# 
# From -- ./inp_files/32130.got.cif
#   From: 2010.05.17/outbox.cif.g08.bks.cpg/sg5_17_cif.got.tgz:32130.got - 2010.06.03 18:56:24.
