data_PCOD9125126
_publ_section_title
;
Structure prediction by ZEFSAII (Michael W. Deem and Ramdas Pophale) SiO2 
 PCOD9125126
Probable space group: C 2
;
_chemical_formula_sum "Si O2"
_cell_formula_units_Z 26
_cell_length_a 10.161519
_cell_length_b 9.334044
_cell_length_c 14.659258
_cell_angle_alpha 90.000000
_cell_angle_beta 81.010023
_cell_angle_gamma 90.000000
_cell_volume 1373.322132
_symmetry_space_group_name_H-M "C 2"
_symmetry_group_IT_number 5
_symmetry_cell_setting 'monoclinic'
loop_
_space_group_symop_operation_xyz
x,y,z
-x,y,-z
1/2+x,1/2+y,z
1/2-x,1/2+y,-z
loop_
_atom_site_type_symbol
_atom_site_label
_atom_site_fract_x
_atom_site_fract_y
_atom_site_fract_z
Si Si1 0.157258 0.618900 0.343808
Si Si2 0.000000 0.782822 0.500000
Si Si3 0.110492 0.524988 0.053323
Si Si4 0.428771 0.095332 0.245012
Si Si5 0.094541 0.910143 0.679050
Si Si6 0.819334 0.903738 0.781587
Si Si7 0.347779 0.340661 0.992002
O O1 0.038906 0.973276 0.260589
O O2 0.184857 0.752741 0.272567
O O3 0.118172 0.686384 0.445120
O O4 0.020147 0.550000 0.320786
O O5 0.056324 0.872953 0.578735
O O6 0.161587 0.668943 0.997302
O O7 0.029184 0.580199 0.149116
O O8 0.235129 0.424052 0.060558
O O9 0.000000 0.452324 0.000000
O O10 0.386015 0.258727 0.270294
O O11 0.302500 0.998866 0.238429
O O12 0.220956 0.011375 0.669846
O O13 0.817332 0.878005 0.889883
O O14 0.500000 0.380249 0.000000
#
# Coordination Sequence:
#
# PCOD9125126 Si02
#       7
#     4   2   4   4   4   4   4
#     4  10  22  40  65  89 119 155 196 240 295 361
#     4   8  20  40  62  92 124 148 186 244 302 352
#     4  11  22  40  58  83 119 161 201 248 293 343
#     4  10  21  40  60  84 123 158 196 245 295 344
#     4  10  22  41  65  89 120 156 191 244 296 358
#     4  10  21  41  57  86 122 156 198 246 296 344
#     4  11  24  39  58  85 118 160 206 250 293 342
#
# _framework density 18.932195
#
# number of rings (size 3 to 8) (size 9 to 14) (size 15 to 20)
#    0.000    2.154    4.615    0.000    2.154    6.769 
#    2.769    0.000    0.000    0.000    0.000    0.000 
#    0.000    0.000    0.000    0.000    0.000    0.000 
#
# Total GULP energy -72518.278476 kJ/mol
# GULP energy per Si atom -5578.329114 kJ/mol
# Density = 1.888910 g / cm^3
# Si number density = 18.932195 Si / 1000 Ang^3
#
#
#
# Elastic Constant Matrix: (Units=GPa)
#
#
# Indices 1 2 3 4 5 6 
#
# 1 134.8649 68.2727 0.9703 0.0000 0.0271 0.0000
# 2 68.2727 61.4851 10.9588 0.0000 -4.6280 0.0000
# 3 0.9703 10.9588 56.9423 0.0000 -7.5397 0.0000
# 4 0.0000 0.0000 0.0000 13.2975 0.0000 -4.2234
# 5 0.0271 -4.6280 -7.5397 0.0000 21.8412 0.0000
# 6 0.0000 0.0000 0.0000 -4.2234 0.0000 49.4347
#
#
#
# Elastic Compliance Matrix: (Units=1/GPa)
#
#
# Indices 1 2 3 4 5 6 
#
# 1 0.017833 -0.020624 0.003231 0.000000 -0.003277 0.000000
# 2 -0.020624 0.040832 -0.006663 0.000000 0.006378 0.000000
# 3 0.003231 -0.006663 0.019492 0.000000 0.005313 0.000000
# 4 0.000000 0.000000 0.000000 0.077300 0.000000 0.006604
# 5 -0.003277 0.006378 0.005313 0.000000 0.048975 0.000000
# 6 0.000000 0.000000 0.000000 0.006604 0.000000 0.020793
#
#
# Mechanical properties :
#
#
# Convention : Reuss Voigt Hill
#
# Bulk Modulus (GPa) = 33.28071 45.96622 39.62346
# Shear Modulus (GPa) = 17.64597 28.45404 23.05001
#
# Velocity S-wave (km/s) = 3.05628 3.88099 3.49306
# Velocity P-wave (km/s) = 5.48375 6.66445 6.10272
#
# Compressibility (1/GPa) = 0.03004744
#
# Stress axis : x y z
#
# Youngs Moduli (GPa) = 56.07663 24.49032 51.30222
#
# Poissons Ratio (x) = 0.50509 -0.16578
# Poissons Ratio (y) = 1.15652 0.34180
# Poissons Ratio (z) = -0.18121 0.16317
#
# Static dielectric constant tensor:
#      x y z
#    x 1.659110 0.000000 0.006120 
#    y 0.000000 1.653800 0.000000 
#    z 0.006120 0.000000 1.718180 
# 
# From -- ./inp_files/50123.got.cif
#   From: 2010.05.17/outbox.cif.g08.bks.cpg/sg5_26_cif.got.tgz:50123.got - 2010.06.03 18:56:24.
