data_PCOD9125327
_publ_section_title
;
Structure prediction by ZEFSAII (Michael W. Deem and Ramdas Pophale) SiO2 
 PCOD9125327
Probable space group: C 2
;
_chemical_formula_sum "Si O2"
_cell_formula_units_Z 22
_cell_length_a 9.364120
_cell_length_b 16.991278
_cell_length_c 8.411382
_cell_angle_alpha 90.000000
_cell_angle_beta 43.718099
_cell_angle_gamma 90.000000
_cell_volume 924.928204
_symmetry_space_group_name_H-M "C 2"
_symmetry_group_IT_number 5
_symmetry_cell_setting 'monoclinic'
loop_
_space_group_symop_operation_xyz
x,y,z
-x,y,-z
1/2+x,1/2+y,z
1/2-x,1/2+y,-z
loop_
_atom_site_type_symbol
_atom_site_label
_atom_site_fract_x
_atom_site_fract_y
_atom_site_fract_z
Si Si1 0.307992 0.256520 0.040590
Si Si2 0.240628 0.611841 0.312767
Si Si3 0.023387 0.390845 0.661450
Si Si4 0.000000 0.492555 0.000000
Si Si5 0.628894 0.277008 0.528036
Si Si6 0.371943 0.592993 0.840404
O O1 0.441168 0.239117 0.776518
O O2 0.500000 0.267946 0.000000
O O3 0.170550 0.333804 0.145279
O O4 0.167608 0.181314 0.192152
O O5 0.255277 0.704547 0.350304
O O6 0.385406 0.571767 0.332328
O O7 0.000000 0.592827 0.500000
O O8 0.312083 0.594469 0.075995
O O9 0.000000 0.423156 0.500000
O O10 0.222103 0.333717 0.497726
O O11 0.040260 0.444776 0.803964
O O12 0.791931 0.541285 0.124137
O O13 0.500000 0.324686 0.500000
#
# Coordination Sequence:
#
# PCOD9125327 Si02
#       6
#     4   4   4   2   4   4
#     4  12  22  41  76 110 147 188 266 318 369 448
#     4  10  21  40  74 112 146 193 249 318 382 440
#     4  12  27  50  76 108 154 209 254 307 383 463
#     4  12  30  50  72 112 168 204 252 314 394 458
#     4  11  21  39  75 115 141 186 252 323 373 437
#     4  11  23  43  71 114 157 198 248 327 379 454
#
# _framework density 23.785630000000001
#
# number of rings (size 3 to 8) (size 9 to 14) (size 15 to 20)
#    0.000    0.727    8.182    1.091    0.000    0.727 
#    3.273    8.182    0.000    0.000    0.000    0.000 
#    0.000    0.000    0.000    0.000    0.000    0.000 
#
# Total GULP energy -61365.428400 kJ/mol
# GULP energy per Si atom -5578.675309 kJ/mol
# Density = 2.373149 g / cm^3
# Si number density = 23.785630 Si / 1000 Ang^3
#
#
#
# Elastic Constant Matrix: (Units=GPa)
#
#
# Indices 1 2 3 4 5 6 
#
# 1 236.3244 84.2881 47.0561 0.0000 -23.6506 0.0000
# 2 84.2881 94.0630 22.9183 0.0000 8.3973 0.0000
# 3 47.0561 22.9183 58.0445 0.0000 4.7567 0.0000
# 4 0.0000 0.0000 0.0000 -60.3069 0.0000 8.5803
# 5 -23.6506 8.3973 4.7567 0.0000 48.8876 0.0000
# 6 0.0000 0.0000 0.0000 8.5803 0.0000 35.0953
#
#
#
# Elastic Compliance Matrix: (Units=1/GPa)
#
#
# Indices 1 2 3 4 5 6 
#
# 1 0.007979 -0.006582 -0.004313 0.000000 0.005411 0.000000
# 2 -0.006582 0.017315 -0.001004 0.000000 -0.006061 0.000000
# 3 -0.004313 -0.001004 0.021449 0.000000 -0.004001 0.000000
# 4 0.000000 0.000000 0.000000 -0.016024 0.000000 0.003918
# 5 0.005411 -0.006061 -0.004001 0.000000 0.024503 0.000000
# 6 0.000000 0.000000 0.000000 0.003918 0.000000 0.027536
#
#
# Mechanical properties :
#
#
# Convention : Reuss Voigt Hill
#
# Bulk Modulus (GPa) = 43.58268 77.43966 60.51117
# Shear Modulus (GPa) = 43.78079 20.34651 32.06365
#
# Velocity S-wave (km/s) = 4.29492 2.92792 3.67553
# Velocity P-wave (km/s) = 6.55424 6.63764 6.59607
#
# Compressibility (1/GPa) = 0.02294489
#
# Stress axis : x y z
#
# Youngs Moduli (GPa) = 125.32163 57.75295 46.62194
#
# Poissons Ratio (x) = 0.38015 0.20109
# Poissons Ratio (y) = 0.82491 0.04680
# Poissons Ratio (z) = 0.54055 0.05797
#
# Static dielectric constant tensor:
#      x y z
#    x 2.299210 0.000000 0.363990 
#    y 0.000000 1.892410 0.000000 
#    z 0.363990 0.000000 2.307360 
# 
# From -- ./inp_files/16022.got.cif
#   From: 2010.05.17/outbox.cif.g08.bks.cpg/sg5_9_cif.got.tgz:16022.got - 2010.06.03 18:56:24.
