data_PCOD9125500
_publ_section_title
;
Structure prediction by ZEFSAII (Michael W. Deem and Ramdas Pophale) SiO2 
 PCOD9125500
Probable space group: C 2
;
_chemical_formula_sum "Si O2"
_cell_formula_units_Z 24
_cell_length_a 19.923336
_cell_length_b 7.437904
_cell_length_c 17.559915
_cell_angle_alpha 90.000000
_cell_angle_beta 158.899051
_cell_angle_gamma 90.000000
_cell_volume 936.811749
_symmetry_space_group_name_H-M "C 2"
_symmetry_group_IT_number 5
_symmetry_cell_setting 'monoclinic'
loop_
_space_group_symop_operation_xyz
x,y,z
-x,y,-z
1/2+x,1/2+y,z
1/2-x,1/2+y,-z
loop_
_atom_site_type_symbol
_atom_site_label
_atom_site_fract_x
_atom_site_fract_y
_atom_site_fract_z
Si Si1 0.903713 0.404440 0.703623
Si Si2 0.271120 0.275017 0.633278
Si Si3 0.992726 0.106724 0.909805
Si Si4 0.114967 0.748073 0.698345
Si Si5 0.382641 0.639291 0.243680
Si Si6 0.675201 0.350072 0.915396
O O1 0.773787 0.373917 0.493791
O O2 0.150878 0.967543 0.737171
O O3 0.117130 0.394262 0.898402
O O4 0.285325 0.268591 0.960560
O O5 0.399841 0.412590 0.814842
O O6 0.072209 0.240733 0.464107
O O7 0.577327 0.540988 0.797092
O O8 0.881800 0.238395 0.737473
O O9 0.207656 0.119762 0.115314
O O10 0.000000 0.194980 0.000000
O O11 0.063151 0.730093 0.734129
O O12 0.000000 0.710696 0.500000
O O13 0.858405 0.583787 0.702811
#
# Coordination Sequence:
#
# PCOD9125500 Si02
#       6
#     4   4   4   4   4   4
#     4  10  21  41  69  97 139 182 235 290 357 415
#     4  11  22  42  71 103 132 190 240 293 349 428
#     4  11  25  45  65 105 143 187 241 295 352 424
#     4   9  21  45  65  95 143 188 226 291 360 414
#     4   9  20  40  68  96 134 180 240 281 354 416
#     4   8  19  39  60  97 130 172 229 288 338 415
#
# _framework density 25.618807
#
# number of rings (size 3 to 8) (size 9 to 14) (size 15 to 20)
#    1.000    1.333    1.667    0.000    2.333    2.000 
#    9.000    0.000    0.000    0.000    0.000    0.000 
#    0.000    0.000    0.000    0.000    0.000    0.000 
#
# Total GULP energy -66908.260876 kJ/mol
# GULP energy per Si atom -5575.688406 kJ/mol
# Density = 2.556050 g / cm^3
# Si number density = 25.618807 Si / 1000 Ang^3
#
#
#
# Elastic Constant Matrix: (Units=GPa)
#
#
# Indices 1 2 3 4 5 6 
#
# 1 34.9138 9.8893 19.1936 0.0000 -9.0415 0.0000
# 2 9.8893 121.1633 50.2353 0.0000 -3.0764 0.0000
# 3 19.1936 50.2353 136.6836 -0.0001 -23.4535 0.0000
# 4 0.0000 0.0000 -0.0001 34.3945 0.0000 9.9600
# 5 -9.0415 -3.0764 -23.4535 0.0000 25.8600 0.0000
# 6 0.0000 0.0000 0.0000 9.9600 0.0000 23.1237
#
#
#
# Elastic Compliance Matrix: (Units=1/GPa)
#
#
# Indices 1 2 3 4 5 6 
#
# 1 0.032762 -0.001389 -0.002550 0.000000 0.008977 0.000000
# 2 -0.001389 0.009931 -0.003950 0.000000 -0.002887 0.000000
# 3 -0.002550 -0.003950 0.010531 0.000000 0.008190 0.000000
# 4 0.000000 0.000000 0.000000 0.033218 0.000000 -0.014308
# 5 0.008977 -0.002887 0.008190 0.000000 0.048893 0.000000
# 6 0.000000 0.000000 0.000000 -0.014308 0.000000 0.049408
#
#
# Mechanical properties :
#
#
# Convention : Reuss Voigt Hill
#
# Bulk Modulus (GPa) = 26.70484 50.15525 38.43005
# Shear Modulus (GPa) = 23.47380 30.90512 27.18946
#
# Velocity S-wave (km/s) = 3.03028 3.47702 3.26131
# Velocity P-wave (km/s) = 4.76341 5.97825 5.40507
#
# Compressibility (1/GPa) = 0.03744639
#
# Stress axis : x y z
#
# Youngs Moduli (GPa) = 30.52334 100.69236 94.95422
#
# Poissons Ratio (x) = 0.13986 0.24211
# Poissons Ratio (y) = 0.04240 0.37510
# Poissons Ratio (z) = 0.07783 0.39777
#
# Static dielectric constant tensor:
#      x y z
#    x 2.214020 0.000000 0.049250 
#    y 0.000000 2.083970 0.000000 
#    z 0.049250 0.000000 2.080620 
# 
# From -- ./inp_files/62955.got.cif
#   From: 2010.05.17/outbox.cif.g08.bks.cpg/sg5_32_cif.got.tgz:62955.got - 2010.06.03 18:56:24.
