data_PCOD9125769
_publ_section_title
;
Structure prediction by ZEFSAII (Michael W. Deem and Ramdas Pophale) SiO2 
 PCOD9125769
Probable space group: C 2
;
_chemical_formula_sum "Si O2"
_cell_formula_units_Z 26
_cell_length_a 16.638851
_cell_length_b 14.998899
_cell_length_c 9.314859
_cell_angle_alpha 90.000000
_cell_angle_beta 147.725862
_cell_angle_gamma 90.000000
_cell_volume 1241.299205
_symmetry_space_group_name_H-M "C 2"
_symmetry_group_IT_number 5
_symmetry_cell_setting 'monoclinic'
loop_
_space_group_symop_operation_xyz
x,y,z
-x,y,-z
1/2+x,1/2+y,z
1/2-x,1/2+y,-z
loop_
_atom_site_type_symbol
_atom_site_label
_atom_site_fract_x
_atom_site_fract_y
_atom_site_fract_z
Si Si1 0.500000 0.364260 0.500000
Si Si2 0.209846 0.460915 0.192809
Si Si3 0.123763 0.234067 0.308973
Si Si4 0.837975 0.618128 0.429906
Si Si5 0.156215 0.701067 0.871268
Si Si6 0.879337 0.427740 0.613521
Si Si7 0.627018 0.636531 0.591843
O O1 0.364454 0.414074 0.376859
O O2 0.586808 0.297545 0.737463
O O3 0.170930 0.447610 0.299821
O O4 0.243841 0.564641 0.233001
O O5 0.062180 0.430482 0.882281
O O6 0.249801 0.178466 0.412916
O O7 0.169242 0.323824 0.464317
O O8 0.067428 0.169628 0.350306
O O9 0.000000 0.256773 0.000000
O O10 0.796065 0.653892 0.207185
O O11 0.819429 0.511503 0.428450
O O12 0.013964 0.642617 0.708392
O O13 0.293387 0.709157 0.187327
O O14 0.500000 0.595357 0.500000
#
# Coordination Sequence:
#
# PCOD9125769 Si02
#       7
#     2   4   4   4   4   4   4
#     4  10  22  42  68  94 130 176 216 268 336 386
#     4  11  21  40  67  94 130 171 217 269 327 392
#     4  12  25  42  69  94 133 176 220 277 329 394
#     4  10  21  43  69  92 129 173 222 265 332 389
#     4  10  23  41  66  97 131 173 215 275 326 394
#     4  11  22  41  68  97 126 176 221 266 333 393
#     4  12  25  42  63  97 136 173 218 275 332 388
#
# _framework density 20.945795
#
# number of rings (size 3 to 8) (size 9 to 14) (size 15 to 20)
#    0.000    1.231    5.385    2.769    2.154    0.615 
#    5.538    0.000    0.000    0.000    0.000    0.000 
#    0.000    0.000    0.000    0.000    0.000    0.000 
#
# Total GULP energy -72420.750403 kJ/mol
# GULP energy per Si atom -5570.826954 kJ/mol
# Density = 2.089812 g / cm^3
# Si number density = 20.945795 Si / 1000 Ang^3
#
#
#
# Elastic Constant Matrix: (Units=GPa)
#
#
# Indices 1 2 3 4 5 6 
#
# 1 121.3539 44.7151 26.7748 0.0000 12.3175 0.0000
# 2 44.7151 100.1224 15.6541 0.0000 0.9356 0.0000
# 3 26.7748 15.6541 63.7163 0.0000 -2.4081 0.0000
# 4 0.0000 0.0000 0.0000 7.3529 0.0000 3.5265
# 5 12.3175 0.9356 -2.4081 0.0000 23.1913 0.0000
# 6 0.0000 0.0000 0.0000 3.5265 0.0000 26.6186
#
#
#
# Elastic Compliance Matrix: (Units=1/GPa)
#
#
# Indices 1 2 3 4 5 6 
#
# 1 0.011366 -0.004403 -0.003931 0.000000 -0.006268 0.000000
# 2 -0.004403 0.012103 -0.001058 0.000000 0.001740 0.000000
# 3 -0.003931 -0.001058 0.017757 0.000000 0.003975 0.000000
# 4 0.000000 0.000000 0.000000 0.145228 0.000000 -0.019240
# 5 -0.006268 0.001740 0.003975 0.000000 0.046791 0.000000
# 6 0.000000 0.000000 0.000000 -0.019240 0.000000 0.040117
#
#
# Mechanical properties :
#
#
# Convention : Reuss Voigt Hill
#
# Bulk Modulus (GPa) = 44.55897 51.05340 47.80619
# Shear Modulus (GPa) = 16.68741 24.63580 20.66160
#
# Velocity S-wave (km/s) = 2.82564 3.43325 3.14416
# Velocity P-wave (km/s) = 5.65379 6.33587 6.00452
#
# Compressibility (1/GPa) = 0.02244217
#
# Stress axis : x y z
#
# Youngs Moduli (GPa) = 87.97941 82.62244 56.31681
#
# Poissons Ratio (x) = 0.36378 0.22141
# Poissons Ratio (y) = 0.38737 0.05956
# Poissons Ratio (z) = 0.34589 0.08738
#
# Static dielectric constant tensor:
#      x y z
#    x 1.785620 0.000000 -0.023020 
#    y 0.000000 1.853070 0.000000 
#    z -0.023020 0.000000 1.780070 
# 
# From -- ./inp_files/24819.got.cif
#   From: 2010.05.17/outbox.cif.g08.bks.cpg/sg5_13_cif.got.tgz:24819.got - 2010.06.03 18:56:24.
