data_PCOD9125458
_publ_section_title
;
Structure prediction by ZEFSAII (Michael W. Deem and Ramdas Pophale) SiO2 
 PCOD9125458
Probable space group: C 2
;
_chemical_formula_sum "Si O2"
_cell_formula_units_Z 32
_cell_length_a 18.605156
_cell_length_b 15.168340
_cell_length_c 12.004009
_cell_angle_alpha 90.000000
_cell_angle_beta 151.510726
_cell_angle_gamma 90.000000
_cell_volume 1615.886349
_symmetry_space_group_name_H-M "C 2"
_symmetry_group_IT_number 5
_symmetry_cell_setting 'monoclinic'
loop_
_space_group_symop_operation_xyz
x,y,z
-x,y,-z
1/2+x,1/2+y,z
1/2-x,1/2+y,-z
loop_
_atom_site_type_symbol
_atom_site_label
_atom_site_fract_x
_atom_site_fract_y
_atom_site_fract_z
Si Si1 0.058720 0.748880 0.418915
Si Si2 0.247285 0.587162 0.293258
Si Si3 0.108489 0.933088 0.405607
Si Si4 0.758163 0.703791 0.134674
Si Si5 0.972960 0.251487 0.594661
Si Si6 0.044330 0.594366 0.238963
Si Si7 0.183161 0.423587 0.518625
Si Si8 0.604397 0.542442 0.044100
O O1 0.022900 0.845463 0.325174
O O2 0.192416 0.761141 0.690572
O O3 0.102155 0.679372 0.383807
O O4 0.911986 0.704235 0.273966
O O5 0.323330 0.490752 0.400889
O O6 0.369437 0.664344 0.463270
O O7 0.147153 0.588846 0.269053
O O8 0.129322 0.602374 0.033379
O O9 0.235871 0.904923 0.489421
O O10 0.003031 0.999453 0.193773
O O11 0.710388 0.611671 0.126084
O O12 0.623849 0.736204 0.872843
O O13 0.889415 0.336385 0.531054
O O14 0.000000 0.265300 0.500000
O O15 0.069288 0.504433 0.340777
O O16 0.304054 0.465456 0.768610
O O17 0.500000 0.584307 0.000000
#
# Coordination Sequence:
#
# PCOD9125458 Si02
#       8
#     4   4   4   4   4   4   4   4
#     4  11  24  43  63  93 129 168 212 256 317 373
#     4  10  22  41  65  96 126 169 209 257 318 371
#     4  10  22  42  66  94 128 162 211 260 314 375
#     4  11  25  44  62  91 125 169 214 254 315 375
#     4  12  26  43  61  93 130 167 212 258 316 376
#     4  10  21  41  67  94 130 163 210 263 313 368
#     4  10  23  40  66  97 122 166 211 261 316 367
#     4  10  21  42  69  94 123 162 211 264 314 369
#
# _framework density 19.803372
#
# number of rings (size 3 to 8) (size 9 to 14) (size 15 to 20)
#    0.000    1.500    2.500    1.500    5.250    2.000 
#    2.250    0.000    0.000    0.000    0.000    0.000 
#    0.000    0.000    0.000    0.000    0.000    0.000 
#
# Total GULP energy -89310.508265 kJ/mol
# GULP energy per Si atom -5581.906767 kJ/mol
# Density = 1.975830 g / cm^3
# Si number density = 19.803372 Si / 1000 Ang^3
#
#
#
# Elastic Constant Matrix: (Units=GPa)
#
#
# Indices 1 2 3 4 5 6 
#
# 1 44.7037 37.8064 17.9191 0.0000 -0.4974 0.0000
# 2 37.8064 92.0641 8.7252 0.0000 10.7089 0.0000
# 3 17.9191 8.7252 105.3468 0.0000 -4.5094 0.0000
# 4 0.0000 0.0000 0.0000 11.4729 0.0000 0.2477
# 5 -0.4974 10.7089 -4.5094 0.0000 27.1106 0.0000
# 6 0.0000 0.0000 0.0000 0.2477 0.0000 17.1117
#
#
#
# Elastic Compliance Matrix: (Units=1/GPa)
#
#
# Indices 1 2 3 4 5 6 
#
# 1 0.037675 -0.015721 -0.004845 0.000000 0.006095 0.000000
# 2 -0.015721 0.018084 0.000864 0.000000 -0.007288 0.000000
# 3 -0.004845 0.000864 0.010300 0.000000 0.001283 0.000000
# 4 0.000000 0.000000 0.000000 0.087189 0.000000 -0.001262
# 5 0.006095 -0.007288 0.001283 0.000000 0.040090 0.000000
# 6 0.000000 0.000000 0.000000 -0.001262 0.000000 0.058458
#
#
# Mechanical properties :
#
#
# Convention : Reuss Voigt Hill
#
# Bulk Modulus (GPa) = 37.51718 41.22401 39.37060
# Shear Modulus (GPa) = 16.66191 22.98329 19.82260
#
# Velocity S-wave (km/s) = 2.90378 3.41042 3.16724
# Velocity P-wave (km/s) = 5.49805 6.03074 5.77054
#
# Compressibility (1/GPa) = 0.02665445
#
# Stress axis : x y z
#
# Youngs Moduli (GPa) = 26.54258 55.29811 97.08765
#
# Poissons Ratio (x) = 0.86936 0.47043
# Poissons Ratio (y) = 0.41728 -0.08392
# Poissons Ratio (z) = 0.12861 -0.04780
#
# Static dielectric constant tensor:
#      x y z
#    x 1.713620 0.000000 -0.013120 
#    y 0.000000 1.651460 0.000000 
#    z -0.013120 0.000000 1.726260 
# 
# From -- ./inp_files/44986.got.cif
#   From: 2010.05.17/outbox.cif.g08.bks.cpg/sg5_23_cif.got.tgz:44986.got - 2010.06.03 18:56:24.
