data_PCOD9125438
_publ_section_title
;
Structure prediction by ZEFSAII (Michael W. Deem and Ramdas Pophale) SiO2 
 PCOD9125438
Probable space group: C 2
;
_chemical_formula_sum "Si O2"
_cell_formula_units_Z 26
_cell_length_a 19.368307
_cell_length_b 9.581663
_cell_length_c 7.863878
_cell_angle_alpha 90.000000
_cell_angle_beta 53.880356
_cell_angle_gamma 90.000000
_cell_volume 1178.871925
_symmetry_space_group_name_H-M "C 2"
_symmetry_group_IT_number 5
_symmetry_cell_setting 'monoclinic'
loop_
_space_group_symop_operation_xyz
x,y,z
-x,y,-z
1/2+x,1/2+y,z
1/2-x,1/2+y,-z
loop_
_atom_site_type_symbol
_atom_site_label
_atom_site_fract_x
_atom_site_fract_y
_atom_site_fract_z
Si Si1 0.000000 0.823990 0.500000
Si Si2 0.283713 0.869114 0.078663
Si Si3 0.869531 0.583438 0.368933
Si Si4 0.837698 0.634030 0.801527
Si Si5 0.407965 0.783739 0.207085
Si Si6 0.306616 0.553389 0.541716
Si Si7 0.061053 0.877220 0.764018
O O1 0.075080 0.723232 0.319864
O O2 0.028999 0.913313 0.620916
O O3 0.239621 0.741211 0.041687
O O4 0.340565 0.803260 0.148603
O O5 0.205449 0.961120 0.271261
O O6 0.336154 0.987514 0.902049
O O7 0.830515 0.598479 0.612650
O O8 0.915181 0.437140 0.276953
O O9 0.789764 0.595634 0.358617
O O10 0.931701 0.711378 0.246881
O O11 0.368347 0.682157 0.408457
O O12 0.500000 0.740818 0.000000
O O13 0.344359 0.439372 0.354673
O O14 0.000000 0.925899 0.000000
#
# Coordination Sequence:
#
# PCOD9125438 Si02
#       7
#     2   4   4   4   4   4   4
#     4  10  24  44  64 104 132 168 236 278 318 426
#     4  11  25  45  66  98 128 180 214 275 338 402
#     4  10  21  41  66  92 127 166 227 269 321 411
#     4  11  24  45  66  96 135 170 224 275 341 389
#     4  11  24  41  65  98 128 168 221 270 332 396
#     4  11  21  44  63  94 132 166 222 271 329 402
#     4  11  23  41  69  95 129 180 220 279 337 391
#
# _framework density 22.054981999999999
#
# number of rings (size 3 to 8) (size 9 to 14) (size 15 to 20)
#    0.000    1.231    4.615    1.846   10.769    1.231 
#    2.769    0.000    0.000    0.000    0.000    0.000 
#    0.000    0.000    0.000    0.000    0.000    0.000 
#
# Total GULP energy -72514.071599 kJ/mol
# GULP energy per Si atom -5578.005508 kJ/mol
# Density = 2.200478 g / cm^3
# Si number density = 22.054982 Si / 1000 Ang^3
#
#
#
# Elastic Constant Matrix: (Units=GPa)
#
#
# Indices 1 2 3 4 5 6 
#
# 1 57.2317 12.9458 3.0770 0.0000 -4.8804 0.0000
# 2 12.9458 108.4327 10.3071 0.0000 0.3600 0.0000
# 3 3.0770 10.3071 71.0267 0.0000 -12.5633 0.0000
# 4 0.0000 0.0000 0.0000 15.1020 0.0000 9.1855
# 5 -4.8804 0.3600 -12.5633 0.0000 16.6897 0.0000
# 6 0.0000 0.0000 0.0000 9.1855 0.0000 8.7345
#
#
#
# Elastic Compliance Matrix: (Units=1/GPa)
#
#
# Indices 1 2 3 4 5 6 
#
# 1 0.018458 -0.002277 0.000570 0.000000 0.005876 0.000000
# 2 -0.002277 0.009661 -0.001682 0.000000 -0.002140 0.000000
# 3 0.000570 -0.001682 0.016536 0.000000 0.012651 0.000000
# 4 0.000000 0.000000 0.000000 0.183751 0.000000 -0.193239
# 5 0.005876 -0.002140 0.012651 0.000000 0.071205 0.000000
# 6 0.000000 0.000000 0.000000 -0.193239 0.000000 0.317706
#
#
# Mechanical properties :
#
#
# Convention : Reuss Voigt Hill
#
# Bulk Modulus (GPa) = 26.40093 32.15009 29.27551
# Shear Modulus (GPa) = 7.85272 22.12933 14.99102
#
# Velocity S-wave (km/s) = 1.88898 3.17104 2.60996
# Velocity P-wave (km/s) = 4.09318 5.29303 4.73130
#
# Compressibility (1/GPa) = 0.03787745
#
# Stress axis : x y z
#
# Youngs Moduli (GPa) = 54.17586 103.50681 60.47320
#
# Poissons Ratio (x) = 0.23573 -0.03448
# Poissons Ratio (y) = 0.12338 0.10171
# Poissons Ratio (z) = -0.03089 0.17409
#
# Static dielectric constant tensor:
#      x y z
#    x 1.850290 0.000000 0.009740 
#    y 0.000000 1.835380 0.000000 
#    z 0.009740 0.000000 1.838050 
# 
# From -- ./inp_files/26789.got.cif
#   From: 2010.05.17/outbox.cif.g08.bks.cpg/sg5_14_cif.got.tgz:26789.got - 2010.06.03 18:56:24.
