data_PCOD9125552
_publ_section_title
;
Structure prediction by ZEFSAII (Michael W. Deem and Ramdas Pophale) SiO2 
 PCOD9125552
Probable space group: C 2
;
_chemical_formula_sum "Si O2"
_cell_formula_units_Z 20
_cell_length_a 12.185043
_cell_length_b 11.423351
_cell_length_c 12.541200
_cell_angle_alpha 90.000000
_cell_angle_beta 151.581872
_cell_angle_gamma 90.000000
_cell_volume 830.763998
_symmetry_space_group_name_H-M "C 2"
_symmetry_group_IT_number 5
_symmetry_cell_setting 'monoclinic'
loop_
_space_group_symop_operation_xyz
x,y,z
-x,y,-z
1/2+x,1/2+y,z
1/2-x,1/2+y,-z
loop_
_atom_site_type_symbol
_atom_site_label
_atom_site_fract_x
_atom_site_fract_y
_atom_site_fract_z
Si Si1 0.465611 0.216250 0.847786
Si Si2 0.057274 0.146836 0.768660
Si Si3 0.263246 0.484035 0.408563
Si Si4 0.402455 0.880587 0.528871
Si Si5 0.223129 0.230649 0.273966
O O1 0.357198 0.331786 0.704873
O O2 0.307516 0.101220 0.712021
O O3 0.500000 0.244503 0.000000
O O4 0.687239 0.170797 0.973839
O O5 0.009088 0.024633 0.668505
O O6 0.027535 0.258846 0.665303
O O7 0.096266 0.461633 0.367477
O O8 0.242883 0.368179 0.321831
O O9 0.500000 0.924118 0.500000
O O10 0.371662 0.662602 0.703096
O O11 0.500000 0.197430 0.500000
O O12 0.000000 0.217706 0.000000
#
# Coordination Sequence:
#
# PCOD9125552 Si02
#       5
#     4   4   4   4   4
#     4  11  22  40  69  92 127 173 222 273 332 396
#     4  10  24  43  65  96 132 174 223 275 333 402
#     4  10  25  39  67  98 131 167 234 273 331 398
#     4  10  21  42  63  92 131 170 214 272 337 391
#     4  11  27  46  70  98 139 180 225 279 343 397
#
# _framework density 24.074228000000002
#
# number of rings (size 3 to 8) (size 9 to 14) (size 15 to 20)
#    0.000    1.600    2.000    0.600   14.000    2.400 
#    0.000    0.000    0.000    0.000    0.000    0.000 
#    0.000    0.000    0.000    0.000    0.000    0.000 
#
# Total GULP energy -55714.523847 kJ/mol
# GULP energy per Si atom -5571.452385 kJ/mol
# Density = 2.401943 g / cm^3
# Si number density = 24.074228 Si / 1000 Ang^3
#
#
#
# Elastic Constant Matrix: (Units=GPa)
#
#
# Indices 1 2 3 4 5 6 
#
# 1 104.0542 -10.3109 37.5715 -0.0012 25.6647 -0.0005
# 2 -10.3109 60.1666 21.3685 -0.0039 -9.8055 -0.0018
# 3 37.5715 21.3685 101.8846 -0.0016 18.3591 0.0003
# 4 -0.0012 -0.0039 -0.0016 21.4326 0.0000 -5.7693
# 5 25.6647 -9.8055 18.3591 0.0000 44.3257 0.0002
# 6 -0.0005 -0.0018 0.0003 -5.7693 0.0002 6.0171
#
#
#
# Elastic Compliance Matrix: (Units=1/GPa)
#
#
# Indices 1 2 3 4 5 6 
#
# 1 0.012702 0.002956 -0.004427 0.000002 -0.004867 0.000004
# 2 0.002956 0.020243 -0.006305 0.000007 0.005378 0.000013
# 3 -0.004427 -0.006305 0.013572 -0.000002 -0.004453 -0.000004
# 4 0.000002 0.000007 -0.000002 0.062890 0.000001 0.060301
# 5 -0.004867 0.005378 -0.004453 0.000001 0.028412 0.000001
# 6 0.000004 0.000013 -0.000004 0.060301 0.000001 0.224012
#
#
# Mechanical properties :
#
#
# Convention : Reuss Voigt Hill
#
# Bulk Modulus (GPa) = 32.29395 40.37373 36.33384
# Shear Modulus (GPa) = 12.89640 28.85351 20.87495
#
# Velocity S-wave (km/s) = 2.31702 3.46572 2.94786
# Velocity P-wave (km/s) = 4.53889 5.72904 5.16834
#
# Compressibility (1/GPa) = 0.03096555
#
# Stress axis : x y z
#
# Youngs Moduli (GPa) = 78.72620 49.40073 73.67985
#
# Poissons Ratio (x) = -0.14602 0.32619
# Poissons Ratio (y) = -0.23271 0.46452
# Poissons Ratio (z) = 0.34853 0.31145
#
# Static dielectric constant tensor:
#      x y z
#    x 1.952100 0.000000 0.078960 
#    y 0.000000 1.841200 0.000000 
#    z 0.078960 0.000000 2.226680 
# 
# From -- ./inp_files/40095.got.cif
#   From: 2010.05.17/outbox.cif.g08.bks.cpg/sg5_21_cif.got.tgz:40095.got - 2010.06.03 18:56:24.
