data_PCOD9125471
_publ_section_title
;
Structure prediction by ZEFSAII (Michael W. Deem and Ramdas Pophale) SiO2 
 PCOD9125471
Probable space group: C 2
;
_chemical_formula_sum "Si O2"
_cell_formula_units_Z 26
_cell_length_a 20.683985
_cell_length_b 5.572632
_cell_length_c 10.364742
_cell_angle_alpha 90.000000
_cell_angle_beta 57.419224
_cell_angle_gamma 90.000000
_cell_volume 1006.680369
_symmetry_space_group_name_H-M "C 2"
_symmetry_group_IT_number 5
_symmetry_cell_setting 'monoclinic'
loop_
_space_group_symop_operation_xyz
x,y,z
-x,y,-z
1/2+x,1/2+y,z
1/2-x,1/2+y,-z
loop_
_atom_site_type_symbol
_atom_site_label
_atom_site_fract_x
_atom_site_fract_y
_atom_site_fract_z
Si Si1 0.143921 0.880960 0.717057
Si Si2 0.774450 0.214329 0.041366
Si Si3 0.573854 0.029926 0.602874
Si Si4 0.200895 0.167223 0.406132
Si Si5 0.424265 0.005665 0.869040
Si Si6 0.134363 0.801560 0.309688
Si Si7 0.000000 0.847530 0.000000
O O1 0.089081 0.688028 0.710146
O O2 0.212107 0.741201 0.717764
O O3 0.073009 0.011250 0.868188
O O4 0.188831 0.996723 0.545311
O O5 0.722398 0.200540 0.225892
O O6 0.737798 0.453248 0.009631
O O7 0.860666 0.305136 0.965187
O O8 0.496664 0.888707 0.715901
O O9 0.575774 0.201127 0.477558
O O10 0.650267 0.885113 0.504934
O O11 0.346744 0.571185 0.667210
O O12 0.393739 0.199005 0.795715
O O13 0.450496 0.166988 0.960745
#
# Coordination Sequence:
#
# PCOD9125471 Si02
#       7
#     4   4   4   4   4   4   2
#     4  10  21  41  67  99 135 177 233 290 351 443
#     4  10  23  45  72 103 145 192 239 304 368 438
#     4  10  22  42  67 101 137 181 232 295 366 422
#     4  11  21  40  71 100 137 185 233 293 359 437
#     4  10  22  46  66 101 142 182 243 301 363 445
#     4  10  23  41  68 101 134 185 237 289 361 436
#     4  10  22  44  70  92 144 184 230 306 366 422
#
# _framework density 25.827463000000002
#
# number of rings (size 3 to 8) (size 9 to 14) (size 15 to 20)
#    0.000    1.846    1.538    1.385    4.308    0.000 
#   19.385    3.077    0.000    0.000    0.000    0.000 
#    0.000    0.000    0.000    0.000    0.000    0.000 
#
# Total GULP energy -72389.526681 kJ/mol
# GULP energy per Si atom -5568.425129 kJ/mol
# Density = 2.576868 g / cm^3
# Si number density = 25.827463 Si / 1000 Ang^3
#
#
#
# Elastic Constant Matrix: (Units=GPa)
#
#
# Indices 1 2 3 4 5 6 
#
# 1 131.1807 25.1029 56.2381 0.0000 -17.3613 0.0000
# 2 25.1029 52.6765 3.5604 0.0000 6.2663 0.0000
# 3 56.2381 3.5604 94.6443 0.0000 -46.9005 0.0000
# 4 0.0000 0.0000 0.0000 2.5701 0.0000 -12.0636
# 5 -17.3613 6.2663 -46.9005 0.0000 66.0895 0.0000
# 6 0.0000 0.0000 0.0000 -12.0636 0.0000 17.2101
#
#
#
# Elastic Compliance Matrix: (Units=1/GPa)
#
#
# Indices 1 2 3 4 5 6 
#
# 1 0.011556 -0.004759 -0.007650 0.000000 -0.001942 0.000000
# 2 -0.004759 0.021553 0.000594 0.000000 -0.002872 0.000000
# 3 -0.007650 0.000594 0.021695 0.000000 0.013330 0.000000
# 4 0.000000 0.000000 0.000000 -0.169896 0.000000 -0.119090
# 5 -0.001942 -0.002872 0.013330 0.000000 0.024353 0.000000
# 6 0.000000 0.000000 0.000000 -0.119090 0.000000 -0.025372
#
#
# Mechanical properties :
#
#
# Convention : Reuss Voigt Hill
#
# Bulk Modulus (GPa) = 32.07872 49.81159 40.94516
# Shear Modulus (GPa) = -60.90975 30.08063 -15.41456
#
# Velocity S-wave (km/s) = -4.86154 3.41644 -2.44566
# Velocity P-wave (km/s) = 4.36639 5.90685 2.81296
#
# Compressibility (1/GPa) = 0.03117331
#
# Stress axis : x y z
#
# Youngs Moduli (GPa) = 86.53162 46.39658 46.09383
#
# Poissons Ratio (x) = 0.22081 0.35263
# Poissons Ratio (y) = 0.41181 -0.02736
# Poissons Ratio (z) = 0.66198 -0.02754
#
# Static dielectric constant tensor:
#      x y z
#    x 2.116470 0.000000 0.121780 
#    y 0.000000 2.151870 0.000000 
#    z 0.121780 0.000000 2.539220 
# 
# From -- ./inp_files/45404.got.cif
#   From: 2010.05.17/outbox.cif.g08.bks.cpg/sg5_23_cif.got.tgz:45404.got - 2010.06.03 18:56:24.
