data_PCOD9125568
_publ_section_title
;
Structure prediction by ZEFSAII (Michael W. Deem and Ramdas Pophale) SiO2 
 PCOD9125568
Probable space group: C 2
;
_chemical_formula_sum "Si O2"
_cell_formula_units_Z 32
_cell_length_a 13.059874
_cell_length_b 12.460677
_cell_length_c 14.623723
_cell_angle_alpha 90.000000
_cell_angle_beta 140.437013
_cell_angle_gamma 90.000000
_cell_volume 1515.750177
_symmetry_space_group_name_H-M "C 2"
_symmetry_group_IT_number 5
_symmetry_cell_setting 'monoclinic'
loop_
_space_group_symop_operation_xyz
x,y,z
-x,y,-z
1/2+x,1/2+y,z
1/2-x,1/2+y,-z
loop_
_atom_site_type_symbol
_atom_site_label
_atom_site_fract_x
_atom_site_fract_y
_atom_site_fract_z
Si Si1 0.770335 0.698190 0.523041
Si Si2 0.253828 0.962294 0.006951
Si Si3 0.110136 0.901232 0.286553
Si Si4 0.181717 0.031474 0.619966
Si Si5 0.065012 0.360761 0.282627
Si Si6 0.811034 0.634528 0.894073
Si Si7 0.308814 0.372487 0.860009
Si Si8 0.908769 0.512652 0.532359
O O1 0.852231 0.802604 0.623021
O O2 0.697378 0.627853 0.556372
O O3 0.640489 0.745677 0.360906
O O4 0.916320 0.628789 0.582227
O O5 0.079395 0.918760 0.855204
O O6 0.289217 0.067252 0.971933
O O7 0.407483 0.881394 0.110979
O O8 0.233493 0.971507 0.102924
O O9 0.206476 0.879924 0.258343
O O10 0.213314 0.001098 0.393574
O O11 0.229340 0.075529 0.752372
O O12 0.000000 0.992641 0.500000
O O13 0.299496 0.936417 0.669933
O O14 0.035448 0.417457 0.361964
O O15 0.748106 0.757043 0.854576
O O16 0.000000 0.637719 0.000000
O O17 0.500000 0.365572 0.000000
O O18 0.000000 0.508606 0.500000
#
# Coordination Sequence:
#
# PCOD9125568 Si02
#       8
#     4   4   4   4   4   4   4   4
#     4  10  23  41  61  93 123 167 215 257 309 375
#     4  11  23  37  65  95 126 161 200 263 317 369
#     4  10  21  42  64  93 122 163 215 257 307 376
#     4  11  24  40  65  94 120 168 212 263 310 366
#     4  10  23  41  61  91 130 158 210 260 318 370
#     4  11  22  41  64  90 128 163 211 257 312 372
#     4   9  20  37  62  89 120 161 204 251 304 368
#     4  10  22  40  63  89 125 166 206 263 313 369
#
# _framework density 21.111657000000001
#
# number of rings (size 3 to 8) (size 9 to 14) (size 15 to 20)
#    0.000    1.750    2.500    0.750    7.000    2.500 
#    0.000    0.000    0.000    0.750    0.000    0.000 
#    0.000    0.000    0.000    0.000    0.000    0.000 
#
# Total GULP energy -89160.968565 kJ/mol
# GULP energy per Si atom -5572.560535 kJ/mol
# Density = 2.106361 g / cm^3
# Si number density = 21.111657 Si / 1000 Ang^3
#
#
#
# Elastic Constant Matrix: (Units=GPa)
#
#
# Indices 1 2 3 4 5 6 
#
# 1 91.8315 39.6246 22.9484 0.0000 -1.3887 0.0000
# 2 39.6246 85.6005 15.7524 0.0000 -15.5627 0.0000
# 3 22.9484 15.7524 86.1785 0.0000 16.2595 0.0000
# 4 0.0000 0.0000 0.0000 20.8969 0.0000 -8.5200
# 5 -1.3887 -15.5627 16.2595 0.0000 42.2701 0.0000
# 6 0.0000 0.0000 0.0000 -8.5200 0.0000 22.0573
#
#
#
# Elastic Compliance Matrix: (Units=1/GPa)
#
#
# Indices 1 2 3 4 5 6 
#
# 1 0.014204 -0.006285 -0.002464 0.000000 -0.000900 0.000000
# 2 -0.006285 0.016302 -0.002587 0.000000 0.006791 0.000000
# 3 -0.002464 -0.002587 0.013939 0.000000 -0.006396 0.000000
# 4 0.000000 0.000000 0.000000 0.056799 0.000000 0.021939
# 5 -0.000900 0.006791 -0.006396 0.000000 0.028588 0.000000
# 6 0.000000 0.000000 0.000000 0.021939 0.000000 0.053811
#
#
# Mechanical properties :
#
#
# Convention : Reuss Voigt Hill
#
# Bulk Modulus (GPa) = 45.92858 46.69572 46.31215
# Shear Modulus (GPa) = 23.41117 29.39720 26.40419
#
# Velocity S-wave (km/s) = 3.33366 3.73562 3.54035
# Velocity P-wave (km/s) = 6.05145 6.38537 6.22065
#
# Compressibility (1/GPa) = 0.02177294
#
# Stress axis : x y z
#
# Youngs Moduli (GPa) = 70.40514 61.34100 71.73866
#
# Poissons Ratio (x) = 0.38553 0.17674
# Poissons Ratio (y) = 0.44250 0.18562
# Poissons Ratio (z) = 0.17345 0.15872
#
# Static dielectric constant tensor:
#      x y z
#    x 1.842020 0.000000 0.022000 
#    y 0.000000 1.740510 0.000000 
#    z 0.022000 0.000000 1.855400 
# 
# From -- ./inp_files/54598.got.cif
#   From: 2010.05.17/outbox.cif.g08.bks.cpg/sg5_28_cif.got.tgz:54598.got - 2010.06.03 18:56:24.
