data_PCOD9125278
_publ_section_title
;
Structure prediction by ZEFSAII (Michael W. Deem and Ramdas Pophale) SiO2 
 PCOD9125278
Probable space group: C 2
;
_chemical_formula_sum "Si O2"
_cell_formula_units_Z 26
_cell_length_a 16.223155
_cell_length_b 10.610529
_cell_length_c 22.111812
_cell_angle_alpha 90.000000
_cell_angle_beta 162.822094
_cell_angle_gamma 90.000000
_cell_volume 1124.134971
_symmetry_space_group_name_H-M "C 2"
_symmetry_group_IT_number 5
_symmetry_cell_setting 'monoclinic'
loop_
_space_group_symop_operation_xyz
x,y,z
-x,y,-z
1/2+x,1/2+y,z
1/2-x,1/2+y,-z
loop_
_atom_site_type_symbol
_atom_site_label
_atom_site_fract_x
_atom_site_fract_y
_atom_site_fract_z
Si Si1 0.378312 0.491090 0.656488
Si Si2 0.304171 0.139008 0.705378
Si Si3 0.503787 0.936436 0.067499
Si Si4 0.374387 0.751422 0.130828
Si Si5 0.984708 0.519984 0.266725
Si Si6 0.934895 0.170873 0.868701
Si Si7 0.500000 0.996813 0.500000
O O1 0.463122 0.638813 0.721731
O O2 0.172398 0.485668 0.455548
O O3 0.230222 0.442919 0.614323
O O4 0.677483 0.424254 0.857006
O O5 0.000000 0.193476 0.500000
O O6 0.333169 0.012353 0.766693
O O7 0.361928 0.105604 0.676128
O O8 0.547200 0.223265 0.903250
O O9 0.646271 0.800788 0.156082
O O10 0.500000 0.005691 0.000000
O O11 0.425769 0.889134 0.191359
O O12 0.464578 0.726837 0.125358
O O13 0.694215 0.592262 0.077668
O O14 0.681298 0.080954 0.673932
#
# Coordination Sequence:
#
# PCOD9125278 Si02
#       7
#     4   4   4   4   4   4   2
#     4  10  24  41  68  97 129 173 219 271 326 384
#     4  10  21  40  67  97 127 170 219 263 325 381
#     4  11  23  39  69  99 133 166 220 275 323 385
#     4   9  21  43  62  93 134 169 213 272 318 390
#     4  11  22  41  67  92 136 172 214 267 330 383
#     4  10  23  39  66  98 127 173 216 267 330 384
#     4  10  24  44  62  92 136 166 218 268 318 394
#
# _framework density 23.128895
#
# number of rings (size 3 to 8) (size 9 to 14) (size 15 to 20)
#    0.000    1.846    1.538    1.846    5.385    1.231 
#    1.385    0.000   16.923    0.000    0.000    0.000 
#    0.000    0.000    0.000    0.000    0.000    0.000 
#
# Total GULP energy -72670.470397 kJ/mol
# GULP energy per Si atom -5590.036184 kJ/mol
# Density = 2.307625 g / cm^3
# Si number density = 23.128895 Si / 1000 Ang^3
#
#
#
# Elastic Constant Matrix: (Units=GPa)
#
#
# Indices 1 2 3 4 5 6 
#
# 1 84.0821 -6.5718 20.9768 -0.0291 10.9809 0.0254
# 2 -6.5718 52.0623 0.4048 0.1351 5.6714 -0.0047
# 3 20.9768 0.4048 94.2630 0.1748 11.6121 0.0227
# 4 -0.0291 0.1351 0.1748 19.8564 0.0069 -4.5537
# 5 10.9809 5.6714 11.6121 0.0069 41.9274 -0.0197
# 6 0.0254 -0.0047 0.0227 -4.5537 -0.0197 23.1857
#
#
#
# Elastic Compliance Matrix: (Units=1/GPa)
#
#
# Indices 1 2 3 4 5 6 
#
# 1 0.013076 0.001996 -0.002550 0.000027 -0.002988 -0.000009
# 2 0.001996 0.019806 -0.000139 -0.000136 -0.003163 -0.000027
# 3 -0.002550 -0.000139 0.011484 -0.000110 -0.002494 -0.000032
# 4 0.000027 -0.000136 -0.000110 0.052739 0.000038 0.010358
# 5 -0.002988 -0.003163 -0.002494 0.000038 0.025752 0.000034
# 6 -0.000009 -0.000027 -0.000032 0.010358 0.000034 0.045164
#
#
# Mechanical properties :
#
#
# Convention : Reuss Voigt Hill
#
# Bulk Modulus (GPa) = 23.26769 28.89187 26.07978
# Shear Modulus (GPa) = 27.21320 31.36708 29.29014
#
# Velocity S-wave (km/s) = 3.43387 3.68664 3.56249
# Velocity P-wave (km/s) = 5.07974 5.53539 5.31245
#
# Compressibility (1/GPa) = 0.04297804
#
# Stress axis : x y z
#
# Youngs Moduli (GPa) = 76.47806 50.49050 87.07639
#
# Poissons Ratio (x) = -0.10077 0.22207
# Poissons Ratio (y) = -0.15264 0.01213
# Poissons Ratio (z) = 0.19504 0.00703
#
# Static dielectric constant tensor:
#      x y z
#    x 1.904050 -0.000010 0.005670 
#    y -0.000010 1.919150 -0.000050 
#    z 0.005670 -0.000050 1.837070 
# 
# From -- ./inp_files/23522.got.cif
#   From: 2010.05.17/outbox.cif.g08.bks.cpg/sg5_12_cif.got.tgz:23522.got - 2010.06.03 18:56:24.
