data_PCOD9125846
_publ_section_title
;
Structure prediction by ZEFSAII (Michael W. Deem and Ramdas Pophale) SiO2 
 PCOD9125846
Probable space group: C 2
;
_chemical_formula_sum "Si O2"
_cell_formula_units_Z 24
_cell_length_a 24.747567
_cell_length_b 4.777350
_cell_length_c 18.309050
_cell_angle_alpha 90.000000
_cell_angle_beta 155.236181
_cell_angle_gamma 90.000000
_cell_volume 906.721087
_symmetry_space_group_name_H-M "C 2"
_symmetry_group_IT_number 5
_symmetry_cell_setting 'monoclinic'
loop_
_space_group_symop_operation_xyz
x,y,z
-x,y,-z
1/2+x,1/2+y,z
1/2-x,1/2+y,-z
loop_
_atom_site_type_symbol
_atom_site_label
_atom_site_fract_x
_atom_site_fract_y
_atom_site_fract_z
Si Si1 0.623001 0.985150 0.112773
Si Si2 0.234197 0.172458 0.028847
Si Si3 0.440504 0.523801 0.811045
Si Si4 0.524175 0.995959 0.244485
Si Si5 0.857436 0.833070 0.325852
Si Si6 0.196936 0.630035 0.589245
O O1 0.736412 0.043056 0.193011
O O2 0.719653 0.910220 0.297538
O O3 0.500000 0.131930 0.000000
O O4 0.552338 0.703724 0.990715
O O5 0.287300 0.364391 0.028204
O O6 0.327267 0.187399 0.212277
O O7 0.101961 0.321191 0.889119
O O8 0.992636 0.747968 0.834289
O O9 0.316078 0.450327 0.706134
O O10 0.392145 0.751090 0.691435
O O11 0.587868 0.115700 0.395559
O O12 0.853816 0.614536 0.389933
O O13 0.000000 0.961472 0.500000
#
# Coordination Sequence:
#
# PCOD9125846 Si02
#       6
#     4   4   4   4   4   4
#     4   8  18  41  66  99 138 179 229 284 344 409
#     4  12  27  47  70  97 136 188 235 284 348 414
#     4  11  22  43  69 102 137 181 225 281 345 410
#     4  12  23  43  69 102 139 178 229 285 343 407
#     4  10  21  44  70 100 139 184 231 287 344 411
#     4   9  21  40  68 102 138 177 231 282 342 409
#
# _framework density 26.469000999999999
#
# number of rings (size 3 to 8) (size 9 to 14) (size 15 to 20)
#    1.000    0.667    1.667    3.000    0.000    0.000 
#    0.000   23.333    0.000    0.000    0.000    0.000 
#    0.000    0.000    0.000    0.000    0.000    0.000 
#
# Total GULP energy -66923.404613 kJ/mol
# GULP energy per Si atom -5576.950384 kJ/mol
# Density = 2.640876 g / cm^3
# Si number density = 26.469001 Si / 1000 Ang^3
#
#
#
# Elastic Constant Matrix: (Units=GPa)
#
#
# Indices 1 2 3 4 5 6 
#
# 1 117.4993 11.4576 45.4746 0.0032 3.9657 -0.0003
# 2 11.4576 99.1597 -1.5435 0.0077 -0.8598 -0.0029
# 3 45.4746 -1.5435 144.7761 0.0024 1.9505 -0.0006
# 4 0.0032 0.0077 0.0024 27.3275 -0.0012 2.7101
# 5 3.9657 -0.8598 1.9505 -0.0012 49.2579 0.0003
# 6 -0.0003 -0.0029 -0.0006 2.7101 0.0003 7.9807
#
#
#
# Elastic Compliance Matrix: (Units=1/GPa)
#
#
# Indices 1 2 3 4 5 6 
#
# 1 0.009849 -0.001192 -0.003097 -0.000001 -0.000691 0.000000
# 2 -0.001192 0.010232 0.000480 -0.000003 0.000256 0.000005
# 3 -0.003097 0.000480 0.007886 -0.000001 -0.000055 0.000001
# 4 -0.000001 -0.000003 -0.000001 0.037868 0.000001 -0.012859
# 5 -0.000691 0.000256 -0.000055 0.000001 0.020364 -0.000001
# 6 0.000000 0.000005 0.000001 -0.012859 -0.000001 0.129669
#
#
# Mechanical properties :
#
#
# Convention : Reuss Voigt Hill
#
# Bulk Modulus (GPa) = 49.14296 52.46806 50.80551
# Shear Modulus (GPa) = 21.71372 37.31631 29.51502
#
# Velocity S-wave (km/s) = 2.86727 3.75882 3.34290
# Velocity P-wave (km/s) = 5.43767 6.22124 5.84260
#
# Compressibility (1/GPa) = 0.02034879
#
# Stress axis : x y z
#
# Youngs Moduli (GPa) = 101.53471 97.73081 126.80970
#
# Poissons Ratio (x) = 0.11652 0.39272
# Poissons Ratio (y) = 0.12105 -0.06088
# Poissons Ratio (z) = 0.31445 -0.04692
#
# Static dielectric constant tensor:
#      x y z
#    x 2.252630 0.000000 0.014630 
#    y 0.000000 2.093970 0.000000 
#    z 0.014630 0.000000 2.045990 
# 
# From -- ./inp_files/67493.got.cif
#   From: 2010.05.17/outbox.cif.g08.bks.cpg/sg5_34_cif.got.tgz:67493.got - 2010.06.03 18:56:24.
