data_PCOD9125398
_publ_section_title
;
Structure prediction by ZEFSAII (Michael W. Deem and Ramdas Pophale) SiO2 
 PCOD9125398
Probable space group: C 2
;
_chemical_formula_sum "Si O2"
_cell_formula_units_Z 20
_cell_length_a 7.999076
_cell_length_b 22.456017
_cell_length_c 5.412648
_cell_angle_alpha 90.000000
_cell_angle_beta 59.320914
_cell_angle_gamma 90.000000
_cell_volume 836.180943
_symmetry_space_group_name_H-M "C 2"
_symmetry_group_IT_number 5
_symmetry_cell_setting 'monoclinic'
loop_
_space_group_symop_operation_xyz
x,y,z
-x,y,-z
1/2+x,1/2+y,z
1/2-x,1/2+y,-z
loop_
_atom_site_type_symbol
_atom_site_label
_atom_site_fract_x
_atom_site_fract_y
_atom_site_fract_z
Si Si1 0.875047 0.626160 0.844100
Si Si2 0.780153 0.950909 0.421408
Si Si3 0.735554 0.815090 0.346707
Si Si4 0.268869 0.756918 0.154927
Si Si5 0.280328 0.500736 0.927135
O O1 0.769306 0.688687 0.883075
O O2 0.000000 0.614182 0.500000
O O3 0.735329 0.570405 0.005058
O O4 0.000000 0.631434 0.000000
O O5 0.789332 0.879895 0.410013
O O6 0.694142 0.980737 0.730574
O O7 0.997758 0.978063 0.249605
O O8 0.687800 0.968008 0.230434
O O9 0.500000 0.813351 0.500000
O O10 0.802617 0.770300 0.512896
O O11 0.803924 0.798120 0.018265
O O12 0.500000 0.767095 0.000000
#
# Coordination Sequence:
#
# PCOD9125398 Si02
#       5
#     4   4   4   4   4
#     4  12  26  46  66 103 140 177 236 286 333 399
#     4  10  21  41  65 101 129 179 225 273 342 405
#     4  10  21  41  67 101 138 173 227 281 338 407
#     4  10  23  44  69  98 135 187 221 275 344 404
#     4  10  23  41  63  97 133 180 222 277 340 395
#
# _framework density 23.918265000000002
#
# number of rings (size 3 to 8) (size 9 to 14) (size 15 to 20)
#    0.000    1.600    0.000    3.600    2.800    2.400 
#   28.800    0.000    0.000    0.000    0.000    0.000 
#    0.000    0.000    0.000    0.000    0.000    0.000 
#
# Total GULP energy -55946.626401 kJ/mol
# GULP energy per Si atom -5594.662640 kJ/mol
# Density = 2.386383 g / cm^3
# Si number density = 23.918265 Si / 1000 Ang^3
#
#
#
# Elastic Constant Matrix: (Units=GPa)
#
#
# Indices 1 2 3 4 5 6 
#
# 1 100.8250 13.4015 50.4186 0.0000 26.6607 0.0000
# 2 13.4015 144.0553 29.7549 0.0000 34.0185 0.0000
# 3 50.4186 29.7549 184.0723 0.0000 44.3133 0.0000
# 4 0.0000 0.0000 0.0000 57.9997 0.0000 -13.7654
# 5 26.6607 34.0185 44.3133 0.0000 45.8925 0.0000
# 6 0.0000 0.0000 0.0000 -13.7654 0.0000 68.0129
#
#
#
# Elastic Compliance Matrix: (Units=1/GPa)
#
#
# Indices 1 2 3 4 5 6 
#
# 1 0.012385 0.000607 -0.002150 0.000000 -0.005569 0.000000
# 2 0.000607 0.008449 0.000079 0.000000 -0.006692 0.000000
# 3 -0.002150 0.000079 0.007455 0.000000 -0.006008 0.000000
# 4 0.000000 0.000000 0.000000 0.018111 0.000000 0.003666
# 5 -0.005569 -0.006692 -0.006008 0.000000 0.035787 0.000000
# 6 0.000000 0.000000 0.000000 0.003666 0.000000 0.015445
#
#
# Mechanical properties :
#
#
# Convention : Reuss Voigt Hill
#
# Bulk Modulus (GPa) = 39.42917 68.45584 53.94250
# Shear Modulus (GPa) = 45.86520 56.73953 51.30236
#
# Velocity S-wave (km/s) = 4.38377 4.87583 4.63633
# Velocity P-wave (km/s) = 6.49184 7.77054 7.15979
#
# Compressibility (1/GPa) = 0.02536194
#
# Stress axis : x y z
#
# Youngs Moduli (GPa) = 80.74192 118.35262 134.13571
#
# Poissons Ratio (x) = -0.07184 0.28836
# Poissons Ratio (y) = -0.04901 -0.01059
# Poissons Ratio (z) = 0.17358 -0.00935
#
# Static dielectric constant tensor:
#      x y z
#    x 1.913170 0.000000 0.007750 
#    y 0.000000 1.841320 0.000000 
#    z 0.007750 0.000000 1.753870 
# 
# From -- ./inp_files/2796.got.cif
#   From: 2010.05.17/outbox.cif.g08.bks.cpg/sg5_2_cif.got.tgz:2796.got - 2010.06.03 18:56:24.
