data_PCOD9125559
_publ_section_title
;
Structure prediction by ZEFSAII (Michael W. Deem and Ramdas Pophale) SiO2 
 PCOD9125559
Probable space group: C 2
;
_chemical_formula_sum "Si O2"
_cell_formula_units_Z 24
_cell_length_a 13.504499
_cell_length_b 8.085286
_cell_length_c 8.581919
_cell_angle_alpha 90.000000
_cell_angle_beta 90.506333
_cell_angle_gamma 90.000000
_cell_volume 937.003723
_symmetry_space_group_name_H-M "C 2"
_symmetry_group_IT_number 5
_symmetry_cell_setting 'monoclinic'
loop_
_space_group_symop_operation_xyz
x,y,z
-x,y,-z
1/2+x,1/2+y,z
1/2-x,1/2+y,-z
loop_
_atom_site_type_symbol
_atom_site_label
_atom_site_fract_x
_atom_site_fract_y
_atom_site_fract_z
Si Si1 0.478385 0.825220 0.180730
Si Si2 0.723871 0.008134 0.825573
Si Si3 0.455196 0.497443 0.345385
Si Si4 0.277142 0.686950 0.505523
Si Si5 0.829966 0.854312 0.083361
Si Si6 0.658837 0.996379 0.306264
O O1 0.362761 0.872507 0.192437
O O2 0.507741 0.662395 0.279712
O O3 0.548089 0.971682 0.244343
O O4 0.500000 0.794852 0.000000
O O5 0.748063 0.098581 0.665620
O O6 0.681364 0.159113 0.928217
O O7 0.819570 0.936433 0.914801
O O8 0.500000 0.414419 0.500000
O O9 0.356648 0.576472 0.418282
O O10 0.422500 0.393781 0.195219
O O11 0.320953 0.862755 0.554841
O O12 0.185921 0.672775 0.382626
O O13 0.734212 0.931050 0.173708
#
# Coordination Sequence:
#
# PCOD9125559 Si02
#       6
#     4   4   4   4   4   4
#     4  12  24  43  69  99 132 175 224 276 329 395
#     4  11  23  42  67  97 133 176 223 271 335 394
#     4  11  23  41  67  95 131 173 223 275 327 388
#     4  10  22  40  64  96 125 174 218 266 330 394
#     4  10  23  42  65  92 134 175 217 274 331 401
#     4  10  21  42  63  95 128 171 220 271 331 389
#
# _framework density 25.613557
#
# number of rings (size 3 to 8) (size 9 to 14) (size 15 to 20)
#    0.000    1.333    3.333    2.000    2.333    1.333 
#    9.000    0.833    0.000    0.000    0.000    0.000 
#    0.000    0.000    0.000    0.000    0.000    0.000 
#
# Total GULP energy -67139.038389 kJ/mol
# GULP energy per Si atom -5594.919866 kJ/mol
# Density = 2.555526 g / cm^3
# Si number density = 25.613557 Si / 1000 Ang^3
#
#
#
# Elastic Constant Matrix: (Units=GPa)
#
#
# Indices 1 2 3 4 5 6 
#
# 1 62.2614 2.3822 25.6691 0.0000 20.6344 0.0000
# 2 2.3822 57.4127 29.0206 0.0000 17.0991 0.0000
# 3 25.6691 29.0206 115.0604 0.0000 35.7742 0.0000
# 4 0.0000 0.0000 0.0000 40.9176 0.0000 11.4846
# 5 20.6344 17.0991 35.7742 0.0000 47.6998 0.0000
# 6 0.0000 0.0000 0.0000 11.4846 0.0000 33.8731
#
#
#
# Elastic Compliance Matrix: (Units=1/GPa)
#
#
# Indices 1 2 3 4 5 6 
#
# 1 0.019540 0.002785 -0.002769 0.000000 -0.007375 0.000000
# 2 0.002785 0.021097 -0.004195 0.000000 -0.005622 0.000000
# 3 -0.002769 -0.004195 0.012424 0.000000 -0.006616 0.000000
# 4 0.000000 0.000000 0.000000 0.027010 0.000000 -0.009158
# 5 -0.007375 -0.005622 -0.006616 0.000000 0.031132 0.000000
# 6 0.000000 0.000000 0.000000 -0.009158 0.000000 0.032627
#
#
# Mechanical properties :
#
#
# Convention : Reuss Voigt Hill
#
# Bulk Modulus (GPa) = 22.36900 38.76425 30.56662
# Shear Modulus (GPa) = 29.92446 36.34228 33.13337
#
# Velocity S-wave (km/s) = 3.42176 3.77087 3.60055
# Velocity P-wave (km/s) = 4.93593 5.84178 5.40786
#
# Compressibility (1/GPa) = 0.04470473
#
# Stress axis : x y z
#
# Youngs Moduli (GPa) = 51.17593 47.40085 80.49014
#
# Poissons Ratio (x) = -0.13202 0.22287
# Poissons Ratio (y) = -0.14254 0.33762
# Poissons Ratio (z) = 0.14170 0.19882
#
# Static dielectric constant tensor:
#      x y z
#    x 2.074610 0.000000 0.050510 
#    y 0.000000 2.029290 0.000000 
#    z 0.050510 0.000000 2.068640 
# 
# From -- ./inp_files/22863.got.cif
#   From: 2010.05.17/outbox.cif.g08.bks.cpg/sg5_12_cif.got.tgz:22863.got - 2010.06.03 18:56:24.
