data_PCOD9125334
_publ_section_title
;
Structure prediction by ZEFSAII (Michael W. Deem and Ramdas Pophale) SiO2 
 PCOD9125334
Probable space group: C 2
;
_chemical_formula_sum "Si O2"
_cell_formula_units_Z 30
_cell_length_a 10.739150
_cell_length_b 8.639855
_cell_length_c 16.156187
_cell_angle_alpha 90.000000
_cell_angle_beta 61.796088
_cell_angle_gamma 90.000000
_cell_volume 1321.066878
_symmetry_space_group_name_H-M "C 2"
_symmetry_group_IT_number 5
_symmetry_cell_setting 'monoclinic'
loop_
_space_group_symop_operation_xyz
x,y,z
-x,y,-z
1/2+x,1/2+y,z
1/2-x,1/2+y,-z
loop_
_atom_site_type_symbol
_atom_site_label
_atom_site_fract_x
_atom_site_fract_y
_atom_site_fract_z
Si Si1 0.000000 0.674630 0.500000
Si Si2 0.004224 0.206555 0.700933
Si Si3 0.561108 0.355171 0.644117
Si Si4 0.237270 0.297608 0.980540
Si Si5 0.333780 0.135270 0.796934
Si Si6 0.742947 0.089846 0.887740
Si Si7 0.672921 0.924547 0.348236
Si Si8 0.467570 0.907861 0.163755
O O1 0.936994 0.782007 0.447520
O O2 0.883405 0.558502 0.573791
O O3 0.960372 0.323915 0.641907
O O4 0.092737 0.291087 0.746668
O O5 0.858334 0.170798 0.794997
O O6 0.053327 0.041579 0.651410
O O7 0.422997 0.276400 0.729010
O O8 0.704955 0.321588 0.649488
O O9 0.230210 0.195635 0.899972
O O10 0.305181 0.458189 0.929312
O O11 0.084187 0.329966 0.067722
O O12 0.320951 0.212334 0.027573
O O13 0.270708 0.018653 0.749347
O O14 0.449550 0.033832 0.808444
O O15 0.639185 0.998897 0.860488
#
# Coordination Sequence:
#
# PCOD9125334 Si02
#       8
#     2   4   4   4   4   4   4   4
#     4  10  26  44  66  98 130 148 200 254 310 394
#     4  10  23  40  67  96 121 161 220 250 298 381
#     4  11  23  43  69  95 121 164 199 253 317 371
#     4  11  21  35  58  86 128 168 214 259 294 354
#     4  10  21  41  59  91 131 158 215 260 296 373
#     4  11  22  40  59  89 129 171 213 262 302 347
#     4  10  24  45  66  93 127 161 195 256 319 371
#     4  10  22  39  61  86 127 178 207 258 315 339
#
# _framework density 22.708917
#
# number of rings (size 3 to 8) (size 9 to 14) (size 15 to 20)
#    0.000    1.600    2.667    1.200    1.867    2.667 
#    0.000    0.000    2.933    0.000    0.000    0.000 
#    0.000    0.000    0.000    0.000    0.000    0.000 
#
# Total GULP energy -83804.978912 kJ/mol
# GULP energy per Si atom -5586.998594 kJ/mol
# Density = 2.265723 g / cm^3
# Si number density = 22.708917 Si / 1000 Ang^3
#
#
#
# Elastic Constant Matrix: (Units=GPa)
#
#
# Indices 1 2 3 4 5 6 
#
# 1 79.4396 22.9467 32.4731 0.0000 29.6676 0.0000
# 2 22.9467 103.8398 43.3993 0.0000 19.4779 0.0000
# 3 32.4731 43.3993 104.9342 0.0000 28.1742 0.0000
# 4 0.0000 0.0000 0.0000 52.3419 0.0000 5.9108
# 5 29.6676 19.4779 28.1742 0.0000 26.1590 0.0000
# 6 0.0000 0.0000 0.0000 5.9108 0.0000 42.4864
#
#
#
# Elastic Compliance Matrix: (Units=1/GPa)
#
#
# Indices 1 2 3 4 5 6 
#
# 1 0.021842 -0.000185 -0.000097 0.000000 -0.024530 0.000000
# 2 -0.000185 0.012109 -0.003638 0.000000 -0.004887 0.000000
# 3 -0.000097 -0.003638 0.014501 0.000000 -0.012799 0.000000
# 4 0.000000 0.000000 0.000000 0.019410 0.000000 -0.002700
# 5 -0.024530 -0.004887 -0.012799 0.000000 0.083472 0.000000
# 6 0.000000 0.000000 0.000000 -0.002700 0.000000 0.023913
#
#
# Mechanical properties :
#
#
# Convention : Reuss Voigt Hill
#
# Bulk Modulus (GPa) = 24.62362 53.98352 39.30357
# Shear Modulus (GPa) = 25.42924 36.82377 31.12650
#
# Velocity S-wave (km/s) = 3.34996 4.03122 3.70628
# Velocity P-wave (km/s) = 5.08229 6.74472 5.97164
#
# Compressibility (1/GPa) = 0.04061141
#
# Stress axis : x y z
#
# Youngs Moduli (GPa) = 45.78317 82.58643 68.96055
#
# Poissons Ratio (x) = 0.01529 0.00666
# Poissons Ratio (y) = 0.00847 0.25091
# Poissons Ratio (z) = 0.00442 0.30048
#
# Static dielectric constant tensor:
#      x y z
#    x 1.876970 0.000000 0.010300 
#    y 0.000000 1.896100 0.000000 
#    z 0.010300 0.000000 1.845510 
# 
# From -- ./inp_files/52428.got.cif
#   From: 2010.05.17/outbox.cif.g08.bks.cpg/sg5_27_cif.got.tgz:52428.got - 2010.06.03 18:56:24.
