data_PCOD9125269
_publ_section_title
;
Structure prediction by ZEFSAII (Michael W. Deem and Ramdas Pophale) SiO2 
 PCOD9125269
Probable space group: C 2
;
_chemical_formula_sum "Si O2"
_cell_formula_units_Z 28
_cell_length_a 17.081074
_cell_length_b 9.387166
_cell_length_c 7.659670
_cell_angle_alpha 90.000000
_cell_angle_beta 87.380407
_cell_angle_gamma 90.000000
_cell_volume 1226.890083
_symmetry_space_group_name_H-M "C 2"
_symmetry_group_IT_number 5
_symmetry_cell_setting 'monoclinic'
loop_
_space_group_symop_operation_xyz
x,y,z
-x,y,-z
1/2+x,1/2+y,z
1/2-x,1/2+y,-z
loop_
_atom_site_type_symbol
_atom_site_label
_atom_site_fract_x
_atom_site_fract_y
_atom_site_fract_z
Si Si1 0.215416 0.908880 0.879449
Si Si2 0.918157 0.271836 0.599106
Si Si3 0.589787 0.882676 0.006528
Si Si4 0.589300 0.108966 0.445882
Si Si5 0.199798 0.240514 0.840079
Si Si6 0.246627 0.748669 0.533218
Si Si7 0.589589 0.196663 0.042131
O O1 0.282415 0.837950 0.992988
O O2 0.233860 0.868450 0.678926
O O3 0.140107 0.826722 0.961378
O O4 0.212472 0.077782 0.883379
O O5 0.914416 0.293153 0.809731
O O6 0.909297 0.437990 0.544244
O O7 0.835887 0.190813 0.558418
O O8 0.000000 0.220183 0.500000
O O9 0.622266 0.045158 0.970746
O O10 0.500000 0.925978 0.000000
O O11 0.609140 0.779186 0.841373
O O12 0.500000 0.153628 0.500000
O O13 0.598794 0.169161 0.248352
O O14 0.665765 0.159254 0.545984
O O15 0.245777 0.293431 0.668894
O O16 0.500000 0.222881 0.000000
#
# Coordination Sequence:
#
# PCOD9125269 Si02
#       7
#     4   4   4   4   4   4   4
#     4  12  26  44  69 101 141 185 235 294 358 424
#     4  10  21  40  67 101 137 183 240 290 346 423
#     4  10  21  42  71 101 138 186 238 294 355 427
#     4  10  21  40  67 101 137 183 240 290 346 423
#     4  12  26  44  69 101 141 185 235 294 358 424
#     4  12  24  42  68 102 144 182 234 292 362 422
#     4  10  21  42  71 101 138 186 238 294 355 427
#
# _framework density 22.821928
#
# number of rings (size 3 to 8) (size 9 to 14) (size 15 to 20)
#    0.000    1.143    2.857    3.429    0.000    7.429 
#    0.000    0.000    0.000    6.000    0.000    0.000 
#    0.000    0.000    0.000    0.000    0.000    0.000 
#
# Total GULP energy -77982.866029 kJ/mol
# GULP energy per Si atom -5570.204716 kJ/mol
# Density = 2.276998 g / cm^3
# Si number density = 22.821928 Si / 1000 Ang^3
#
#
#
# Elastic Constant Matrix: (Units=GPa)
#
#
# Indices 1 2 3 4 5 6 
#
# 1 104.1708 12.1707 2.5057 0.0000 -13.5124 0.0000
# 2 12.1707 82.5731 39.5259 0.0000 -20.0646 0.0000
# 3 2.5057 39.5259 83.0212 0.0000 -17.1565 0.0000
# 4 0.0000 0.0000 0.0000 11.2787 0.0000 -5.1149
# 5 -13.5124 -20.0646 -17.1565 0.0000 38.5169 0.0000
# 6 0.0000 0.0000 0.0000 -5.1149 0.0000 31.9242
#
#
#
# Elastic Compliance Matrix: (Units=1/GPa)
#
#
# Indices 1 2 3 4 5 6 
#
# 1 0.010147 -0.001114 0.000925 0.000000 0.003391 0.000000
# 2 -0.001114 0.016871 -0.006898 0.000000 0.005325 0.000000
# 3 0.000925 -0.006898 0.016109 0.000000 0.003906 0.000000
# 4 0.000000 0.000000 0.000000 0.095610 0.000000 0.015319
# 5 0.003391 0.005325 0.003906 0.000000 0.031666 0.000000
# 6 0.000000 0.000000 0.000000 0.015319 0.000000 0.033779
#
#
# Mechanical properties :
#
#
# Convention : Reuss Voigt Hill
#
# Bulk Modulus (GPa) = 34.53973 42.01886 38.27930
# Shear Modulus (GPa) = 21.92923 30.71482 26.32202
#
# Velocity S-wave (km/s) = 3.10318 3.67256 3.39981
# Velocity P-wave (km/s) = 5.29216 6.03615 5.67636
#
# Compressibility (1/GPa) = 0.02895216
#
# Stress axis : x y z
#
# Youngs Moduli (GPa) = 98.54652 59.27498 62.07891
#
# Poissons Ratio (x) = 0.06606 -0.05743
# Poissons Ratio (y) = 0.10982 0.42822
# Poissons Ratio (z) = -0.09117 0.40887
#
# Static dielectric constant tensor:
#      x y z
#    x 1.325600 0.000000 0.013460 
#    y 0.000000 1.788430 0.000000 
#    z 0.013460 0.000000 1.951480 
# 
# From -- ./inp_files/30474.got.cif
#   From: 2010.05.17/outbox.cif.g08.bks.cpg/sg5_16_cif.got.tgz:30474.got - 2010.06.03 18:56:24.
