data_PCOD9125009
_publ_section_title
;
Structure prediction by ZEFSAII (Michael W. Deem and Ramdas Pophale) SiO2 
 PCOD9125009
Probable space group: C 2
;
_chemical_formula_sum "Si O2"
_cell_formula_units_Z 28
_cell_length_a 22.061005
_cell_length_b 8.053355
_cell_length_c 12.613085
_cell_angle_alpha 90.000000
_cell_angle_beta 32.746525
_cell_angle_gamma 90.000000
_cell_volume 1212.158127
_symmetry_space_group_name_H-M "C 2"
_symmetry_group_IT_number 5
_symmetry_cell_setting 'monoclinic'
loop_
_space_group_symop_operation_xyz
x,y,z
-x,y,-z
1/2+x,1/2+y,z
1/2-x,1/2+y,-z
loop_
_atom_site_type_symbol
_atom_site_label
_atom_site_fract_x
_atom_site_fract_y
_atom_site_fract_z
Si Si1 0.425355 0.137260 0.332598
Si Si2 0.500000 0.508849 0.000000
Si Si3 0.256114 0.671169 0.104056
Si Si4 0.500000 0.017566 0.000000
Si Si5 0.847971 0.348334 0.777388
Si Si6 0.987268 0.963581 0.779035
Si Si7 0.586597 0.780766 0.533897
Si Si8 0.199530 0.265175 0.726755
O O1 0.492556 0.280771 0.299222
O O2 0.304825 0.227919 0.497559
O O3 0.401517 0.954890 0.420107
O O4 0.490836 0.099335 0.128382
O O5 0.497387 0.429584 0.118795
O O6 0.387680 0.616377 0.159372
O O7 0.155624 0.543496 0.239005
O O8 0.258196 0.761618 0.213778
O O9 0.264242 0.792427 0.992716
O O10 0.366430 0.549715 0.940829
O O11 0.618039 0.918745 0.828034
O O12 0.828771 0.268015 0.689841
O O13 0.966540 0.299662 0.653065
O O14 0.074935 0.109655 0.616258
#
# Coordination Sequence:
#
# PCOD9125009 Si02
#       8
#     4   2   4   2   4   4   4   4
#     4  12  24  43  71 101 134 186 231 281 358 415
#     4   9  19  42  62  89 137 166 217 283 328 401
#     4  10  21  41  64  94 130 175 225 282 345 409
#     4  11  25  46  70 107 147 180 239 299 342 429
#     4  10  21  39  64  92 131 178 221 285 346 405
#     4  10  23  41  64  96 132 172 226 287 335 422
#     4  10  22  43  61  93 137 174 223 285 344 409
#     4  10  22  43  69  98 135 181 223 287 350 409
#
# _framework density 23.099295999999999
#
# number of rings (size 3 to 8) (size 9 to 14) (size 15 to 20)
#    0.000    1.714    1.429    3.857    4.000    1.143 
#    2.571    1.429    0.000    0.000    0.000    0.000 
#    0.000    0.000    0.000    0.000    0.000    0.000 
#
# Total GULP energy -78026.030886 kJ/mol
# GULP energy per Si atom -5573.287920 kJ/mol
# Density = 2.304672 g / cm^3
# Si number density = 23.099296 Si / 1000 Ang^3
#
#
#
# Elastic Constant Matrix: (Units=GPa)
#
#
# Indices 1 2 3 4 5 6 
#
# 1 56.4061 28.9197 9.1313 0.0000 24.0149 -0.0001
# 2 28.9197 99.7891 1.4954 0.0000 13.8952 0.0002
# 3 9.1313 1.4954 59.6704 0.0000 4.1047 -0.0001
# 4 0.0000 0.0000 0.0000 31.8205 0.0000 44.9462
# 5 24.0149 13.8952 4.1047 0.0000 26.4744 0.0001
# 6 -0.0001 0.0002 -0.0001 44.9462 0.0001 619.2293
#
#
#
# Elastic Compliance Matrix: (Units=1/GPa)
#
#
# Indices 1 2 3 4 5 6 
#
# 1 0.032023 -0.005670 -0.002997 0.000000 -0.025608 0.000000
# 2 -0.005670 0.011816 0.000651 0.000000 -0.001159 0.000000
# 3 -0.002997 0.000651 0.017221 0.000000 -0.000293 0.000000
# 4 0.000000 0.000000 0.000000 0.035016 0.000000 -0.002542
# 5 -0.025608 -0.001159 -0.000293 0.000000 0.061655 0.000000
# 6 0.000000 0.000000 0.000000 -0.002542 0.000000 0.001799
#
#
# Mechanical properties :
#
#
# Convention : Reuss Voigt Hill
#
# Bulk Modulus (GPa) = 22.20768 32.77316 27.49042
# Shear Modulus (GPa) = 26.23679 147.25945 86.74812
#
# Velocity S-wave (km/s) = 3.37386 7.99306 6.13482
# Velocity P-wave (km/s) = 4.98118 9.97016 7.88087
#
# Compressibility (1/GPa) = 0.04502948
#
# Stress axis : x y z
#
# Youngs Moduli (GPa) = 31.22734 84.63093 58.06802
#
# Poissons Ratio (x) = 0.47985 0.17402
# Poissons Ratio (y) = 0.17706 -0.03782
# Poissons Ratio (z) = 0.09358 -0.05512
#
# Static dielectric constant tensor:
#      x y z
#    x 1.834340 0.000000 -0.001030 
#    y 0.000000 1.933610 0.000000 
#    z -0.001030 0.000000 1.905480 
# 
# From -- ./inp_files/46110.got.cif
#   From: 2010.05.17/outbox.cif.g08.bks.cpg/sg5_24_cif.got.tgz:46110.got - 2010.06.03 18:56:24.
