data_PCOD9125166
_publ_section_title
;
Structure prediction by ZEFSAII (Michael W. Deem and Ramdas Pophale) SiO2 
 PCOD9125166
Probable space group: C 2
;
_chemical_formula_sum "Si O2"
_cell_formula_units_Z 28
_cell_length_a 9.360977
_cell_length_b 33.254840
_cell_length_c 5.112414
_cell_angle_alpha 90.000000
_cell_angle_beta 122.078256
_cell_angle_gamma 90.000000
_cell_volume 1348.501154
_symmetry_space_group_name_H-M "C 2"
_symmetry_group_IT_number 5
_symmetry_cell_setting 'monoclinic'
loop_
_space_group_symop_operation_xyz
x,y,z
-x,y,-z
1/2+x,1/2+y,z
1/2-x,1/2+y,-z
loop_
_atom_site_type_symbol
_atom_site_label
_atom_site_fract_x
_atom_site_fract_y
_atom_site_fract_z
Si Si1 0.311965 0.110750 0.196869
Si Si2 0.795662 0.477149 0.764885
Si Si3 0.185892 0.154547 0.568170
Si Si4 0.882004 0.824418 0.631977
Si Si5 0.382496 0.894360 0.636762
Si Si6 0.117357 0.733415 0.367835
Si Si7 0.703650 0.019202 0.734207
O O1 0.500000 0.113495 0.500000
O O2 0.197915 0.129785 0.312270
O O3 0.266931 0.063763 0.129992
O O4 0.296001 0.133810 0.906492
O O5 0.774396 0.433268 0.619753
O O6 0.731562 0.509438 0.491949
O O7 0.731483 0.487119 0.990822
O O8 0.000000 0.480605 0.000000
O O9 0.248349 0.199051 0.556713
O O10 0.000000 0.155430 0.500000
O O11 0.735269 0.856447 0.528629
O O12 0.816357 0.778749 0.524044
O O13 0.000000 0.834824 0.500000
O O14 0.000000 0.824373 0.000000
O O15 0.500000 0.903916 0.500000
O O16 0.500000 0.885329 0.000000
O O17 0.000000 0.722365 0.500000
O O18 0.000000 0.734852 0.000000
O O19 0.500000 0.015503 0.500000
#
# Coordination Sequence:
#
# PCOD9125166 Si02
#       7
#     4   4   4   4   4   4   4
#     4  11  22  38  61  86 112 152 200 239 279 339
#     4   9  16  29  50  81 114 142 182 237 282 316
#     4  12  24  38  58  87 120 151 183 237 298 346
#     4  10  22  40  61  85 116 154 190 234 286 341
#     4  11  21  35  59  90 120 152 189 237 289 340
#     4  10  21  40  63  83 110 151 197 235 276 338
#     4   9  17  30  52  80 107 142 192 239 271 316
#
# _framework density 20.763793
#
# number of rings (size 3 to 8) (size 9 to 14) (size 15 to 20)
#    0.000    1.714    0.000    6.857    0.000    2.857 
#    0.000    1.429    0.000    8.571    0.000    0.000 
#    0.000    0.000    0.000    0.000    0.000    0.000 
#
# Total GULP energy -78206.383545 kJ/mol
# GULP energy per Si atom -5586.170253 kJ/mol
# Density = 2.071653 g / cm^3
# Si number density = 20.763793 Si / 1000 Ang^3
#
#
#
# Elastic Constant Matrix: (Units=GPa)
#
#
# Indices 1 2 3 4 5 6 
#
# 1 66.9310 37.8562 23.9460 0.0000 -18.4560 0.0000
# 2 37.8562 117.6143 25.9156 0.0000 -0.4248 0.0000
# 3 23.9460 25.9156 73.1847 0.0000 -26.4911 0.0000
# 4 0.0000 0.0000 0.0000 31.9001 0.0000 -11.4799
# 5 -18.4560 -0.4248 -26.4911 0.0000 32.8024 0.0000
# 6 0.0000 0.0000 0.0000 -11.4799 0.0000 18.2242
#
#
#
# Elastic Compliance Matrix: (Units=1/GPa)
#
#
# Indices 1 2 3 4 5 6 
#
# 1 0.022472 -0.007097 -0.000419 0.000000 0.012214 0.000000
# 2 -0.007097 0.011767 -0.004571 0.000000 -0.007532 0.000000
# 3 -0.000419 -0.004571 0.021639 0.000000 0.017181 0.000000
# 4 0.000000 0.000000 0.000000 0.040537 0.000000 0.025536
# 5 0.012214 -0.007532 0.017181 0.000000 0.051135 0.000000
# 6 0.000000 0.000000 0.000000 0.025536 0.000000 0.070958
#
#
# Mechanical properties :
#
#
# Convention : Reuss Voigt Hill
#
# Bulk Modulus (GPa) = 31.54136 48.12951 39.83543
# Shear Modulus (GPa) = 19.74338 27.91947 23.83143
#
# Velocity S-wave (km/s) = 3.08694 3.67089 3.39151
# Velocity P-wave (km/s) = 5.28480 6.41850 5.87904
#
# Compressibility (1/GPa) = 0.03170440
#
# Stress axis : x y z
#
# Youngs Moduli (GPa) = 44.49891 84.98633 46.21347
#
# Poissons Ratio (x) = 0.60313 0.01935
# Poissons Ratio (y) = 0.31580 0.21125
# Poissons Ratio (z) = 0.01864 0.38848
#
# Static dielectric constant tensor:
#      x y z
#    x 1.732920 0.000000 0.010350 
#    y 0.000000 1.765640 0.000000 
#    z 0.010350 0.000000 1.731910 
# 
# From -- ./inp_files/3882.got.cif
#   From: 2010.05.17/outbox.cif.g08.bks.cpg/sg5_2_cif.got.tgz:3882.got - 2010.06.03 18:56:24.
