data_PCOD9125413
_publ_section_title
;
Structure prediction by ZEFSAII (Michael W. Deem and Ramdas Pophale) SiO2 
 PCOD9125413
Probable space group: C 2
;
_chemical_formula_sum "Si O2"
_cell_formula_units_Z 18
_cell_length_a 9.114185
_cell_length_b 12.414757
_cell_length_c 6.675524
_cell_angle_alpha 90.000000
_cell_angle_beta 69.694569
_cell_angle_gamma 90.000000
_cell_volume 708.398457
_symmetry_space_group_name_H-M "C 2"
_symmetry_group_IT_number 5
_symmetry_cell_setting 'monoclinic'
loop_
_space_group_symop_operation_xyz
x,y,z
-x,y,-z
1/2+x,1/2+y,z
1/2-x,1/2+y,-z
loop_
_atom_site_type_symbol
_atom_site_label
_atom_site_fract_x
_atom_site_fract_y
_atom_site_fract_z
Si Si1 0.665746 0.502530 0.308783
Si Si2 0.875098 0.461349 0.871445
Si Si3 0.143370 0.233932 0.200200
Si Si4 0.287804 0.771416 0.296145
Si Si5 0.000000 0.631825 0.500000
O O1 0.500000 0.494986 0.500000
O O2 0.706457 0.629962 0.283990
O O3 0.759489 0.398717 0.349020
O O4 0.706183 0.483992 0.052861
O O5 0.846651 0.358677 0.741897
O O6 0.949027 0.556073 0.707781
O O7 0.000000 0.441500 0.000000
O O8 0.955082 0.223871 0.278394
O O9 0.214183 0.245348 0.942318
O O10 0.144678 0.710475 0.460998
#
# Coordination Sequence:
#
# PCOD9125413 Si02
#       5
#     4   4   4   4   2
#     4  11  22  39  68  97 133 179 230 281 340 411
#     4  11  24  44  66  98 138 181 228 285 349 408
#     4  10  21  41  65  94 137 179 223 281 349 403
#     4  10  21  41  65  93 135 181 221 286 343 402
#     4  12  24  42  70  96 136 184 230 284 348 416
#
# _framework density 25.409428999999999
#
# number of rings (size 3 to 8) (size 9 to 14) (size 15 to 20)
#    0.000    1.333    7.778    0.000    4.667    0.000 
#    0.000    0.000    4.889    0.000    0.000    0.000 
#    0.000    0.000    0.000    0.000    0.000    0.000 
#
# Total GULP energy -50110.095546 kJ/mol
# GULP energy per Si atom -5567.788394 kJ/mol
# Density = 2.535160 g / cm^3
# Si number density = 25.409429 Si / 1000 Ang^3
#
#
#
# Elastic Constant Matrix: (Units=GPa)
#
#
# Indices 1 2 3 4 5 6 
#
# 1 50.9761 62.4384 49.4904 0.0000 -4.8813 0.0000
# 2 62.4384 217.3316 57.6497 0.0000 0.6403 0.0000
# 3 49.4904 57.6497 171.7561 0.0000 -34.4417 0.0000
# 4 0.0000 0.0000 0.0000 34.6899 0.0000 -42.4657
# 5 -4.8813 0.6403 -34.4417 0.0000 39.7842 0.0000
# 6 0.0000 0.0000 0.0000 -42.4657 0.0000 -3.2517
#
#
#
# Elastic Compliance Matrix: (Units=1/GPa)
#
#
# Indices 1 2 3 4 5 6 
#
# 1 0.038528 -0.008754 -0.008697 0.000000 -0.002661 0.000000
# 2 -0.008754 0.007158 -0.000144 0.000000 -0.001314 0.000000
# 3 -0.008697 -0.000144 0.009878 0.000000 0.007486 0.000000
# 4 0.000000 0.000000 0.000000 0.001697 0.000000 -0.022162
# 5 -0.002661 -0.001314 0.007486 0.000000 0.031311 0.000000
# 6 0.000000 0.000000 0.000000 -0.022162 0.000000 -0.018104
#
#
# Mechanical properties :
#
#
# Convention : Reuss Voigt Hill
#
# Bulk Modulus (GPa) = 49.08050 86.58007 67.83028
# Shear Modulus (GPa) = 44.46443 32.27684 38.37064
#
# Velocity S-wave (km/s) = 4.18774 3.56795 3.89021
# Velocity P-wave (km/s) = 6.53764 7.14994 6.85063
#
# Compressibility (1/GPa) = 0.02037469
#
# Stress axis : x y z
#
# Youngs Moduli (GPa) = 25.95494 139.69834 101.23930
#
# Poissons Ratio (x) = 1.22295 0.88047
# Poissons Ratio (y) = 0.22722 0.01454
# Poissons Ratio (z) = 0.22573 0.02006
#
# Static dielectric constant tensor:
#      x y z
#    x 2.093590 0.000000 0.078720 
#    y 0.000000 2.064520 0.000000 
#    z 0.078720 0.000000 2.073070 
# 
# From -- ./inp_files/18820.got.cif
#   From: 2010.05.17/outbox.cif.g08.bks.cpg/sg5_10_cif.got.tgz:18820.got - 2010.06.03 18:56:24.
