data_PCOD9125345
_publ_section_title
;
Structure prediction by ZEFSAII (Michael W. Deem and Ramdas Pophale) SiO2 
 PCOD9125345
Probable space group: C 2
;
_chemical_formula_sum "Si O2"
_cell_formula_units_Z 26
_cell_length_a 7.208017
_cell_length_b 8.028986
_cell_length_c 19.337273
_cell_angle_alpha 90.000000
_cell_angle_beta 56.002012
_cell_angle_gamma 90.000000
_cell_volume 927.803980
_symmetry_space_group_name_H-M "C 2"
_symmetry_group_IT_number 5
_symmetry_cell_setting 'monoclinic'
loop_
_space_group_symop_operation_xyz
x,y,z
-x,y,-z
1/2+x,1/2+y,z
1/2-x,1/2+y,-z
loop_
_atom_site_type_symbol
_atom_site_label
_atom_site_fract_x
_atom_site_fract_y
_atom_site_fract_z
Si Si1 0.977845 0.114100 0.429986
Si Si2 0.500000 0.155120 0.500000
Si Si3 0.188407 0.441430 0.716498
Si Si4 0.760691 0.074852 0.022098
Si Si5 0.834067 0.433598 0.663544
Si Si6 0.048146 0.778955 0.824916
Si Si7 0.591073 0.775846 0.130394
O O1 0.742186 0.208070 0.476072
O O2 0.152158 0.260834 0.381356
O O3 0.000000 0.034569 0.500000
O O4 0.057725 0.973411 0.359811
O O5 0.402152 0.065705 0.591071
O O6 0.032028 0.426274 0.680852
O O7 0.110078 0.605641 0.773934
O O8 0.141023 0.288640 0.778969
O O9 0.675958 0.230139 0.086958
O O10 0.595008 0.924740 0.073562
O O11 0.811327 0.122945 0.932963
O O12 0.000000 0.020200 0.000000
O O13 0.603157 0.421854 0.756676
O O14 0.228472 0.810810 0.847650
#
# Coordination Sequence:
#
# PCOD9125345 Si02
#       7
#     4   2   4   4   4   4   4
#     4  11  22  39  62  92 128 167 220 273 324 390
#     4  12  24  36  66  94 120 174 218 266 336 392
#     4   9  20  41  64  89 130 170 212 273 331 386
#     4  11  22  37  62  95 127 168 217 269 321 395
#     4  10  21  41  61  89 126 168 215 273 331 385
#     4   9  20  40  64  87 128 169 209 269 328 386
#     4  10  22  41  64  93 129 171 216 268 328 392
#
# _framework density 28.023161000000002
#
# number of rings (size 3 to 8) (size 9 to 14) (size 15 to 20)
#    0.000    1.846    2.308    1.385    0.000    4.923 
#    0.000   16.923    0.000    0.000    0.000    0.000 
#    0.000    0.000    0.000    0.000    0.000    0.000 
#
# Total GULP energy -72614.155802 kJ/mol
# GULP energy per Si atom -5585.704292 kJ/mol
# Density = 2.795938 g / cm^3
# Si number density = 28.023161 Si / 1000 Ang^3
#
#
#
# Elastic Constant Matrix: (Units=GPa)
#
#
# Indices 1 2 3 4 5 6 
#
# 1 62.4179 4.4767 43.5977 0.0000 0.6094 0.0000
# 2 4.4767 66.4347 23.1946 0.0000 6.2161 0.0000
# 3 43.5977 23.1946 185.4766 0.0000 14.8738 0.0000
# 4 0.0000 0.0000 0.0000 50.2748 0.0000 7.1095
# 5 0.6094 6.2161 14.8738 0.0000 51.4519 0.0000
# 6 0.0000 0.0000 0.0000 7.1095 0.0000 29.3618
#
#
#
# Elastic Compliance Matrix: (Units=1/GPa)
#
#
# Indices 1 2 3 4 5 6 
#
# 1 0.019232 0.000221 -0.004635 0.000000 0.001086 0.000000
# 2 0.000221 0.015836 -0.001923 0.000000 -0.001360 0.000000
# 3 -0.004635 -0.001923 0.006858 0.000000 -0.001695 0.000000
# 4 0.000000 0.000000 0.000000 0.020596 0.000000 -0.004987
# 5 0.001086 -0.001360 -0.001695 0.000000 0.020077 0.000000
# 6 0.000000 0.000000 0.000000 -0.004987 0.000000 0.035265
#
#
# Mechanical properties :
#
#
# Convention : Reuss Voigt Hill
#
# Bulk Modulus (GPa) = 34.18745 50.76302 42.47524
# Shear Modulus (GPa) = 35.64043 42.42172 39.03108
#
# Velocity S-wave (km/s) = 3.57013 3.89499 3.73609
# Velocity P-wave (km/s) = 5.40561 6.19532 5.81389
#
# Compressibility (1/GPa) = 0.02925050
#
# Stress axis : x y z
#
# Youngs Moduli (GPa) = 51.99583 63.14649 145.82496
#
# Poissons Ratio (x) = -0.01394 0.67595
# Poissons Ratio (y) = -0.01148 0.28045
# Poissons Ratio (z) = 0.24102 0.12145
#
# Static dielectric constant tensor:
#      x y z
#    x 2.261510 0.000000 -0.041440 
#    y 0.000000 2.301160 0.000000 
#    z -0.041440 0.000000 2.220500 
# 
# From -- ./inp_files/64378.got.cif
#   From: 2010.05.17/outbox.cif.g08.bks.cpg/sg5_33_cif.got.tgz:64378.got - 2010.06.03 18:56:24.
