data_PCOD9125226
_publ_section_title
;
Structure prediction by ZEFSAII (Michael W. Deem and Ramdas Pophale) SiO2 
 PCOD9125226
Probable space group: C 2
;
_chemical_formula_sum "Si O2"
_cell_formula_units_Z 32
_cell_length_a 11.318934
_cell_length_b 8.942464
_cell_length_c 19.279228
_cell_angle_alpha 90.000000
_cell_angle_beta 136.996677
_cell_angle_gamma 90.000000
_cell_volume 1330.952962
_symmetry_space_group_name_H-M "C 2"
_symmetry_group_IT_number 5
_symmetry_cell_setting 'monoclinic'
loop_
_space_group_symop_operation_xyz
x,y,z
-x,y,-z
1/2+x,1/2+y,z
1/2-x,1/2+y,-z
loop_
_atom_site_type_symbol
_atom_site_label
_atom_site_fract_x
_atom_site_fract_y
_atom_site_fract_z
Si Si1 0.833750 0.678250 0.379394
Si Si2 0.329318 0.446808 0.280223
Si Si3 0.527555 0.243115 0.776878
Si Si4 0.345779 0.617014 0.987103
Si Si5 0.062830 0.518079 0.371264
Si Si6 0.877582 0.167618 0.583940
Si Si7 0.761960 0.289033 0.070806
Si Si8 0.618246 0.203902 0.146041
O O1 0.780052 0.829219 0.317650
O O2 0.687589 0.619573 0.367565
O O3 0.000000 0.712599 0.500000
O O4 0.902750 0.564151 0.351742
O O5 0.445328 0.356411 0.274412
O O6 0.448665 0.580605 0.360128
O O7 0.169709 0.531219 0.176626
O O8 0.715941 0.228811 0.892752
O O9 0.479978 0.082384 0.722848
O O10 0.396860 0.275551 0.783790
O O11 0.245955 0.461082 0.953982
O O12 0.500000 0.585713 0.000000
O O13 0.393338 0.690616 0.081455
O O14 0.103711 0.345505 0.401789
O O15 0.227572 0.615402 0.467563
O O16 0.757479 0.272662 0.152069
O O17 0.573477 0.224132 0.967042
#
# Coordination Sequence:
#
# PCOD9125226 Si02
#       8
#     4   4   4   4   4   4   4   4
#     4   9  20  41  61  91 131 168 217 264 312 375
#     4  11  24  40  64  98 126 173 215 264 319 377
#     4  10  24  43  65  97 132 168 216 268 319 383
#     4  11  24  45  69  95 127 169 211 268 323 383
#     4  10  21  40  65  93 131 169 219 260 318 382
#     4  11  22  40  67  91 130 176 210 264 319 373
#     4  10  24  44  67  92 129 168 212 262 327 389
#     4  10  22  42  65  92 132 163 214 264 318 379
#
# _framework density 24.042922999999998
#
# number of rings (size 3 to 8) (size 9 to 14) (size 15 to 20)
#    0.000    1.750    1.250    3.000    5.250    3.000 
#    6.750    6.875    0.000    0.000    0.000    0.000 
#    0.000    0.000    0.000    0.000    0.000    0.000 
#
# Total GULP energy -89471.138264 kJ/mol
# GULP energy per Si atom -5591.946141 kJ/mol
# Density = 2.398820 g / cm^3
# Si number density = 24.042923 Si / 1000 Ang^3
#
#
#
# Elastic Constant Matrix: (Units=GPa)
#
#
# Indices 1 2 3 4 5 6 
#
# 1 65.1391 4.5017 12.4600 0.0000 -19.3096 0.0000
# 2 4.5017 70.8570 10.2693 0.0000 3.2150 0.0000
# 3 12.4600 10.2693 39.9253 0.0000 -5.1567 0.0000
# 4 0.0000 0.0000 0.0000 32.6669 0.0000 7.7078
# 5 -19.3096 3.2150 -5.1567 0.0000 37.7483 0.0000
# 6 0.0000 0.0000 0.0000 7.7078 0.0000 31.5022
#
#
#
# Elastic Compliance Matrix: (Units=1/GPa)
#
#
# Indices 1 2 3 4 5 6 
#
# 1 0.019003 -0.000973 -0.004493 0.000000 0.009190 0.000000
# 2 -0.000973 0.014830 -0.003805 0.000000 -0.002281 0.000000
# 3 -0.004493 -0.003805 0.027661 0.000000 0.001804 0.000000
# 4 0.000000 0.000000 0.000000 0.032488 0.000000 -0.007949
# 5 0.009190 -0.002281 0.001804 0.000000 0.031633 0.000000
# 6 0.000000 0.000000 0.000000 -0.007949 0.000000 0.033689
#
#
# Mechanical properties :
#
#
# Convention : Reuss Voigt Hill
#
# Bulk Modulus (GPa) = 23.28279 25.59814 24.44047
# Shear Modulus (GPa) = 26.01972 30.29619 28.15795
#
# Velocity S-wave (km/s) = 3.29328 3.55362 3.42592
# Velocity P-wave (km/s) = 4.91587 5.24477 5.08298
#
# Compressibility (1/GPa) = 0.04295018
#
# Stress axis : x y z
#
# Youngs Moduli (GPa) = 52.62439 67.43209 36.15218
#
# Poissons Ratio (x) = 0.06561 0.16244
# Poissons Ratio (y) = 0.05121 0.13757
# Poissons Ratio (z) = 0.23645 0.25660
#
# Static dielectric constant tensor:
#      x y z
#    x 1.968140 0.000000 -0.005040 
#    y 0.000000 1.888800 0.000000 
#    z -0.005040 0.000000 1.960280 
# 
# From -- ./inp_files/65141.got.cif
#   From: 2010.05.17/outbox.cif.g08.bks.cpg/sg5_33_cif.got.tgz:65141.got - 2010.06.03 18:56:24.
