data_PCOD9125953
_publ_section_title
;
Structure prediction by ZEFSAII (Michael W. Deem and Ramdas Pophale) SiO2 
 PCOD9125953
Probable space group: C 2
;
_chemical_formula_sum "Si O2"
_cell_formula_units_Z 32
_cell_length_a 21.362469
_cell_length_b 18.315008
_cell_length_c 5.247229
_cell_angle_alpha 90.000000
_cell_angle_beta 121.377096
_cell_angle_gamma 90.000000
_cell_volume 1752.765727
_symmetry_space_group_name_H-M "C 2"
_symmetry_group_IT_number 5
_symmetry_cell_setting 'monoclinic'
loop_
_space_group_symop_operation_xyz
x,y,z
-x,y,-z
1/2+x,1/2+y,z
1/2-x,1/2+y,-z
loop_
_atom_site_type_symbol
_atom_site_label
_atom_site_fract_x
_atom_site_fract_y
_atom_site_fract_z
Si Si1 0.204555 0.973900 0.123895
Si Si2 0.563057 0.343826 0.455842
Si Si3 0.455418 0.638316 0.656328
Si Si4 0.886653 0.988380 0.594662
Si Si5 0.816314 0.807361 0.889641
Si Si6 0.075154 0.702490 0.223144
Si Si7 0.213433 0.175889 0.730199
Si Si8 0.286028 0.108983 0.381928
O O1 0.149271 0.009499 0.213140
O O2 0.209078 0.889887 0.228688
O O3 0.277296 0.022728 0.309220
O O4 0.170078 0.981121 0.766108
O O5 0.500000 0.375574 0.500000
O O6 0.579570 0.407928 0.295322
O O7 0.537299 0.265256 0.313173
O O8 0.637448 0.323453 0.758432
O O9 0.500000 0.658367 0.500000
O O10 0.443486 0.550553 0.639394
O O11 0.373308 0.669863 0.481706
O O12 0.500000 0.660449 0.000000
O O13 0.872687 0.756954 0.840847
O O14 0.746113 0.756845 0.777462
O O15 0.133898 0.646050 0.461296
O O16 0.000000 0.659511 0.000000
O O17 0.253073 0.129929 0.588773
O O18 0.237745 0.145422 0.056196
#
# Coordination Sequence:
#
# PCOD9125953 Si02
#       8
#     4   4   4   4   4   4   4   4
#     4  11  20  37  58  83 110 152 193 229 272 335
#     4  11  20  33  51  82 119 153 184 222 282 353
#     4  12  23  37  56  81 113 151 187 229 288 338
#     4  11  22  35  53  83 118 150 183 221 276 348
#     4  10  22  35  57  79 113 152 191 233 285 336
#     4  11  21  34  54  84 119 153 192 232 288 340
#     4  11  22  39  57  82 109 148 193 238 275 337
#     4  11  21  38  60  80 115 154 192 236 272 334
#
# _framework density 18.256862000000002
#
# number of rings (size 3 to 8) (size 9 to 14) (size 15 to 20)
#    0.000    1.000    6.250    1.875    0.000    1.500 
#    0.000    0.000    0.000    0.750    0.000    2.625 
#    0.000    0.000    0.000    0.000    0.000    0.000 
#
# Total GULP energy -89104.392442 kJ/mol
# GULP energy per Si atom -5569.024528 kJ/mol
# Density = 1.821531 g / cm^3
# Si number density = 18.256862 Si / 1000 Ang^3
#
#
#
# Elastic Constant Matrix: (Units=GPa)
#
#
# Indices 1 2 3 4 5 6 
#
# 1 61.1327 23.4102 29.6959 0.0000 10.9571 0.0000
# 2 23.4102 72.4069 30.2203 0.0000 19.3827 0.0000
# 3 29.6959 30.2203 98.6546 0.0000 16.9867 0.0000
# 4 0.0000 0.0000 0.0000 29.1554 0.0000 5.8658
# 5 10.9571 19.3827 16.9867 0.0000 38.4833 0.0000
# 6 0.0000 0.0000 0.0000 5.8658 0.0000 19.8624
#
#
#
# Elastic Compliance Matrix: (Units=1/GPa)
#
#
# Indices 1 2 3 4 5 6 
#
# 1 0.020519 -0.004277 -0.004579 0.000000 -0.001667 0.000000
# 2 -0.004277 0.018284 -0.003179 0.000000 -0.006588 0.000000
# 3 -0.004579 -0.003179 0.012975 0.000000 -0.002822 0.000000
# 4 0.000000 0.000000 0.000000 0.036466 0.000000 -0.010769
# 5 -0.001667 -0.006588 -0.002822 0.000000 0.031024 0.000000
# 6 0.000000 0.000000 0.000000 -0.010769 0.000000 0.053527
#
#
# Mechanical properties :
#
#
# Convention : Reuss Voigt Hill
#
# Bulk Modulus (GPa) = 36.09175 44.31634 40.20404
# Shear Modulus (GPa) = 24.26018 27.42474 25.84246
#
# Velocity S-wave (km/s) = 3.64926 3.87998 3.76639
# Velocity P-wave (km/s) = 6.12927 6.66324 6.40182
#
# Compressibility (1/GPa) = 0.02770716
#
# Stress axis : x y z
#
# Youngs Moduli (GPa) = 48.73598 54.69275 77.07402
#
# Poissons Ratio (x) = 0.23390 0.35295
# Poissons Ratio (y) = 0.20842 0.24503
# Poissons Ratio (z) = 0.22318 0.17388
#
# Static dielectric constant tensor:
#      x y z
#    x 1.657620 0.000000 -0.033320 
#    y 0.000000 1.663250 0.000000 
#    z -0.033320 0.000000 1.733230 
# 
# From -- ./inp_files/7311.got.cif
#   From: 2010.05.17/outbox.cif.g08.bks.cpg/sg5_4_cif.got.tgz:7311.got - 2010.06.03 18:56:24.
