data_PCOD9125556
_publ_section_title
;
Structure prediction by ZEFSAII (Michael W. Deem and Ramdas Pophale) SiO2 
 PCOD9125556
Probable space group: C 2
;
_chemical_formula_sum "Si O2"
_cell_formula_units_Z 20
_cell_length_a 17.699753
_cell_length_b 5.654513
_cell_length_c 17.855315
_cell_angle_alpha 90.000000
_cell_angle_beta 30.994393
_cell_angle_gamma 90.000000
_cell_volume 920.234529
_symmetry_space_group_name_H-M "C 2"
_symmetry_group_IT_number 5
_symmetry_cell_setting 'monoclinic'
loop_
_space_group_symop_operation_xyz
x,y,z
-x,y,-z
1/2+x,1/2+y,z
1/2-x,1/2+y,-z
loop_
_atom_site_type_symbol
_atom_site_label
_atom_site_fract_x
_atom_site_fract_y
_atom_site_fract_z
Si Si1 0.000000 0.661140 0.500000
Si Si2 0.055755 0.332389 0.685794
Si Si3 0.701136 0.489976 0.806451
Si Si4 0.000000 0.598039 0.000000
Si Si5 0.403815 0.337191 0.425938
Si Si6 0.058887 0.230409 0.057128
O O1 0.133064 0.506175 0.356013
O O2 0.057730 0.811823 0.520093
O O3 0.227958 0.332712 0.563459
O O4 0.035157 0.595026 0.666809
O O5 0.956014 0.278080 0.843386
O O6 0.039760 0.093166 0.650069
O O7 0.602797 0.671429 0.840577
O O8 0.621322 0.249227 0.854078
O O9 0.664752 0.543279 0.925098
O O10 0.093688 0.467571 0.983299
#
# Coordination Sequence:
#
# PCOD9125556 Si02
#       6
#     2   4   4   2   4   4
#     4  12  22  44  58 100 134 162 206 282 320 396
#     4  10  21  42  63  94 124 177 215 263 306 404
#     4   9  20  35  60  94 124 168 208 263 325 375
#     4   8  18  34  60  98 118 168 218 260 310 392
#     4  10  24  38  64  94 132 169 214 257 336 369
#     4   9  18  38  63  90 117 173 219 258 305 394
#
# _framework density 21.733591000000001
#
# number of rings (size 3 to 8) (size 9 to 14) (size 15 to 20)
#    0.000    2.800    2.000    0.000    5.600    2.400 
#    7.200    2.000    0.000    0.000    0.000    0.000 
#    0.000    0.000    0.000    0.000    0.000    0.000 
#
# Total GULP energy -55669.790964 kJ/mol
# GULP energy per Si atom -5566.979096 kJ/mol
# Density = 2.168412 g / cm^3
# Si number density = 21.733591 Si / 1000 Ang^3
#
#
#
# Elastic Constant Matrix: (Units=GPa)
#
#
# Indices 1 2 3 4 5 6 
#
# 1 71.7447 17.7569 4.6108 -0.0044 22.9459 0.0022
# 2 17.7569 91.6264 4.1967 -0.0086 13.8781 0.0057
# 3 4.6108 4.1967 99.2766 -0.0048 5.7021 0.0038
# 4 -0.0044 -0.0086 -0.0048 -0.8305 0.0010 8.9759
# 5 22.9459 13.8781 5.7021 0.0010 35.6383 0.0002
# 6 0.0022 0.0057 0.0038 8.9759 0.0002 3.3674
#
#
#
# Elastic Compliance Matrix: (Units=1/GPa)
#
#
# Indices 1 2 3 4 5 6 
#
# 1 0.017837 -0.001822 -0.000134 -0.000006 -0.010754 0.000008
# 2 -0.001822 0.011789 -0.000219 -0.000011 -0.003383 0.000010
# 3 -0.000134 -0.000219 0.010172 -0.000006 -0.001456 0.000005
# 4 -0.000006 -0.000011 -0.000006 -0.040394 0.000009 0.107672
# 5 -0.010754 -0.003383 -0.001456 0.000009 0.036534 -0.000012
# 6 0.000008 0.000010 0.000005 0.107672 -0.000012 0.009962
#
#
# Mechanical properties :
#
#
# Convention : Reuss Voigt Hill
#
# Bulk Modulus (GPa) = 28.21005 35.08626 31.64816
# Shear Modulus (GPa) = 80.55822 23.37393 51.96607
#
# Velocity S-wave (km/s) = 6.09481 3.28300 4.89514
# Velocity P-wave (km/s) = 7.90804 5.52717 6.82227
#
# Compressibility (1/GPa) = 0.03544835
#
# Stress axis : x y z
#
# Youngs Moduli (GPa) = 56.06286 84.82211 98.30923
#
# Poissons Ratio (x) = 0.15453 0.01315
# Poissons Ratio (y) = 0.10214 0.02157
# Poissons Ratio (z) = 0.00750 0.01861
#
# Static dielectric constant tensor:
#      x y z
#    x 1.794140 0.000000 0.002570 
#    y 0.000000 1.904230 0.000000 
#    z 0.002570 0.000000 1.811200 
# 
# From -- ./inp_files/25970.got.cif
#   From: 2010.05.17/outbox.cif.g08.bks.cpg/sg5_13_cif.got.tgz:25970.got - 2010.06.03 18:56:24.
