data_PCOD9125142
_publ_section_title
;
Structure prediction by ZEFSAII (Michael W. Deem and Ramdas Pophale) SiO2 
 PCOD9125142
Probable space group: C 2
;
_chemical_formula_sum "Si O2"
_cell_formula_units_Z 28
_cell_length_a 11.939184
_cell_length_b 8.661433
_cell_length_c 14.650605
_cell_angle_alpha 90.000000
_cell_angle_beta 61.483836
_cell_angle_gamma 90.000000
_cell_volume 1331.226377
_symmetry_space_group_name_H-M "C 2"
_symmetry_group_IT_number 5
_symmetry_cell_setting 'monoclinic'
loop_
_space_group_symop_operation_xyz
x,y,z
-x,y,-z
1/2+x,1/2+y,z
1/2-x,1/2+y,-z
loop_
_atom_site_type_symbol
_atom_site_label
_atom_site_fract_x
_atom_site_fract_y
_atom_site_fract_z
Si Si1 0.914665 0.820860 0.136052
Si Si2 0.797897 0.317730 0.105136
Si Si3 0.874271 0.715128 0.661022
Si Si4 0.158658 0.993467 0.008043
Si Si5 0.500000 0.031609 0.000000
Si Si6 0.000000 0.142257 0.500000
Si Si7 0.197408 0.368726 0.360070
Si Si8 0.646298 0.361457 0.521821
O O1 0.832240 0.872979 0.079709
O O2 0.819631 0.812467 0.256095
O O3 0.992719 0.665893 0.083033
O O4 0.018475 0.958081 0.103302
O O5 0.696051 0.281603 0.222708
O O6 0.924190 0.400874 0.089815
O O7 0.823018 0.161677 0.039819
O O8 0.756204 0.450531 0.049163
O O9 0.848138 0.533617 0.659939
O O10 0.818202 0.792355 0.590569
O O11 0.024128 0.759940 0.602955
O O12 0.916580 0.247880 0.598378
O O13 0.909468 0.030385 0.477284
O O14 0.243625 0.374163 0.447046
#
# Coordination Sequence:
#
# PCOD9125142 Si02
#       8
#     4   4   4   4   2   2   4   4
#     4  10  22  41  62  94 129 169 215 268 323 398
#     4  12  22  41  65  93 130 174 216 275 328 390
#     4  10  23  42  68  96 132 175 217 276 329 398
#     4  10  21  40  61  92 129 168 219 262 327 388
#     4  10  24  38  62  92 132 166 216 272 314 394
#     4  10  24  40  66 100 128 168 226 270 316 406
#     4  12  22  44  72  94 136 173 215 275 337 387
#     4  10  24  45  66  99 136 168 223 271 331 395
#
# _framework density 21.033235999999999
#
# number of rings (size 3 to 8) (size 9 to 14) (size 15 to 20)
#    0.000    1.714    1.429    5.143    4.000    0.000 
#    2.571    1.429    0.000    0.000    0.000    0.000 
#    0.000    0.000    0.000    0.000    0.000    0.000 
#
# Total GULP energy -78004.396905 kJ/mol
# GULP energy per Si atom -5571.742636 kJ/mol
# Density = 2.098536 g / cm^3
# Si number density = 21.033236 Si / 1000 Ang^3
#
#
#
# Elastic Constant Matrix: (Units=GPa)
#
#
# Indices 1 2 3 4 5 6 
#
# 1 -53.9419 18.1918 -1.1043 0.0000 -0.3372 0.0000
# 2 18.1918 145.6803 59.0138 0.0000 -8.6345 0.0000
# 3 -1.1043 59.0138 101.8647 0.0000 -20.9659 0.0000
# 4 0.0000 0.0000 0.0000 21.4948 0.0000 11.5119
# 5 -0.3372 -8.6345 -20.9659 0.0000 19.0358 0.0000
# 6 0.0000 0.0000 0.0000 11.5119 0.0000 -117.8237
#
#
#
# Elastic Compliance Matrix: (Units=1/GPa)
#
#
# Indices 1 2 3 4 5 6 
#
# 1 -0.017474 0.002995 -0.002210 0.000000 -0.001385 0.000000
# 2 0.002995 0.008524 -0.005301 0.000000 -0.001919 0.000000
# 3 -0.002210 -0.005301 0.015984 0.000000 0.015162 0.000000
# 4 0.000000 0.000000 0.000000 0.044209 0.000000 0.004319
# 5 -0.001385 -0.001919 0.015162 0.000000 0.068337 0.000000
# 6 0.000000 0.000000 0.000000 0.004319 0.000000 -0.008065
#
#
# Mechanical properties :
#
#
# Convention : Reuss Voigt Hill
#
# Bulk Modulus (GPa) = -500.91872 38.42285 -231.24793
# Shear Modulus (GPa) = 41.70856 -7.62517 17.04169
#
# Velocity S-wave (km/s) = 4.45790 -1.90609 2.84954
# Velocity P-wave (km/s) = 14.56625 3.66921 9.96776
#
# Compressibility (1/GPa) = -0.00199633
#
# Stress axis : x y z
#
# Youngs Moduli (GPa) = -57.22639 117.31820 62.56102
#
# Poissons Ratio (x) = -0.35139 0.13824
# Poissons Ratio (y) = 0.17140 0.33161
# Poissons Ratio (z) = -0.12645 0.62185
#
# Static dielectric constant tensor:
#      x y z
#    x 16.318280 0.000000 -0.500010 
#    y 0.000000 1.743430 0.000000 
#    z -0.500010 0.000000 1.784520 
# 
# From -- ./inp_files/52406.got.cif
#   From: 2010.05.17/outbox.cif.g08.bks.cpg/sg5_27_cif.got.tgz:52406.got - 2010.06.03 18:56:24.
