data_PCOD9125548
_publ_section_title
;
Structure prediction by ZEFSAII (Michael W. Deem and Ramdas Pophale) SiO2 
 PCOD9125548
Probable space group: C 2
;
_chemical_formula_sum "Si O2"
_cell_formula_units_Z 28
_cell_length_a 13.539682
_cell_length_b 12.842082
_cell_length_c 7.730189
_cell_angle_alpha 90.000000
_cell_angle_beta 110.032863
_cell_angle_gamma 90.000000
_cell_volume 1262.784048
_symmetry_space_group_name_H-M "C 2"
_symmetry_group_IT_number 5
_symmetry_cell_setting 'monoclinic'
loop_
_space_group_symop_operation_xyz
x,y,z
-x,y,-z
1/2+x,1/2+y,z
1/2-x,1/2+y,-z
loop_
_atom_site_type_symbol
_atom_site_label
_atom_site_fract_x
_atom_site_fract_y
_atom_site_fract_z
Si Si1 0.587840 0.309010 0.144705
Si Si2 0.575581 0.593354 0.883390
Si Si3 0.286584 0.012408 0.186745
Si Si4 0.497209 0.115072 0.707352
Si Si5 0.263715 0.088453 0.558232
Si Si6 0.700384 0.768900 0.765911
Si Si7 0.081783 0.953078 0.434601
O O1 0.521228 0.220177 0.197491
O O2 0.681707 0.269622 0.083576
O O3 0.632449 0.380701 0.321407
O O4 0.500000 0.377514 0.000000
O O5 0.619445 0.699743 0.823974
O O6 0.497378 0.535902 0.701190
O O7 0.500000 0.616652 0.000000
O O8 0.681276 0.529252 0.007530
O O9 0.393975 0.061504 0.175954
O O10 0.259714 0.074337 0.348853
O O11 0.320930 0.892467 0.249811
O O12 0.500000 0.128720 0.500000
O O13 0.383882 0.061374 0.677281
O O14 0.226831 0.201453 0.607045
O O15 0.178226 0.009532 0.583533
O O16 0.000000 0.888523 0.500000
#
# Coordination Sequence:
#
# PCOD9125548 Si02
#       7
#     4   4   4   4   4   4   4
#     4  11  21  39  67  96 126 172 220 274 327 383
#     4  12  24  41  65  95 134 169 217 275 326 389
#     4  11  22  45  67  93 136 174 219 275 323 388
#     4   9  21  40  63  92 129 171 219 267 320 388
#     4  10  21  42  62  97 128 169 219 274 313 398
#     4  11  23  41  66  94 130 176 218 259 343 383
#     4  12  22  40  66  97 130 168 219 275 327 392
#
# _framework density 22.173228999999999
#
# number of rings (size 3 to 8) (size 9 to 14) (size 15 to 20)
#    0.000    1.143    4.286    2.571    0.000    0.000 
#    7.714    5.000    0.000    0.000    0.000    0.000 
#    0.000    0.000    0.000    0.000    0.000    0.000 
#
# Total GULP energy -77963.246527 kJ/mol
# GULP energy per Si atom -5568.803323 kJ/mol
# Density = 2.212276 g / cm^3
# Si number density = 22.173229 Si / 1000 Ang^3
#
#
#
# Elastic Constant Matrix: (Units=GPa)
#
#
# Indices 1 2 3 4 5 6 
#
# 1 176.8787 56.3579 24.0573 0.0000 7.7451 0.0000
# 2 56.3579 117.7187 13.3268 0.0000 2.4427 0.0000
# 3 24.0573 13.3268 41.2106 0.0000 8.5827 0.0000
# 4 0.0000 0.0000 0.0000 22.6924 0.0000 0.6610
# 5 7.7451 2.4427 8.5827 0.0000 33.7877 0.0000
# 6 0.0000 0.0000 0.0000 0.6610 0.0000 42.3082
#
#
#
# Elastic Compliance Matrix: (Units=1/GPa)
#
#
# Indices 1 2 3 4 5 6 
#
# 1 0.007054 -0.003023 -0.003008 0.000000 -0.000634 0.000000
# 2 -0.003023 0.010114 -0.001581 0.000000 0.000364 0.000000
# 3 -0.003008 -0.001581 0.027838 0.000000 -0.006268 0.000000
# 4 0.000000 0.000000 0.000000 0.044088 0.000000 -0.000689
# 5 -0.000634 0.000364 -0.006268 0.000000 0.031308 0.000000
# 6 0.000000 0.000000 0.000000 -0.000689 0.000000 0.023647
#
#
# Mechanical properties :
#
#
# Convention : Reuss Voigt Hill
#
# Bulk Modulus (GPa) = 33.57917 58.14355 45.86136
# Shear Modulus (GPa) = 29.55079 35.89540 32.72309
#
# Velocity S-wave (km/s) = 3.65461 4.02787 3.84577
# Velocity P-wave (km/s) = 5.74327 6.92178 6.35988
#
# Compressibility (1/GPa) = 0.02978037
#
# Stress axis : x y z
#
# Youngs Moduli (GPa) = 141.76804 98.87557 35.92180
#
# Poissons Ratio (x) = 0.29893 0.10805
# Poissons Ratio (y) = 0.42861 0.05681
# Poissons Ratio (z) = 0.42643 0.15636
#
# Static dielectric constant tensor:
#      x y z
#    x 1.874740 0.000000 0.015070 
#    y 0.000000 1.837130 0.000000 
#    z 0.015070 0.000000 1.938450 
# 
# From -- ./inp_files/23589.got.cif
#   From: 2010.05.17/outbox.cif.g08.bks.cpg/sg5_12_cif.got.tgz:23589.got - 2010.06.03 18:56:24.
