data_PCOD9125736
_publ_section_title
;
Structure prediction by ZEFSAII (Michael W. Deem and Ramdas Pophale) SiO2 
 PCOD9125736
Probable space group: C 2
;
_chemical_formula_sum "Si O2"
_cell_formula_units_Z 30
_cell_length_a 18.924169
_cell_length_b 9.968067
_cell_length_c 12.424953
_cell_angle_alpha 90.000000
_cell_angle_beta 147.711132
_cell_angle_gamma 90.000000
_cell_volume 1252.035782
_symmetry_space_group_name_H-M "C 2"
_symmetry_group_IT_number 5
_symmetry_cell_setting 'monoclinic'
loop_
_space_group_symop_operation_xyz
x,y,z
-x,y,-z
1/2+x,1/2+y,z
1/2-x,1/2+y,-z
loop_
_atom_site_type_symbol
_atom_site_label
_atom_site_fract_x
_atom_site_fract_y
_atom_site_fract_z
Si Si1 0.301704 0.863670 0.866159
Si Si2 0.128993 0.300853 0.606856
Si Si3 0.991476 0.191212 0.747832
Si Si4 0.799195 0.591769 0.334799
Si Si5 0.022123 0.949507 0.912407
Si Si6 0.261734 0.617949 0.085378
Si Si7 0.500000 0.015067 0.000000
Si Si8 0.482680 0.174638 0.752993
O O1 0.207531 0.736764 0.729507
O O2 0.229964 0.978340 0.841200
O O3 0.434356 0.813384 0.098601
O O4 0.366533 0.926256 0.842479
O O5 0.119413 0.459792 0.591893
O O6 0.238048 0.238112 0.825119
O O7 0.000000 0.245855 0.500000
O O8 0.121663 0.243024 0.477765
O O9 0.116901 0.130813 0.840445
O O10 0.941505 0.078103 0.764970
O O11 0.657291 0.528164 0.118996
O O12 0.852726 0.629836 0.521708
O O13 0.996872 0.833448 0.793365
O O14 0.000000 0.883661 0.000000
O O15 0.111802 0.627933 0.849309
O O16 0.508877 0.100578 0.120883
#
# Coordination Sequence:
#
# PCOD9125736 Si02
#       8
#     4   4   4   4   4   4   2   4
#     4  10  24  41  66  99 134 175 237 282 346 423
#     4  10  21  43  67 102 141 183 228 290 356 427
#     4  10  24  41  71  94 140 183 224 297 354 409
#     4  11  25  42  69 104 134 188 233 288 354 421
#     4  11  25  47  65 102 139 178 239 295 347 418
#     4  10  22  43  68  99 138 179 230 284 356 416
#     4  10  22  46  64  96 136 178 228 280 346 418
#     4  11  23  44  71  97 139 181 229 287 349 417
#
# _framework density 23.960975999999999
#
# number of rings (size 3 to 8) (size 9 to 14) (size 15 to 20)
#    0.000    1.600    2.000    1.600    7.467    4.267 
#    4.800    0.000    0.000    0.000    0.000    0.000 
#    0.000    0.000    0.000    0.000    0.000    0.000 
#
# Total GULP energy -83592.810655 kJ/mol
# GULP energy per Si atom -5572.854044 kJ/mol
# Density = 2.390644 g / cm^3
# Si number density = 23.960976 Si / 1000 Ang^3
#
#
#
# Elastic Constant Matrix: (Units=GPa)
#
#
# Indices 1 2 3 4 5 6 
#
# 1 45.1484 30.3291 14.0136 0.0000 -3.1329 0.0000
# 2 30.3291 144.9392 28.8888 0.0000 -10.3969 0.0000
# 3 14.0136 28.8888 91.8772 0.0000 -17.1724 0.0000
# 4 0.0000 0.0000 0.0000 31.1523 0.0000 18.5766
# 5 -3.1329 -10.3969 -17.1724 0.0000 22.7749 0.0000
# 6 0.0000 0.0000 0.0000 18.5766 0.0000 41.1070
#
#
#
# Elastic Compliance Matrix: (Units=1/GPa)
#
#
# Indices 1 2 3 4 5 6 
#
# 1 0.026278 -0.005036 -0.002536 0.000000 -0.000596 0.000000
# 2 -0.005036 0.008396 -0.001496 0.000000 0.002012 0.000000
# 3 -0.002536 -0.001496 0.013443 0.000000 0.009104 0.000000
# 4 0.000000 0.000000 0.000000 0.043942 0.000000 -0.019858
# 5 -0.000596 0.002012 0.009104 0.000000 0.051609 0.000000
# 6 0.000000 0.000000 0.000000 -0.019858 0.000000 0.033301
#
#
# Mechanical properties :
#
#
# Convention : Reuss Voigt Hill
#
# Bulk Modulus (GPa) = 33.35439 47.60309 40.47874
# Shear Modulus (GPa) = 24.37864 32.92237 28.65051
#
# Velocity S-wave (km/s) = 3.19318 3.71077 3.46166
# Velocity P-wave (km/s) = 5.24840 6.18626 5.73653
#
# Compressibility (1/GPa) = 0.02998106
#
# Stress axis : x y z
#
# Youngs Moduli (GPa) = 38.05464 119.10844 74.38904
#
# Poissons Ratio (x) = 0.59984 0.18865
# Poissons Ratio (y) = 0.19165 0.11126
# Poissons Ratio (z) = 0.09651 0.17814
#
# Static dielectric constant tensor:
#      x y z
#    x 1.969620 0.000000 0.042280 
#    y 0.000000 1.907430 0.000000 
#    z 0.042280 0.000000 1.819600 
# 
# From -- ./inp_files/57621.got.cif
#   From: 2010.05.17/outbox.cif.g08.bks.cpg/sg5_29_cif.got.tgz:57621.got - 2010.06.03 18:56:24.
