data_PCOD9125944
_publ_section_title
;
Structure prediction by ZEFSAII (Michael W. Deem and Ramdas Pophale) SiO2 
 PCOD9125944
Probable space group: C 2
;
_chemical_formula_sum "Si O2"
_cell_formula_units_Z 24
_cell_length_a 10.934562
_cell_length_b 8.750395
_cell_length_c 9.470897
_cell_angle_alpha 90.000000
_cell_angle_beta 73.306910
_cell_angle_gamma 90.000000
_cell_volume 868.002359
_symmetry_space_group_name_H-M "C 2"
_symmetry_group_IT_number 5
_symmetry_cell_setting 'monoclinic'
loop_
_space_group_symop_operation_xyz
x,y,z
-x,y,-z
1/2+x,1/2+y,z
1/2-x,1/2+y,-z
loop_
_atom_site_type_symbol
_atom_site_label
_atom_site_fract_x
_atom_site_fract_y
_atom_site_fract_z
Si Si1 0.212083 0.127590 0.856263
Si Si2 0.304834 0.096630 0.294996
Si Si3 0.000000 0.544502 0.000000
Si Si4 0.341655 0.425095 0.355267
Si Si5 0.874383 0.917825 0.858504
Si Si6 0.000000 0.132365 0.500000
Si Si7 0.515743 0.842610 0.750934
O O1 0.316281 0.247455 0.877220
O O2 0.103756 0.231315 0.816824
O O3 0.254272 0.017785 0.713608
O O4 0.154284 0.020853 0.996312
O O5 0.295860 0.251918 0.386675
O O6 0.198620 0.004607 0.243248
O O7 0.390101 0.969699 0.346685
O O8 0.398651 0.133505 0.127363
O O9 0.937534 0.432895 0.899160
O O10 0.477579 0.414269 0.228880
O O11 0.386486 0.525934 0.474003
O O12 0.961526 0.242217 0.643197
#
# Coordination Sequence:
#
# PCOD9125944 Si02
#       7
#     4   4   2   4   4   2   4
#     4  10  22  34  59  94 127 160 218 262 317 387
#     4   9  21  39  63  95 133 162 218 269 322 387
#     4   8  18  36  66  96 130 158 210 280 324 350
#     4  11  24  41  63  90 135 171 214 272 312 394
#     4  11  23  37  63  96 127 172 212 267 340 368
#     4  10  22  40  62  96 130 180 218 246 340 386
#     4   8  19  36  61  91 129 164 212 265 312 384
#
# _framework density 27.649694
#
# number of rings (size 3 to 8) (size 9 to 14) (size 15 to 20)
#    1.000    1.333    0.000    1.500    9.333    0.667 
#    0.000   10.000    0.000    6.000    0.000    0.000 
#    0.000    0.000    0.000    0.000    0.000    0.000 
#
# Total GULP energy -67152.090806 kJ/mol
# GULP energy per Si atom -5596.007567 kJ/mol
# Density = 2.758676 g / cm^3
# Si number density = 27.649694 Si / 1000 Ang^3
#
#
#
# Elastic Constant Matrix: (Units=GPa)
#
#
# Indices 1 2 3 4 5 6 
#
# 1 78.6019 43.8612 15.1071 0.0000 20.1501 0.0000
# 2 43.8612 237.3368 70.8066 0.0000 28.7079 0.0000
# 3 15.1071 70.8066 157.5295 0.0000 35.1188 0.0000
# 4 0.0000 0.0000 0.0000 67.4389 0.0000 11.3237
# 5 20.1501 28.7079 35.1188 0.0000 33.1209 0.0000
# 6 0.0000 0.0000 0.0000 11.3237 0.0000 34.1720
#
#
#
# Elastic Compliance Matrix: (Units=1/GPa)
#
#
# Indices 1 2 3 4 5 6 
#
# 1 0.016146 -0.002313 0.001616 0.000000 -0.009532 0.000000
# 2 -0.002313 0.005359 -0.001919 0.000000 -0.001203 0.000000
# 3 0.001616 -0.001919 0.009041 0.000000 -0.008907 0.000000
# 4 0.000000 0.000000 0.000000 0.015702 0.000000 -0.005203
# 5 -0.009532 -0.001203 -0.008907 0.000000 0.046478 0.000000
# 6 0.000000 0.000000 0.000000 -0.005203 0.000000 0.030988
#
#
# Mechanical properties :
#
#
# Convention : Reuss Voigt Hill
#
# Bulk Modulus (GPa) = 39.50244 81.44642 60.47443
# Shear Modulus (GPa) = 36.39452 49.85922 43.12687
#
# Velocity S-wave (km/s) = 3.63198 4.25107 3.95366
# Velocity P-wave (km/s) = 5.64855 7.32229 6.53919
#
# Compressibility (1/GPa) = 0.02531489
#
# Stress axis : x y z
#
# Youngs Moduli (GPa) = 61.93487 186.60767 110.60685
#
# Poissons Ratio (x) = 0.43164 -0.17877
# Poissons Ratio (y) = 0.14326 0.21221
# Poissons Ratio (z) = -0.10010 0.35803
#
# Static dielectric constant tensor:
#      x y z
#    x 2.610980 0.000000 -0.390500 
#    y 0.000000 2.159370 0.000000 
#    z -0.390500 0.000000 2.436600 
# 
# From -- ./inp_files/38395.got.cif
#   From: 2010.05.17/outbox.cif.g08.bks.cpg/sg5_20_cif.got.tgz:38395.got - 2010.06.03 18:56:24.
