data_PCOD9125246
_publ_section_title
;
Structure prediction by ZEFSAII (Michael W. Deem and Ramdas Pophale) SiO2 
 PCOD9125246
Probable space group: C 2
;
_chemical_formula_sum "Si O2"
_cell_formula_units_Z 32
_cell_length_a 22.028961
_cell_length_b 11.988667
_cell_length_c 11.089681
_cell_angle_alpha 90.000000
_cell_angle_beta 148.616411
_cell_angle_gamma 90.000000
_cell_volume 1525.196720
_symmetry_space_group_name_H-M "C 2"
_symmetry_group_IT_number 5
_symmetry_cell_setting 'monoclinic'
loop_
_space_group_symop_operation_xyz
x,y,z
-x,y,-z
1/2+x,1/2+y,z
1/2-x,1/2+y,-z
loop_
_atom_site_type_symbol
_atom_site_label
_atom_site_fract_x
_atom_site_fract_y
_atom_site_fract_z
Si Si1 0.711627 0.922390 0.661832
Si Si2 0.053818 0.196627 0.882420
Si Si3 0.043854 0.407105 0.711858
Si Si4 0.270161 0.153277 0.403416
Si Si5 0.119147 0.978400 0.859809
Si Si6 0.278085 0.495120 0.209079
Si Si7 0.561090 0.282779 0.480597
Si Si8 0.285466 0.683336 0.427609
O O1 0.573871 0.932190 0.415564
O O2 0.750129 0.797842 0.697665
O O3 0.758325 0.022103 0.659394
O O4 0.756065 0.948615 0.871594
O O5 0.074827 0.282020 0.807784
O O6 0.920071 0.203146 0.695747
O O7 0.065376 0.072715 0.850752
O O8 0.154967 0.213122 0.152637
O O9 0.000000 0.411655 0.500000
O O10 0.148576 0.483850 0.935669
O O11 0.381008 0.192309 0.510041
O O12 0.286885 0.172912 0.572655
O O13 0.040907 0.867715 0.733682
O O14 0.138451 0.029704 0.760397
O O15 0.332155 0.371337 0.321528
O O16 0.280741 0.579027 0.326697
O O17 0.500000 0.235213 0.500000
#
# Coordination Sequence:
#
# PCOD9125246 Si02
#       8
#     4   4   4   4   4   4   4   4
#     4  10  25  42  61 100 133 179 228 286 346 417
#     4  10  22  39  66  98 130 181 229 290 334 409
#     4  11  22  39  64  99 138 173 224 290 355 399
#     4  11  24  45  66  98 141 183 229 288 352 421
#     4  10  21  40  65  99 135 172 234 286 343 402
#     4  11  22  40  68 102 131 180 228 288 344 414
#     4  10  22  41  70  99 132 177 229 284 347 409
#     4  11  25  42  69  96 141 184 237 282 351 421
#
# _framework density 20.980899999999998
#
# number of rings (size 3 to 8) (size 9 to 14) (size 15 to 20)
#    0.000    1.500    3.750    0.375    5.250    1.500 
#    2.250    2.500    0.000    0.000    0.000    0.000 
#    0.000    0.000    0.000    0.000    0.000    0.000 
#
# Total GULP energy -89131.317780 kJ/mol
# GULP energy per Si atom -5570.707361 kJ/mol
# Density = 2.093315 g / cm^3
# Si number density = 20.980900 Si / 1000 Ang^3
#
#
#
# Elastic Constant Matrix: (Units=GPa)
#
#
# Indices 1 2 3 4 5 6 
#
# 1 120.5877 47.1203 29.9034 0.0000 -16.7539 0.0000
# 2 47.1203 63.7707 18.8856 0.0000 -7.8013 0.0000
# 3 29.9034 18.8856 99.0120 0.0000 6.4528 0.0000
# 4 0.0000 0.0000 0.0000 26.3278 0.0000 -0.1859
# 5 -16.7539 -7.8013 6.4528 0.0000 24.8334 0.0000
# 6 0.0000 0.0000 0.0000 -0.1859 0.0000 14.6579
#
#
#
# Elastic Compliance Matrix: (Units=1/GPa)
#
#
# Indices 1 2 3 4 5 6 
#
# 1 0.013108 -0.007958 -0.002904 0.000000 0.007098 0.000000
# 2 -0.007958 0.022428 -0.002018 0.000000 0.002201 0.000000
# 3 -0.002904 -0.002018 0.011729 0.000000 -0.005641 0.000000
# 4 0.000000 0.000000 0.000000 0.037986 0.000000 0.000482
# 5 0.007098 0.002201 -0.005641 0.000000 0.047215 0.000000
# 6 0.000000 0.000000 0.000000 0.000482 0.000000 0.068229
#
#
# Mechanical properties :
#
#
# Convention : Reuss Voigt Hill
#
# Bulk Modulus (GPa) = 46.49654 52.79877 49.64765
# Shear Modulus (GPa) = 21.40199 25.66122 23.53161
#
# Velocity S-wave (km/s) = 3.19732 3.50104 3.35262
# Velocity P-wave (km/s) = 5.98665 6.44693 6.22104
#
# Compressibility (1/GPa) = 0.02150698
#
# Stress axis : x y z
#
# Youngs Moduli (GPa) = 76.28656 44.58719 85.25641
#
# Poissons Ratio (x) = 0.35480 0.24757
# Poissons Ratio (y) = 0.60705 0.17205
# Poissons Ratio (z) = 0.22152 0.08998
#
# Static dielectric constant tensor:
#      x y z
#    x 1.779870 0.000000 0.008610 
#    y 0.000000 1.778530 0.000000 
#    z 0.008610 0.000000 1.798740 
# 
# From -- ./inp_files/47528.got.cif
#   From: 2010.05.17/outbox.cif.g08.bks.cpg/sg5_24_cif.got.tgz:47528.got - 2010.06.03 18:56:24.
