data_PCOD9125533
_publ_section_title
;
Structure prediction by ZEFSAII (Michael W. Deem and Ramdas Pophale) SiO2 
 PCOD9125533
Probable space group: C 2
;
_chemical_formula_sum "Si O2"
_cell_formula_units_Z 32
_cell_length_a 11.399271
_cell_length_b 14.824003
_cell_length_c 17.220011
_cell_angle_alpha 90.000000
_cell_angle_beta 151.375581
_cell_angle_gamma 90.000000
_cell_volume 1394.027528
_symmetry_space_group_name_H-M "C 2"
_symmetry_group_IT_number 5
_symmetry_cell_setting 'monoclinic'
loop_
_space_group_symop_operation_xyz
x,y,z
-x,y,-z
1/2+x,1/2+y,z
1/2-x,1/2+y,-z
loop_
_atom_site_type_symbol
_atom_site_label
_atom_site_fract_x
_atom_site_fract_y
_atom_site_fract_z
Si Si1 0.339642 0.378850 0.526096
Si Si2 0.373428 0.841309 0.768344
Si Si3 0.189380 0.729349 0.367270
Si Si4 0.213478 0.602374 0.830106
Si Si5 0.163803 0.163096 0.702010
Si Si6 0.527239 0.658746 0.791606
Si Si7 0.918211 0.522079 0.087703
Si Si8 0.885237 0.532658 0.508005
O O1 0.618379 0.353980 0.665926
O O2 0.193799 0.366601 0.360604
O O3 0.252825 0.310882 0.542898
O O4 0.290132 0.474043 0.538660
O O5 0.479916 0.740373 0.823466
O O6 0.555574 0.915869 0.910089
O O7 0.384615 0.653245 0.509379
O O8 0.226751 0.734467 0.296707
O O9 0.919087 0.695754 0.227537
O O10 0.120175 0.536466 0.843308
O O11 0.111096 0.567210 0.689871
O O12 0.500000 0.608502 0.000000
O O13 0.332230 0.074497 0.791277
O O14 0.155435 0.192079 0.786385
O O15 0.269840 0.616409 0.615361
O O16 0.696792 0.577638 0.920843
O O17 0.000000 0.482664 0.500000
#
# Coordination Sequence:
#
# PCOD9125533 Si02
#       8
#     4   4   4   4   4   4   4   4
#     4  11  24  44  72 113 150 199 268 315 384 470
#     4  11  25  45  77 108 155 206 258 322 391 470
#     4  10  22  41  73 108 147 202 250 309 385 462
#     4  11  23  44  70 103 146 198 251 311 386 454
#     4  10  21  41  77 105 155 189 259 313 385 456
#     4  12  25  47  76 115 155 206 260 322 392 473
#     4  11  25  46  72 112 151 204 255 321 390 454
#     4  12  26  43  74 106 154 203 263 327 383 464
#
# _framework density 22.955071
#
# number of rings (size 3 to 8) (size 9 to 14) (size 15 to 20)
#    0.000    1.000    3.750    1.875    7.000    1.000 
#    4.500    2.500    0.000    0.000    0.000    0.000 
#    0.000    0.000    0.000    0.000    0.000    0.000 
#
# Total GULP energy -89443.850427 kJ/mol
# GULP energy per Si atom -5590.240652 kJ/mol
# Density = 2.290282 g / cm^3
# Si number density = 22.955071 Si / 1000 Ang^3
#
#
#
# Elastic Constant Matrix: (Units=GPa)
#
#
# Indices 1 2 3 4 5 6 
#
# 1 141.5283 47.9880 31.0808 -0.0009 -6.7282 0.0006
# 2 47.9880 104.9804 51.1740 0.0099 12.1397 0.0023
# 3 31.0808 51.1740 124.2616 0.0185 11.3381 0.0069
# 4 -0.0009 0.0099 0.0185 29.3667 0.0005 -5.6170
# 5 -6.7282 12.1397 11.3381 0.0005 37.4007 0.0010
# 6 0.0006 0.0023 0.0069 -5.6170 0.0010 20.4909
#
#
#
# Elastic Compliance Matrix: (Units=1/GPa)
#
#
# Indices 1 2 3 4 5 6 
#
# 1 0.008735 -0.003940 -0.000846 0.000002 0.003107 0.000001
# 2 -0.003940 0.013917 -0.004391 -0.000002 -0.003895 0.000000
# 3 -0.000846 -0.004391 0.010234 -0.000006 -0.001830 -0.000004
# 4 0.000002 -0.000002 -0.000006 0.035936 0.000002 0.009851
# 5 0.003107 -0.003895 -0.001830 0.000002 0.029115 0.000000
# 6 0.000001 0.000000 -0.000004 0.009851 0.000000 0.051502
#
#
# Mechanical properties :
#
#
# Convention : Reuss Voigt Hill
#
# Bulk Modulus (GPa) = 68.80432 70.13954 69.47193
# Shear Modulus (GPa) = 28.96241 33.48685 31.22463
#
# Velocity S-wave (km/s) = 3.55590 3.82357 3.69216
# Velocity P-wave (km/s) = 6.84819 7.07915 6.96463
#
# Compressibility (1/GPa) = 0.01453397
#
# Stress axis : x y z
#
# Youngs Moduli (GPa) = 114.48151 71.85347 97.71184
#
# Poissons Ratio (x) = 0.28309 0.08264
# Poissons Ratio (y) = 0.45104 0.42901
# Poissons Ratio (z) = 0.09682 0.31548
#
# Static dielectric constant tensor:
#      x y z
#    x 1.905150 0.000000 0.001310 
#    y 0.000000 1.893900 0.000000 
#    z 0.001310 0.000000 1.850220 
# 
# From -- ./inp_files/60721.got.cif
#   From: 2010.05.17/outbox.cif.g08.bks.cpg/sg5_31_cif.got.tgz:60721.got - 2010.06.03 18:56:24.
