data_PCOD9125205
_publ_section_title
;
Structure prediction by ZEFSAII (Michael W. Deem and Ramdas Pophale) SiO2 
 PCOD9125205
Probable space group: C 2
;
_chemical_formula_sum "Si O2"
_cell_formula_units_Z 22
_cell_length_a 9.610847
_cell_length_b 22.199239
_cell_length_c 5.210300
_cell_angle_alpha 90.000000
_cell_angle_beta 100.226276
_cell_angle_gamma 90.000000
_cell_volume 1093.976568
_symmetry_space_group_name_H-M "C 2"
_symmetry_group_IT_number 5
_symmetry_cell_setting 'monoclinic'
loop_
_space_group_symop_operation_xyz
x,y,z
-x,y,-z
1/2+x,1/2+y,z
1/2-x,1/2+y,-z
loop_
_atom_site_type_symbol
_atom_site_label
_atom_site_fract_x
_atom_site_fract_y
_atom_site_fract_z
Si Si1 0.848860 0.502880 0.573917
Si Si2 0.247527 0.836517 0.989145
Si Si3 0.168741 0.122973 0.569133
Si Si4 0.500000 0.913845 0.000000
Si Si5 0.350586 0.399806 0.565145
Si Si6 0.168500 0.201646 0.065531
O O1 0.761047 0.562775 0.592667
O O2 0.744515 0.457409 0.390558
O O3 0.000000 0.517742 0.500000
O O4 0.895975 0.460095 0.823648
O O5 0.212954 0.862141 0.694997
O O6 0.258003 0.765231 0.961090
O O7 0.398352 0.867436 0.118303
O O8 0.144422 0.857973 0.182326
O O9 0.200937 0.168092 0.343235
O O10 0.000000 0.109347 0.500000
O O11 0.199688 0.156591 0.843996
O O12 0.500000 0.421026 0.500000
O O13 0.000000 0.213469 0.000000
#
# Coordination Sequence:
#
# PCOD9125205 Si02
#       6
#     4   4   4   2   4   4
#     4  11  23  41  63  93 129 163 221 257 329 374
#     4  11  21  40  67  94 127 157 223 263 320 373
#     4  10  23  40  63  92 125 172 209 260 316 374
#     4  10  22  38  66 102 118 168 204 290 308 374
#     4  11  24  40  63  95 128 167 201 270 331 378
#     4  10  21  40  64  92 124 168 218 259 307 382
#
# _framework density 20.110122
#
# number of rings (size 3 to 8) (size 9 to 14) (size 15 to 20)
#    0.000    1.455    2.727    2.182    2.545    0.000 
#    0.000    9.091    0.000    0.000    0.000    0.000 
#    0.000    0.000    0.000    0.000    0.000    0.000 
#
# Total GULP energy -61342.011803 kJ/mol
# GULP energy per Si atom -5576.546528 kJ/mol
# Density = 2.006435 g / cm^3
# Si number density = 20.110122 Si / 1000 Ang^3
#
#
#
# Elastic Constant Matrix: (Units=GPa)
#
#
# Indices 1 2 3 4 5 6 
#
# 1 101.5103 70.8682 28.3583 0.0000 -15.1455 0.0000
# 2 70.8682 134.7392 24.2593 0.0000 -9.1706 0.0000
# 3 28.3583 24.2593 73.5209 0.0000 -25.0201 0.0000
# 4 0.0000 0.0000 0.0000 20.2510 0.0000 -8.1947
# 5 -15.1455 -9.1706 -25.0201 0.0000 24.9320 0.0000
# 6 0.0000 0.0000 0.0000 -8.1947 0.0000 37.8734
#
#
#
# Elastic Compliance Matrix: (Units=1/GPa)
#
#
# Indices 1 2 3 4 5 6 
#
# 1 0.016902 -0.008166 -0.002055 0.000000 0.005202 0.000000
# 2 -0.008166 0.011839 -0.001462 0.000000 -0.002073 0.000000
# 3 -0.002055 -0.001462 0.021669 0.000000 0.019960 0.000000
# 4 0.000000 0.000000 0.000000 0.054119 0.000000 0.011710
# 5 0.005202 -0.002073 0.019960 0.000000 0.062537 0.000000
# 6 0.000000 0.000000 0.000000 0.011710 0.000000 0.028937
#
#
# Mechanical properties :
#
#
# Convention : Reuss Voigt Hill
#
# Bulk Modulus (GPa) = 36.97618 61.86025 49.41822
# Shear Modulus (GPa) = 21.89291 29.03025 25.46158
#
# Velocity S-wave (km/s) = 3.30305 3.80355 3.56210
# Velocity P-wave (km/s) = 5.74227 7.07932 6.44556
#
# Compressibility (1/GPa) = 0.02704443
#
# Stress axis : x y z
#
# Youngs Moduli (GPa) = 59.16297 84.46666 46.14862
#
# Poissons Ratio (x) = 0.68976 0.09482
# Poissons Ratio (y) = 0.48313 0.06748
# Poissons Ratio (z) = 0.12156 0.12351
#
# Static dielectric constant tensor:
#      x y z
#    x 1.778970 0.000000 0.005470 
#    y 0.000000 1.661860 0.000000 
#    z 0.005470 0.000000 1.724270 
# 
# From -- ./inp_files/2958.got.cif
#   From: 2010.05.17/outbox.cif.g08.bks.cpg/sg5_2_cif.got.tgz:2958.got - 2010.06.03 18:56:24.
