data_PCOD9125427
_publ_section_title
;
Structure prediction by ZEFSAII (Michael W. Deem and Ramdas Pophale) SiO2 
 PCOD9125427
Probable space group: C 2
;
_chemical_formula_sum "Si O2"
_cell_formula_units_Z 30
_cell_length_a 7.381893
_cell_length_b 13.741380
_cell_length_c 19.100090
_cell_angle_alpha 90.000000
_cell_angle_beta 41.485494
_cell_angle_gamma 90.000000
_cell_volume 1283.434677
_symmetry_space_group_name_H-M "C 2"
_symmetry_group_IT_number 5
_symmetry_cell_setting 'monoclinic'
loop_
_space_group_symop_operation_xyz
x,y,z
-x,y,-z
1/2+x,1/2+y,z
1/2-x,1/2+y,-z
loop_
_atom_site_type_symbol
_atom_site_label
_atom_site_fract_x
_atom_site_fract_y
_atom_site_fract_z
Si Si1 0.172014 0.667120 0.747943
Si Si2 0.188995 0.155709 0.097395
Si Si3 0.335878 0.230425 0.705506
Si Si4 0.780124 0.787074 0.954524
Si Si5 0.661826 0.761383 0.525969
Si Si6 0.550978 0.472700 0.903236
Si Si7 0.500000 0.426466 0.500000
Si Si8 0.822170 0.453126 0.275753
O O1 0.462658 0.704716 0.635800
O O2 0.180655 0.553353 0.767094
O O3 0.972806 0.692985 0.738562
O O4 0.030446 0.724200 0.852648
O O5 0.955981 0.178506 0.222602
O O6 0.025129 0.080103 0.096816
O O7 0.500000 0.117265 0.000000
O O8 0.224941 0.261026 0.050671
O O9 0.558345 0.209913 0.580659
O O10 0.290547 0.349007 0.719088
O O11 0.852789 0.897990 0.921768
O O12 0.500000 0.759437 0.000000
O O13 0.500000 0.781718 0.500000
O O14 0.766047 0.858055 0.534402
O O15 0.860353 0.442719 0.796733
O O16 0.500000 0.463410 0.000000
O O17 0.643059 0.481892 0.395598
#
# Coordination Sequence:
#
# PCOD9125427 Si02
#       8
#     4   4   4   4   4   4   2   4
#     4  11  22  41  69  96 134 180 219 278 350 398
#     4  12  24  42  64  95 132 174 222 283 343 404
#     4  10  21  41  65  98 135 172 223 278 335 410
#     4  12  23  40  63  93 130 172 219 277 338 403
#     4   9  21  40  68  93 135 175 219 284 335 402
#     4  12  25  42  64  93 129 175 228 275 338 412
#     4  10  22  40  70 100 130 176 230 270 346 410
#     4  11  22  39  68  98 129 176 226 275 340 409
#
# _framework density 23.374777999999999
#
# number of rings (size 3 to 8) (size 9 to 14) (size 15 to 20)
#    0.000    1.067    2.667    4.400    2.800    1.067 
#    2.400    0.000   11.733    0.000    0.000    0.000 
#    0.000    0.000    0.000    0.000    0.000    0.000 
#
# Total GULP energy -83735.667207 kJ/mol
# GULP energy per Si atom -5582.377814 kJ/mol
# Density = 2.332158 g / cm^3
# Si number density = 23.374778 Si / 1000 Ang^3
#
#
#
# Elastic Constant Matrix: (Units=GPa)
#
#
# Indices 1 2 3 4 5 6 
#
# 1 37.7994 7.2105 30.0650 -0.0087 -21.2629 0.0116
# 2 7.2105 99.6418 30.8168 -0.0057 -12.6709 0.0085
# 3 30.0650 30.8168 186.1757 -0.0207 -26.9424 0.0300
# 4 -0.0087 -0.0057 -0.0207 20.6727 0.0076 31.1123
# 5 -21.2629 -12.6709 -26.9424 0.0076 39.9882 -0.0108
# 6 0.0116 0.0085 0.0300 31.1123 -0.0108 -39.0258
#
#
#
# Elastic Compliance Matrix: (Units=1/GPa)
#
#
# Indices 1 2 3 4 5 6 
#
# 1 0.040015 0.000697 -0.003841 0.000000 0.018910 0.000004
# 2 0.000697 0.010803 -0.001498 0.000000 0.002784 0.000001
# 3 -0.003841 -0.001498 0.006510 0.000000 0.001869 0.000003
# 4 0.000000 0.000000 0.000000 0.021990 0.000000 0.017531
# 5 0.018910 0.002784 0.001869 0.000000 0.037204 -0.000002
# 6 0.000004 0.000001 0.000003 0.017531 -0.000002 -0.011648
#
#
# Mechanical properties :
#
#
# Convention : Reuss Voigt Hill
#
# Bulk Modulus (GPa) = 20.81406 51.08904 35.95155
# Shear Modulus (GPa) = 38.41111 21.36199 29.88655
#
# Velocity S-wave (km/s) = 4.05813 3.02634 3.57960
# Velocity P-wave (km/s) = 5.55713 5.84086 5.70076
#
# Compressibility (1/GPa) = 0.04804444
#
# Stress axis : x y z
#
# Youngs Moduli (GPa) = 24.99084 92.56846 153.61181
#
# Poissons Ratio (x) = -0.06451 0.58997
# Poissons Ratio (y) = -0.01742 0.23007
# Poissons Ratio (z) = 0.09598 0.13864
#
# Static dielectric constant tensor:
#      x y z
#    x 1.983620 0.000000 0.013390 
#    y 0.000000 1.813350 0.000000 
#    z 0.013390 0.000000 1.924840 
# 
# From -- ./inp_files/68002.got.cif
#   From: 2010.05.17/outbox.cif.g08.bks.cpg/sg5_35_cif.got.tgz:68002.got - 2010.06.03 18:56:24.
