data_PCOD9125665
_publ_section_title
;
Structure prediction by ZEFSAII (Michael W. Deem and Ramdas Pophale) SiO2 
 PCOD9125665
Probable space group: C 2
;
_chemical_formula_sum "Si O2"
_cell_formula_units_Z 20
_cell_length_a 24.705444
_cell_length_b 6.703844
_cell_length_c 9.557063
_cell_angle_alpha 90.000000
_cell_angle_beta 147.315573
_cell_angle_gamma 90.000000
_cell_volume 854.759789
_symmetry_space_group_name_H-M "C 2"
_symmetry_group_IT_number 5
_symmetry_cell_setting 'monoclinic'
loop_
_space_group_symop_operation_xyz
x,y,z
-x,y,-z
1/2+x,1/2+y,z
1/2-x,1/2+y,-z
loop_
_atom_site_type_symbol
_atom_site_label
_atom_site_fract_x
_atom_site_fract_y
_atom_site_fract_z
Si Si1 0.097038 0.991050 0.636261
Si Si2 0.209168 0.309552 0.037619
Si Si3 0.701682 0.169338 0.228026
Si Si4 0.007880 0.852243 0.170575
Si Si5 0.321395 0.038331 0.504356
O O1 0.000000 0.900854 0.500000
O O2 0.122769 0.201698 0.762794
O O3 0.066647 0.986609 0.408067
O O4 0.198110 0.861329 0.862982
O O5 0.186492 0.509729 0.073178
O O6 0.298628 0.809090 0.422118
O O7 0.704995 0.068811 0.389296
O O8 0.748456 0.660610 0.242938
O O9 0.603154 0.306877 0.019103
O O10 0.071390 0.645116 0.289991
O O11 0.000000 0.944760 0.000000
#
# Coordination Sequence:
#
# PCOD9125665 Si02
#       5
#     4   4   4   4   4
#     4  11  26  49  68 104 147 189 241 294 354 426
#     4  11  26  44  71 107 142 194 238 289 363 424
#     4  11  21  43  76 105 145 185 235 298 355 425
#     4   9  22  44  75 108 143 182 240 296 358 427
#     4  10  21  42  70 106 143 183 233 294 358 421
#
# _framework density 23.398385000000001
#
# number of rings (size 3 to 8) (size 9 to 14) (size 15 to 20)
#    0.000    1.600    2.000    1.200    5.600    1.600 
#    3.600    0.000    0.000    0.000    0.000    0.000 
#    0.000    0.000    0.000    0.000    0.000    0.000 
#
# Total GULP energy -55928.752315 kJ/mol
# GULP energy per Si atom -5592.875232 kJ/mol
# Density = 2.334513 g / cm^3
# Si number density = 23.398385 Si / 1000 Ang^3
#
#
#
# Elastic Constant Matrix: (Units=GPa)
#
#
# Indices 1 2 3 4 5 6 
#
# 1 96.9317 41.3257 40.2750 0.0000 -0.7140 0.0000
# 2 41.3257 71.6251 27.4579 0.0000 -13.9164 0.0000
# 3 40.2750 27.4579 103.5921 0.0000 -21.3356 0.0000
# 4 0.0000 0.0000 0.0000 39.8205 0.0000 -18.9953
# 5 -0.7140 -13.9164 -21.3356 0.0000 45.5666 0.0000
# 6 0.0000 0.0000 0.0000 -18.9953 0.0000 33.8331
#
#
#
# Elastic Compliance Matrix: (Units=1/GPa)
#
#
# Indices 1 2 3 4 5 6 
#
# 1 0.015781 -0.008099 -0.004922 0.000000 -0.004531 0.000000
# 2 -0.008099 0.020108 -0.001043 0.000000 0.005526 0.000000
# 3 -0.004922 -0.001043 0.013017 0.000000 0.005699 0.000000
# 4 0.000000 0.000000 0.000000 0.034299 0.000000 0.019257
# 5 -0.004531 0.005526 0.005699 0.000000 0.026231 0.000000
# 6 0.000000 0.000000 0.000000 0.019257 0.000000 0.040368
#
#
# Mechanical properties :
#
#
# Convention : Reuss Voigt Hill
#
# Bulk Modulus (GPa) = 48.12624 54.47401 51.30012
# Shear Modulus (GPa) = 27.04788 34.71672 30.88230
#
# Velocity S-wave (km/s) = 3.40365 3.85609 3.63691
# Velocity P-wave (km/s) = 6.00494 6.56944 6.29352
#
# Compressibility (1/GPa) = 0.02077868
#
# Stress axis : x y z
#
# Youngs Moduli (GPa) = 63.36743 49.73201 76.82207
#
# Poissons Ratio (x) = 0.40276 0.37811
# Poissons Ratio (y) = 0.51319 0.08013
# Poissons Ratio (z) = 0.31189 0.05187
#
# Static dielectric constant tensor:
#      x y z
#    x 1.913890 0.000000 -0.008400 
#    y 0.000000 1.891940 0.000000 
#    z -0.008400 0.000000 1.858450 
# 
# From -- ./inp_files/47795.got.cif
#   From: 2010.05.17/outbox.cif.g08.bks.cpg/sg5_24_cif.got.tgz:47795.got - 2010.06.03 18:56:24.
