data_PCOD9125734
_publ_section_title
;
Structure prediction by ZEFSAII (Michael W. Deem and Ramdas Pophale) SiO2 
 PCOD9125734
Probable space group: C 2
;
_chemical_formula_sum "Si O2"
_cell_formula_units_Z 24
_cell_length_a 19.115886
_cell_length_b 5.198773
_cell_length_c 9.535581
_cell_angle_alpha 90.000000
_cell_angle_beta 108.846835
_cell_angle_gamma 90.000000
_cell_volume 896.830834
_symmetry_space_group_name_H-M "C 2"
_symmetry_group_IT_number 5
_symmetry_cell_setting 'monoclinic'
loop_
_space_group_symop_operation_xyz
x,y,z
-x,y,-z
1/2+x,1/2+y,z
1/2-x,1/2+y,-z
loop_
_atom_site_type_symbol
_atom_site_label
_atom_site_fract_x
_atom_site_fract_y
_atom_site_fract_z
Si Si1 0.382711 0.397310 0.915957
Si Si2 0.500000 0.838715 0.500000
Si Si3 0.652594 0.590222 0.507466
Si Si4 0.428737 0.096224 0.198168
Si Si5 0.500000 0.761951 0.000000
Si Si6 0.264615 0.007320 0.100086
Si Si7 0.681928 0.084811 0.340672
O O1 0.444310 0.568463 0.886758
O O2 0.304818 0.539893 0.844574
O O3 0.369081 0.132384 0.827025
O O4 0.408393 0.353810 0.094463
O O5 0.573235 0.657320 0.526435
O O6 0.484269 0.031543 0.359289
O O7 0.658838 0.318493 0.430676
O O8 0.730706 0.594953 0.644498
O O9 0.665675 0.825197 0.410198
O O10 0.347795 0.021635 0.204768
O O11 0.458530 0.921916 0.090890
O O12 0.247977 0.734087 0.019135
#
# Coordination Sequence:
#
# PCOD9125734 Si02
#       7
#     4   2   4   4   2   4   4
#     4  11  24  41  72 102 142 183 245 293 353 421
#     4  12  26  48  68 104 156 184 234 298 368 428
#     4  10  24  46  71 105 144 190 236 287 363 421
#     4  11  26  45  70 105 143 189 237 296 364 421
#     4  12  24  44  70 106 136 182 250 294 358 412
#     4  10  21  43  67 101 136 181 230 288 344 419
#     4  10  23  45  74 103 140 192 240 291 344 433
#
# _framework density 26.760902999999999
#
# number of rings (size 3 to 8) (size 9 to 14) (size 15 to 20)
#    0.000    1.333    1.667    2.500    7.000    0.667 
#    3.000    5.000    0.000    0.000    0.000    0.000 
#    0.000    0.000    0.000    0.000    0.000    0.000 
#
# Total GULP energy -67134.707889 kJ/mol
# GULP energy per Si atom -5594.558991 kJ/mol
# Density = 2.669999 g / cm^3
# Si number density = 26.760903 Si / 1000 Ang^3
#
#
#
# Elastic Constant Matrix: (Units=GPa)
#
#
# Indices 1 2 3 4 5 6 
#
# 1 183.2746 36.1331 7.4311 0.0000 28.5226 0.0000
# 2 36.1331 93.0900 44.5146 0.0000 -4.5985 0.0000
# 3 7.4311 44.5146 122.8178 0.0000 26.8077 0.0000
# 4 0.0000 0.0000 0.0000 28.8883 0.0000 2.3324
# 5 28.5226 -4.5985 26.8077 0.0000 27.1685 0.0000
# 6 0.0000 0.0000 0.0000 2.3324 0.0000 36.1675
#
#
#
# Elastic Compliance Matrix: (Units=1/GPa)
#
#
# Indices 1 2 3 4 5 6 
#
# 1 0.009133 -0.006985 0.005519 0.000000 -0.016216 0.000000
# 2 -0.006985 0.020191 -0.011779 0.000000 0.022374 0.000000
# 3 0.005519 -0.011779 0.017559 0.000000 -0.025113 0.000000
# 4 0.000000 0.000000 0.000000 0.034797 0.000000 -0.002244
# 5 -0.016216 0.022374 -0.025113 0.000000 0.082399 0.000000
# 6 0.000000 0.000000 0.000000 -0.002244 0.000000 0.027794
#
#
# Mechanical properties :
#
#
# Convention : Reuss Voigt Hill
#
# Bulk Modulus (GPa) = 49.03742 63.92667 56.48204
# Shear Modulus (GPa) = 22.20617 39.18509 30.69563
#
# Velocity S-wave (km/s) = 2.88375 3.83072 3.39046
# Velocity P-wave (km/s) = 5.42698 6.59590 6.03978
#
# Compressibility (1/GPa) = 0.02039259
#
# Stress axis : x y z
#
# Youngs Moduli (GPa) = 109.48852 49.52582 56.95061
#
# Poissons Ratio (x) = 0.34595 -0.31429
# Poissons Ratio (y) = 0.76480 0.67083
# Poissons Ratio (z) = -0.60423 0.58337
#
# Static dielectric constant tensor:
#      x y z
#    x 2.272250 0.000000 -0.027430 
#    y 0.000000 2.164100 0.000000 
#    z -0.027430 0.000000 2.105560 
# 
# From -- ./inp_files/43820.got.cif
#   From: 2010.05.17/outbox.cif.g08.bks.cpg/sg5_22_cif.got.tgz:43820.got - 2010.06.03 18:56:24.
