data_PCOD9125731
_publ_section_title
;
Structure prediction by ZEFSAII (Michael W. Deem and Ramdas Pophale) SiO2 
 PCOD9125731
Probable space group: C 2
;
_chemical_formula_sum "Si O2"
_cell_formula_units_Z 30
_cell_length_a 25.589784
_cell_length_b 8.813240
_cell_length_c 5.316464
_cell_angle_alpha 90.000000
_cell_angle_beta 96.435834
_cell_angle_gamma 90.000000
_cell_volume 1191.460131
_symmetry_space_group_name_H-M "C 2"
_symmetry_group_IT_number 5
_symmetry_cell_setting 'monoclinic'
loop_
_space_group_symop_operation_xyz
x,y,z
-x,y,-z
1/2+x,1/2+y,z
1/2-x,1/2+y,-z
loop_
_atom_site_type_symbol
_atom_site_label
_atom_site_fract_x
_atom_site_fract_y
_atom_site_fract_z
Si Si1 0.731963 0.106020 0.002881
Si Si2 0.556455 0.646082 0.889597
Si Si3 0.322483 0.282036 0.386612
Si Si4 0.418141 0.472781 0.606803
Si Si5 0.217682 0.320677 0.652562
Si Si6 0.445545 0.991224 0.115108
Si Si7 0.147401 0.494603 0.325992
Si Si8 0.500000 0.230608 0.500000
O O1 0.783111 0.186077 0.142433
O O2 0.700656 0.016720 0.197502
O O3 0.694744 0.249626 0.907520
O O4 0.733784 0.982576 0.785025
O O5 0.588374 0.565769 0.135887
O O6 0.500000 0.644716 0.000000
O O7 0.560134 0.557708 0.629873
O O8 0.567410 0.819304 0.811422
O O9 0.361071 0.413196 0.488660
O O10 0.266512 0.284448 0.497545
O O11 0.353648 0.130318 0.478351
O O12 0.461772 0.335956 0.653437
O O13 0.161847 0.342734 0.485236
O O14 0.460375 0.120763 0.323394
O O15 0.500000 0.977996 0.000000
O O16 0.399853 0.018261 0.888840
#
# Coordination Sequence:
#
# PCOD9125731 Si02
#       8
#     4   4   4   4   4   4   4   2
#     4  10  21  43  66  97 142 183 236 306 354 445
#     4  11  26  50  70 105 160 190 242 313 394 443
#     4  10  23  41  70 101 139 182 246 305 354 442
#     4  12  26  47  75 111 147 198 251 316 374 456
#     4  10  22  43  70  98 140 188 232 302 376 425
#     4  11  27  46  74 106 147 196 247 313 378 454
#     4  10  22  45  69 103 140 181 246 305 360 437
#     4  12  26  42  86 104 142 204 262 298 384 450
#
# _framework density 25.179186000000001
#
# number of rings (size 3 to 8) (size 9 to 14) (size 15 to 20)
#    0.000    1.333    1.333    2.400   11.200    1.067 
#   12.000    0.000    0.000    0.000    0.000    0.000 
#    0.000    0.000    0.000    0.000    0.000    0.000 
#
# Total GULP energy -83758.736870 kJ/mol
# GULP energy per Si atom -5583.915791 kJ/mol
# Density = 2.512188 g / cm^3
# Si number density = 25.179186 Si / 1000 Ang^3
#
#
#
# Elastic Constant Matrix: (Units=GPa)
#
#
# Indices 1 2 3 4 5 6 
#
# 1 68.2023 24.9857 33.3205 0.0000 7.0565 0.0000
# 2 24.9857 88.3683 50.6360 0.0000 16.2002 0.0000
# 3 33.3205 50.6360 116.8483 0.0000 28.6087 0.0000
# 4 0.0000 0.0000 0.0000 71.2726 0.0000 18.2773
# 5 7.0565 16.2002 28.6087 0.0000 46.1464 0.0000
# 6 0.0000 0.0000 0.0000 18.2773 0.0000 24.8129
#
#
#
# Elastic Compliance Matrix: (Units=1/GPa)
#
#
# Indices 1 2 3 4 5 6 
#
# 1 0.017559 -0.002832 -0.003968 0.000000 0.000769 0.000000
# 2 -0.002832 0.015595 -0.005560 0.000000 -0.001595 0.000000
# 3 -0.003968 -0.005560 0.013526 0.000000 -0.005827 0.000000
# 4 0.000000 0.000000 0.000000 0.017298 0.000000 -0.012742
# 5 0.000769 -0.001595 -0.005827 0.000000 0.025725 0.000000
# 6 0.000000 0.000000 0.000000 -0.012742 0.000000 0.049687
#
#
# Mechanical properties :
#
#
# Convention : Reuss Voigt Hill
#
# Bulk Modulus (GPa) = 45.53879 54.58928 50.06403
# Shear Modulus (GPa) = 29.16630 39.41149 34.28889
#
# Velocity S-wave (km/s) = 3.40715 3.96060 3.69425
# Velocity P-wave (km/s) = 5.79684 6.53013 6.17438
#
# Compressibility (1/GPa) = 0.02195930
#
# Stress axis : x y z
#
# Youngs Moduli (GPa) = 56.95150 64.12139 73.93286
#
# Poissons Ratio (x) = 0.18158 0.29338
# Poissons Ratio (y) = 0.16128 0.41109
# Poissons Ratio (z) = 0.22600 0.35653
#
# Static dielectric constant tensor:
#      x y z
#    x 1.974070 0.000000 0.061250 
#    y 0.000000 2.068340 0.000000 
#    z 0.061250 0.000000 2.042150 
# 
# From -- ./inp_files/11259.got.cif
#   From: 2010.05.17/outbox.cif.g08.bks.cpg/sg5_6_cif.got.tgz:11259.got - 2010.06.03 18:56:24.
