data_PCOD9125412
_publ_section_title
;
Structure prediction by ZEFSAII (Michael W. Deem and Ramdas Pophale) SiO2 
 PCOD9125412
Probable space group: C 2
;
_chemical_formula_sum "Si O2"
_cell_formula_units_Z 24
_cell_length_a 13.975937
_cell_length_b 11.486639
_cell_length_c 19.235001
_cell_angle_alpha 90.000000
_cell_angle_beta 20.833488
_cell_angle_gamma 90.000000
_cell_volume 1098.229092
_symmetry_space_group_name_H-M "C 2"
_symmetry_group_IT_number 5
_symmetry_cell_setting 'monoclinic'
loop_
_space_group_symop_operation_xyz
x,y,z
-x,y,-z
1/2+x,1/2+y,z
1/2-x,1/2+y,-z
loop_
_atom_site_type_symbol
_atom_site_label
_atom_site_fract_x
_atom_site_fract_y
_atom_site_fract_z
Si Si1 0.624311 0.619070 0.312980
Si Si2 0.949309 0.182517 0.923406
Si Si3 0.371447 0.231040 0.265511
Si Si4 0.560206 0.415195 0.038456
Si Si5 0.967777 0.247426 0.284363
Si Si6 0.919800 0.848890 0.636653
O O1 0.869750 0.646051 0.198886
O O2 0.373474 0.684144 0.521937
O O3 0.615708 0.676260 0.243675
O O4 0.599838 0.480966 0.324814
O O5 0.045122 0.176253 0.778073
O O6 0.149530 0.272977 0.824135
O O7 0.956448 0.053080 0.947389
O O8 0.642181 0.224252 0.126046
O O9 0.369782 0.354907 0.226064
O O10 0.500000 0.379844 0.000000
O O11 0.856963 0.363079 0.851216
O O12 0.666555 0.285311 0.507151
O O13 0.000000 0.855886 0.500000
#
# Coordination Sequence:
#
# PCOD9125412 Si02
#       6
#     4   4   4   4   4   4
#     4  11  21  41  70  98 129 169 222 268 327 392
#     4  10  24  40  64  95 131 175 216 264 331 379
#     4  10  22  39  67  97 127 173 217 264 326 382
#     4  11  22  42  65  94 134 171 218 271 320 387
#     4  10  23  42  66  98 126 177 216 268 330 381
#     4  10  21  41  65  93 132 171 209 271 326 385
#
# _framework density 21.853363000000002
#
# number of rings (size 3 to 8) (size 9 to 14) (size 15 to 20)
#    0.000    1.667    3.333    1.000    4.667    4.000 
#    9.000    1.667    7.333    0.000    0.000    0.000 
#    0.000    0.000    0.000    0.000    0.000    0.000 
#
# Total GULP energy -66988.947332 kJ/mol
# GULP energy per Si atom -5582.412278 kJ/mol
# Density = 2.180362 g / cm^3
# Si number density = 21.853363 Si / 1000 Ang^3
#
#
#
# Elastic Constant Matrix: (Units=GPa)
#
#
# Indices 1 2 3 4 5 6 
#
# 1 68.3723 50.6811 36.9476 -0.0015 -1.3330 0.0065
# 2 50.6811 126.8307 54.2611 -0.0187 -0.5437 0.0230
# 3 36.9476 54.2611 107.4828 0.0233 -15.8989 0.0277
# 4 -0.0015 -0.0187 0.0233 23.9823 -0.0169 3.3613
# 5 -1.3330 -0.5437 -15.8989 -0.0169 34.0555 -0.0225
# 6 0.0065 0.0230 0.0277 3.3613 -0.0225 30.1010
#
#
#
# Elastic Compliance Matrix: (Units=1/GPa)
#
#
# Indices 1 2 3 4 5 6 
#
# 1 0.022095 -0.007025 -0.004230 -0.000001 -0.001222 0.000004
# 2 -0.007025 0.012472 -0.004181 0.000013 -0.002028 -0.000007
# 3 -0.004230 -0.004181 0.013786 -0.000012 0.006204 -0.000003
# 4 -0.000001 0.000013 -0.000012 0.042361 0.000012 -0.004730
# 5 -0.001222 -0.002028 0.006204 0.000012 0.032180 0.000019
# 6 0.000004 -0.000007 -0.000003 -0.004730 0.000019 0.033750
#
#
# Mechanical properties :
#
#
# Convention : Reuss Voigt Hill
#
# Bulk Modulus (GPa) = 57.20342 65.16284 61.18313
# Shear Modulus (GPa) = 25.86097 28.34747 27.10422
#
# Velocity S-wave (km/s) = 3.44377 3.60553 3.52558
# Velocity P-wave (km/s) = 6.48426 6.87139 6.68063
#
# Compressibility (1/GPa) = 0.01748147
#
# Stress axis : x y z
#
# Youngs Moduli (GPa) = 45.25983 80.18103 72.53549
#
# Poissons Ratio (x) = 0.56325 0.30679
# Poissons Ratio (y) = 0.31794 0.30330
# Poissons Ratio (z) = 0.19143 0.33527
#
# Static dielectric constant tensor:
#      x y z
#    x 1.825020 0.000000 0.010940 
#    y 0.000000 1.748580 0.000040 
#    z 0.010940 0.000040 1.879430 
# 
# From -- ./inp_files/66071.got.cif
#   From: 2010.05.17/outbox.cif.g08.bks.cpg/sg5_34_cif.got.tgz:66071.got - 2010.06.03 18:56:24.
