data_PCOD9125765
_publ_section_title
;
Structure prediction by ZEFSAII (Michael W. Deem and Ramdas Pophale) SiO2 
 PCOD9125765
Probable space group: C 2
;
_chemical_formula_sum "Si O2"
_cell_formula_units_Z 30
_cell_length_a 17.129916
_cell_length_b 5.085483
_cell_length_c 14.698460
_cell_angle_alpha 90.000000
_cell_angle_beta 113.770886
_cell_angle_gamma 90.000000
_cell_volume 1171.813481
_symmetry_space_group_name_H-M "C 2"
_symmetry_group_IT_number 5
_symmetry_cell_setting 'monoclinic'
loop_
_space_group_symop_operation_xyz
x,y,z
-x,y,-z
1/2+x,1/2+y,z
1/2-x,1/2+y,-z
loop_
_atom_site_type_symbol
_atom_site_label
_atom_site_fract_x
_atom_site_fract_y
_atom_site_fract_z
Si Si1 0.070214 0.567200 0.675992
Si Si2 0.992143 0.037927 0.254791
Si Si3 0.874634 0.216009 0.053546
Si Si4 0.174222 0.398502 0.558381
Si Si5 0.000000 0.567645 0.000000
Si Si6 0.237208 0.517503 0.852218
Si Si7 0.128253 0.765051 0.202245
Si Si8 0.293994 0.896466 0.629207
O O1 0.031333 0.324286 0.716111
O O2 0.096453 0.463230 0.589032
O O3 0.161018 0.657972 0.763703
O O4 0.015803 0.827506 0.667267
O O5 0.922851 0.000367 0.138935
O O6 0.081480 0.963541 0.249250
O O7 0.950288 0.393485 0.050159
O O8 0.809802 0.356010 0.091517
O O9 0.814898 0.158397 0.939036
O O10 0.217945 0.114810 0.592059
O O11 0.155337 0.416743 0.442185
O O12 0.246545 0.619595 0.609334
O O13 0.067550 0.735066 0.087140
O O14 0.281557 0.342617 0.796959
O O15 0.145169 0.491697 0.261467
#
# Coordination Sequence:
#
# PCOD9125765 Si02
#       8
#     4   4   4   4   2   4   4   4
#     4  11  23  42  69  99 131 181 220 293 338 415
#     4  11  25  42  64  94 145 177 225 271 360 406
#     4  11  23  41  59  99 133 186 230 294 332 413
#     4  10  21  43  69 107 132 172 225 301 347 404
#     4  12  26  40  68  94 150 184 230 274 358 410
#     4  11  22  36  66  91 131 168 247 272 339 390
#     4  12  24  43  64 103 134 193 222 288 339 425
#     4  10  23  40  72 103 139 167 233 290 352 404
#
# _framework density 25.601345999999999
#
# number of rings (size 3 to 8) (size 9 to 14) (size 15 to 20)
#    0.000    1.067    1.333    5.600    3.733    2.133 
#    0.000    0.667    0.000    3.200    0.000    0.000 
#    0.000    0.000    0.000    0.000    0.000    0.000 
#
# Total GULP energy -83996.148658 kJ/mol
# GULP energy per Si atom -5599.743244 kJ/mol
# Density = 2.554308 g / cm^3
# Si number density = 25.601346 Si / 1000 Ang^3
#
#
#
# Elastic Constant Matrix: (Units=GPa)
#
#
# Indices 1 2 3 4 5 6 
#
# 1 131.6210 27.4658 23.6465 0.0000 -30.0209 0.0000
# 2 27.4658 69.5336 -5.5949 0.0000 -6.5259 0.0000
# 3 23.6465 -5.5949 87.3621 0.0000 -20.8506 0.0000
# 4 0.0000 0.0000 0.0000 32.6300 0.0000 -6.3039
# 5 -30.0209 -6.5259 -20.8506 0.0000 56.5982 0.0000
# 6 0.0000 0.0000 0.0000 -6.3039 0.0000 25.3501
#
#
#
# Elastic Compliance Matrix: (Units=1/GPa)
#
#
# Indices 1 2 3 4 5 6 
#
# 1 0.009586 -0.003563 -0.001872 0.000000 0.003984 0.000000
# 2 -0.003563 0.016035 0.002173 0.000000 0.000759 0.000000
# 3 -0.001872 0.002173 0.013064 0.000000 0.004070 0.000000
# 4 0.000000 0.000000 0.000000 0.032193 0.000000 0.008006
# 5 0.003984 0.000759 0.004070 0.000000 0.021369 0.000000
# 6 0.000000 0.000000 0.000000 0.008006 0.000000 0.041438
#
#
# Mechanical properties :
#
#
# Convention : Reuss Voigt Hill
#
# Bulk Modulus (GPa) = 31.09464 42.17240 36.63352
# Shear Modulus (GPa) = 33.12775 39.11559 36.12167
#
# Velocity S-wave (km/s) = 3.60110 3.91304 3.76031
# Velocity P-wave (km/s) = 5.42795 6.07654 5.76138
#
# Compressibility (1/GPa) = 0.03215988
#
# Stress axis : x y z
#
# Youngs Moduli (GPa) = 104.31668 62.36323 76.54687
#
# Poissons Ratio (x) = 0.22222 0.14330
# Poissons Ratio (y) = 0.37171 -0.16631
# Poissons Ratio (z) = 0.19528 -0.13549
#
# Static dielectric constant tensor:
#      x y z
#    x 2.008500 0.000000 0.038300 
#    y 0.000000 2.009470 0.000000 
#    z 0.038300 0.000000 2.050600 
# 
# From -- ./inp_files/55442.got.cif
#   From: 2010.05.17/outbox.cif.g08.bks.cpg/sg5_28_cif.got.tgz:55442.got - 2010.06.03 18:56:24.
