data_PCOD9125502
_publ_section_title
;
Structure prediction by ZEFSAII (Michael W. Deem and Ramdas Pophale) SiO2 
 PCOD9125502
Probable space group: C 2
;
_chemical_formula_sum "Si O2"
_cell_formula_units_Z 30
_cell_length_a 21.065724
_cell_length_b 15.185828
_cell_length_c 14.076755
_cell_angle_alpha 90.000000
_cell_angle_beta 18.639925
_cell_angle_gamma 90.000000
_cell_volume 1439.298595
_symmetry_space_group_name_H-M "C 2"
_symmetry_group_IT_number 5
_symmetry_cell_setting 'monoclinic'
loop_
_space_group_symop_operation_xyz
x,y,z
-x,y,-z
1/2+x,1/2+y,z
1/2-x,1/2+y,-z
loop_
_atom_site_type_symbol
_atom_site_label
_atom_site_fract_x
_atom_site_fract_y
_atom_site_fract_z
Si Si1 0.884825 0.985110 0.791270
Si Si2 0.226919 0.143611 0.698434
Si Si3 0.000000 0.428975 0.000000
Si Si4 0.349324 0.327753 0.126891
Si Si5 0.137405 0.162692 0.386448
Si Si6 0.414967 0.327449 0.410161
Si Si7 0.217410 0.502730 0.232261
Si Si8 0.036671 0.539548 0.142997
O O1 0.982575 0.887807 0.652522
O O2 0.848893 0.991301 0.953639
O O3 0.022422 0.071552 0.576268
O O4 0.686565 0.993886 0.007697
O O5 0.367093 0.228012 0.507619
O O6 0.329031 0.073840 0.480411
O O7 0.221973 0.090654 0.802326
O O8 0.000000 0.168608 0.000000
O O9 0.200445 0.373380 0.701028
O O10 0.981132 0.485569 0.929522
O O11 0.203958 0.245153 0.355191
O O12 0.232508 0.418957 0.279565
O O13 0.500000 0.335122 0.000000
O O14 0.464343 0.320720 0.861430
O O15 0.000000 0.203992 0.500000
O O16 0.343260 0.127197 0.054160
O O17 0.000000 0.510321 0.500000
#
# Coordination Sequence:
#
# PCOD9125502 Si02
#       8
#     4   4   2   4   4   4   4   4
#     4  10  23  46  71  98 135 180 236 285 338 417
#     4  12  26  45  68 104 145 182 224 290 346 416
#     4  12  26  44  68 100 132 188 230 282 354 406
#     4  11  25  41  68  99 135 179 232 285 347 405
#     4  10  21  41  69  98 128 173 230 284 335 405
#     4  11  25  45  66  98 143 182 229 286 343 417
#     4  11  24  45  67  96 135 184 228 279 347 410
#     4  11  24  44  71  98 135 180 230 285 341 406
#
# _framework density 20.843485999999999
#
# number of rings (size 3 to 8) (size 9 to 14) (size 15 to 20)
#    0.000    1.067    4.667    0.800    6.533    1.067 
#    2.400    0.000    0.000    0.000    0.000    0.000 
#    0.000    0.000    0.000    0.000    0.000    0.000 
#
# Total GULP energy -83600.283342 kJ/mol
# GULP energy per Si atom -5573.352223 kJ/mol
# Density = 2.079605 g / cm^3
# Si number density = 20.843486 Si / 1000 Ang^3
#
#
#
# Elastic Constant Matrix: (Units=GPa)
#
#
# Indices 1 2 3 4 5 6 
#
# 1 68.1299 34.5323 -18.8397 -0.0021 -1.0325 0.0012
# 2 34.5323 86.4868 1.3631 0.0004 -0.7502 0.0017
# 3 -18.8397 1.3631 34.5108 -0.0023 10.8784 0.0033
# 4 -0.0021 0.0004 -0.0023 28.4952 0.0000 1.2971
# 5 -1.0325 -0.7502 10.8784 0.0000 25.2920 -0.0005
# 6 0.0012 0.0017 0.0033 1.2971 -0.0005 18.4200
#
#
#
# Elastic Compliance Matrix: (Units=1/GPa)
#
#
# Indices 1 2 3 4 5 6 
#
# 1 0.023742 -0.009770 0.015193 0.000003 -0.005855 -0.000004
# 2 -0.009770 0.015599 -0.006906 -0.000002 0.003034 0.000001
# 3 0.015193 -0.006906 0.043280 0.000005 -0.018200 -0.000009
# 4 0.000003 -0.000002 0.000005 0.035206 -0.000002 -0.002479
# 5 -0.005855 0.003034 -0.018200 -0.000002 0.047217 0.000005
# 6 -0.000004 0.000001 -0.000009 -0.002479 0.000005 0.054463
#
#
# Mechanical properties :
#
#
# Convention : Reuss Voigt Hill
#
# Bulk Modulus (GPa) = 12.55437 24.80432 18.67935
# Shear Modulus (GPa) = 20.07826 25.91290 22.99558
#
# Velocity S-wave (km/s) = 3.10705 3.52975 3.32512
# Velocity P-wave (km/s) = 4.34833 5.34212 4.87064
#
# Compressibility (1/GPa) = 0.07965352
#
# Stress axis : x y z
#
# Youngs Moduli (GPa) = 42.11899 64.10850 23.10553
#
# Poissons Ratio (x) = 0.62634 -0.35103
# Poissons Ratio (y) = 0.41150 0.15957
# Poissons Ratio (z) = -0.63989 0.44273
#
# Static dielectric constant tensor:
#      x y z
#    x 1.756620 0.000000 0.042410 
#    y 0.000000 1.767260 0.000000 
#    z 0.042410 0.000000 1.788360 
# 
# From -- ./inp_files/57128.got.cif
#   From: 2010.05.17/outbox.cif.g08.bks.cpg/sg5_29_cif.got.tgz:57128.got - 2010.06.03 18:56:24.
