data_PCOD9125048
_publ_section_title
;
Structure prediction by ZEFSAII (Michael W. Deem and Ramdas Pophale) SiO2 
 PCOD9125048
Probable space group: C 2
;
_chemical_formula_sum "Si O2"
_cell_formula_units_Z 32
_cell_length_a 22.258979
_cell_length_b 15.271714
_cell_length_c 8.095576
_cell_angle_alpha 90.000000
_cell_angle_beta 32.729534
_cell_angle_gamma 90.000000
_cell_volume 1487.908678
_symmetry_space_group_name_H-M "C 2"
_symmetry_group_IT_number 5
_symmetry_cell_setting 'monoclinic'
loop_
_space_group_symop_operation_xyz
x,y,z
-x,y,-z
1/2+x,1/2+y,z
1/2-x,1/2+y,-z
loop_
_atom_site_type_symbol
_atom_site_label
_atom_site_fract_x
_atom_site_fract_y
_atom_site_fract_z
Si Si1 0.803916 0.920180 0.692262
Si Si2 0.216822 0.613696 0.873258
Si Si3 0.031050 0.996199 0.117676
Si Si4 0.979267 0.728658 0.743569
Si Si5 0.226211 0.734388 0.175832
Si Si6 0.955655 0.180661 0.772074
Si Si7 0.693746 0.363696 0.697056
Si Si8 0.110591 0.248205 0.635179
O O1 0.769045 0.837309 0.883259
O O2 0.798447 0.880617 0.517639
O O3 0.736264 0.010921 0.848739
O O4 0.929061 0.950454 0.447848
O O5 0.311672 0.661049 0.542429
O O6 0.095206 0.640879 0.090304
O O7 0.230850 0.667091 0.012398
O O8 0.036405 0.098820 0.126710
O O9 0.000000 0.977149 0.000000
O O10 0.150092 0.953944 0.877015
O O11 0.000000 0.753099 0.500000
O O12 0.102047 0.721339 0.534893
O O13 0.903493 0.796745 0.020016
O O14 0.331324 0.715014 0.047708
O O15 0.000000 0.141278 0.500000
O O16 0.049879 0.251716 0.598085
O O17 0.807879 0.325534 0.502342
O O18 0.000000 0.246799 0.000000
#
# Coordination Sequence:
#
# PCOD9125048 Si02
#       8
#     4   4   4   4   4   4   4   4
#     4  11  21  40  69  96 132 179 233 279 337 416
#     4  10  22  43  66 100 136 180 226 284 348 402
#     4  10  21  39  65  96 130 171 227 283 331 394
#     4   9  20  40  68  94 136 174 221 282 347 399
#     4  11  22  42  65  99 138 175 225 282 339 413
#     4  12  23  40  60  99 138 176 221 276 342 405
#     4  10  22  40  66 101 125 173 239 280 332 403
#     4  11  22  41  65  91 134 181 221 278 343 403
#
# _framework density 21.506698
#
# number of rings (size 3 to 8) (size 9 to 14) (size 15 to 20)
#    0.000    1.500    3.750    1.125    1.750    0.500 
#    9.000    4.375    0.000    0.000    0.000    0.000 
#    0.000    0.000    0.000    0.000    0.000    0.000 
#
# Total GULP energy -89231.802327 kJ/mol
# GULP energy per Si atom -5576.987645 kJ/mol
# Density = 2.145775 g / cm^3
# Si number density = 21.506698 Si / 1000 Ang^3
#
#
#
# Elastic Constant Matrix: (Units=GPa)
#
#
# Indices 1 2 3 4 5 6 
#
# 1 65.3344 46.0526 38.8191 0.0000 -36.3009 0.0000
# 2 46.0526 142.7101 57.1657 0.0000 -21.5414 0.0000
# 3 38.8191 57.1657 114.9223 0.0000 -34.9393 0.0000
# 4 0.0000 0.0000 0.0000 28.3636 0.0000 -2.5617
# 5 -36.3009 -21.5414 -34.9393 0.0000 50.8125 0.0000
# 6 0.0000 0.0000 0.0000 -2.5617 0.0000 29.7250
#
#
#
# Elastic Compliance Matrix: (Units=1/GPa)
#
#
# Indices 1 2 3 4 5 6 
#
# 1 0.031113 -0.006615 -0.001661 0.000000 0.018281 0.000000
# 2 -0.006615 0.010191 -0.003740 0.000000 -0.002977 0.000000
# 3 -0.001661 -0.003740 0.012997 0.000000 0.006165 0.000000
# 4 0.000000 0.000000 0.000000 0.035533 0.000000 0.003062
# 5 0.018281 -0.002977 0.006165 0.000000 0.035717 0.000000
# 6 0.000000 0.000000 0.000000 0.003062 0.000000 0.033906
#
#
# Mechanical properties :
#
#
# Convention : Reuss Voigt Hill
#
# Bulk Modulus (GPa) = 33.03790 67.44909 50.24350
# Shear Modulus (GPa) = 25.82943 33.84218 29.83581
#
# Velocity S-wave (km/s) = 3.46930 3.97112 3.72866
# Velocity P-wave (km/s) = 5.60741 7.24268 6.47686
#
# Compressibility (1/GPa) = 0.03026827
#
# Stress axis : x y z
#
# Youngs Moduli (GPa) = 32.14116 98.12956 76.94000
#
# Poissons Ratio (x) = 0.64916 0.12780
# Poissons Ratio (y) = 0.21263 0.28773
# Poissons Ratio (z) = 0.05339 0.36698
#
# Static dielectric constant tensor:
#      x y z
#    x 1.948880 0.000000 0.106940 
#    y 0.000000 1.764470 0.000000 
#    z 0.106940 0.000000 1.892820 
# 
# From -- ./inp_files/31033.got.cif
#   From: 2010.05.17/outbox.cif.g08.bks.cpg/sg5_16_cif.got.tgz:31033.got - 2010.06.03 18:56:24.
