data_PCOD9125224
_publ_section_title
;
Structure prediction by ZEFSAII (Michael W. Deem and Ramdas Pophale) SiO2 
 PCOD9125224
Probable space group: C 2
;
_chemical_formula_sum "Si O2"
_cell_formula_units_Z 22
_cell_length_a 12.985312
_cell_length_b 5.315306
_cell_length_c 21.948205
_cell_angle_alpha 90.000000
_cell_angle_beta 140.557854
_cell_angle_gamma 90.000000
_cell_volume 962.404560
_symmetry_space_group_name_H-M "C 2"
_symmetry_group_IT_number 5
_symmetry_cell_setting 'monoclinic'
loop_
_space_group_symop_operation_xyz
x,y,z
-x,y,-z
1/2+x,1/2+y,z
1/2-x,1/2+y,-z
loop_
_atom_site_type_symbol
_atom_site_label
_atom_site_fract_x
_atom_site_fract_y
_atom_site_fract_z
Si Si1 0.022848 0.280090 0.706446
Si Si2 0.683802 0.419885 0.559781
Si Si3 0.843090 0.776029 0.179302
Si Si4 0.097216 0.419304 0.481061
Si Si5 0.000000 0.530230 0.000000
Si Si6 0.357420 0.273294 0.052085
O O1 0.138856 0.501207 0.783606
O O2 0.851686 0.321878 0.664847
O O3 0.994921 0.326686 0.621320
O O4 0.085064 0.001213 0.747230
O O5 0.500000 0.448368 0.500000
O O6 0.721101 0.703374 0.557845
O O7 0.661143 0.199921 0.500028
O O8 0.931430 0.777927 0.153611
O O9 0.657941 0.858811 0.082612
O O10 0.000000 0.455461 0.500000
O O11 0.031891 0.698993 0.954539
O O12 0.273235 0.543925 0.004600
#
# Coordination Sequence:
#
# PCOD9125224 Si02
#       6
#     4   4   4   4   2   4
#     4  12  23  42  66 101 139 171 236 289 323 404
#     4  10  21  40  65  89 130 182 221 272 347 403
#     4  11  25  43  70 107 134 179 230 288 339 408
#     4  10  21  40  65  91 132 184 223 269 350 411
#     4  10  24  50  74  96 146 194 216 284 366 410
#     4  10  22  44  73  97 134 184 232 274 351 421
#
# _framework density 22.859411000000001
#
# number of rings (size 3 to 8) (size 9 to 14) (size 15 to 20)
#    0.000    1.455    0.000    5.455    0.000    6.545 
#   19.636    0.000    0.000    0.000    0.000    0.000 
#    0.000    0.000    0.000    0.000    0.000    0.000 
#
# Total GULP energy -61262.667293 kJ/mol
# GULP energy per Si atom -5569.333390 kJ/mol
# Density = 2.280738 g / cm^3
# Si number density = 22.859411 Si / 1000 Ang^3
#
#
#
# Elastic Constant Matrix: (Units=GPa)
#
#
# Indices 1 2 3 4 5 6 
#
# 1 101.9585 -10.2610 10.8882 0.0001 2.5751 0.0005
# 2 -10.2610 105.8426 3.0409 0.0003 -3.0915 0.0017
# 3 10.8882 3.0409 71.0546 0.0002 -9.3353 0.0000
# 4 0.0001 0.0003 0.0002 42.6670 -0.0001 -2.9271
# 5 2.5751 -3.0915 -9.3353 -0.0001 44.5180 0.0000
# 6 0.0005 0.0017 0.0000 -2.9271 0.0000 5.9234
#
#
#
# Elastic Compliance Matrix: (Units=1/GPa)
#
#
# Indices 1 2 3 4 5 6 
#
# 1 0.010113 0.001004 -0.001707 0.000000 -0.000873 -0.000001
# 2 0.001004 0.009574 -0.000498 0.000000 0.000502 -0.000003
# 3 -0.001707 -0.000498 0.014772 0.000000 0.003162 0.000000
# 4 0.000000 0.000000 0.000000 0.024260 0.000000 0.011988
# 5 -0.000873 0.000502 0.003162 0.000000 0.023211 0.000000
# 6 -0.000001 -0.000003 0.000000 0.011988 0.000000 0.174745
#
#
# Mechanical properties :
#
#
# Convention : Reuss Voigt Hill
#
# Bulk Modulus (GPa) = 31.19383 31.79909 31.49646
# Shear Modulus (GPa) = 18.53478 36.96752 27.75115
#
# Velocity S-wave (km/s) = 2.85057 4.02577 3.48802
# Velocity P-wave (km/s) = 4.95075 5.96238 5.47996
#
# Compressibility (1/GPa) = 0.03205762
#
# Stress axis : x y z
#
# Youngs Moduli (GPa) = 98.87920 104.44630 67.69550
#
# Poissons Ratio (x) = -0.10486 0.11559
# Poissons Ratio (y) = -0.09927 0.03368
# Poissons Ratio (z) = 0.16883 0.05197
#
# Static dielectric constant tensor:
#      x y z
#    x 1.816580 0.000000 -0.010310 
#    y 0.000000 1.858190 0.000000 
#    z -0.010310 0.000000 1.876140 
# 
# From -- ./inp_files/48246.got.cif
#   From: 2010.05.17/outbox.cif.g08.bks.cpg/sg5_25_cif.got.tgz:48246.got - 2010.06.03 18:56:24.
