data_PCOD9125410
_publ_section_title
;
Structure prediction by ZEFSAII (Michael W. Deem and Ramdas Pophale) SiO2 
 PCOD9125410
Probable space group: C 2
;
_chemical_formula_sum "Si O2"
_cell_formula_units_Z 20
_cell_length_a 9.382803
_cell_length_b 5.501902
_cell_length_c 15.018743
_cell_angle_alpha 90.000000
_cell_angle_beta 101.617844
_cell_angle_gamma 90.000000
_cell_volume 759.432278
_symmetry_space_group_name_H-M "C 2"
_symmetry_group_IT_number 5
_symmetry_cell_setting 'monoclinic'
loop_
_space_group_symop_operation_xyz
x,y,z
-x,y,-z
1/2+x,1/2+y,z
1/2-x,1/2+y,-z
loop_
_atom_site_type_symbol
_atom_site_label
_atom_site_fract_x
_atom_site_fract_y
_atom_site_fract_z
Si Si1 0.204011 0.346490 0.703375
Si Si2 0.322029 0.125029 0.471065
Si Si3 0.845665 0.100164 0.876161
Si Si4 0.423971 0.968640 0.741889
Si Si5 0.574671 0.234839 0.920215
O O1 0.210706 0.575150 0.638094
O O2 0.270885 0.382867 0.810388
O O3 0.032222 0.306289 0.695929
O O4 0.308084 0.137575 0.678313
O O5 0.500000 0.138517 0.500000
O O6 0.255523 0.873881 0.505613
O O7 0.844939 0.316086 0.806803
O O8 0.744926 0.181163 0.944330
O O9 0.008464 0.005711 0.910571
O O10 0.529501 0.134071 0.817413
O O11 0.500000 0.125850 0.000000
#
# Coordination Sequence:
#
# PCOD9125410 Si02
#       5
#     4   4   4   4   4
#     4  10  23  40  67  93 131 174 230 281 336 427
#     4  12  28  49  74 113 148 191 239 301 372 431
#     4  10  22  40  63  91 125 175 225 270 347 402
#     4  10  21  41  65  92 125 177 226 273 345 403
#     4  10  23  38  59  96 128 168 223 278 337 403
#
# _framework density 26.335462
#
# number of rings (size 3 to 8) (size 9 to 14) (size 15 to 20)
#    0.000    1.600    0.000    3.000    8.400    0.800 
#    0.000    0.000    0.000    0.000    0.000    0.000 
#    0.000    0.000    0.000    0.000    0.000    0.000 
#
# Total GULP energy -55799.514335 kJ/mol
# GULP energy per Si atom -5579.951433 kJ/mol
# Density = 2.627552 g / cm^3
# Si number density = 26.335462 Si / 1000 Ang^3
#
#
#
# Elastic Constant Matrix: (Units=GPa)
#
#
# Indices 1 2 3 4 5 6 
#
# 1 220.4889 73.0304 35.5570 0.0000 3.0808 0.0000
# 2 73.0304 103.9414 23.7461 0.0000 10.8746 0.0000
# 3 35.5570 23.7461 88.8980 0.0000 4.1293 0.0000
# 4 0.0000 0.0000 0.0000 41.9085 0.0000 -14.5732
# 5 3.0808 10.8746 4.1293 0.0000 30.6781 0.0000
# 6 0.0000 0.0000 0.0000 -14.5732 0.0000 33.0104
#
#
#
# Elastic Compliance Matrix: (Units=1/GPa)
#
#
# Indices 1 2 3 4 5 6 
#
# 1 0.006094 -0.004069 -0.001398 0.000000 0.001019 0.000000
# 2 -0.004069 0.013303 -0.001737 0.000000 -0.004073 0.000000
# 3 -0.001398 -0.001737 0.012314 0.000000 -0.000901 0.000000
# 4 0.000000 0.000000 0.000000 0.028189 0.000000 0.012445
# 5 0.001019 -0.004073 -0.000901 0.000000 0.034059 0.000000
# 6 0.000000 0.000000 0.000000 0.012445 0.000000 0.035787
#
#
# Mechanical properties :
#
#
# Convention : Reuss Voigt Hill
#
# Bulk Modulus (GPa) = 57.79225 75.33280 66.56253
# Shear Modulus (GPa) = 33.35066 39.85239 36.60152
#
# Velocity S-wave (km/s) = 3.56248 3.89428 3.73207
# Velocity P-wave (km/s) = 6.23811 6.99198 6.62577
#
# Compressibility (1/GPa) = 0.01730336
#
# Stress axis : x y z
#
# Youngs Moduli (GPa) = 164.08564 75.17252 81.20999
#
# Poissons Ratio (x) = 0.30589 0.11353
# Poissons Ratio (y) = 0.66769 0.14103
# Poissons Ratio (z) = 0.22939 0.13055
#
# Static dielectric constant tensor:
#      x y z
#    x 2.110400 0.000000 0.036340 
#    y 0.000000 2.100260 0.000000 
#    z 0.036340 0.000000 2.125000 
# 
# From -- ./inp_files/59133.got.cif
#   From: 2010.05.17/outbox.cif.g08.bks.cpg/sg5_30_cif.got.tgz:59133.got - 2010.06.03 18:56:24.
