data_PCOD9125420
_publ_section_title
;
Structure prediction by ZEFSAII (Michael W. Deem and Ramdas Pophale) SiO2 
 PCOD9125420
Probable space group: C 2
;
_chemical_formula_sum "Si O2"
_cell_formula_units_Z 26
_cell_length_a 19.359763
_cell_length_b 11.358764
_cell_length_c 6.101824
_cell_angle_alpha 90.000000
_cell_angle_beta 118.006230
_cell_angle_gamma 90.000000
_cell_volume 1184.678766
_symmetry_space_group_name_H-M "C 2"
_symmetry_group_IT_number 5
_symmetry_cell_setting 'monoclinic'
loop_
_space_group_symop_operation_xyz
x,y,z
-x,y,-z
1/2+x,1/2+y,z
1/2-x,1/2+y,-z
loop_
_atom_site_type_symbol
_atom_site_label
_atom_site_fract_x
_atom_site_fract_y
_atom_site_fract_z
Si Si1 0.710515 0.770180 0.180430
Si Si2 0.067700 0.271995 0.282148
Si Si3 0.850275 0.855342 0.097489
Si Si4 0.705774 0.156555 0.317807
Si Si5 0.935615 0.519220 0.723513
Si Si6 0.140633 0.111341 0.726886
Si Si7 0.500000 0.215283 0.500000
O O1 0.649424 0.802242 0.278684
O O2 0.775599 0.844982 0.149857
O O3 0.764086 0.677349 0.391236
O O4 0.654273 0.716183 0.915472
O O5 0.062816 0.396032 0.404886
O O6 0.078953 0.158461 0.454476
O O7 0.000000 0.251797 0.000000
O O8 0.928836 0.790928 0.296795
O O9 0.871113 0.993841 0.146865
O O10 0.824064 0.779427 0.841679
O O11 0.638837 0.061126 0.247551
O O12 0.776849 0.107014 0.280256
O O13 0.960957 0.629966 0.618894
O O14 0.000000 0.496512 0.000000
#
# Coordination Sequence:
#
# PCOD9125420 Si02
#       7
#     4   4   4   4   4   4   2
#     4  10  22  42  64  93 132 175 220 265 332 390
#     4  10  24  42  67  97 130 178 221 276 332 395
#     4  11  23  41  65  99 136 172 224 269 333 399
#     4  10  21  41  65  95 132 175 221 269 332 387
#     4  11  22  41  65  96 132 170 225 274 325 394
#     4  10  24  42  66 100 134 178 217 273 335 400
#     4  12  24  40  66 100 128 180 214 278 330 388
#
# _framework density 21.946876
#
# number of rings (size 3 to 8) (size 9 to 14) (size 15 to 20)
#    0.000    1.538    3.077    0.923    0.000   10.462 
#    0.000    0.769    0.000    0.000    0.000    0.000 
#    0.000    0.000    0.000    0.000    0.000    0.000 
#
# Total GULP energy -72392.728372 kJ/mol
# GULP energy per Si atom -5568.671413 kJ/mol
# Density = 2.189692 g / cm^3
# Si number density = 21.946876 Si / 1000 Ang^3
#
#
#
# Elastic Constant Matrix: (Units=GPa)
#
#
# Indices 1 2 3 4 5 6 
#
# 1 68.5955 3.1615 -1.7033 0.0000 8.6009 0.0000
# 2 3.1615 82.0748 18.1444 0.0000 18.5837 0.0000
# 3 -1.7033 18.1444 77.8931 0.0000 21.4324 0.0000
# 4 0.0000 0.0000 0.0000 10.8333 0.0000 0.8829
# 5 8.6009 18.5837 21.4324 0.0000 32.1809 0.0000
# 6 0.0000 0.0000 0.0000 0.8829 0.0000 5.3431
#
#
#
# Elastic Compliance Matrix: (Units=1/GPa)
#
#
# Indices 1 2 3 4 5 6 
#
# 1 0.015288 0.000244 0.001764 0.000000 -0.005402 0.000000
# 2 0.000244 0.014124 -0.001252 0.000000 -0.007388 0.000000
# 3 0.001764 -0.001252 0.016038 0.000000 -0.010430 0.000000
# 4 0.000000 0.000000 0.000000 0.093568 0.000000 -0.015462
# 5 -0.005402 -0.007388 -0.010430 0.000000 0.043731 0.000000
# 6 0.000000 0.000000 0.000000 -0.015462 0.000000 0.189712
#
#
# Mechanical properties :
#
#
# Convention : Reuss Voigt Hill
#
# Bulk Modulus (GPa) = 21.29368 29.75207 25.52288
# Shear Modulus (GPa) = 12.93314 23.60217 18.26765
#
# Velocity S-wave (km/s) = 2.43017 3.28292 2.88819
# Velocity P-wave (km/s) = 4.19497 5.28734 4.77251
#
# Compressibility (1/GPa) = 0.04696229
#
# Stress axis : x y z
#
# Youngs Moduli (GPa) = 65.41053 70.80071 62.35172
#
# Poissons Ratio (x) = -0.01729 -0.10997
# Poissons Ratio (y) = -0.01598 0.07806
# Poissons Ratio (z) = -0.11536 0.08864
#
# Static dielectric constant tensor:
#      x y z
#    x 1.921650 0.000000 -0.008280 
#    y 0.000000 1.826080 0.000000 
#    z -0.008280 0.000000 1.803730 
# 
# From -- ./inp_files/9506.got.cif
#   From: 2010.05.17/outbox.cif.g08.bks.cpg/sg5_5_cif.got.tgz:9506.got - 2010.06.03 18:56:24.
