data_PCOD9125343
_publ_section_title
;
Structure prediction by ZEFSAII (Michael W. Deem and Ramdas Pophale) SiO2 
 PCOD9125343
Probable space group: C 2
;
_chemical_formula_sum "Si O2"
_cell_formula_units_Z 28
_cell_length_a 9.304531
_cell_length_b 5.325202
_cell_length_c 26.353289
_cell_angle_alpha 90.000000
_cell_angle_beta 61.723198
_cell_angle_gamma 90.000000
_cell_volume 1149.948051
_symmetry_space_group_name_H-M "C 2"
_symmetry_group_IT_number 5
_symmetry_cell_setting 'monoclinic'
loop_
_space_group_symop_operation_xyz
x,y,z
-x,y,-z
1/2+x,1/2+y,z
1/2-x,1/2+y,-z
loop_
_atom_site_type_symbol
_atom_site_label
_atom_site_fract_x
_atom_site_fract_y
_atom_site_fract_z
Si Si1 0.063893 0.353410 0.840717
Si Si2 0.231089 0.026255 0.334552
Si Si3 0.830619 0.761721 0.550786
Si Si4 0.007652 0.394787 0.580106
Si Si5 0.944805 0.648279 0.690062
Si Si6 0.362525 0.886495 0.978629
Si Si7 0.713757 0.852869 0.200047
O O1 0.176331 0.603970 0.819740
O O2 0.956911 0.374247 0.909597
O O3 0.933445 0.338874 0.816181
O O4 0.174319 0.101224 0.826746
O O5 0.248124 0.864702 0.383749
O O6 0.197217 0.851225 0.292511
O O7 0.070020 0.174666 0.375055
O O8 0.390560 0.201920 0.306181
O O9 0.883973 0.482565 0.557732
O O10 0.688127 0.817031 0.535416
O O11 0.000000 0.871230 0.500000
O O12 0.001507 0.620080 0.622096
O O13 0.870505 0.408535 0.731182
O O14 0.500000 0.889963 0.000000
O O15 0.247610 0.639261 0.001739
#
# Coordination Sequence:
#
# PCOD9125343 Si02
#       7
#     4   4   4   4   4   4   4
#     4  12  26  47  68 109 146 183 242 292 351 413
#     4  10  21  41  61  87 120 160 216 269 318 417
#     4  10  23  38  59  92 118 158 206 263 335 391
#     4  10  22  40  61  86 121 158 213 265 319 412
#     4  10  23  38  62  89 119 169 220 262 341 394
#     4  12  24  44  74 104 142 195 238 291 349 415
#     4  12  26  44  70 101 143 187 228 301 350 417
#
# _framework density 24.348925999999999
#
# number of rings (size 3 to 8) (size 9 to 14) (size 15 to 20)
#    0.000    1.143    0.000    5.571    6.000    0.571 
#    0.000    0.000    0.000    0.000    0.000    0.000 
#    0.000    0.000    0.000    0.000    0.000    0.000 
#
# Total GULP energy -78190.503023 kJ/mol
# GULP energy per Si atom -5585.035930 kJ/mol
# Density = 2.429351 g / cm^3
# Si number density = 24.348926 Si / 1000 Ang^3
#
#
#
# Elastic Constant Matrix: (Units=GPa)
#
#
# Indices 1 2 3 4 5 6 
#
# 1 223.1579 85.2816 49.1898 0.0000 -2.8704 0.0000
# 2 85.2816 140.4967 30.5588 0.0000 -8.9000 0.0000
# 3 49.1898 30.5588 110.0774 0.0000 -4.8559 0.0000
# 4 0.0000 0.0000 0.0000 38.2532 0.0000 -20.0682
# 5 -2.8704 -8.9000 -4.8559 0.0000 39.1026 0.0000
# 6 0.0000 0.0000 0.0000 -20.0682 0.0000 44.5376
#
#
#
# Elastic Compliance Matrix: (Units=1/GPa)
#
#
# Indices 1 2 3 4 5 6 
#
# 1 0.006172 -0.003380 -0.001844 0.000000 -0.000545 0.000000
# 2 -0.003380 0.009511 -0.001051 0.000000 0.001786 0.000000
# 3 -0.001844 -0.001051 0.010240 0.000000 0.000897 0.000000
# 4 0.000000 0.000000 0.000000 0.034234 0.000000 0.015426
# 5 -0.000545 0.001786 0.000897 0.000000 0.026052 0.000000
# 6 0.000000 0.000000 0.000000 0.015426 0.000000 0.029404
#
#
# Mechanical properties :
#
#
# Convention : Reuss Voigt Hill
#
# Bulk Modulus (GPa) = 74.77744 89.31025 82.04385
# Shear Modulus (GPa) = 37.70161 44.95881 41.33021
#
# Velocity S-wave (km/s) = 3.93923 4.30168 4.12444
# Velocity P-wave (km/s) = 7.17408 7.83783 7.51329
#
# Compressibility (1/GPa) = 0.01337302
#
# Stress axis : x y z
#
# Youngs Moduli (GPa) = 162.01475 105.14055 97.65742
#
# Poissons Ratio (x) = 0.35538 0.18007
# Poissons Ratio (y) = 0.54762 0.10265
# Poissons Ratio (z) = 0.29874 0.11052
#
# Static dielectric constant tensor:
#      x y z
#    x 2.010930 0.000000 0.027200 
#    y 0.000000 2.002120 0.000000 
#    z 0.027200 0.000000 1.947460 
# 
# From -- ./inp_files/71499.got.cif
#   From: 2010.05.17/outbox.cif.g08.bks.cpg/sg5_36_cif.got.tgz:71499.got - 2010.06.03 18:56:24.
