data_PCOD9125767
_publ_section_title
;
Structure prediction by ZEFSAII (Michael W. Deem and Ramdas Pophale) SiO2 
 PCOD9125767
Probable space group: C 2
;
_chemical_formula_sum "Si O2"
_cell_formula_units_Z 32
_cell_length_a 20.864813
_cell_length_b 8.925292
_cell_length_c 11.779371
_cell_angle_alpha 90.000000
_cell_angle_beta 37.176210
_cell_angle_gamma 90.000000
_cell_volume 1325.527877
_symmetry_space_group_name_H-M "C 2"
_symmetry_group_IT_number 5
_symmetry_cell_setting 'monoclinic'
loop_
_space_group_symop_operation_xyz
x,y,z
-x,y,-z
1/2+x,1/2+y,z
1/2-x,1/2+y,-z
loop_
_atom_site_type_symbol
_atom_site_label
_atom_site_fract_x
_atom_site_fract_y
_atom_site_fract_z
Si Si1 0.332636 0.603320 0.300604
Si Si2 0.109403 0.647947 0.303972
Si Si3 0.645912 0.333427 0.584372
Si Si4 0.293617 0.862291 0.032134
Si Si5 0.911121 0.821426 0.902315
Si Si6 0.682044 0.847394 0.274491
Si Si7 0.448735 0.650267 0.898718
Si Si8 0.612201 0.532065 0.404837
O O1 0.307272 0.440297 0.384847
O O2 0.227970 0.701875 0.448579
O O3 0.389607 0.609267 0.099151
O O4 0.426630 0.657332 0.252562
O O5 0.220794 0.723621 0.172542
O O6 0.102454 0.696687 0.179013
O O7 0.118060 0.501644 0.373926
O O8 0.000000 0.716444 0.500000
O O9 0.526800 0.288890 0.789737
O O10 0.630730 0.427711 0.488412
O O11 0.406020 0.813027 0.922773
O O12 0.216924 0.996316 0.179186
O O13 0.308833 0.858557 0.876499
O O14 0.805974 0.821311 0.127732
O O15 0.921717 0.003275 0.858011
O O16 0.618889 0.709669 0.414955
O O17 0.500000 0.511130 0.500000
#
# Coordination Sequence:
#
# PCOD9125767 Si02
#       8
#     4   4   4   4   4   4   4   4
#     4  10  24  45  69  96 129 177 235 282 343 399
#     4  11  22  38  59  99 139 175 218 269 343 412
#     4  11  24  47  68  99 135 182 227 289 343 405
#     4  11  20  39  65  90 132 180 219 271 331 415
#     4  10  22  40  67  91 132 178 223 274 346 403
#     4  11  24  39  60 103 137 175 223 270 342 416
#     4  10  21  43  69  91 125 181 234 278 334 399
#     4  12  25  41  69 100 140 176 219 281 355 404
#
# _framework density 24.141324999999998
#
# number of rings (size 3 to 8) (size 9 to 14) (size 15 to 20)
#    0.000    1.250    2.500    4.500    5.250    1.000 
#    4.500    0.000    0.000    0.000    0.000    0.000 
#    0.000    0.000    0.000    0.000    0.000    0.000 
#
# Total GULP energy -89136.045330 kJ/mol
# GULP energy per Si atom -5571.002833 kJ/mol
# Density = 2.408638 g / cm^3
# Si number density = 24.141325 Si / 1000 Ang^3
#
#
#
# Elastic Constant Matrix: (Units=GPa)
#
#
# Indices 1 2 3 4 5 6 
#
# 1 76.2980 35.9784 35.6568 0.0000 -1.0192 0.0000
# 2 35.9784 79.9268 9.1876 -0.0001 -25.5552 0.0000
# 3 35.6568 9.1876 84.3670 -0.0001 -19.9506 0.0000
# 4 0.0000 -0.0001 -0.0001 22.1863 0.0000 1.1354
# 5 -1.0192 -25.5552 -19.9506 0.0000 38.8554 0.0000
# 6 0.0000 0.0000 0.0000 1.1354 0.0000 35.2086
#
#
#
# Elastic Compliance Matrix: (Units=1/GPa)
#
#
# Indices 1 2 3 4 5 6 
#
# 1 0.026558 -0.015693 -0.013421 0.000000 -0.016516 0.000000
# 2 -0.015693 0.025168 0.008774 0.000000 0.020647 0.000000
# 3 -0.013421 0.008774 0.020318 0.000000 0.015851 0.000000
# 4 0.000000 0.000000 0.000000 0.045147 0.000000 -0.001456
# 5 -0.016516 0.020647 0.015851 0.000000 0.047021 0.000000
# 6 0.000000 0.000000 0.000000 -0.001456 0.000000 0.028449
#
#
# Mechanical properties :
#
#
# Convention : Reuss Voigt Hill
#
# Bulk Modulus (GPa) = 31.88303 44.69305 38.28804
# Shear Modulus (GPa) = 20.50893 29.90133 25.20513
#
# Velocity S-wave (km/s) = 2.91784 3.52319 3.23471
# Velocity P-wave (km/s) = 4.95855 5.92484 5.46310
#
# Compressibility (1/GPa) = 0.03136465
#
# Stress axis : x y z
#
# Youngs Moduli (GPa) = 37.65363 39.73269 49.21733
#
# Poissons Ratio (x) = 0.62351 0.66054
# Poissons Ratio (y) = 0.59089 -0.43183
# Poissons Ratio (z) = 0.50535 -0.34861
#
# Static dielectric constant tensor:
#      x y z
#    x 2.047300 0.000000 -0.016680 
#    y 0.000000 2.074670 0.000000 
#    z -0.016680 0.000000 1.927810 
# 
# From -- ./inp_files/57693.got.cif
#   From: 2010.05.17/outbox.cif.g08.bks.cpg/sg5_29_cif.got.tgz:57693.got - 2010.06.03 18:56:24.
