data_PCOD9125881
_publ_section_title
;
Structure prediction by ZEFSAII (Michael W. Deem and Ramdas Pophale) SiO2 
 PCOD9125881
Probable space group: C 2
;
_chemical_formula_sum "Si O2"
_cell_formula_units_Z 20
_cell_length_a 16.267724
_cell_length_b 10.932287
_cell_length_c 7.695655
_cell_angle_alpha 90.000000
_cell_angle_beta 36.376821
_cell_angle_gamma 90.000000
_cell_volume 811.720227
_symmetry_space_group_name_H-M "C 2"
_symmetry_group_IT_number 5
_symmetry_cell_setting 'monoclinic'
loop_
_space_group_symop_operation_xyz
x,y,z
-x,y,-z
1/2+x,1/2+y,z
1/2-x,1/2+y,-z
loop_
_atom_site_type_symbol
_atom_site_label
_atom_site_fract_x
_atom_site_fract_y
_atom_site_fract_z
Si Si1 0.442768 0.933130 0.408015
Si Si2 0.226968 0.433332 0.748861
Si Si3 0.372473 0.652266 0.610919
Si Si4 0.151257 0.923514 0.795681
Si Si5 0.859649 0.780936 0.828358
O O1 0.500000 0.967557 0.500000
O O2 0.418069 0.785096 0.463818
O O3 0.293262 0.991564 0.617594
O O4 0.565235 0.951683 0.061130
O O5 0.305207 0.562072 0.588296
O O6 0.281411 0.358485 0.489937
O O7 0.287140 0.376660 0.822755
O O8 0.500000 0.596256 0.500000
O O9 0.250576 0.675170 0.955475
O O10 0.117222 0.838411 0.020104
O O11 0.000000 0.975801 0.000000
O O12 0.000000 0.743083 0.500000
#
# Coordination Sequence:
#
# PCOD9125881 Si02
#       5
#     4   4   4   4   4
#     4  10  21  45  69  95 146 185 228 296 351 416
#     4  12  22  42  73  95 143 187 227 296 353 418
#     4  10  22  41  70 107 136 185 244 280 357 429
#     4  11  23  39  67 103 131 186 233 280 359 408
#     4  11  22  45  67  97 146 181 234 297 346 420
#
# _framework density 24.639030999999999
#
# number of rings (size 3 to 8) (size 9 to 14) (size 15 to 20)
#    0.000    1.200    8.000    1.200    0.000    0.800 
#    0.000   16.000    0.000    0.000    0.000    0.000 
#    0.000    0.000    0.000    0.000    0.000    0.000 
#
# Total GULP energy -55815.450511 kJ/mol
# GULP energy per Si atom -5581.545051 kJ/mol
# Density = 2.458295 g / cm^3
# Si number density = 24.639031 Si / 1000 Ang^3
#
#
#
# Elastic Constant Matrix: (Units=GPa)
#
#
# Indices 1 2 3 4 5 6 
#
# 1 164.8131 26.7830 81.4610 0.0000 -18.0636 0.0000
# 2 26.7830 46.1008 17.4510 0.0000 -0.5347 0.0000
# 3 81.4610 17.4510 260.6212 0.0000 -16.1344 0.0000
# 4 0.0000 0.0000 0.0000 23.6021 0.0000 -2.7758
# 5 -18.0636 -0.5347 -16.1344 0.0000 64.2202 0.0000
# 6 0.0000 0.0000 0.0000 -2.7758 0.0000 7.3638
#
#
#
# Elastic Compliance Matrix: (Units=1/GPa)
#
#
# Indices 1 2 3 4 5 6 
#
# 1 0.007909 -0.003774 -0.002117 0.000000 0.001661 0.000000
# 2 -0.003774 0.024059 -0.000492 0.000000 -0.000985 0.000000
# 3 -0.002117 -0.000492 0.004565 0.000000 0.000548 0.000000
# 4 0.000000 0.000000 0.000000 0.044334 0.000000 0.016712
# 5 0.001661 -0.000985 0.000548 0.000000 0.016168 0.000000
# 6 0.000000 0.000000 0.000000 0.016712 0.000000 0.142098
#
#
# Mechanical properties :
#
#
# Convention : Reuss Voigt Hill
#
# Bulk Modulus (GPa) = 42.07440 80.32503 61.19972
# Shear Modulus (GPa) = 19.24382 42.09323 30.66853
#
# Velocity S-wave (km/s) = 2.79772 4.13776 3.53188
# Velocity P-wave (km/s) = 5.24878 7.44980 6.44396
#
# Compressibility (1/GPa) = 0.02376742
#
# Stress axis : x y z
#
# Youngs Moduli (GPa) = 126.43739 41.56396 219.03943
#
# Poissons Ratio (x) = 0.15688 0.46360
# Poissons Ratio (y) = 0.47723 0.10781
# Poissons Ratio (z) = 0.26760 0.02046
#
# Static dielectric constant tensor:
#      x y z
#    x 2.055840 0.000000 -0.003650 
#    y 0.000000 1.978590 0.000000 
#    z -0.003650 0.000000 1.971420 
# 
# From -- ./inp_files/27599.got.cif
#   From: 2010.05.17/outbox.cif.g08.bks.cpg/sg5_14_cif.got.tgz:27599.got - 2010.06.03 18:56:24.
