data_PCOD9125490
_publ_section_title
;
Structure prediction by ZEFSAII (Michael W. Deem and Ramdas Pophale) SiO2 
 PCOD9125490
Probable space group: C 2
;
_chemical_formula_sum "Si O2"
_cell_formula_units_Z 20
_cell_length_a 13.014568
_cell_length_b 7.755334
_cell_length_c 13.853074
_cell_angle_alpha 90.000000
_cell_angle_beta 42.019723
_cell_angle_gamma 90.000000
_cell_volume 935.951380
_symmetry_space_group_name_H-M "C 2"
_symmetry_group_IT_number 5
_symmetry_cell_setting 'monoclinic'
loop_
_space_group_symop_operation_xyz
x,y,z
-x,y,-z
1/2+x,1/2+y,z
1/2-x,1/2+y,-z
loop_
_atom_site_type_symbol
_atom_site_label
_atom_site_fract_x
_atom_site_fract_y
_atom_site_fract_z
Si Si1 0.000000 0.566150 0.000000
Si Si2 0.342497 0.580274 0.301860
Si Si3 0.000000 0.175847 0.500000
Si Si4 0.746287 0.853891 0.199784
Si Si5 0.946524 0.381706 0.838815
Si Si6 0.226678 0.924731 0.456269
O O1 0.860605 0.692675 0.123538
O O2 0.052739 0.451832 0.053667
O O3 0.315299 0.505766 0.215838
O O4 0.503992 0.680169 0.196231
O O5 0.223225 0.732960 0.413858
O O6 0.320341 0.436161 0.399197
O O7 0.909595 0.292877 0.639065
O O8 0.880888 0.055287 0.526162
O O9 0.703048 0.905118 0.121285
O O10 0.094046 0.471360 0.684283
#
# Coordination Sequence:
#
# PCOD9125490 Si02
#       6
#     2   4   2   4   4   4
#     4  12  28  46  66 100 146 184 234 278 340 418
#     4  10  22  42  69 102 138 174 233 283 348 400
#     4  12  20  44  74 106 140 174 234 296 346 402
#     4  12  24  46  72 101 139 185 227 291 343 407
#     4  10  25  45  68  98 139 184 233 283 337 422
#     4  10  21  41  69 103 139 172 229 291 339 404
#
# _framework density 21.368632999999999
#
# number of rings (size 3 to 8) (size 9 to 14) (size 15 to 20)
#    1.200    0.000    4.000    2.400    0.000    6.400 
#    0.000    0.000    0.000    0.000    0.000    0.000 
#    0.000    0.000    0.000    0.000    0.000    0.000 
#
# Total GULP energy -55843.629206 kJ/mol
# GULP energy per Si atom -5584.362921 kJ/mol
# Density = 2.132000 g / cm^3
# Si number density = 21.368633 Si / 1000 Ang^3
#
#
#
# Elastic Constant Matrix: (Units=GPa)
#
#
# Indices 1 2 3 4 5 6 
#
# 1 100.6461 9.1611 9.8207 0.0000 43.1619 0.0000
# 2 9.1611 40.8759 19.1887 0.0000 20.0089 0.0000
# 3 9.8207 19.1887 58.5670 0.0000 20.9155 0.0000
# 4 0.0000 0.0000 0.0000 18.5532 0.0000 18.1901
# 5 43.1619 20.0089 20.9155 0.0000 39.5765 0.0000
# 6 0.0000 0.0000 0.0000 18.1901 0.0000 35.9141
#
#
#
# Elastic Compliance Matrix: (Units=1/GPa)
#
#
# Indices 1 2 3 4 5 6 
#
# 1 0.021558 0.007609 0.004514 0.000000 -0.029744 0.000000
# 2 0.007609 0.036934 -0.004616 0.000000 -0.024532 0.000000
# 3 0.004514 -0.004616 0.023118 0.000000 -0.014807 0.000000
# 4 0.000000 0.000000 0.000000 0.107064 0.000000 -0.054227
# 5 -0.029744 -0.024532 -0.014807 0.000000 0.077934 0.000000
# 6 0.000000 0.000000 0.000000 -0.054227 0.000000 0.055310
#
#
# Mechanical properties :
#
#
# Convention : Reuss Voigt Hill
#
# Bulk Modulus (GPa) = 10.34932 30.71447 20.53190
# Shear Modulus (GPa) = 14.74436 29.60333 22.17384
#
# Velocity S-wave (km/s) = 2.62964 3.72609 3.22480
# Velocity P-wave (km/s) = 3.75150 5.73729 4.84717
#
# Compressibility (1/GPa) = 0.09662473
#
# Stress axis : x y z
#
# Youngs Moduli (GPa) = 46.38560 27.07505 43.25682
#
# Poissons Ratio (x) = -0.20601 -0.19527
# Poissons Ratio (y) = -0.35295 0.19968
# Poissons Ratio (z) = -0.20940 0.12498
#
# Static dielectric constant tensor:
#      x y z
#    x 1.773660 0.000000 0.016140 
#    y 0.000000 1.767620 0.000000 
#    z 0.016140 0.000000 1.781110 
# 
# From -- ./inp_files/18285.got.cif
#   From: 2010.05.17/outbox.cif.g08.bks.cpg/sg5_10_cif.got.tgz:18285.got - 2010.06.03 18:56:24.
