data_PCOD9125933
_publ_section_title
;
Structure prediction by ZEFSAII (Michael W. Deem and Ramdas Pophale) SiO2 
 PCOD9125933
Probable space group: C 2
;
_chemical_formula_sum "Si O2"
_cell_formula_units_Z 28
_cell_length_a 11.907303
_cell_length_b 7.599147
_cell_length_c 20.612807
_cell_angle_alpha 90.000000
_cell_angle_beta 141.232364
_cell_angle_gamma 90.000000
_cell_volume 1167.893209
_symmetry_space_group_name_H-M "C 2"
_symmetry_group_IT_number 5
_symmetry_cell_setting 'monoclinic'
loop_
_space_group_symop_operation_xyz
x,y,z
-x,y,-z
1/2+x,1/2+y,z
1/2-x,1/2+y,-z
loop_
_atom_site_type_symbol
_atom_site_label
_atom_site_fract_x
_atom_site_fract_y
_atom_site_fract_z
Si Si1 0.344279 0.961550 0.805072
Si Si2 0.238554 0.017139 0.894704
Si Si3 0.793778 0.634470 0.056309
Si Si4 0.941477 0.681824 0.329977
Si Si5 0.000000 0.919947 0.000000
Si Si6 0.268210 0.823091 0.236047
Si Si7 0.621534 0.435890 0.306416
Si Si8 0.000000 0.615053 0.500000
O O1 0.369362 0.975404 0.893858
O O2 0.255384 0.773447 0.755344
O O3 0.526174 0.018562 0.851878
O O4 0.200707 0.119610 0.729089
O O5 0.208221 0.826692 0.914128
O O6 0.045861 0.069133 0.776604
O O7 0.281949 0.145818 0.973026
O O8 0.623371 0.538518 0.009275
O O9 0.918604 0.475624 0.301302
O O10 0.009744 0.708254 0.434204
O O11 0.051933 0.786112 0.324838
O O12 0.143483 0.831325 0.115214
O O13 0.155412 0.880467 0.247923
O O14 0.814066 0.507144 0.414688
#
# Coordination Sequence:
#
# PCOD9125933 Si02
#       8
#     4   4   4   4   2   4   4   2
#     4  11  25  46  72 104 147 198 245 299 367 438
#     4  11  25  43  69 103 149 191 248 295 359 438
#     4  12  25  42  69 107 147 204 248 291 361 446
#     4  10  25  52  76 109 143 191 250 303 382 433
#     4  12  24  40  68 106 152 204 244 296 360 426
#     4  11  24  46  69 104 152 192 239 303 352 432
#     4  10  21  51  71 107 147 185 242 312 362 440
#     4  10  24  50  80 106 148 178 246 326 366 440
#
# _framework density 23.974795
#
# number of rings (size 3 to 8) (size 9 to 14) (size 15 to 20)
#    0.000    1.143    2.857    2.143    8.000    0.000 
#   18.000    0.714    0.000    0.000    0.000    0.000 
#    0.000    0.000    0.000    0.000    0.000    0.000 
#
# Total GULP energy -78127.512907 kJ/mol
# GULP energy per Si atom -5580.536636 kJ/mol
# Density = 2.392023 g / cm^3
# Si number density = 23.974795 Si / 1000 Ang^3
#
#
#
# Elastic Constant Matrix: (Units=GPa)
#
#
# Indices 1 2 3 4 5 6 
#
# 1 117.3006 -0.3648 9.0745 0.0000 -12.4264 0.0000
# 2 -0.3648 68.2364 6.6567 0.0000 5.4424 0.0000
# 3 9.0745 6.6567 75.4565 0.0000 -16.8371 0.0000
# 4 0.0000 0.0000 0.0000 12.4086 0.0000 -1.7107
# 5 -12.4264 5.4424 -16.8371 0.0000 51.8155 0.0000
# 6 0.0000 0.0000 0.0000 -1.7107 0.0000 37.3926
#
#
#
# Elastic Compliance Matrix: (Units=1/GPa)
#
#
# Indices 1 2 3 4 5 6 
#
# 1 0.008775 -0.000044 -0.000626 0.000000 0.001906 0.000000
# 2 -0.000044 0.015004 -0.001803 0.000000 -0.002172 0.000000
# 3 -0.000626 -0.001803 0.014551 0.000000 0.004767 0.000000
# 4 0.000000 0.000000 0.000000 0.081101 0.000000 0.003710
# 5 0.001906 -0.002172 0.004767 0.000000 0.021534 0.000000
# 6 0.000000 0.000000 0.000000 0.003710 0.000000 0.026913
#
#
# Mechanical properties :
#
#
# Convention : Reuss Voigt Hill
#
# Bulk Modulus (GPa) = 29.95502 32.41405 31.18454
# Shear Modulus (GPa) = 27.18101 36.69846 31.93974
#
# Velocity S-wave (km/s) = 3.37075 3.91667 3.65392
# Velocity P-wave (km/s) = 5.26030 5.83122 5.55310
#
# Compressibility (1/GPa) = 0.03338338
#
# Stress axis : x y z
#
# Youngs Moduli (GPa) = 113.95641 66.64951 68.72469
#
# Poissons Ratio (x) = 0.00293 0.04304
# Poissons Ratio (y) = 0.00501 0.12392
# Poissons Ratio (z) = 0.07136 0.12017
#
# Static dielectric constant tensor:
#      x y z
#    x 1.934110 0.000000 0.014140 
#    y 0.000000 2.004780 0.000000 
#    z 0.014140 0.000000 1.998260 
# 
# From -- ./inp_files/65174.got.cif
#   From: 2010.05.17/outbox.cif.g08.bks.cpg/sg5_33_cif.got.tgz:65174.got - 2010.06.03 18:56:24.
