data_PCOD9125522
_publ_section_title
;
Structure prediction by ZEFSAII (Michael W. Deem and Ramdas Pophale) SiO2 
 PCOD9125522
Probable space group: C 2
;
_chemical_formula_sum "Si O2"
_cell_formula_units_Z 24
_cell_length_a 28.013587
_cell_length_b 5.364389
_cell_length_c 15.223409
_cell_angle_alpha 90.000000
_cell_angle_beta 153.608443
_cell_angle_gamma 90.000000
_cell_volume 1016.894215
_symmetry_space_group_name_H-M "C 2"
_symmetry_group_IT_number 5
_symmetry_cell_setting 'monoclinic'
loop_
_space_group_symop_operation_xyz
x,y,z
-x,y,-z
1/2+x,1/2+y,z
1/2-x,1/2+y,-z
loop_
_atom_site_type_symbol
_atom_site_label
_atom_site_fract_x
_atom_site_fract_y
_atom_site_fract_z
Si Si1 0.701251 0.343010 0.884680
Si Si2 0.449054 0.990350 0.665780
Si Si3 0.494400 0.703364 0.397553
Si Si4 0.777831 0.106821 0.440131
Si Si5 0.429161 0.263401 0.799938
Si Si6 0.677772 0.370376 0.654411
O O1 0.586283 0.472571 0.717209
O O2 0.717591 0.260046 0.810440
O O3 0.777435 0.584761 0.028791
O O4 0.525735 0.822757 0.731340
O O5 0.334660 0.858489 0.500562
O O6 0.488599 0.096989 0.824069
O O7 0.414754 0.208099 0.543308
O O8 0.500000 0.851635 0.500000
O O9 0.616792 0.616872 0.586686
O O10 0.874747 0.983570 0.654868
O O11 0.749018 0.945166 0.306545
O O12 0.674206 0.127167 0.329059
O O13 0.500000 0.339244 0.000000
#
# Coordination Sequence:
#
# PCOD9125522 Si02
#       6
#     4   4   4   4   4   4
#     4  11  26  42  65 103 147 180 231 296 351 417
#     4  10  21  41  72  93 132 180 238 285 361 424
#     4   9  21  40  67  94 130 185 228 273 342 431
#     4  10  21  43  63  97 137 180 229 300 355 427
#     4  11  23  41  69  99 136 180 236 293 362 428
#     4   9  22  41  66  94 129 188 227 281 360 419
#
# _framework density 23.601274
#
# number of rings (size 3 to 8) (size 9 to 14) (size 15 to 20)
#    0.000    2.000    1.667    0.000    9.333    2.667 
#    6.000    0.000    0.000    0.000    0.000    0.000 
#    0.000    0.000    0.000    0.000    0.000    0.000 
#
# Total GULP energy -66857.617815 kJ/mol
# GULP energy per Si atom -5571.468151 kJ/mol
# Density = 2.354756 g / cm^3
# Si number density = 23.601274 Si / 1000 Ang^3
#
#
#
# Elastic Constant Matrix: (Units=GPa)
#
#
# Indices 1 2 3 4 5 6 
#
# 1 165.4103 43.9169 39.6258 0.0000 -35.4595 0.0000
# 2 43.9169 37.9778 1.5744 0.0000 -9.5534 0.0000
# 3 39.6258 1.5744 70.3678 0.0000 -16.6370 0.0000
# 4 0.0000 0.0000 0.0000 23.6460 0.0000 3.1416
# 5 -35.4595 -9.5534 -16.6370 0.0000 34.2588 0.0000
# 6 0.0000 0.0000 0.0000 3.1416 0.0000 33.1421
#
#
#
# Elastic Compliance Matrix: (Units=1/GPa)
#
#
# Indices 1 2 3 4 5 6 
#
# 1 0.011689 -0.011679 -0.004779 0.000000 0.006521 0.000000
# 2 -0.011679 0.040107 0.006174 0.000000 0.002095 0.000000
# 3 -0.004779 0.006174 0.018077 0.000000 0.005554 0.000000
# 4 0.000000 0.000000 0.000000 0.042830 0.000000 -0.004060
# 5 0.006521 0.002095 0.005554 0.000000 0.039221 0.000000
# 6 0.000000 0.000000 0.000000 -0.004060 0.000000 0.030558
#
#
# Mechanical properties :
#
#
# Convention : Reuss Voigt Hill
#
# Bulk Modulus (GPa) = 20.28126 49.33222 34.80674
# Shear Modulus (GPa) = 22.78062 30.78530 26.78296
#
# Velocity S-wave (km/s) = 3.11018 3.61555 3.37235
# Velocity P-wave (km/s) = 4.63784 6.19495 5.47206
#
# Compressibility (1/GPa) = 0.04930660
#
# Stress axis : x y z
#
# Youngs Moduli (GPa) = 85.54897 24.93318 55.31783
#
# Poissons Ratio (x) = 0.29119 0.26439
# Poissons Ratio (y) = 0.99910 -0.34156
# Poissons Ratio (z) = 0.40887 -0.15395
#
# Static dielectric constant tensor:
#      x y z
#    x 1.914150 0.000000 -0.046240 
#    y 0.000000 2.032320 0.000000 
#    z -0.046240 0.000000 1.973410 
# 
# From -- ./inp_files/53905.got.cif
#   From: 2010.05.17/outbox.cif.g08.bks.cpg/sg5_27_cif.got.tgz:53905.got - 2010.06.03 18:56:24.
