data_PCOD9125648
_publ_section_title
;
Structure prediction by ZEFSAII (Michael W. Deem and Ramdas Pophale) SiO2 
 PCOD9125648
Probable space group: C 2
;
_chemical_formula_sum "Si O2"
_cell_formula_units_Z 20
_cell_length_a 10.269008
_cell_length_b 9.898886
_cell_length_c 10.519469
_cell_angle_alpha 90.000000
_cell_angle_beta 63.548426
_cell_angle_gamma 90.000000
_cell_volume 957.376215
_symmetry_space_group_name_H-M "C 2"
_symmetry_group_IT_number 5
_symmetry_cell_setting 'monoclinic'
loop_
_space_group_symop_operation_xyz
x,y,z
-x,y,-z
1/2+x,1/2+y,z
1/2-x,1/2+y,-z
loop_
_atom_site_type_symbol
_atom_site_label
_atom_site_fract_x
_atom_site_fract_y
_atom_site_fract_z
Si Si1 0.662885 0.176700 0.153687
Si Si2 0.618841 0.496357 0.554324
Si Si3 0.108082 0.688253 0.566227
Si Si4 0.121101 0.382674 0.058559
Si Si5 0.055681 0.137330 0.829438
O O1 0.498290 0.197124 0.266345
O O2 0.734872 0.299088 0.044082
O O3 0.774800 0.170633 0.223509
O O4 0.665973 0.027791 0.090510
O O5 0.500000 0.529377 0.500000
O O6 0.759672 0.587944 0.475072
O O7 0.659600 0.340417 0.520135
O O8 0.550566 0.525462 0.723374
O O9 0.000000 0.644120 0.500000
O O10 0.966593 0.269549 0.821776
O O11 0.000000 0.405414 0.000000
O O12 0.000000 0.107816 0.000000
#
# Coordination Sequence:
#
# PCOD9125648 Si02
#       5
#     4   4   4   4   4
#     4  10  21  42  69  91 131 173 216 270 332 390
#     4  11  26  44  68  96 135 176 224 273 328 393
#     4  11  25  44  66  94 135 175 223 270 334 390
#     4   9  22  40  62  97 134 164 212 276 328 384
#     4   9  21  43  68  91 135 171 212 274 329 379
#
# _framework density 20.890429000000001
#
# number of rings (size 3 to 8) (size 9 to 14) (size 15 to 20)
#    0.000    2.400    2.000    0.000    8.400    4.000 
#    3.600    0.000    0.000    0.000    0.000    0.000 
#    0.000    0.000    0.000    0.000    0.000    0.000 
#
# Total GULP energy -55742.457109 kJ/mol
# GULP energy per Si atom -5574.245711 kJ/mol
# Density = 2.084288 g / cm^3
# Si number density = 20.890429 Si / 1000 Ang^3
#
#
#
# Elastic Constant Matrix: (Units=GPa)
#
#
# Indices 1 2 3 4 5 6 
#
# 1 103.7990 99.7988 52.6545 0.0000 -31.7944 0.0000
# 2 99.7988 139.1648 60.2316 0.0000 -19.6277 0.0000
# 3 52.6545 60.2316 88.9159 0.0000 -24.7622 0.0000
# 4 0.0000 0.0000 0.0000 34.7304 0.0000 -10.0600
# 5 -31.7944 -19.6277 -24.7622 0.0000 31.4337 0.0000
# 6 0.0000 0.0000 0.0000 -10.0600 0.0000 38.6750
#
#
#
# Elastic Compliance Matrix: (Units=1/GPa)
#
#
# Indices 1 2 3 4 5 6 
#
# 1 0.047011 -0.029798 0.000521 0.000000 0.029354 0.000000
# 2 -0.029798 0.029089 -0.006910 0.000000 -0.017420 0.000000
# 3 0.000521 -0.006910 0.018657 0.000000 0.010910 0.000000
# 4 0.000000 0.000000 0.000000 0.031139 0.000000 0.008100
# 5 0.029354 -0.017420 0.010910 0.000000 0.059221 0.000000
# 6 0.000000 0.000000 0.000000 0.008100 0.000000 0.027963
#
#
# Mechanical properties :
#
#
# Convention : Reuss Voigt Hill
#
# Bulk Modulus (GPa) = 44.67792 84.13885 64.40839
# Shear Modulus (GPa) = 17.06979 28.91414 22.99197
#
# Velocity S-wave (km/s) = 2.86162 3.72437 3.32113
# Velocity P-wave (km/s) = 5.68785 7.67191 6.75314
#
# Compressibility (1/GPa) = 0.02238242
#
# Stress axis : x y z
#
# Youngs Moduli (GPa) = 21.27161 34.37771 53.59930
#
# Poissons Ratio (x) = 1.02440 -0.02793
# Poissons Ratio (y) = 0.63386 0.37036
# Poissons Ratio (z) = -0.01108 0.23755
#
# Static dielectric constant tensor:
#      x y z
#    x 1.718610 0.000000 -0.000880 
#    y 0.000000 1.727810 0.000000 
#    z -0.000880 0.000000 1.868060 
# 
# From -- ./inp_files/35134.got.cif
#   From: 2010.05.17/outbox.cif.g08.bks.cpg/sg5_18_cif.got.tgz:35134.got - 2010.06.03 18:56:24.
