data_PCOD9125897
_publ_section_title
;
Structure prediction by ZEFSAII (Michael W. Deem and Ramdas Pophale) SiO2 
 PCOD9125897
Probable space group: C 2
;
_chemical_formula_sum "Si O2"
_cell_formula_units_Z 20
_cell_length_a 18.915076
_cell_length_b 7.920035
_cell_length_c 12.603658
_cell_angle_alpha 90.000000
_cell_angle_beta 154.900660
_cell_angle_gamma 90.000000
_cell_volume 800.923792
_symmetry_space_group_name_H-M "C 2"
_symmetry_group_IT_number 5
_symmetry_cell_setting 'monoclinic'
loop_
_space_group_symop_operation_xyz
x,y,z
-x,y,-z
1/2+x,1/2+y,z
1/2-x,1/2+y,-z
loop_
_atom_site_type_symbol
_atom_site_label
_atom_site_fract_x
_atom_site_fract_y
_atom_site_fract_z
Si Si1 0.875284 0.563320 0.931593
Si Si2 0.121957 0.062915 0.436408
Si Si3 0.314243 0.770048 0.005850
Si Si4 0.479578 0.090691 0.304078
Si Si5 0.691035 0.702162 0.298878
O O1 0.706678 0.641430 0.656786
O O2 0.840335 0.374264 0.931917
O O3 0.946071 0.644746 0.134640
O O4 0.000000 0.566278 0.000000
O O5 0.208797 0.880035 0.558326
O O6 0.181738 0.144352 0.408458
O O7 0.926960 0.103082 0.170883
O O8 0.394070 0.907400 0.194635
O O9 0.124728 0.721624 0.768465
O O10 0.677412 0.086260 0.586016
O O11 0.500000 0.689020 0.000000
#
# Coordination Sequence:
#
# PCOD9125897 Si02
#       5
#     4   4   4   4   4
#     4  10  21  45  79 107 151 205 251 309 386 452
#     4  12  22  45  73 107 156 197 256 314 385 456
#     4  10  23  44  81 111 151 201 254 313 393 458
#     4  10  23  48  74 113 154 196 262 310 389 456
#     4  12  26  45  74 113 151 204 257 321 379 464
#
# _framework density 24.971164999999999
#
# number of rings (size 3 to 8) (size 9 to 14) (size 15 to 20)
#    1.200    0.000    2.000    5.400    0.000    0.800 
#    7.200    4.000   13.200    0.000    0.000    0.000 
#    0.000    0.000    0.000    0.000    0.000    0.000 
#
# Total GULP energy -55751.323314 kJ/mol
# GULP energy per Si atom -5575.132331 kJ/mol
# Density = 2.491433 g / cm^3
# Si number density = 24.971165 Si / 1000 Ang^3
#
#
#
# Elastic Constant Matrix: (Units=GPa)
#
#
# Indices 1 2 3 4 5 6 
#
# 1 98.3596 17.7430 61.5930 0.0000 15.8463 0.0000
# 2 17.7430 80.4725 46.4393 0.0000 6.2054 0.0000
# 3 61.5930 46.4393 188.4874 0.0000 17.6208 0.0000
# 4 0.0000 0.0000 0.0000 33.3334 0.0000 4.6772
# 5 15.8463 6.2054 17.6208 0.0000 49.7772 0.0000
# 6 0.0000 0.0000 0.0000 4.6772 0.0000 21.4101
#
#
#
# Elastic Compliance Matrix: (Units=1/GPa)
#
#
# Indices 1 2 3 4 5 6 
#
# 1 0.013149 -0.000415 -0.003938 0.000000 -0.002740 0.000000
# 2 -0.000415 0.014515 -0.003396 0.000000 -0.000475 0.000000
# 3 -0.003938 -0.003396 0.007521 0.000000 -0.000985 0.000000
# 4 0.000000 0.000000 0.000000 0.030949 0.000000 -0.006761
# 5 -0.002740 -0.000475 -0.000985 0.000000 0.021370 0.000000
# 6 0.000000 0.000000 0.000000 -0.006761 0.000000 0.048184
#
#
# Mechanical properties :
#
#
# Convention : Reuss Voigt Hill
#
# Bulk Modulus (GPa) = 50.79767 68.76334 59.78051
# Shear Modulus (GPa) = 31.69598 37.00709 34.35153
#
# Velocity S-wave (km/s) = 3.56659 3.85384 3.71300
# Velocity P-wave (km/s) = 6.11126 6.88474 6.50950
#
# Compressibility (1/GPa) = 0.01968594
#
# Stress axis : x y z
#
# Youngs Moduli (GPa) = 76.04926 68.89633 132.95752
#
# Poissons Ratio (x) = 0.02860 0.52365
# Poissons Ratio (y) = 0.03157 0.45152
# Poissons Ratio (z) = 0.29952 0.23397
#
# Static dielectric constant tensor:
#      x y z
#    x 2.012470 0.000000 -0.034710 
#    y 0.000000 2.100790 0.000000 
#    z -0.034710 0.000000 2.058400 
# 
# From -- ./inp_files/44270.got.cif
#   From: 2010.05.17/outbox.cif.g08.bks.cpg/sg5_23_cif.got.tgz:44270.got - 2010.06.03 18:56:24.
