data_PCOD9125750
_publ_section_title
;
Structure prediction by ZEFSAII (Michael W. Deem and Ramdas Pophale) SiO2 
 PCOD9125750
Probable space group: C 2
;
_chemical_formula_sum "Si O2"
_cell_formula_units_Z 16
_cell_length_a 12.448631
_cell_length_b 5.211835
_cell_length_c 10.957322
_cell_angle_alpha 90.000000
_cell_angle_beta 61.025998
_cell_angle_gamma 90.000000
_cell_volume 621.935160
_symmetry_space_group_name_H-M "C 2"
_symmetry_group_IT_number 5
_symmetry_cell_setting 'monoclinic'
loop_
_space_group_symop_operation_xyz
x,y,z
-x,y,-z
1/2+x,1/2+y,z
1/2-x,1/2+y,-z
loop_
_atom_site_type_symbol
_atom_site_label
_atom_site_fract_x
_atom_site_fract_y
_atom_site_fract_z
Si Si1 0.402207 0.544930 0.816566
Si Si2 0.661380 0.730928 0.650670
Si Si3 0.538120 0.044068 0.112492
Si Si4 0.143681 0.376608 0.392493
O O1 0.549764 0.527227 0.713265
O O2 0.377257 0.258832 0.872919
O O3 0.394781 0.766921 0.923849
O O4 0.349796 0.682943 0.724742
O O5 0.775064 0.631011 0.666255
O O6 0.586330 0.972249 0.745621
O O7 0.693732 0.762610 0.491529
O O8 0.500000 0.130176 0.000000
O O9 0.000000 0.433002 0.500000
#
# Coordination Sequence:
#
# PCOD9125750 Si02
#       4
#     4   4   4   4
#     4   9  22  41  66 105 135 187 232 291 346 423
#     4   9  23  38  69 111 138 188 223 302 347 432
#     4  10  21  43  71  99 142 188 238 283 353 412
#     4  10  21  43  68 112 144 181 233 295 367 419
#
# _framework density 25.726151999999999
#
# number of rings (size 3 to 8) (size 9 to 14) (size 15 to 20)
#    1.500    1.000    0.000    0.750    3.500    2.000 
#    9.000    0.000    5.500    0.000    0.000    0.000 
#    0.000    0.000    0.000    0.000    0.000    0.000 
#
# Total GULP energy -44648.354905 kJ/mol
# GULP energy per Si atom -5581.044363 kJ/mol
# Density = 2.566760 g / cm^3
# Si number density = 25.726152 Si / 1000 Ang^3
#
#
#
# Elastic Constant Matrix: (Units=GPa)
#
#
# Indices 1 2 3 4 5 6 
#
# 1 144.9080 66.9119 57.0553 0.0000 17.5387 0.0002
# 2 66.9119 163.4474 13.9061 0.0001 8.4152 0.0020
# 3 57.0553 13.9061 53.7422 0.0001 12.6272 -0.0002
# 4 0.0000 0.0001 0.0001 4.0891 -0.0001 20.4438
# 5 17.5387 8.4152 12.6272 -0.0001 53.6104 0.0001
# 6 0.0002 0.0020 -0.0002 20.4438 0.0001 15.8874
#
#
#
# Elastic Compliance Matrix: (Units=1/GPa)
#
#
# Indices 1 2 3 4 5 6 
#
# 1 0.014880 -0.004831 -0.014378 0.000000 -0.000723 0.000000
# 2 -0.004831 0.007845 0.003194 -0.000001 -0.000403 0.000000
# 3 -0.014378 0.003194 0.033936 0.000000 -0.003791 0.000000
# 4 0.000000 -0.000001 0.000000 -0.045009 0.000000 0.057917
# 5 -0.000723 -0.000403 -0.003791 0.000000 0.019846 0.000000
# 6 0.000000 0.000000 0.000000 0.057917 0.000000 -0.011584
#
#
# Mechanical properties :
#
#
# Convention : Reuss Voigt Hill
#
# Bulk Modulus (GPa) = 40.59938 70.87158 55.73548
# Shear Modulus (GPa) = 83.12073 29.66569 56.39321
#
# Velocity S-wave (km/s) = 5.69034 3.39947 4.68702
# Velocity P-wave (km/s) = 7.68042 6.55872 7.14163
#
# Compressibility (1/GPa) = 0.02463092
#
# Stress axis : x y z
#
# Youngs Moduli (GPa) = 67.20329 127.46997 29.46764
#
# Poissons Ratio (x) = 0.61583 0.42367
# Poissons Ratio (y) = 0.32467 -0.09411
# Poissons Ratio (z) = 0.96622 -0.40711
#
# Static dielectric constant tensor:
#      x y z
#    x 2.019530 0.000000 -0.049330 
#    y 0.000000 2.198960 0.000000 
#    z -0.049330 0.000000 2.120450 
# 
# From -- ./inp_files/40928.got.cif
#   From: 2010.05.17/outbox.cif.g08.bks.cpg/sg5_21_cif.got.tgz:40928.got - 2010.06.03 18:56:24.
