data_PCOD9125592
_publ_section_title
;
Structure prediction by ZEFSAII (Michael W. Deem and Ramdas Pophale) SiO2 
 PCOD9125592
Probable space group: C 2
;
_chemical_formula_sum "Si O2"
_cell_formula_units_Z 24
_cell_length_a 8.904233
_cell_length_b 18.762167
_cell_length_c 9.124310
_cell_angle_alpha 90.000000
_cell_angle_beta 128.914430
_cell_angle_gamma 90.000000
_cell_volume 1186.059760
_symmetry_space_group_name_H-M "C 2"
_symmetry_group_IT_number 5
_symmetry_cell_setting 'monoclinic'
loop_
_space_group_symop_operation_xyz
x,y,z
-x,y,-z
1/2+x,1/2+y,z
1/2-x,1/2+y,-z
loop_
_atom_site_type_symbol
_atom_site_label
_atom_site_fract_x
_atom_site_fract_y
_atom_site_fract_z
Si Si1 0.500000 0.398480 0.500000
Si Si2 0.864466 0.788202 0.638587
Si Si3 0.500000 0.377380 0.000000
Si Si4 0.151463 0.983685 0.871641
Si Si5 0.000000 0.680205 0.500000
Si Si6 0.500000 0.077069 0.000000
Si Si7 0.166474 0.168542 0.680676
Si Si8 0.068690 0.125156 0.206727
O O1 0.352442 0.348384 0.504226
O O2 0.610991 0.443528 0.692854
O O3 0.005546 0.731581 0.646031
O O4 0.697495 0.737063 0.598064
O O5 0.928066 0.827999 0.824435
O O6 0.353530 0.429429 0.995649
O O7 0.986133 0.043418 0.790513
O O8 0.349741 0.027184 0.991323
O O9 0.795047 0.639576 0.374280
O O10 0.633238 0.127435 0.181359
O O11 0.000000 0.122292 0.500000
O O12 0.072872 0.175522 0.783002
O O13 0.000000 0.137051 0.000000
#
# Coordination Sequence:
#
# PCOD9125592 Si02
#       8
#     2   4   2   4   2   2   4   4
#     4   9  22  44  68  86 140 179 218 274 306 399
#     4  10  22  41  67  95 131 178 216 269 327 385
#     4  10  21  42  66  90 135 178 226 272 298 400
#     4  10  22  44  63  97 131 174 224 267 328 388
#     4  11  24  42  66 102 132 169 218 272 346 383
#     4  10  25  38  68 100 129 168 210 274 348 372
#     4  11  23  43  67 100 130 166 219 277 336 394
#     4  11  25  40  66  99 135 167 215 282 333 387
#
# _framework density 20.235067000000001
#
# number of rings (size 3 to 8) (size 9 to 14) (size 15 to 20)
#    0.000    1.667    2.500    0.500   11.667    0.000 
#    3.000    0.000    3.667    0.000    0.000    0.000 
#    0.000    0.000    0.000    0.000    0.000    0.000 
#
# Total GULP energy -66801.435023 kJ/mol
# GULP energy per Si atom -5566.786252 kJ/mol
# Density = 2.018901 g / cm^3
# Si number density = 20.235067 Si / 1000 Ang^3
#
#
#
# Elastic Constant Matrix: (Units=GPa)
#
#
# Indices 1 2 3 4 5 6 
#
# 1 133.4037 69.9075 69.6612 0.0000 -10.4019 0.0000
# 2 69.9075 93.3557 55.6024 0.0000 -1.3401 0.0000
# 3 69.6612 55.6024 119.8350 0.0000 -10.7332 0.0000
# 4 0.0000 0.0000 0.0000 10.5234 0.0000 -31.9845
# 5 -10.4019 -1.3401 -10.7332 0.0000 52.8485 0.0000
# 6 0.0000 0.0000 0.0000 -31.9845 0.0000 -30.2060
#
#
#
# Elastic Compliance Matrix: (Units=1/GPa)
#
#
# Indices 1 2 3 4 5 6 
#
# 1 0.014034 -0.007898 -0.004343 0.000000 0.001680 0.000000
# 2 -0.007898 0.019304 -0.004543 0.000000 -0.001988 0.000000
# 3 -0.004343 -0.004543 0.013129 0.000000 0.001697 0.000000
# 4 0.000000 0.000000 0.000000 0.022527 0.000000 -0.023853
# 5 0.001680 -0.001988 0.001697 0.000000 0.019547 0.000000
# 6 0.000000 0.000000 0.000000 -0.023853 0.000000 -0.007848
#
#
# Mechanical properties :
#
#
# Convention : Reuss Voigt Hill
#
# Bulk Modulus (GPa) = 77.53216 81.88183 79.70699
# Shear Modulus (GPa) = 42.17264 16.72807 29.45035
#
# Velocity S-wave (km/s) = 4.57019 2.87834 3.81912
# Velocity P-wave (km/s) = 8.13927 7.18329 7.67617
#
# Compressibility (1/GPa) = 0.01289787
#
# Stress axis : x y z
#
# Youngs Moduli (GPa) = 71.25764 51.80372 76.16510
#
# Poissons Ratio (x) = 0.40915 0.33076
# Poissons Ratio (y) = 0.56280 0.34606
# Poissons Ratio (z) = 0.30945 0.23537
#
# Static dielectric constant tensor:
#      x y z
#    x 1.855290 0.000000 -0.042280 
#    y 0.000000 1.773300 0.000000 
#    z -0.042280 0.000000 1.764300 
# 
# From -- ./inp_files/16911.got.cif
#   From: 2010.05.17/outbox.cif.g08.bks.cpg/sg5_9_cif.got.tgz:16911.got - 2010.06.03 18:56:24.
