data_PCOD9125335
_publ_section_title
;
Structure prediction by ZEFSAII (Michael W. Deem and Ramdas Pophale) SiO2 
 PCOD9125335
Probable space group: C 2
;
_chemical_formula_sum "Si O2"
_cell_formula_units_Z 28
_cell_length_a 8.603354
_cell_length_b 12.020713
_cell_length_c 14.546713
_cell_angle_alpha 90.000000
_cell_angle_beta 109.436161
_cell_angle_gamma 90.000000
_cell_volume 1418.667093
_symmetry_space_group_name_H-M "C 2"
_symmetry_group_IT_number 5
_symmetry_cell_setting 'monoclinic'
loop_
_space_group_symop_operation_xyz
x,y,z
-x,y,-z
1/2+x,1/2+y,z
1/2-x,1/2+y,-z
loop_
_atom_site_type_symbol
_atom_site_label
_atom_site_fract_x
_atom_site_fract_y
_atom_site_fract_z
Si Si1 0.334131 0.651940 0.591289
Si Si2 0.971897 0.910804 0.103008
Si Si3 0.001654 0.666932 0.816035
Si Si4 0.881562 0.452820 0.897977
Si Si5 0.618313 0.882517 0.304310
Si Si6 0.787492 0.509942 0.268330
Si Si7 0.281851 0.616585 0.372855
O O1 0.319992 0.771081 0.636999
O O2 0.253655 0.558584 0.639915
O O3 0.262041 0.651901 0.474576
O O4 0.529632 0.630219 0.619396
O O5 0.954641 0.781415 0.127430
O O6 0.801710 0.967195 0.100177
O O7 0.125470 0.961488 0.188492
O O8 0.000000 0.921950 0.000000
O O9 0.141447 0.611050 0.779993
O O10 0.953129 0.571220 0.878952
O O11 0.842779 0.681315 0.718504
O O12 0.880860 0.377796 0.806240
O O13 0.000000 0.406275 0.000000
O O14 0.433797 0.918752 0.298281
O O15 0.731148 0.987640 0.352899
#
# Coordination Sequence:
#
# PCOD9125335 Si02
#       7
#     4   4   4   4   4   4   4
#     4  11  21  39  61  85 117 156 192 236 290 340
#     4  12  23  37  62  88 113 155 195 231 290 347
#     4  10  22  41  58  84 120 152 189 243 290 333
#     4  10  21  41  60  83 120 150 189 244 286 338
#     4  10  22  40  59  85 119 152 190 241 290 335
#     4  10  22  38  60  87 114 151 199 237 279 347
#     4   9  22  38  58  87 118 151 194 239 286 341
#
# _framework density 19.736837000000001
#
# number of rings (size 3 to 8) (size 9 to 14) (size 15 to 20)
#    0.000    2.000    0.000    5.571    0.000    5.714 
#    0.000   11.429    0.000    0.000    0.000    0.000 
#    0.000    0.000    0.000    0.000    0.000    0.000 
#
# Total GULP energy -78245.587676 kJ/mol
# GULP energy per Si atom -5588.970548 kJ/mol
# Density = 1.969192 g / cm^3
# Si number density = 19.736837 Si / 1000 Ang^3
#
#
#
# Elastic Constant Matrix: (Units=GPa)
#
#
# Indices 1 2 3 4 5 6 
#
# 1 44.3746 -2.1095 -2.7215 0.0000 -22.7734 0.0000
# 2 -2.1095 34.0492 21.2985 0.0000 -7.9374 0.0000
# 3 -2.7215 21.2985 99.2306 0.0000 -21.7476 0.0000
# 4 0.0000 0.0000 0.0000 6.3268 0.0000 -3.2006
# 5 -22.7734 -7.9374 -21.7476 0.0000 35.7284 0.0000
# 6 0.0000 0.0000 0.0000 -3.2006 0.0000 10.4014
#
#
#
# Elastic Compliance Matrix: (Units=1/GPa)
#
#
# Indices 1 2 3 4 5 6 
#
# 1 0.038294 0.005249 0.006380 0.000000 0.029458 0.000000
# 2 0.005249 0.035045 -0.005699 0.000000 0.007663 0.000000
# 3 0.006380 -0.005699 0.013950 0.000000 0.011292 0.000000
# 4 0.000000 0.000000 0.000000 0.187197 0.000000 0.057602
# 5 0.029458 0.007663 0.011292 0.000000 0.055341 0.000000
# 6 0.000000 0.000000 0.000000 0.057602 0.000000 0.113866
#
#
# Mechanical properties :
#
#
# Convention : Reuss Voigt Hill
#
# Bulk Modulus (GPa) = 10.08566 23.39882 16.74224
# Shear Modulus (GPa) = 10.75535 21.23712 15.99624
#
# Velocity S-wave (km/s) = 2.33692 3.28382 2.84998
# Velocity P-wave (km/s) = 3.52176 5.12437 4.39670
#
# Compressibility (1/GPa) = 0.09915063
#
# Stress axis : x y z
#
# Youngs Moduli (GPa) = 26.11343 28.53439 71.68239
#
# Poissons Ratio (x) = -0.14978 -0.45732
# Poissons Ratio (y) = -0.13707 0.40850
# Poissons Ratio (z) = -0.16660 0.16261
#
# Static dielectric constant tensor:
#      x y z
#    x 1.684890 0.000000 -0.005190 
#    y 0.000000 1.672850 0.000000 
#    z -0.005190 0.000000 1.683510 
# 
# From -- ./inp_files/50335.got.cif
#   From: 2010.05.17/outbox.cif.g08.bks.cpg/sg5_26_cif.got.tgz:50335.got - 2010.06.03 18:56:24.
