data_PCOD9125184
_publ_section_title
;
Structure prediction by ZEFSAII (Michael W. Deem and Ramdas Pophale) SiO2 
 PCOD9125184
Probable space group: C 2
;
_chemical_formula_sum "Si O2"
_cell_formula_units_Z 20
_cell_length_a 21.809894
_cell_length_b 6.347997
_cell_length_c 7.470810
_cell_angle_alpha 90.000000
_cell_angle_beta 54.979191
_cell_angle_gamma 90.000000
_cell_volume 847.055745
_symmetry_space_group_name_H-M "C 2"
_symmetry_group_IT_number 5
_symmetry_cell_setting 'monoclinic'
loop_
_space_group_symop_operation_xyz
x,y,z
-x,y,-z
1/2+x,1/2+y,z
1/2-x,1/2+y,-z
loop_
_atom_site_type_symbol
_atom_site_label
_atom_site_fract_x
_atom_site_fract_y
_atom_site_fract_z
Si Si1 0.245068 0.099460 0.781105
Si Si2 0.389739 0.343349 0.579009
Si Si3 0.587575 0.706348 0.212479
Si Si4 0.552309 0.937452 0.644154
Si Si5 0.308703 0.722427 0.509699
O O1 0.317803 0.201196 0.749164
O O2 0.238771 0.168176 0.583821
O O3 0.258333 0.848393 0.738340
O O4 0.169795 0.186801 0.994532
O O5 0.423454 0.471465 0.688769
O O6 0.350987 0.519120 0.517546
O O7 0.447000 0.188368 0.381227
O O8 0.578458 0.851453 0.404030
O O9 0.523513 0.807511 0.194258
O O10 0.621494 0.875918 0.653786
#
# Coordination Sequence:
#
# PCOD9125184 Si02
#       5
#     4   4   4   4   4
#     4  11  22  38  66 100 131 170 219 268 329 387
#     4  10  22  40  65  92 138 164 219 270 323 388
#     4  10  23  39  67  96 130 171 220 264 329 388
#     4   9  22  42  61  94 130 175 213 270 326 386
#     4  10  21  40  63  92 133 172 210 272 322 383
#
# _framework density 23.611198999999999
#
# number of rings (size 3 to 8) (size 9 to 14) (size 15 to 20)
#    0.000    2.000    2.000    0.000    8.400    7.200 
#    0.000    0.000    0.000    7.200    0.000    0.000 
#    0.000    0.000    0.000    0.000    0.000    0.000 
#
# Total GULP energy -55751.148241 kJ/mol
# GULP energy per Si atom -5575.114824 kJ/mol
# Density = 2.355746 g / cm^3
# Si number density = 23.611199 Si / 1000 Ang^3
#
#
#
# Elastic Constant Matrix: (Units=GPa)
#
#
# Indices 1 2 3 4 5 6 
#
# 1 109.5301 48.4417 25.7541 0.0000 -33.6046 0.0000
# 2 48.4417 147.2974 28.4012 0.0000 -16.8418 0.0000
# 3 25.7541 28.4012 84.3149 0.0000 -28.1140 0.0000
# 4 0.0000 0.0000 0.0000 17.3449 0.0000 -12.5973
# 5 -33.6046 -16.8418 -28.1140 0.0000 36.9791 0.0000
# 6 0.0000 0.0000 0.0000 -12.5973 0.0000 49.1653
#
#
#
# Elastic Compliance Matrix: (Units=1/GPa)
#
#
# Indices 1 2 3 4 5 6 
#
# 1 0.014099 -0.003436 0.000805 0.000000 0.011860 0.000000
# 2 -0.003436 0.008203 -0.002022 0.000000 -0.000923 0.000000
# 3 0.000805 -0.002022 0.016386 0.000000 0.012269 0.000000
# 4 0.000000 0.000000 0.000000 0.070836 0.000000 0.018150
# 5 0.011860 -0.000923 0.012269 0.000000 0.046727 0.000000
# 6 0.000000 0.000000 0.000000 0.018150 0.000000 0.024990
#
#
# Mechanical properties :
#
#
# Convention : Reuss Voigt Hill
#
# Bulk Modulus (GPa) = 34.03206 60.70405 47.36805
# Shear Modulus (GPa) = 24.95757 36.60087 30.77922
#
# Velocity S-wave (km/s) = 3.25472 3.94146 3.61444
# Velocity P-wave (km/s) = 5.34500 6.81756 6.12569
#
# Compressibility (1/GPa) = 0.02938406
#
# Stress axis : x y z
#
# Youngs Moduli (GPa) = 70.92807 121.90379 61.02659
#
# Poissons Ratio (x) = 0.41885 -0.04915
# Poissons Ratio (y) = 0.24370 0.12337
# Poissons Ratio (z) = -0.05713 0.24644
#
# Static dielectric constant tensor:
#      x y z
#    x 1.980300 0.000000 -0.020500 
#    y 0.000000 2.017030 0.000000 
#    z -0.020500 0.000000 1.924970 
# 
# From -- ./inp_files/28177.got.cif
#   From: 2010.05.17/outbox.cif.g08.bks.cpg/sg5_15_cif.got.tgz:28177.got - 2010.06.03 18:56:24.
