data_PCOD9125926
_publ_section_title
;
Structure prediction by ZEFSAII (Michael W. Deem and Ramdas Pophale) SiO2 
 PCOD9125926
Probable space group: C 2
;
_chemical_formula_sum "Si O2"
_cell_formula_units_Z 20
_cell_length_a 23.062890
_cell_length_b 5.433266
_cell_length_c 10.531375
_cell_angle_alpha 90.000000
_cell_angle_beta 37.374521
_cell_angle_gamma 90.000000
_cell_volume 801.059118
_symmetry_space_group_name_H-M "C 2"
_symmetry_group_IT_number 5
_symmetry_cell_setting 'monoclinic'
loop_
_space_group_symop_operation_xyz
x,y,z
-x,y,-z
1/2+x,1/2+y,z
1/2-x,1/2+y,-z
loop_
_atom_site_type_symbol
_atom_site_label
_atom_site_fract_x
_atom_site_fract_y
_atom_site_fract_z
Si Si1 0.482323 0.317770 0.161752
Si Si2 0.798994 0.325353 0.687196
Si Si3 0.502647 0.954766 0.353381
Si Si4 0.297198 0.828473 0.104006
Si Si5 0.165266 0.052363 0.741380
O O1 0.479325 0.161311 0.290689
O O2 0.388996 0.479818 0.292240
O O3 0.500000 0.159642 0.000000
O O4 0.579016 0.473904 0.989324
O O5 0.911126 0.280583 0.499046
O O6 0.749895 0.591307 0.165688
O O7 0.755391 0.381322 0.621491
O O8 0.766556 0.584681 0.809583
O O9 0.500000 0.053674 0.500000
O O10 0.603821 0.836210 0.144033
O O11 0.311859 0.812525 0.233913
#
# Coordination Sequence:
#
# PCOD9125926 Si02
#       5
#     4   4   4   4   4
#     4   8  17  45  74 111 144 207 241 314 382 442
#     4  10  23  44  74 107 143 206 247 309 376 452
#     4  12  25  43  79 118 155 203 257 312 385 470
#     4  10  21  48  69 105 151 192 248 312 373 435
#     4   7  18  42  72 100 140 199 240 308 367 437
#
# _framework density 24.966947999999999
#
# number of rings (size 3 to 8) (size 9 to 14) (size 15 to 20)
#    2.400    0.000    2.000    0.000    0.000    4.800 
#   10.800   13.000    0.000    0.000    0.000    0.000 
#    0.000    0.000    0.000    0.000    0.000    0.000 
#
# Total GULP energy -55719.090097 kJ/mol
# GULP energy per Si atom -5571.909010 kJ/mol
# Density = 2.491012 g / cm^3
# Si number density = 24.966948 Si / 1000 Ang^3
#
#
#
# Elastic Constant Matrix: (Units=GPa)
#
#
# Indices 1 2 3 4 5 6 
#
# 1 88.7041 16.0133 45.3518 0.0000 20.1916 0.0002
# 2 16.0133 111.3808 47.2532 -0.0013 2.4250 -0.0003
# 3 45.3518 47.2532 131.8218 -0.0001 -19.9578 0.0002
# 4 0.0000 -0.0013 -0.0001 10.1655 0.0001 9.4356
# 5 20.1916 2.4250 -19.9578 0.0001 61.1016 0.0002
# 6 0.0002 -0.0003 0.0002 9.4356 0.0002 59.4715
#
#
#
# Elastic Compliance Matrix: (Units=1/GPa)
#
#
# Indices 1 2 3 4 5 6 
#
# 1 0.016596 0.000841 -0.007203 0.000000 -0.007870 0.000000
# 2 0.000841 0.010811 -0.004494 0.000001 -0.002175 0.000000
# 3 -0.007203 -0.004494 0.012690 -0.000001 0.006703 0.000000
# 4 0.000000 0.000001 -0.000001 0.115361 0.000000 -0.018303
# 5 -0.007870 -0.002175 0.006703 0.000000 0.021243 0.000000
# 6 0.000000 0.000000 0.000000 -0.018303 0.000000 0.019719
#
#
# Mechanical properties :
#
#
# Convention : Reuss Voigt Hill
#
# Bulk Modulus (GPa) = 54.39073 61.01595 57.70334
# Shear Modulus (GPa) = 22.29574 41.03362 31.66468
#
# Velocity S-wave (km/s) = 2.99157 4.05843 3.56513
# Velocity P-wave (km/s) = 5.81077 6.81564 6.33316
#
# Compressibility (1/GPa) = 0.01838549
#
# Stress axis : x y z
#
# Youngs Moduli (GPa) = 60.25728 92.49627 78.80348
#
# Poissons Ratio (x) = -0.07779 0.56758
# Poissons Ratio (y) = -0.05068 0.35415
# Poissons Ratio (z) = 0.43400 0.41568
#
# Static dielectric constant tensor:
#      x y z
#    x 2.100280 0.000000 0.004560 
#    y 0.000000 1.968820 0.000000 
#    z 0.004560 0.000000 2.027470 
# 
# From -- ./inp_files/47058.got.cif
#   From: 2010.05.17/outbox.cif.g08.bks.cpg/sg5_24_cif.got.tgz:47058.got - 2010.06.03 18:56:24.
