data_PCOD9125928
_publ_section_title
;
Structure prediction by ZEFSAII (Michael W. Deem and Ramdas Pophale) SiO2 
 PCOD9125928
Probable space group: C 2
;
_chemical_formula_sum "Si O2"
_cell_formula_units_Z 14
_cell_length_a 9.984989
_cell_length_b 10.063761
_cell_length_c 9.105894
_cell_angle_alpha 90.000000
_cell_angle_beta 40.811685
_cell_angle_gamma 90.000000
_cell_volume 598.034047
_symmetry_space_group_name_H-M "C 2"
_symmetry_group_IT_number 5
_symmetry_cell_setting 'monoclinic'
loop_
_space_group_symop_operation_xyz
x,y,z
-x,y,-z
1/2+x,1/2+y,z
1/2-x,1/2+y,-z
loop_
_atom_site_type_symbol
_atom_site_label
_atom_site_fract_x
_atom_site_fract_y
_atom_site_fract_z
Si Si1 0.000000 0.149271 0.000000
Si Si2 0.257010 0.211111 0.358253
Si Si3 0.121405 0.975872 0.654268
Si Si4 0.291398 0.273607 0.995515
O O1 0.153456 0.057785 0.777423
O O2 0.870858 0.231061 0.989558
O O3 0.147319 0.080105 0.504249
O O4 0.236217 0.345852 0.472568
O O5 0.217153 0.258164 0.224790
O O6 0.501254 0.184004 0.174929
O O7 0.893185 0.915040 0.867111
#
# Coordination Sequence:
#
# PCOD9125928 Si02
#       4
#     2   4   4   4
#     4  12  22  46  74 108 156 192 238 314 370 444
#     4   9  20  49  77 103 149 190 254 303 362 441
#     4  10  21  48  75 109 141 197 250 302 366 437
#     4   9  22  46  75 106 150 192 241 309 369 433
#
# _framework density 23.410038
#
# number of rings (size 3 to 8) (size 9 to 14) (size 15 to 20)
#    1.714    0.571    2.857    0.000    0.000    2.286 
#   15.429    2.857    0.000    0.000    0.000    0.000 
#    0.000    0.000    0.000    0.000    0.000    0.000 
#
# Total GULP energy -39026.154459 kJ/mol
# GULP energy per Si atom -5575.164923 kJ/mol
# Density = 2.335676 g / cm^3
# Si number density = 23.410038 Si / 1000 Ang^3
#
#
#
# Elastic Constant Matrix: (Units=GPa)
#
#
# Indices 1 2 3 4 5 6 
#
# 1 164.2186 76.9920 41.2510 -0.0005 20.3283 0.0006
# 2 76.9920 175.6501 91.2928 -0.0003 19.9393 0.0003
# 3 41.2510 91.2928 96.6397 -0.0003 21.6465 0.0006
# 4 -0.0005 -0.0003 -0.0003 62.5825 0.0004 -2.2108
# 5 20.3283 19.9393 21.6465 0.0004 21.4320 -0.0007
# 6 0.0006 0.0003 0.0006 -2.2108 -0.0007 25.6694
#
#
#
# Elastic Compliance Matrix: (Units=1/GPa)
#
#
# Indices 1 2 3 4 5 6 
#
# 1 0.008148 -0.003497 0.001070 0.000000 -0.005555 0.000000
# 2 -0.003497 0.012687 -0.011104 0.000000 0.002728 0.000000
# 3 0.001070 -0.011104 0.023643 0.000000 -0.014563 -0.000001
# 4 0.000000 0.000000 0.000000 0.016028 0.000000 0.001380
# 5 -0.005555 0.002728 -0.014563 0.000000 0.064100 0.000002
# 6 0.000000 0.000000 -0.000001 0.001380 0.000002 0.039076
#
#
# Mechanical properties :
#
#
# Convention : Reuss Voigt Hill
#
# Bulk Modulus (GPa) = 57.41791 95.06444 76.24117
# Shear Modulus (GPa) = 25.43911 37.06829 31.25370
#
# Velocity S-wave (km/s) = 3.30005 3.98356 3.65781
# Velocity P-wave (km/s) = 6.25306 7.86479 7.10477
#
# Compressibility (1/GPa) = 0.01741617
#
# Stress axis : x y z
#
# Youngs Moduli (GPa) = 122.73177 78.81917 42.29659
#
# Poissons Ratio (x) = 0.27561 -0.04525
# Poissons Ratio (y) = 0.42916 0.46965
# Poissons Ratio (z) = -0.13129 0.87519
#
# Static dielectric constant tensor:
#      x y z
#    x 1.864820 0.000000 -0.057580 
#    y 0.000000 1.917330 0.000000 
#    z -0.057580 0.000000 1.958810 
# 
# From -- ./inp_files/13608.got.cif
#   From: 2010.05.17/outbox.cif.g08.bks.cpg/sg5_7_cif.got.tgz:13608.got - 2010.06.03 18:56:24.
