data_PCOD9125061
_publ_section_title
;
Structure prediction by ZEFSAII (Michael W. Deem and Ramdas Pophale) SiO2 
 PCOD9125061
Probable space group: C 2
;
_chemical_formula_sum "Si O2"
_cell_formula_units_Z 32
_cell_length_a 34.304883
_cell_length_b 5.435438
_cell_length_c 19.498665
_cell_angle_alpha 90.000000
_cell_angle_beta 154.567634
_cell_angle_gamma 90.000000
_cell_volume 1561.360809
_symmetry_space_group_name_H-M "C 2"
_symmetry_group_IT_number 5
_symmetry_cell_setting 'monoclinic'
loop_
_space_group_symop_operation_xyz
x,y,z
-x,y,-z
1/2+x,1/2+y,z
1/2-x,1/2+y,-z
loop_
_atom_site_type_symbol
_atom_site_label
_atom_site_fract_x
_atom_site_fract_y
_atom_site_fract_z
Si Si1 0.251873 0.031080 0.300007
Si Si2 0.450663 0.802272 0.630708
Si Si3 0.509521 0.069687 0.591332
Si Si4 0.051156 0.462476 0.925776
Si Si5 0.196304 0.787951 0.931456
Si Si6 0.440531 0.460496 0.973594
Si Si7 0.717185 0.212170 0.122299
Si Si8 0.366123 0.417585 0.423969
O O1 0.168125 0.963234 0.215103
O O2 0.288064 0.305389 0.348551
O O3 0.344903 0.884795 0.460544
O O4 0.214577 0.949922 0.166394
O O5 0.487651 0.898686 0.760537
O O6 0.441049 0.516361 0.596719
O O7 0.507583 0.898048 0.655573
O O8 0.500000 0.957694 0.500000
O O9 0.600671 0.232017 0.742498
O O10 0.418192 0.224778 0.459642
O O11 0.047802 0.220944 0.968240
O O12 0.147347 0.516988 0.042654
O O13 0.034725 0.716847 0.942082
O O14 0.261628 0.554271 0.018639
O O15 0.188509 0.776259 0.000971
O O16 0.500000 0.458123 0.000000
O O17 0.817965 0.105256 0.295144
#
# Coordination Sequence:
#
# PCOD9125061 Si02
#       8
#     4   4   4   4   4   4   4   4
#     4   9  21  39  65  94 130 170 223 266 333 404
#     4  10  23  40  66  97 128 180 225 280 326 400
#     4  11  25  41  59  91 132 175 224 283 341 386
#     4  11  23  42  70 101 134 170 229 269 326 408
#     4  12  29  42  62  91 132 170 226 280 342 386
#     4  11  24  44  71 103 137 173 214 276 341 403
#     4  10  21  41  64  92 125 179 225 279 322 401
#     4  10  21  39  66  89 128 172 229 270 337 391
#
# _framework density 20.494942999999999
#
# number of rings (size 3 to 8) (size 9 to 14) (size 15 to 20)
#    0.000    1.500    2.500    1.125   12.250    0.500 
#    0.000    1.250    0.000    0.000    0.000    0.000 
#    0.000    0.000    0.000    0.000    0.000    0.000 
#
# Total GULP energy -89168.944827 kJ/mol
# GULP energy per Si atom -5573.059052 kJ/mol
# Density = 2.044830 g / cm^3
# Si number density = 20.494943 Si / 1000 Ang^3
#
#
#
# Elastic Constant Matrix: (Units=GPa)
#
#
# Indices 1 2 3 4 5 6 
#
# 1 98.6693 24.4697 33.8215 0.0000 4.7245 0.0000
# 2 24.4697 76.4236 9.5764 0.0004 -7.9954 -0.0002
# 3 33.8215 9.5764 73.0300 0.0002 -4.7033 -0.0001
# 4 0.0000 0.0004 0.0002 24.9056 0.0000 0.2014
# 5 4.7245 -7.9954 -4.7033 0.0000 27.4003 0.0000
# 6 0.0000 -0.0002 -0.0001 0.2014 0.0000 20.8845
#
#
#
# Elastic Compliance Matrix: (Units=1/GPa)
#
#
# Indices 1 2 3 4 5 6 
#
# 1 0.013390 -0.004011 -0.005965 0.000000 -0.004503 0.000000
# 2 -0.004011 0.014870 0.000234 0.000000 0.005071 0.000000
# 3 -0.005965 0.000234 0.016680 0.000000 0.003960 0.000000
# 4 0.000000 0.000000 0.000000 0.040155 0.000000 -0.000387
# 5 -0.004503 0.005071 0.003960 0.000000 0.039432 0.000000
# 6 0.000000 0.000000 0.000000 -0.000387 0.000000 0.047886
#
#
# Mechanical properties :
#
#
# Convention : Reuss Voigt Hill
#
# Bulk Modulus (GPa) = 39.28289 42.65088 40.96689
# Shear Modulus (GPa) = 24.95234 26.65510 25.80372
#
# Velocity S-wave (km/s) = 3.49304 3.61025 3.55213
# Velocity P-wave (km/s) = 5.95627 6.18338 6.07089
#
# Compressibility (1/GPa) = 0.02545638
#
# Stress axis : x y z
#
# Youngs Moduli (GPa) = 74.68325 67.24781 59.95244
#
# Poissons Ratio (x) = 0.26972 0.35763
# Poissons Ratio (y) = 0.29955 -0.01404
# Poissons Ratio (z) = 0.44550 -0.01575
#
# Static dielectric constant tensor:
#      x y z
#    x 1.722740 0.000000 0.022200 
#    y 0.000000 1.856000 0.000000 
#    z 0.022200 0.000000 1.776560 
# 
# From -- ./inp_files/63743.got.cif
#   From: 2010.05.17/outbox.cif.g08.bks.cpg/sg5_32_cif.got.tgz:63743.got - 2010.06.03 18:56:24.
