data_PCOD9125666
_publ_section_title
;
Structure prediction by ZEFSAII (Michael W. Deem and Ramdas Pophale) SiO2 
 PCOD9125666
Probable space group: C 2
;
_chemical_formula_sum "Si O2"
_cell_formula_units_Z 24
_cell_length_a 12.184078
_cell_length_b 7.200614
_cell_length_c 11.509345
_cell_angle_alpha 90.000000
_cell_angle_beta 69.217072
_cell_angle_gamma 90.000000
_cell_volume 944.044738
_symmetry_space_group_name_H-M "C 2"
_symmetry_group_IT_number 5
_symmetry_cell_setting 'monoclinic'
loop_
_space_group_symop_operation_xyz
x,y,z
-x,y,-z
1/2+x,1/2+y,z
1/2-x,1/2+y,-z
loop_
_atom_site_type_symbol
_atom_site_label
_atom_site_fract_x
_atom_site_fract_y
_atom_site_fract_z
Si Si1 0.531635 0.597840 0.792389
Si Si2 0.654259 0.302289 0.124322
Si Si3 0.887710 0.402686 0.915295
Si Si4 0.718423 0.415262 0.342287
Si Si5 0.120325 0.199466 0.544079
Si Si6 0.758268 0.328361 0.720067
O O1 0.422328 0.478931 0.880768
O O2 0.509910 0.792117 0.866203
O O3 0.507701 0.649618 0.664533
O O4 0.643347 0.460032 0.757575
O O5 0.653454 0.304715 0.265203
O O6 0.600851 0.122994 0.083375
O O7 0.788997 0.327593 0.038953
O O8 0.823776 0.375139 0.813829
O O9 0.804087 0.276262 0.376736
O O10 0.645519 0.503220 0.475307
O O11 0.774680 0.607657 0.271182
O O12 0.154531 0.341686 0.426879
#
# Coordination Sequence:
#
# PCOD9125666 Si02
#       6
#     4   4   4   4   4   4
#     4  12  24  47  75 109 149 203 247 305 400 447
#     4  12  26  47  73 105 153 200 259 313 375 460
#     4  12  26  49  72 108 152 202 254 318 370 461
#     4  10  21  44  73 102 157 187 239 327 370 441
#     4  10  21  42  70 107 146 185 250 308 380 459
#     4  10  22  45  73 104 149 188 247 316 366 461
#
# _framework density 25.422523999999999
#
# number of rings (size 3 to 8) (size 9 to 14) (size 15 to 20)
#    1.000    0.000    5.000    1.000    2.333    3.333 
#    3.000    1.667    0.000    0.000    0.000    0.000 
#    0.000    0.000    0.000    0.000    0.000    0.000 
#
# Total GULP energy -66908.325237 kJ/mol
# GULP energy per Si atom -5575.693770 kJ/mol
# Density = 2.536466 g / cm^3
# Si number density = 25.422524 Si / 1000 Ang^3
#
#
#
# Elastic Constant Matrix: (Units=GPa)
#
#
# Indices 1 2 3 4 5 6 
#
# 1 71.4970 29.6342 11.7502 0.0000 -2.8590 0.0000
# 2 29.6342 122.2837 14.3684 0.0000 -21.0186 0.0000
# 3 11.7502 14.3684 83.8828 0.0000 -26.4010 0.0000
# 4 0.0000 0.0000 0.0000 32.2338 0.0000 -11.4266
# 5 -2.8590 -21.0186 -26.4010 0.0000 44.9255 0.0000
# 6 0.0000 0.0000 0.0000 -11.4266 0.0000 35.0951
#
#
#
# Elastic Compliance Matrix: (Units=1/GPa)
#
#
# Indices 1 2 3 4 5 6 
#
# 1 0.015909 -0.003963 -0.002226 0.000000 -0.002150 0.000000
# 2 -0.003963 0.009885 0.000292 0.000000 0.004544 0.000000
# 3 -0.002226 0.000292 0.014946 0.000000 0.008778 0.000000
# 4 0.000000 0.000000 0.000000 0.035071 0.000000 0.011419
# 5 -0.002150 0.004544 0.008778 0.000000 0.029407 0.000000
# 6 0.000000 0.000000 0.000000 0.011419 0.000000 0.032212
#
#
# Mechanical properties :
#
#
# Convention : Reuss Voigt Hill
#
# Bulk Modulus (GPa) = 34.54828 43.24102 38.89465
# Shear Modulus (GPa) = 31.47154 37.24494 34.35824
#
# Velocity S-wave (km/s) = 3.52225 3.83173 3.68025
# Velocity P-wave (km/s) = 5.49189 6.05162 5.77853
#
# Compressibility (1/GPa) = 0.02894500
#
# Stress axis : x y z
#
# Youngs Moduli (GPa) = 62.85639 101.16398 66.90736
#
# Poissons Ratio (x) = 0.40096 0.14896
# Poissons Ratio (y) = 0.24913 -0.01955
# Poissons Ratio (z) = 0.13994 -0.02956
#
# Static dielectric constant tensor:
#      x y z
#    x 2.090610 0.000000 -0.039880 
#    y 0.000000 2.050250 0.000000 
#    z -0.039880 0.000000 2.073700 
# 
# From -- ./inp_files/41438.got.cif
#   From: 2010.05.17/outbox.cif.g08.bks.cpg/sg5_21_cif.got.tgz:41438.got - 2010.06.03 18:56:24.
