data_PCOD9125869
_publ_section_title
;
Structure prediction by ZEFSAII (Michael W. Deem and Ramdas Pophale) SiO2 
 PCOD9125869
Probable space group: C 2
;
_chemical_formula_sum "Si O2"
_cell_formula_units_Z 28
_cell_length_a 30.172512
_cell_length_b 7.377562
_cell_length_c 9.144575
_cell_angle_alpha 90.000000
_cell_angle_beta 145.044605
_cell_angle_gamma 90.000000
_cell_volume 1166.261413
_symmetry_space_group_name_H-M "C 2"
_symmetry_group_IT_number 5
_symmetry_cell_setting 'monoclinic'
loop_
_space_group_symop_operation_xyz
x,y,z
-x,y,-z
1/2+x,1/2+y,z
1/2-x,1/2+y,-z
loop_
_atom_site_type_symbol
_atom_site_label
_atom_site_fract_x
_atom_site_fract_y
_atom_site_fract_z
Si Si1 0.550162 0.098280 0.927120
Si Si2 0.130106 0.945623 0.059765
Si Si3 0.101404 0.740078 0.383859
Si Si4 0.585905 0.633286 0.244968
Si Si5 0.759382 0.397713 0.905621
Si Si6 0.731244 0.810312 0.738554
Si Si7 0.921048 0.296842 0.208743
O O1 0.588820 0.253561 0.934264
O O2 0.457705 0.129576 0.674437
O O3 0.578008 0.907593 0.940938
O O4 0.582979 0.155931 0.175024
O O5 0.085140 0.085146 0.837022
O O6 0.217729 0.908422 0.246091
O O7 0.122628 0.039068 0.199397
O O8 0.191851 0.763487 0.663638
O O9 0.075088 0.952998 0.316893
O O10 0.641614 0.788666 0.455515
O O11 0.500000 0.709576 0.000000
O O12 0.750455 0.596757 0.812307
O O13 0.752217 0.400739 0.060863
O O14 0.844754 0.338253 0.093845
O O15 0.000000 0.348125 0.500000
#
# Coordination Sequence:
#
# PCOD9125869 Si02
#       7
#     4   4   4   4   4   4   4
#     4  10  21  48  76 108 145 197 252 316 385 453
#     4  11  24  48  72 109 151 206 244 322 377 446
#     4   9  20  44  79 106 149 198 247 312 390 457
#     4  10  21  44  78 113 149 198 259 315 377 457
#     4  11  25  46  70 114 154 200 255 315 388 469
#     4  11  25  46  78 108 155 204 257 313 393 456
#     4  12  29  46  71 113 153 195 268 312 383 470
#
# _framework density 24.008341000000001
#
# number of rings (size 3 to 8) (size 9 to 14) (size 15 to 20)
#    0.000    1.429    4.286    0.857    4.000    5.143 
#   10.286    0.000    0.000    0.000    0.000    0.000 
#    0.000    0.000    0.000    0.000    0.000    0.000 
#
# Total GULP energy -78321.576728 kJ/mol
# GULP energy per Si atom -5594.398338 kJ/mol
# Density = 2.395370 g / cm^3
# Si number density = 24.008341 Si / 1000 Ang^3
#
#
#
# Elastic Constant Matrix: (Units=GPa)
#
#
# Indices 1 2 3 4 5 6 
#
# 1 94.6096 23.9373 42.1966 0.0000 28.4128 0.0000
# 2 23.9373 95.7064 27.6832 0.0000 12.9357 0.0000
# 3 42.1966 27.6832 134.2617 0.0000 31.5572 0.0000
# 4 0.0000 0.0000 0.0000 30.9870 0.0000 7.8992
# 5 28.4128 12.9357 31.5572 0.0000 30.8525 0.0000
# 6 0.0000 0.0000 0.0000 7.8992 0.0000 35.1994
#
#
#
# Elastic Compliance Matrix: (Units=1/GPa)
#
#
# Indices 1 2 3 4 5 6 
#
# 1 0.015248 -0.001756 -0.001715 0.000000 -0.011552 0.000000
# 2 -0.001756 0.011536 -0.001409 0.000000 -0.001778 0.000000
# 3 -0.001715 -0.001409 0.010226 0.000000 -0.008290 0.000000
# 4 0.000000 0.000000 0.000000 0.034230 0.000000 -0.007682
# 5 -0.011552 -0.001778 -0.008290 0.000000 0.052275 0.000000
# 6 0.000000 0.000000 0.000000 -0.007682 0.000000 0.030133
#
#
# Mechanical properties :
#
#
# Convention : Reuss Voigt Hill
#
# Bulk Modulus (GPa) = 36.69693 56.91243 46.80468
# Shear Modulus (GPa) = 28.98690 34.79181 31.88935
#
# Velocity S-wave (km/s) = 3.47849 3.81091 3.64849
# Velocity P-wave (km/s) = 5.60816 6.56664 6.10623
#
# Compressibility (1/GPa) = 0.02725024
#
# Stress axis : x y z
#
# Youngs Moduli (GPa) = 65.58125 86.68741 97.79035
#
# Poissons Ratio (x) = 0.15225 0.16771
# Poissons Ratio (y) = 0.11518 0.13774
# Poissons Ratio (z) = 0.11247 0.12210
#
# Static dielectric constant tensor:
#      x y z
#    x 1.923730 0.000000 -0.025170 
#    y 0.000000 1.913290 0.000000 
#    z -0.025170 0.000000 1.955110 
# 
# From -- ./inp_files/31786.got.cif
#   From: 2010.05.17/outbox.cif.g08.bks.cpg/sg5_16_cif.got.tgz:31786.got - 2010.06.03 18:56:24.
