data_PCOD9125217
_publ_section_title
;
Structure prediction by ZEFSAII (Michael W. Deem and Ramdas Pophale) SiO2 
 PCOD9125217
Probable space group: C 2
;
_chemical_formula_sum "Si O2"
_cell_formula_units_Z 28
_cell_length_a 11.876968
_cell_length_b 13.786314
_cell_length_c 8.886592
_cell_angle_alpha 90.000000
_cell_angle_beta 71.134334
_cell_angle_gamma 90.000000
_cell_volume 1376.918803
_symmetry_space_group_name_H-M "C 2"
_symmetry_group_IT_number 5
_symmetry_cell_setting 'monoclinic'
loop_
_space_group_symop_operation_xyz
x,y,z
-x,y,-z
1/2+x,1/2+y,z
1/2-x,1/2+y,-z
loop_
_atom_site_type_symbol
_atom_site_label
_atom_site_fract_x
_atom_site_fract_y
_atom_site_fract_z
Si Si1 0.727726 0.595820 0.479804
Si Si2 0.042855 0.426298 0.155136
Si Si3 0.491101 0.351687 0.181123
Si Si4 0.273260 0.934792 0.691929
Si Si5 0.644028 0.801293 0.599445
Si Si6 0.459085 0.135665 0.194840
Si Si7 0.874273 0.906538 0.623894
O O1 0.780861 0.539145 0.603814
O O2 0.652845 0.687714 0.566198
O O3 0.823297 0.632842 0.314208
O O4 0.654714 0.511494 0.429289
O O5 0.177675 0.424292 0.159350
O O6 0.968060 0.339685 0.260594
O O7 0.003931 0.532093 0.234397
O O8 0.000000 0.425552 0.000000
O O9 0.361924 0.397566 0.268009
O O10 0.503782 0.240144 0.230460
O O11 0.595617 0.411133 0.213931
O O12 0.500000 0.350717 0.000000
O O13 0.350390 0.861120 0.557918
O O14 0.763712 0.837547 0.634268
O O15 0.500000 0.134489 0.000000
O O16 0.000000 0.872149 0.500000
#
# Coordination Sequence:
#
# PCOD9125217 Si02
#       7
#     4   4   4   4   4   4   4
#     4  11  22  41  68  98 127 168 220 263 323 384
#     4  11  25  44  65  95 133 170 213 268 323 382
#     4  11  24  42  66  97 128 171 210 269 324 377
#     4  11  23  43  63  96 126 171 217 260 322 385
#     4  11  23  42  66  95 128 172 214 264 320 381
#     4  10  21  40  64  98 126 165 217 264 319 366
#     4  11  21  41  65  94 128 167 216 261 317 379
#
# _framework density 20.335260000000002
#
# number of rings (size 3 to 8) (size 9 to 14) (size 15 to 20)
#    0.000    1.143    7.143    0.429    4.000    1.143 
#    0.000    0.714    0.000    0.000    0.000    0.000 
#    0.000    0.000    0.000    0.000    0.000    0.000 
#
# Total GULP energy -77970.760365 kJ/mol
# GULP energy per Si atom -5569.340026 kJ/mol
# Density = 2.028898 g / cm^3
# Si number density = 20.335260 Si / 1000 Ang^3
#
#
#
# Elastic Constant Matrix: (Units=GPa)
#
#
# Indices 1 2 3 4 5 6 
#
# 1 89.6453 21.5441 23.9735 0.0000 25.4507 0.0000
# 2 21.5441 136.8669 35.4838 0.0000 10.1648 0.0000
# 3 23.9735 35.4838 71.3066 0.0000 6.2489 0.0000
# 4 0.0000 0.0000 0.0000 27.0150 0.0000 -9.7126
# 5 25.4507 10.1648 6.2489 0.0000 36.6169 0.0000
# 6 0.0000 0.0000 0.0000 -9.7126 0.0000 10.0203
#
#
#
# Elastic Compliance Matrix: (Units=1/GPa)
#
#
# Indices 1 2 3 4 5 6 
#
# 1 0.015094 -0.000647 -0.003908 0.000000 -0.009645 0.000000
# 2 -0.000647 0.008515 -0.003910 0.000000 -0.001247 0.000000
# 3 -0.003908 -0.003910 0.017208 0.000000 0.000865 0.000000
# 4 0.000000 0.000000 0.000000 0.056816 0.000000 0.055071
# 5 -0.009645 -0.001247 0.000865 0.000000 0.034212 0.000000
# 6 0.000000 0.000000 0.000000 0.055071 0.000000 0.153178
#
#
# Mechanical properties :
#
#
# Convention : Reuss Voigt Hill
#
# Bulk Modulus (GPa) = 41.86391 51.09125 46.47758
# Shear Modulus (GPa) = 16.13357 29.18494 22.65926
#
# Velocity S-wave (km/s) = 2.81975 3.79250 3.34171
# Velocity P-wave (km/s) = 5.58864 6.66006 6.14774
#
# Compressibility (1/GPa) = 0.02388693
#
# Stress axis : x y z
#
# Youngs Moduli (GPa) = 66.25336 117.44612 58.11320
#
# Poissons Ratio (x) = 0.07593 0.22708
# Poissons Ratio (y) = 0.04283 0.22725
# Poissons Ratio (z) = 0.25889 0.45926
#
# Static dielectric constant tensor:
#      x y z
#    x 1.773130 0.000000 0.036270 
#    y 0.000000 1.701570 0.000000 
#    z 0.036270 0.000000 1.824510 
# 
# From -- ./inp_files/20337.got.cif
#   From: 2010.05.17/outbox.cif.g08.bks.cpg/sg5_11_cif.got.tgz:20337.got - 2010.06.03 18:56:24.
