data_PCOD9125974
_publ_section_title
;
Structure prediction by ZEFSAII (Michael W. Deem and Ramdas Pophale) SiO2 
 PCOD9125974
Probable space group: C 2
;
_chemical_formula_sum "Si O2"
_cell_formula_units_Z 22
_cell_length_a 20.113870
_cell_length_b 9.078718
_cell_length_c 7.072154
_cell_angle_alpha 90.000000
_cell_angle_beta 140.915604
_cell_angle_gamma 90.000000
_cell_volume 814.202566
_symmetry_space_group_name_H-M "C 2"
_symmetry_group_IT_number 5
_symmetry_cell_setting 'monoclinic'
loop_
_space_group_symop_operation_xyz
x,y,z
-x,y,-z
1/2+x,1/2+y,z
1/2-x,1/2+y,-z
loop_
_atom_site_type_symbol
_atom_site_label
_atom_site_fract_x
_atom_site_fract_y
_atom_site_fract_z
Si Si1 0.664176 0.953630 0.232509
Si Si2 0.415751 0.234435 0.158497
Si Si3 0.202447 0.221610 0.060104
Si Si4 0.213553 0.425458 0.782219
Si Si5 0.015284 0.031887 0.758719
Si Si6 0.000000 0.249076 0.000000
O O1 0.744580 0.850552 0.291555
O O2 0.684325 0.937802 0.499215
O O3 0.555382 0.862531 0.979930
O O4 0.640044 0.112178 0.093734
O O5 0.500000 0.177611 0.500000
O O6 0.480131 0.360146 0.183859
O O7 0.325465 0.341009 0.046365
O O8 0.275886 0.094864 0.131891
O O9 0.147760 0.322055 0.778125
O O10 0.128316 0.115328 0.024697
O O11 0.000000 0.043324 0.500000
O O12 0.942310 0.130289 0.733695
#
# Coordination Sequence:
#
# PCOD9125974 Si02
#       6
#     4   4   4   4   4   2
#     4  11  23  40  63  95 130 167 213 261 315 381
#     4  10  23  42  66  95 129 165 212 266 317 374
#     4  10  22  37  61  90 123 164 212 260 311 374
#     4  11  22  41  65  92 127 172 211 259 319 376
#     4   9  19  39  59  84 121 162 205 253 307 369
#     4  10  22  36  60  92 124 164 206 256 314 366
#
# _framework density 27.020302999999998
#
# number of rings (size 3 to 8) (size 9 to 14) (size 15 to 20)
#    0.000    1.818    0.000    3.273    0.000    6.545 
#    0.000   16.364    0.000    0.000    0.000    0.000 
#    0.000    0.000    0.000    0.000    0.000    0.000 
#
# Total GULP energy -61296.953485 kJ/mol
# GULP energy per Si atom -5572.450317 kJ/mol
# Density = 2.695880 g / cm^3
# Si number density = 27.020303 Si / 1000 Ang^3
#
#
#
# Elastic Constant Matrix: (Units=GPa)
#
#
# Indices 1 2 3 4 5 6 
#
# 1 61.9290 35.2900 28.4209 0.0000 -13.7878 0.0000
# 2 35.2900 235.6548 67.7997 0.0000 -33.8303 0.0000
# 3 28.4209 67.7997 134.7093 0.0000 -35.5728 0.0000
# 4 0.0000 0.0000 0.0000 44.9870 0.0000 -10.0812
# 5 -13.7878 -33.8303 -35.5728 0.0000 44.6871 0.0000
# 6 0.0000 0.0000 0.0000 -10.0812 0.0000 27.3576
#
#
#
# Elastic Compliance Matrix: (Units=1/GPa)
#
#
# Indices 1 2 3 4 5 6 
#
# 1 0.018826 -0.001758 -0.002411 0.000000 0.002558 0.000000
# 2 -0.001758 0.005310 -0.001751 0.000000 0.002083 0.000000
# 3 -0.002411 -0.001751 0.010467 0.000000 0.006263 0.000000
# 4 0.000000 0.000000 0.000000 0.024229 0.000000 0.008929
# 5 0.002558 0.002083 0.006263 0.000000 0.029729 0.000000
# 6 0.000000 0.000000 0.000000 0.008929 0.000000 0.039843
#
#
# Mechanical properties :
#
#
# Convention : Reuss Voigt Hill
#
# Bulk Modulus (GPa) = 43.93551 77.25715 60.59633
# Shear Modulus (GPa) = 33.82182 43.45848 38.64015
#
# Velocity S-wave (km/s) = 3.54180 4.01479 3.78569
# Velocity P-wave (km/s) = 5.74642 7.08137 6.44853
#
# Compressibility (1/GPa) = 0.02276063
#
# Stress axis : x y z
#
# Youngs Moduli (GPa) = 53.11918 188.33394 95.53463
#
# Poissons Ratio (x) = 0.33113 0.23038
# Poissons Ratio (y) = 0.09339 0.16732
# Poissons Ratio (z) = 0.12809 0.32984
#
# Static dielectric constant tensor:
#      x y z
#    x 2.657100 0.000000 0.025940 
#    y 0.000000 2.135880 0.000000 
#    z 0.025940 0.000000 2.145320 
# 
# From -- ./inp_files/10831.got.cif
#   From: 2010.05.17/outbox.cif.g08.bks.cpg/sg5_6_cif.got.tgz:10831.got - 2010.06.03 18:56:24.
