data_PCOD9125751
_publ_section_title
;
Structure prediction by ZEFSAII (Michael W. Deem and Ramdas Pophale) SiO2 
 PCOD9125751
Probable space group: C 2
;
_chemical_formula_sum "Si O2"
_cell_formula_units_Z 20
_cell_length_a 7.516539
_cell_length_b 25.816951
_cell_length_c 7.915566
_cell_angle_alpha 90.000000
_cell_angle_beta 37.692328
_cell_angle_gamma 90.000000
_cell_volume 939.172255
_symmetry_space_group_name_H-M "C 2"
_symmetry_group_IT_number 5
_symmetry_cell_setting 'monoclinic'
loop_
_space_group_symop_operation_xyz
x,y,z
-x,y,-z
1/2+x,1/2+y,z
1/2-x,1/2+y,-z
loop_
_atom_site_type_symbol
_atom_site_label
_atom_site_fract_x
_atom_site_fract_y
_atom_site_fract_z
Si Si1 0.639781 0.253890 0.584844
Si Si2 0.500000 0.897364 0.500000
Si Si3 0.144313 0.191862 0.070540
Si Si4 0.500000 0.330002 0.000000
Si Si5 0.336307 0.583564 0.785161
Si Si6 0.811300 0.995075 0.309858
O O1 0.500000 0.263413 0.500000
O O2 0.971716 0.233875 0.315341
O O3 0.478913 0.205552 0.794159
O O4 0.558993 0.298648 0.780347
O O5 0.706378 0.864789 0.220948
O O6 0.708731 0.937904 0.443901
O O7 0.124060 0.131181 0.118710
O O8 0.000000 0.201684 0.000000
O O9 0.500000 0.604212 0.500000
O O10 0.500516 0.531410 0.714055
O O11 0.000000 0.573650 0.000000
O O12 0.500000 0.021620 0.500000
O O13 0.000000 0.988073 0.000000
#
# Coordination Sequence:
#
# PCOD9125751 Si02
#       6
#     4   2   4   2   4   4
#     4  10  23  40  63  96 136 174 222 273 336 408
#     4  10  22  42  70  96 116 176 242 266 342 406
#     4  10  22  41  60  91 135 184 216 258 328 416
#     4  12  22  40  72  96 130 176 226 294 338 386
#     4  12  25  37  63 101 139 171 224 275 339 394
#     4  10  21  43  68  86 130 173 226 271 328 416
#
# _framework density 21.295345999999999
#
# number of rings (size 3 to 8) (size 9 to 14) (size 15 to 20)
#    0.600    0.800    1.000    4.200    4.200    2.400 
#    0.000    1.000    4.400    0.000    0.000    0.000 
#    0.000    0.000    0.000    0.000    0.000    0.000 
#
# Total GULP energy -55701.979658 kJ/mol
# GULP energy per Si atom -5570.197966 kJ/mol
# Density = 2.124688 g / cm^3
# Si number density = 21.295346 Si / 1000 Ang^3
#
#
#
# Elastic Constant Matrix: (Units=GPa)
#
#
# Indices 1 2 3 4 5 6 
#
# 1 55.7899 32.0987 50.9585 0.0000 -2.4174 0.0000
# 2 32.0987 102.5110 43.7227 0.0000 4.6675 0.0000
# 3 50.9585 43.7227 142.6693 0.0000 -17.1369 0.0000
# 4 0.0000 0.0000 0.0000 -50.7595 0.0000 11.3133
# 5 -2.4174 4.6675 -17.1369 0.0000 34.5703 0.0000
# 6 0.0000 0.0000 0.0000 11.3133 0.0000 -0.9571
#
#
#
# Elastic Compliance Matrix: (Units=1/GPa)
#
#
# Indices 1 2 3 4 5 6 
#
# 1 0.029045 -0.005180 -0.008995 0.000000 -0.001728 0.000000
# 2 -0.005180 0.012540 -0.002382 0.000000 -0.003236 0.000000
# 3 -0.008995 -0.002382 0.011606 0.000000 0.005446 0.000000
# 4 0.000000 0.000000 0.000000 0.012052 0.000000 0.142465
# 5 -0.001728 -0.003236 0.005446 0.000000 0.031942 0.000000
# 6 0.000000 0.000000 0.000000 0.142465 0.000000 0.639197
#
#
# Mechanical properties :
#
#
# Convention : Reuss Voigt Hill
#
# Bulk Modulus (GPa) = 49.80241 61.61444 55.70843
# Shear Modulus (GPa) = 6.44174 8.18343 7.31259
#
# Velocity S-wave (km/s) = 1.74113 1.96244 1.85509
# Velocity P-wave (km/s) = 5.24207 5.84217 5.55024
#
# Compressibility (1/GPa) = 0.02007935
#
# Stress axis : x y z
#
# Youngs Moduli (GPa) = 34.42897 79.74412 86.16311
#
# Poissons Ratio (x) = 0.41306 0.77500
# Poissons Ratio (y) = 0.17833 0.20521
# Poissons Ratio (z) = 0.30967 0.18992
#
# Static dielectric constant tensor:
#      x y z
#    x 1.816070 0.000000 0.004460 
#    y 0.000000 1.800760 0.000000 
#    z 0.004460 0.000000 1.825700 
# 
# From -- ./inp_files/17294.got.cif
#   From: 2010.05.17/outbox.cif.g08.bks.cpg/sg5_9_cif.got.tgz:17294.got - 2010.06.03 18:56:24.
