data_PCOD9125581
_publ_section_title
;
Structure prediction by ZEFSAII (Michael W. Deem and Ramdas Pophale) SiO2 
 PCOD9125581
Probable space group: C 2
;
_chemical_formula_sum "Si O2"
_cell_formula_units_Z 30
_cell_length_a 25.655070
_cell_length_b 7.458905
_cell_length_c 14.290788
_cell_angle_alpha 90.000000
_cell_angle_beta 29.475755
_cell_angle_gamma 90.000000
_cell_volume 1345.607194
_symmetry_space_group_name_H-M "C 2"
_symmetry_group_IT_number 5
_symmetry_cell_setting 'monoclinic'
loop_
_space_group_symop_operation_xyz
x,y,z
-x,y,-z
1/2+x,1/2+y,z
1/2-x,1/2+y,-z
loop_
_atom_site_type_symbol
_atom_site_label
_atom_site_fract_x
_atom_site_fract_y
_atom_site_fract_z
Si Si1 0.532793 0.115150 0.553975
Si Si2 0.500000 0.972960 0.000000
Si Si3 0.642057 0.493939 0.139526
Si Si4 0.305951 0.126234 0.205449
Si Si5 0.665594 0.074449 0.044424
Si Si6 0.768058 0.026395 0.195105
Si Si7 0.569035 0.483402 0.601959
Si Si8 0.471863 0.631710 0.945335
O O1 0.500000 0.178746 0.500000
O O2 0.434283 0.996676 0.743880
O O3 0.563985 0.275146 0.578266
O O4 0.642985 0.013534 0.381708
O O5 0.519600 0.830629 0.884713
O O6 0.605303 0.084148 0.856610
O O7 0.651249 0.283736 0.096626
O O8 0.520754 0.555209 0.330408
O O9 0.716565 0.522793 0.110432
O O10 0.697303 0.583108 0.963622
O O11 0.302430 0.333963 0.181636
O O12 0.187263 0.058466 0.412436
O O13 0.344880 0.039406 0.047591
O O14 0.844096 0.151914 0.138515
O O15 0.518561 0.528276 0.782721
O O16 0.500000 0.538380 0.000000
#
# Coordination Sequence:
#
# PCOD9125581 Si02
#       8
#     4   2   4   4   4   4   4   4
#     4  11  22  40  68  99 134 186 218 262 333 414
#     4  10  24  46  70  92 128 178 230 282 352 386
#     4   9  20  38  60  90 127 173 210 258 327 394
#     4  11  25  42  63 101 132 171 227 285 328 406
#     4  10  22  37  61  91 132 172 217 265 323 390
#     4  10  21  42  65  94 137 173 219 272 335 398
#     4  10  23  42  64  98 130 169 230 272 339 399
#     4   9  22  47  69  92 125 180 221 286 342 392
#
# _framework density 22.294768000000001
#
# number of rings (size 3 to 8) (size 9 to 14) (size 15 to 20)
#    0.400    1.600    1.333    1.600    4.667    4.267 
#    4.800    0.000    0.000    0.000    0.000    0.000 
#    0.000    0.000    0.000    0.000    0.000    0.000 
#
# Total GULP energy -83519.543446 kJ/mol
# GULP energy per Si atom -5567.969563 kJ/mol
# Density = 2.224402 g / cm^3
# Si number density = 22.294768 Si / 1000 Ang^3
#
#
#
# Elastic Constant Matrix: (Units=GPa)
#
#
# Indices 1 2 3 4 5 6 
#
# 1 122.0606 33.6093 47.7749 0.0000 -32.8121 0.0000
# 2 33.6093 56.4090 3.6330 -0.0003 -10.7134 0.0000
# 3 47.7749 3.6330 124.0985 -0.0001 -33.3486 0.0000
# 4 0.0000 -0.0003 -0.0001 17.0589 0.0000 -10.8115
# 5 -32.8121 -10.7134 -33.3486 0.0000 43.7688 0.0000
# 6 0.0000 0.0000 0.0000 -10.8115 0.0000 27.6015
#
#
#
# Elastic Compliance Matrix: (Units=1/GPa)
#
#
# Indices 1 2 3 4 5 6 
#
# 1 0.012662 -0.006292 -0.003211 0.000000 0.005506 0.000000
# 2 -0.006292 0.021790 0.002452 0.000000 0.002485 0.000000
# 3 -0.003211 0.002452 0.010986 0.000000 0.006564 0.000000
# 4 0.000000 0.000000 0.000000 0.077979 0.000000 0.030544
# 5 0.005506 0.002485 0.006564 0.000000 0.032584 0.000000
# 6 0.000000 0.000000 0.000000 0.030544 0.000000 0.048194
#
#
# Mechanical properties :
#
#
# Convention : Reuss Voigt Hill
#
# Bulk Modulus (GPa) = 31.91019 52.51138 42.21078
# Shear Modulus (GPa) = 21.85868 32.18923 27.02396
#
# Velocity S-wave (km/s) = 3.13459 3.80386 3.48533
# Velocity P-wave (km/s) = 5.23878 6.54957 5.93050
#
# Compressibility (1/GPa) = 0.03133795
#
# Stress axis : x y z
#
# Youngs Moduli (GPa) = 78.97778 45.89180 91.02246
#
# Poissons Ratio (x) = 0.28873 0.29225
# Poissons Ratio (y) = 0.49690 -0.22319
# Poissons Ratio (z) = 0.25358 -0.11253
#
# Static dielectric constant tensor:
#      x y z
#    x 1.819340 0.000000 -0.004910 
#    y 0.000000 1.932920 0.000000 
#    z -0.004910 0.000000 1.912440 
# 
# From -- ./inp_files/57594.got.cif
#   From: 2010.05.17/outbox.cif.g08.bks.cpg/sg5_29_cif.got.tgz:57594.got - 2010.06.03 18:56:24.
