data_PCOD9125130
_publ_section_title
;
Structure prediction by ZEFSAII (Michael W. Deem and Ramdas Pophale) SiO2 
 PCOD9125130
Probable space group: C 2
;
_chemical_formula_sum "Si O2"
_cell_formula_units_Z 28
_cell_length_a 14.314326
_cell_length_b 9.874912
_cell_length_c 18.370961
_cell_angle_alpha 90.000000
_cell_angle_beta 148.720756
_cell_angle_gamma 90.000000
_cell_volume 1348.275608
_symmetry_space_group_name_H-M "C 2"
_symmetry_group_IT_number 5
_symmetry_cell_setting 'monoclinic'
loop_
_space_group_symop_operation_xyz
x,y,z
-x,y,-z
1/2+x,1/2+y,z
1/2-x,1/2+y,-z
loop_
_atom_site_type_symbol
_atom_site_label
_atom_site_fract_x
_atom_site_fract_y
_atom_site_fract_z
Si Si1 0.550730 0.941640 0.951151
Si Si2 0.407311 0.826498 0.172760
Si Si3 0.074024 0.856816 0.771342
Si Si4 0.163383 0.086530 0.390560
Si Si5 0.686395 0.935197 0.652853
Si Si6 0.004118 0.742263 0.126158
Si Si7 0.946396 0.590335 0.297406
O O1 0.521876 0.841930 0.863614
O O2 0.468146 0.087555 0.877386
O O3 0.500000 0.904737 0.000000
O O4 0.767998 0.953136 0.095150
O O5 0.531289 0.713641 0.293540
O O6 0.420590 0.973055 0.220416
O O7 0.196264 0.785358 0.032266
O O8 0.994556 0.773306 0.786611
O O9 0.153181 0.732461 0.779674
O O10 0.936022 0.956366 0.640567
O O11 0.342043 0.122852 0.553039
O O12 0.221528 0.022208 0.350703
O O13 0.500000 0.866974 0.500000
O O14 0.829477 0.835482 0.786101
O O15 0.618538 0.033416 0.669743
#
# Coordination Sequence:
#
# PCOD9125130 Si02
#       7
#     4   4   4   4   4   4   4
#     4  11  24  39  60  89 123 161 208 265 314 362
#     4  11  23  40  64  94 121 172 208 256 318 374
#     4  10  21  40  60  90 123 160 204 260 314 370
#     4  10  21  41  65  88 130 164 207 259 314 376
#     4   9  22  39  64  93 126 166 209 261 312 376
#     4  10  21  41  62  88 126 160 211 261 310 377
#     4  11  22  39  64  96 122 166 214 252 316 378
#
# _framework density 20.767268000000001
#
# number of rings (size 3 to 8) (size 9 to 14) (size 15 to 20)
#    0.000    1.714    2.857    0.857    4.000    0.000 
#    0.000    0.000    0.000    0.000    0.000    0.000 
#    0.000    0.000    0.000    0.000    0.000    0.000 
#
# Total GULP energy -78022.099244 kJ/mol
# GULP energy per Si atom -5573.007089 kJ/mol
# Density = 2.072000 g / cm^3
# Si number density = 20.767268 Si / 1000 Ang^3
#
#
#
# Elastic Constant Matrix: (Units=GPa)
#
#
# Indices 1 2 3 4 5 6 
#
# 1 38.8396 3.5461 -2.8406 0.0001 -5.4517 0.0000
# 2 3.5461 102.7731 45.2271 0.0000 7.6657 0.0000
# 3 -2.8406 45.2271 79.5165 -0.0002 7.6831 0.0000
# 4 0.0001 0.0000 -0.0002 36.7233 -0.0001 1.3047
# 5 -5.4517 7.6657 7.6831 -0.0001 22.5069 0.0000
# 6 0.0000 0.0000 0.0000 1.3047 0.0000 11.6985
#
#
#
# Elastic Compliance Matrix: (Units=1/GPa)
#
#
# Indices 1 2 3 4 5 6 
#
# 1 0.026994 -0.002097 0.001506 0.000000 0.006739 0.000000
# 2 -0.002097 0.013226 -0.007356 0.000000 -0.002502 0.000000
# 3 0.001506 -0.007356 0.017100 0.000000 -0.002967 0.000000
# 4 0.000000 0.000000 0.000000 0.027339 0.000000 -0.003049
# 5 0.006739 -0.002502 -0.002967 0.000000 0.047928 0.000000
# 6 0.000000 0.000000 0.000000 -0.003049 0.000000 0.085821
#
#
# Mechanical properties :
#
#
# Convention : Reuss Voigt Hill
#
# Bulk Modulus (GPa) = 24.13875 34.77717 29.45796
# Shear Modulus (GPa) = 20.15220 25.86553 23.00887
#
# Velocity S-wave (km/s) = 3.11848 3.53299 3.33218
# Velocity P-wave (km/s) = 4.96137 5.78145 5.38704
#
# Compressibility (1/GPa) = 0.04142716
#
# Stress axis : x y z
#
# Youngs Moduli (GPa) = 37.04481 75.60741 58.47822
#
# Poissons Ratio (x) = 0.15853 -0.08805
# Poissons Ratio (y) = 0.07767 0.43016
# Poissons Ratio (z) = -0.05578 0.55616
#
# Static dielectric constant tensor:
#      x y z
#    x 1.795900 0.000000 0.011090 
#    y 0.000000 1.734880 0.000000 
#    z 0.011090 0.000000 1.752590 
# 
# From -- ./inp_files/65951.got.cif
#   From: 2010.05.17/outbox.cif.g08.bks.cpg/sg5_33_cif.got.tgz:65951.got - 2010.06.03 18:56:24.
