data_PCOD9125939
_publ_section_title
;
Structure prediction by ZEFSAII (Michael W. Deem and Ramdas Pophale) SiO2 
 PCOD9125939
Probable space group: C 2
;
_chemical_formula_sum "Si O2"
_cell_formula_units_Z 26
_cell_length_a 10.763104
_cell_length_b 22.452827
_cell_length_c 7.408147
_cell_angle_alpha 90.000000
_cell_angle_beta 48.772623
_cell_angle_gamma 90.000000
_cell_volume 1346.461061
_symmetry_space_group_name_H-M "C 2"
_symmetry_group_IT_number 5
_symmetry_cell_setting 'monoclinic'
loop_
_space_group_symop_operation_xyz
x,y,z
-x,y,-z
1/2+x,1/2+y,z
1/2-x,1/2+y,-z
loop_
_atom_site_type_symbol
_atom_site_label
_atom_site_fract_x
_atom_site_fract_y
_atom_site_fract_z
Si Si1 0.000000 0.884490 0.000000
Si Si2 0.507982 0.269046 0.199800
Si Si3 0.193245 0.574538 0.603289
Si Si4 0.195886 0.473981 0.309275
Si Si5 0.687888 0.703190 0.530831
Si Si6 0.172174 0.203310 0.104926
Si Si7 0.698940 0.075310 0.015303
O O1 0.992477 0.839516 0.835374
O O2 0.167325 0.922638 0.827917
O O3 0.342578 0.242823 0.443188
O O4 0.500000 0.244653 0.000000
O O5 0.679107 0.243815 0.108543
O O6 0.223701 0.516752 0.454669
O O7 0.282625 0.634077 0.451352
O O8 0.997209 0.588560 0.783265
O O9 0.237981 0.563691 0.768596
O O10 0.226567 0.517848 0.110646
O O11 0.000000 0.455819 0.500000
O O12 0.678342 0.705077 0.319649
O O13 0.510673 0.723086 0.771354
O O14 0.205956 0.134926 0.019563
#
# Coordination Sequence:
#
# PCOD9125939 Si02
#       7
#     2   4   4   4   4   4   4
#     4  10  22  34  52  74 118 156 182 228 258 340
#     4   8  16  30  46  71 105 140 175 226 257 310
#     4   9  17  32  54  79 113 142 173 230 283 323
#     4  10  22  36  50  82 114 148 184 217 276 332
#     4   9  15  25  47  78 102 129 175 222 270 315
#     4   9  15  25  47  78 102 129 175 222 270 315
#     4   9  17  32  54  79 113 142 173 230 283 323
#
# _framework density 19.309877
#
# number of rings (size 3 to 8) (size 9 to 14) (size 15 to 20)
#    0.462    2.462    1.538    0.000    2.154    1.231 
#    0.000    0.000    0.000    0.000    8.000    0.000 
#    0.000    0.000    0.000    0.000    0.000    0.000 
#
# Total GULP energy -72437.558771 kJ/mol
# GULP energy per Si atom -5572.119905 kJ/mol
# Density = 1.926593 g / cm^3
# Si number density = 19.309877 Si / 1000 Ang^3
#
#
#
# Elastic Constant Matrix: (Units=GPa)
#
#
# Indices 1 2 3 4 5 6 
#
# 1 54.6800 54.8713 70.7501 0.0000 -20.5668 0.0000
# 2 54.8713 116.8231 73.5396 0.0000 -39.5640 0.0000
# 3 70.7501 73.5396 95.3238 0.0000 -33.2896 0.0000
# 4 0.0000 0.0000 0.0000 40.7288 0.0000 23.3382
# 5 -20.5668 -39.5640 -33.2896 0.0000 44.3176 0.0000
# 6 0.0000 0.0000 0.0000 23.3382 0.0000 41.0723
#
#
#
# Elastic Compliance Matrix: (Units=1/GPa)
#
#
# Indices 1 2 3 4 5 6 
#
# 1 0.638232 -0.024119 -0.486904 0.000000 -0.091085 0.000000
# 2 -0.024119 0.019363 0.006901 0.000000 0.011277 0.000000
# 3 -0.486904 0.006901 0.392843 0.000000 0.075288 0.000000
# 4 0.000000 0.000000 0.000000 0.036407 0.000000 -0.020687
# 5 -0.091085 0.011277 0.075288 0.000000 0.046915 0.000000
# 6 0.000000 0.000000 0.000000 -0.020687 0.000000 0.036102
#
#
# Mechanical properties :
#
#
# Convention : Reuss Voigt Hill
#
# Bulk Modulus (GPa) = 23.69881 73.90543 48.80212
# Shear Modulus (GPa) = 2.28084 29.73479 16.00782
#
# Velocity S-wave (km/s) = 1.08800 3.92838 2.88235
# Velocity P-wave (km/s) = 3.72530 7.67676 6.03368
#
# Compressibility (1/GPa) = 0.04219620
#
# Stress axis : x y z
#
# Youngs Moduli (GPa) = 1.56683 51.64361 2.54555
#
# Poissons Ratio (x) = 1.24557 1.23944
# Poissons Ratio (y) = 0.03779 -0.01757
# Poissons Ratio (z) = 0.76289 -0.35640
#
# Static dielectric constant tensor:
#      x y z
#    x 1.704380 0.000000 -0.006250 
#    y 0.000000 1.630970 0.000000 
#    z -0.006250 0.000000 1.688110 
# 
# From -- ./inp_files/22080.got.cif
#   From: 2010.05.17/outbox.cif.g08.bks.cpg/sg5_12_cif.got.tgz:22080.got - 2010.06.03 18:56:24.
