data_PCOD9125945
_publ_section_title
;
Structure prediction by ZEFSAII (Michael W. Deem and Ramdas Pophale) SiO2 
 PCOD9125945
Probable space group: C 2
;
_chemical_formula_sum "Si O2"
_cell_formula_units_Z 26
_cell_length_a 22.383973
_cell_length_b 5.609359
_cell_length_c 13.391086
_cell_angle_alpha 90.000000
_cell_angle_beta 127.923583
_cell_angle_gamma 90.000000
_cell_volume 1326.325977
_symmetry_space_group_name_H-M "C 2"
_symmetry_group_IT_number 5
_symmetry_cell_setting 'monoclinic'
loop_
_space_group_symop_operation_xyz
x,y,z
-x,y,-z
1/2+x,1/2+y,z
1/2-x,1/2+y,-z
loop_
_atom_site_type_symbol
_atom_site_label
_atom_site_fract_x
_atom_site_fract_y
_atom_site_fract_z
Si Si1 0.341466 0.128970 0.580293
Si Si2 0.156072 0.477819 0.855926
Si Si3 0.500000 0.177948 0.000000
Si Si4 0.595559 0.514423 0.214092
Si Si5 0.780804 0.980671 0.157408
Si Si6 0.266343 0.839682 0.674540
Si Si7 0.501727 0.892578 0.205736
O O1 0.364572 0.376934 0.655067
O O2 0.299825 0.165480 0.433009
O O3 0.283478 0.012572 0.599295
O O4 0.419499 0.979702 0.662839
O O5 0.172618 0.735763 0.821413
O O6 0.069111 0.440730 0.797479
O O7 0.179635 0.236752 0.820858
O O8 0.208364 0.475648 0.009189
O O9 0.428397 0.339134 0.898347
O O10 0.511980 0.030271 0.912226
O O11 0.653716 0.705486 0.230793
O O12 0.520405 0.628046 0.185640
O O13 0.756544 0.962966 0.247257
#
# Coordination Sequence:
#
# PCOD9125945 Si02
#       7
#     4   4   2   4   4   4   4
#     4  10  22  39  63  96 124 167 208 271 328 379
#     4  10  24  45  63  97 129 171 221 273 313 398
#     4  10  22  34  60 104 118 166 208 260 352 384
#     4  10  22  36  61  95 128 161 201 274 330 384
#     4  10  25  41  69  93 128 178 217 263 332 378
#     4  11  22  40  66  93 130 166 219 264 324 397
#     4  10  23  39  62  91 133 162 215 271 328 381
#
# _framework density 19.603026
#
# number of rings (size 3 to 8) (size 9 to 14) (size 15 to 20)
#    0.000    1.846    1.538    0.462   15.077    1.231 
#    0.000    0.769    0.000    0.000    0.000    0.000 
#    0.000    0.000    0.000    0.000    0.000    0.000 
#
# Total GULP energy -72527.213664 kJ/mol
# GULP energy per Si atom -5579.016436 kJ/mol
# Density = 1.955841 g / cm^3
# Si number density = 19.603026 Si / 1000 Ang^3
#
#
#
# Elastic Constant Matrix: (Units=GPa)
#
#
# Indices 1 2 3 4 5 6 
#
# 1 74.0496 10.2122 16.8655 0.0000 12.2057 0.0000
# 2 10.2122 69.3800 4.7263 0.0000 3.7914 0.0000
# 3 16.8655 4.7263 39.4780 0.0000 -3.2499 0.0000
# 4 0.0000 0.0000 0.0000 20.0133 0.0000 -1.9089
# 5 12.2057 3.7914 -3.2499 0.0000 18.4646 0.0000
# 6 0.0000 0.0000 0.0000 -1.9089 0.0000 8.0481
#
#
#
# Elastic Compliance Matrix: (Units=1/GPa)
#
#
# Indices 1 2 3 4 5 6 
#
# 1 0.017759 -0.001327 -0.008495 0.000000 -0.012962 0.000000
# 2 -0.001327 0.014837 -0.001408 0.000000 -0.002417 0.000000
# 3 -0.008495 -0.001408 0.030050 0.000000 0.011193 0.000000
# 4 0.000000 0.000000 0.000000 0.051123 0.000000 0.012126
# 5 -0.012962 -0.002417 0.011193 0.000000 0.065192 0.000000
# 6 0.000000 0.000000 0.000000 0.012126 0.000000 0.127129
#
#
# Mechanical properties :
#
#
# Convention : Reuss Voigt Hill
#
# Bulk Modulus (GPa) = 24.88502 27.39061 26.13782
# Shear Modulus (GPa) = 14.62221 19.37877 17.00049
#
# Velocity S-wave (km/s) = 2.73411 3.14755 2.94809
# Velocity P-wave (km/s) = 4.76332 5.21655 4.99508
#
# Compressibility (1/GPa) = 0.04018481
#
# Stress axis : x y z
#
# Youngs Moduli (GPa) = 56.31016 67.40035 33.27813
#
# Poissons Ratio (x) = 0.08944 0.28270
# Poissons Ratio (y) = 0.07472 0.04687
# Poissons Ratio (z) = 0.47835 0.09492
#
# Static dielectric constant tensor:
#      x y z
#    x 1.669520 0.000000 0.033060 
#    y 0.000000 1.777870 0.000000 
#    z 0.033060 0.000000 1.674710 
# 
# From -- ./inp_files/45392.got.cif
#   From: 2010.05.17/outbox.cif.g08.bks.cpg/sg5_23_cif.got.tgz:45392.got - 2010.06.03 18:56:24.
