data_PCOD9125151
_publ_section_title
;
Structure prediction by ZEFSAII (Michael W. Deem and Ramdas Pophale) SiO2 
 PCOD9125151
Probable space group: C 2
;
_chemical_formula_sum "Si O2"
_cell_formula_units_Z 20
_cell_length_a 9.037323
_cell_length_b 5.342027
_cell_length_c 17.477701
_cell_angle_alpha 90.000000
_cell_angle_beta 86.579530
_cell_angle_gamma 90.000000
_cell_volume 842.278735
_symmetry_space_group_name_H-M "C 2"
_symmetry_group_IT_number 5
_symmetry_cell_setting 'monoclinic'
loop_
_space_group_symop_operation_xyz
x,y,z
-x,y,-z
1/2+x,1/2+y,z
1/2-x,1/2+y,-z
loop_
_atom_site_type_symbol
_atom_site_label
_atom_site_fract_x
_atom_site_fract_y
_atom_site_fract_z
Si Si1 0.172035 0.729450 0.470917
Si Si2 0.144511 0.817389 0.767149
Si Si3 0.186207 0.816894 0.289029
Si Si4 0.883792 0.696099 0.937414
Si Si5 0.791240 0.198704 0.910898
O O1 0.251591 0.469505 0.491286
O O2 0.183754 0.771597 0.379945
O O3 0.000000 0.716577 0.500000
O O4 0.240876 0.588085 0.729668
O O5 0.157452 0.769474 0.858572
O O6 0.982218 0.806899 0.736240
O O7 0.218299 0.087317 0.749041
O O8 0.904161 0.427234 0.898818
O O9 0.851648 0.930028 0.885811
O O10 0.737240 0.665082 0.997171
O O11 0.000000 0.743897 0.000000
#
# Coordination Sequence:
#
# PCOD9125151 Si02
#       5
#     4   4   4   4   4
#     4  12  25  45  76 103 139 181 229 280 337 400
#     4  12  27  45  71 100 146 182 227 281 349 409
#     4  12  26  48  69 107 139 182 227 281 337 419
#     4  10  21  40  62  87 123 160 234 274 328 394
#     4  10  23  38  61  92 119 176 217 280 333 392
#
# _framework density 23.74511
#
# number of rings (size 3 to 8) (size 9 to 14) (size 15 to 20)
#    0.000    0.800    0.000    7.200    5.600    0.000 
#    0.000    0.000    0.000    0.000    0.000    0.000 
#    0.000    0.000    0.000    0.000    0.000    0.000 
#
# Total GULP energy -55959.153021 kJ/mol
# GULP energy per Si atom -5595.915302 kJ/mol
# Density = 2.369106 g / cm^3
# Si number density = 23.745110 Si / 1000 Ang^3
#
#
#
# Elastic Constant Matrix: (Units=GPa)
#
#
# Indices 1 2 3 4 5 6 
#
# 1 128.8303 56.4447 6.7972 0.0000 35.7040 0.0000
# 2 56.4447 172.0294 -8.5296 0.0000 9.6238 0.0000
# 3 6.7972 -8.5296 94.4788 0.0000 11.8773 0.0000
# 4 0.0000 0.0000 0.0000 17.1195 0.0000 -35.6900
# 5 35.7040 9.6238 11.8773 0.0000 38.1928 0.0000
# 6 0.0000 0.0000 0.0000 -35.6900 0.0000 -39.2579
#
#
#
# Elastic Compliance Matrix: (Units=1/GPa)
#
#
# Indices 1 2 3 4 5 6 
#
# 1 0.012170 -0.003395 0.000146 0.000000 -0.010568 0.000000
# 2 -0.003395 0.006894 0.000714 0.000000 0.001214 0.000000
# 3 0.000146 0.000714 0.011113 0.000000 -0.003773 0.000000
# 4 0.000000 0.000000 0.000000 0.020175 0.000000 -0.018342
# 5 -0.010568 0.001214 -0.003773 0.000000 0.036929 0.000000
# 6 0.000000 0.000000 0.000000 -0.018342 0.000000 -0.008798
#
#
# Mechanical properties :
#
#
# Convention : Reuss Voigt Hill
#
# Bulk Modulus (GPa) = 39.82715 56.08479 47.95597
# Shear Modulus (GPa) = 54.39394 25.91931 40.15662
#
# Velocity S-wave (km/s) = 4.79136 3.30747 4.11682
# Velocity P-wave (km/s) = 6.88613 6.18519 6.54505
#
# Compressibility (1/GPa) = 0.02510850
#
# Stress axis : x y z
#
# Youngs Moduli (GPa) = 82.16593 145.04711 89.98812
#
# Poissons Ratio (x) = 0.49241 -0.01317
# Poissons Ratio (y) = 0.27894 -0.06425
# Poissons Ratio (z) = -0.01203 -0.10356
#
# Static dielectric constant tensor:
#      x y z
#    x 1.973480 0.000000 -0.077220 
#    y 0.000000 1.940150 0.000000 
#    z -0.077220 0.000000 1.896550 
# 
# From -- ./inp_files/59144.got.cif
#   From: 2010.05.17/outbox.cif.g08.bks.cpg/sg5_30_cif.got.tgz:59144.got - 2010.06.03 18:56:24.
