data_PCOD9125700
_publ_section_title
;
Structure prediction by ZEFSAII (Michael W. Deem and Ramdas Pophale) SiO2 
 PCOD9125700
Probable space group: C 2
;
_chemical_formula_sum "Si O2"
_cell_formula_units_Z 28
_cell_length_a 19.168577
_cell_length_b 14.138631
_cell_length_c 5.623235
_cell_angle_alpha 90.000000
_cell_angle_beta 72.810003
_cell_angle_gamma 90.000000
_cell_volume 1455.917853
_symmetry_space_group_name_H-M "C 2"
_symmetry_group_IT_number 5
_symmetry_cell_setting 'monoclinic'
loop_
_space_group_symop_operation_xyz
x,y,z
-x,y,-z
1/2+x,1/2+y,z
1/2-x,1/2+y,-z
loop_
_atom_site_type_symbol
_atom_site_label
_atom_site_fract_x
_atom_site_fract_y
_atom_site_fract_z
Si Si1 0.737521 0.008930 0.195727
Si Si2 0.500000 0.905777 0.500000
Si Si3 0.749668 0.716316 0.694132
Si Si4 0.500000 0.190657 0.000000
Si Si5 0.664336 0.360739 0.111090
Si Si6 0.888983 0.800902 0.347053
Si Si7 0.406068 0.020866 0.949103
Si Si8 0.646340 0.872247 0.602759
O O1 0.768976 0.106692 0.260878
O O2 0.661041 0.037542 0.156827
O O3 0.712399 0.927394 0.404313
O O4 0.789520 0.956507 0.958098
O O5 0.574274 0.854440 0.512791
O O6 0.472054 0.972352 0.740035
O O7 0.779713 0.772414 0.898348
O O8 0.820511 0.728875 0.452184
O O9 0.681861 0.777826 0.669993
O O10 0.467497 0.252113 0.245488
O O11 0.565941 0.121580 0.996417
O O12 0.618209 0.360961 0.402736
O O13 0.623799 0.347783 0.899738
O O14 0.379713 0.946374 0.171464
#
# Coordination Sequence:
#
# PCOD9125700 Si02
#       8
#     4   2   4   2   4   4   4   4
#     4  11  21  38  63  90 130 174 220 273 325 396
#     4  10  22  32  58  86 132 178 200 268 340 388
#     4  10  22  37  63  92 131 177 220 265 332 387
#     4  12  22  36  60  94 134 172 214 264 342 410
#     4  10  21  43  57  92 136 167 219 272 314 397
#     4  10  23  39  57  91 134 168 216 259 328 394
#     4  11  21  35  56  92 134 166 210 264 344 397
#     4  11  20  40  58  93 137 169 217 272 328 407
#
# _framework density 19.231853000000001
#
# number of rings (size 3 to 8) (size 9 to 14) (size 15 to 20)
#    0.857    0.571    4.286    1.714    2.000    0.571 
#    0.000    0.000    0.000    0.000    3.714    2.000 
#    0.000    0.000    0.000    0.000    0.000    0.000 
#
# Total GULP energy -77999.941108 kJ/mol
# GULP energy per Si atom -5571.424365 kJ/mol
# Density = 1.918808 g / cm^3
# Si number density = 19.231853 Si / 1000 Ang^3
#
#
#
# Elastic Constant Matrix: (Units=GPa)
#
#
# Indices 1 2 3 4 5 6 
#
# 1 56.7270 48.8721 29.8061 0.0000 -1.6005 0.0000
# 2 48.8721 93.1223 38.6909 0.0000 -8.1942 0.0000
# 3 29.8061 38.6909 116.7885 0.0000 -14.1059 0.0000
# 4 0.0000 0.0000 0.0000 3.0197 0.0000 15.1531
# 5 -1.6005 -8.1942 -14.1059 0.0000 33.7729 0.0000
# 6 0.0000 0.0000 0.0000 15.1531 0.0000 21.3021
#
#
#
# Elastic Compliance Matrix: (Units=1/GPa)
#
#
# Indices 1 2 3 4 5 6 
#
# 1 0.033613 -0.016494 -0.003586 0.000000 -0.003907 0.000000
# 2 -0.016494 0.020607 -0.002220 0.000000 0.003291 0.000000
# 3 -0.003586 -0.002220 0.010666 0.000000 0.003746 0.000000
# 4 0.000000 0.000000 0.000000 -0.128876 0.000000 0.091675
# 5 -0.003907 0.003291 0.003746 0.000000 0.031788 0.000000
# 6 0.000000 0.000000 0.000000 0.091675 0.000000 -0.018269
#
#
# Mechanical properties :
#
#
# Convention : Reuss Voigt Hill
#
# Bulk Modulus (GPa) = 49.29738 55.70843 52.50290
# Shear Modulus (GPa) = 5619.35634 21.57017 2820.46326
#
# Velocity S-wave (km/s) = 54.11325 3.35264 38.33721
# Velocity P-wave (km/s) = 62.68982 6.63450 44.57595
#
# Compressibility (1/GPa) = 0.02028505
#
# Stress axis : x y z
#
# Youngs Moduli (GPa) = 29.75076 48.52728 93.76015
#
# Poissons Ratio (x) = 0.80043 0.33621
# Poissons Ratio (y) = 0.49072 0.20813
# Poissons Ratio (z) = 0.10668 0.10772
#
# Static dielectric constant tensor:
#      x y z
#    x 1.739890 0.000000 0.028410 
#    y 0.000000 1.671480 0.000000 
#    z 0.028410 0.000000 1.722250 
# 
# From -- ./inp_files/8535.got.cif
#   From: 2010.05.17/outbox.cif.g08.bks.cpg/sg5_5_cif.got.tgz:8535.got - 2010.06.03 18:56:24.
