data_PCOD9125469
_publ_section_title
;
Structure prediction by ZEFSAII (Michael W. Deem and Ramdas Pophale) SiO2 
 PCOD9125469
Probable space group: C 2
;
_chemical_formula_sum "Si O2"
_cell_formula_units_Z 20
_cell_length_a 13.447051
_cell_length_b 7.875954
_cell_length_c 10.689828
_cell_angle_alpha 90.000000
_cell_angle_beta 127.305502
_cell_angle_gamma 90.000000
_cell_volume 900.523131
_symmetry_space_group_name_H-M "C 2"
_symmetry_group_IT_number 5
_symmetry_cell_setting 'monoclinic'
loop_
_space_group_symop_operation_xyz
x,y,z
-x,y,-z
1/2+x,1/2+y,z
1/2-x,1/2+y,-z
loop_
_atom_site_type_symbol
_atom_site_label
_atom_site_fract_x
_atom_site_fract_y
_atom_site_fract_z
Si Si1 0.452044 0.305900 0.198018
Si Si2 0.499944 0.757567 0.864337
Si Si3 0.714227 0.012544 0.984886
Si Si4 0.919921 0.072298 0.554407
Si Si5 0.659461 0.098354 0.222921
O O1 0.355584 0.449407 0.072894
O O2 0.522766 0.386695 0.370548
O O3 0.560726 0.242616 0.187449
O O4 0.363806 0.142797 0.160895
O O5 0.441329 0.664784 0.701848
O O6 0.415141 0.923556 0.822561
O O7 0.500000 0.668768 0.000000
O O8 0.633652 0.838874 0.931492
O O9 0.000000 0.145011 0.500000
O O10 0.294233 0.101345 0.884644
O O11 0.777595 0.086622 0.403731
#
# Coordination Sequence:
#
# PCOD9125469 Si02
#       5
#     4   4   4   4   4
#     4  11  22  40  69  96 137 182 226 283 344 407
#     4   9  21  41  66  93 132 180 229 284 338 417
#     4  10  21  41  67  98 132 177 236 282 338 413
#     4  12  23  40  67 101 142 179 227 291 347 409
#     4  10  22  43  67  95 137 181 228 285 346 413
#
# _framework density 22.209313999999999
#
# number of rings (size 3 to 8) (size 9 to 14) (size 15 to 20)
#    0.000    1.600    2.000    4.200    0.000    1.600 
#    0.000    4.000    0.000    0.000    0.000    0.000 
#    0.000    0.000    0.000    0.000    0.000    0.000 
#
# Total GULP energy -55838.479236 kJ/mol
# GULP energy per Si atom -5583.847924 kJ/mol
# Density = 2.215876 g / cm^3
# Si number density = 22.209314 Si / 1000 Ang^3
#
#
#
# Elastic Constant Matrix: (Units=GPa)
#
#
# Indices 1 2 3 4 5 6 
#
# 1 118.5809 46.9054 75.7763 0.0000 6.4999 0.0000
# 2 46.9054 67.0234 45.5514 0.0000 0.7517 0.0000
# 3 75.7763 45.5514 192.0650 0.0000 15.1838 0.0000
# 4 0.0000 0.0000 0.0000 41.0382 0.0000 5.3299
# 5 6.4999 0.7517 15.1838 0.0000 51.7197 0.0000
# 6 0.0000 0.0000 0.0000 5.3299 0.0000 36.4868
#
#
#
# Elastic Compliance Matrix: (Units=1/GPa)
#
#
# Indices 1 2 3 4 5 6 
#
# 1 0.013566 -0.007009 -0.003648 0.000000 -0.000532 0.000000
# 2 -0.007009 0.021459 -0.002426 0.000000 0.001281 0.000000
# 3 -0.003648 -0.002426 0.007353 0.000000 -0.001665 0.000000
# 4 0.000000 0.000000 0.000000 0.024839 0.000000 -0.003628
# 5 -0.000532 0.001281 -0.001665 0.000000 0.019872 0.000000
# 6 0.000000 0.000000 0.000000 -0.003628 0.000000 0.027937
#
#
# Mechanical properties :
#
#
# Convention : Reuss Voigt Hill
#
# Bulk Modulus (GPa) = 61.67698 79.34839 70.51268
# Shear Modulus (GPa) = 34.10792 39.81135 36.95963
#
# Velocity S-wave (km/s) = 3.92311 4.23845 4.08383
# Velocity P-wave (km/s) = 6.95357 7.73031 7.35220
#
# Compressibility (1/GPa) = 0.01621350
#
# Stress axis : x y z
#
# Youngs Moduli (GPa) = 73.71616 46.60031 136.00548
#
# Poissons Ratio (x) = 0.32660 0.49613
# Poissons Ratio (y) = 0.51664 0.32989
# Poissons Ratio (z) = 0.26890 0.11303
#
# Static dielectric constant tensor:
#      x y z
#    x 1.840130 0.000000 0.037030 
#    y 0.000000 1.916730 0.000000 
#    z 0.037030 0.000000 1.809390 
# 
# From -- ./inp_files/22628.got.cif
#   From: 2010.05.17/outbox.cif.g08.bks.cpg/sg5_12_cif.got.tgz:22628.got - 2010.06.03 18:56:24.
