data_PCOD9125756
_publ_section_title
;
Structure prediction by ZEFSAII (Michael W. Deem and Ramdas Pophale) SiO2 
 PCOD9125756
Probable space group: C 2
;
_chemical_formula_sum "Si O2"
_cell_formula_units_Z 24
_cell_length_a 9.054515
_cell_length_b 17.048541
_cell_length_c 15.703642
_cell_angle_alpha 90.000000
_cell_angle_beta 147.863748
_cell_angle_gamma 90.000000
_cell_volume 1289.469054
_symmetry_space_group_name_H-M "C 2"
_symmetry_group_IT_number 5
_symmetry_cell_setting 'monoclinic'
loop_
_space_group_symop_operation_xyz
x,y,z
-x,y,-z
1/2+x,1/2+y,z
1/2-x,1/2+y,-z
loop_
_atom_site_type_symbol
_atom_site_label
_atom_site_fract_x
_atom_site_fract_y
_atom_site_fract_z
Si Si1 0.945539 0.496100 0.704161
Si Si2 0.613422 0.873506 0.461435
Si Si3 0.500000 0.588876 0.000000
Si Si4 0.364696 0.711945 0.083066
Si Si5 0.311786 0.346001 0.327325
Si Si6 0.291157 0.728239 0.240324
Si Si7 0.000000 0.129142 0.500000
O O1 0.240955 0.530351 0.871658
O O2 0.937526 0.456259 0.608031
O O3 0.822213 0.428717 0.707126
O O4 0.753559 0.571595 0.608749
O O5 0.500000 0.867972 0.500000
O O6 0.439278 0.812596 0.318062
O O7 0.943443 0.857589 0.621550
O O8 0.534283 0.645694 0.933966
O O9 0.577357 0.785362 0.183605
O O10 0.353394 0.690575 0.178376
O O11 0.040996 0.733237 0.907047
O O12 0.500000 0.317251 0.500000
O O13 0.430266 0.680653 0.384308
#
# Coordination Sequence:
#
# PCOD9125756 Si02
#       7
#     4   4   2   4   4   4   2
#     4  11  24  45  66  94 141 179 217 287 340 391
#     4  11  23  41  70 101 127 180 235 269 339 409
#     4  12  28  42  66 104 142 178 226 282 348 386
#     4  11  25  43  66 102 137 180 227 274 337 410
#     4  10  21  43  68  95 131 179 222 274 336 402
#     4  11  24  42  71  99 137 180 226 279 339 405
#     4  12  22  46  70  96 138 176 224 292 334 398
#
# _framework density 18.612311999999999
#
# number of rings (size 3 to 8) (size 9 to 14) (size 15 to 20)
#    0.000    1.000    8.333    0.000    7.000    1.333 
#    0.000    0.000    0.000    0.000    0.000    0.000 
#    0.000    0.000    0.000    0.000    0.000    0.000 
#
# Total GULP energy -66932.888055 kJ/mol
# GULP energy per Si atom -5577.740671 kJ/mol
# Density = 1.856995 g / cm^3
# Si number density = 18.612312 Si / 1000 Ang^3
#
#
#
# Elastic Constant Matrix: (Units=GPa)
#
#
# Indices 1 2 3 4 5 6 
#
# 1 56.3863 -224.3853 -180.8817 -0.0039 112.1174 0.0145
# 2 -224.3853 -760.5408 -712.7481 -0.0142 348.5509 0.0463
# 3 -180.8817 -712.7481 -579.1752 -0.0095 337.7078 0.0449
# 4 -0.0039 -0.0142 -0.0095 44.1855 0.0073 14.4687
# 5 112.1174 348.5509 337.7078 0.0073 -106.5350 -0.0190
# 6 0.0145 0.0463 0.0449 14.4687 -0.0190 11.0176
#
#
#
# Elastic Compliance Matrix: (Units=1/GPa)
#
#
# Indices 1 2 3 4 5 6 
#
# 1 0.008909 -0.000419 -0.002830 0.000000 -0.000966 -0.000001
# 2 -0.000419 0.014977 -0.011805 -0.000002 0.011141 0.000008
# 3 -0.002830 -0.011805 0.012462 -0.000001 -0.002097 0.000000
# 4 0.000000 -0.000002 -0.000001 0.039706 0.000002 -0.052144
# 5 -0.000966 0.011141 -0.002097 0.000002 0.019400 -0.000006
# 6 -0.000001 0.000008 0.000000 -0.052144 -0.000006 0.159240
#
#
# Mechanical properties :
#
#
# Convention : Reuss Voigt Hill
#
# Bulk Modulus (GPa) = 160.23130 -391.03999 -115.40435
# Shear Modulus (GPa) = 17.42865 -21.28736 -1.92935
#
# Velocity S-wave (km/s) = 3.06339 -3.38557 -1.01924
# Velocity P-wave (km/s) = 9.93923 15.02785 7.97020
#
# Compressibility (1/GPa) = 0.00624098
#
# Stress axis : x y z
#
# Youngs Moduli (GPa) = 112.24041 66.76693 80.24474
#
# Poissons Ratio (x) = 0.02797 0.22711
# Poissons Ratio (y) = 0.04703 0.94726
# Poissons Ratio (z) = 0.31767 0.78816
#
# Static dielectric constant tensor:
#      x y z
#    x 1.779870 -0.000030 0.011110 
#    y -0.000030 1.839820 -0.000010 
#    z 0.011110 -0.000010 1.614830 
# 
# From -- ./inp_files/51448.got.cif
#   From: 2010.05.17/outbox.cif.g08.bks.cpg/sg5_26_cif.got.tgz:51448.got - 2010.06.03 18:56:24.
