data_PCOD9125518
_publ_section_title
;
Structure prediction by ZEFSAII (Michael W. Deem and Ramdas Pophale) SiO2 
 PCOD9125518
Probable space group: C 2
;
_chemical_formula_sum "Si O2"
_cell_formula_units_Z 30
_cell_length_a 16.528265
_cell_length_b 8.847154
_cell_length_c 11.090939
_cell_angle_alpha 90.000000
_cell_angle_beta 113.806504
_cell_angle_gamma 90.000000
_cell_volume 1483.813693
_symmetry_space_group_name_H-M "C 2"
_symmetry_group_IT_number 5
_symmetry_cell_setting 'monoclinic'
loop_
_space_group_symop_operation_xyz
x,y,z
-x,y,-z
1/2+x,1/2+y,z
1/2-x,1/2+y,-z
loop_
_atom_site_type_symbol
_atom_site_label
_atom_site_fract_x
_atom_site_fract_y
_atom_site_fract_z
Si Si1 0.336347 0.791190 0.651113
Si Si2 0.508807 0.302002 0.769902
Si Si3 0.192160 0.891214 0.969247
Si Si4 0.539899 0.002881 0.146701
Si Si5 0.000000 0.874517 0.500000
Si Si6 0.681892 0.550253 0.577523
Si Si7 0.592627 0.543344 0.126290
Si Si8 0.716656 0.107165 0.135667
O O1 0.324051 0.675538 0.532052
O O2 0.356041 0.677137 0.774423
O O3 0.424078 0.896453 0.724405
O O4 0.253991 0.911588 0.602713
O O5 0.602718 0.382386 0.838787
O O6 0.518831 0.139497 0.838944
O O7 0.492244 0.281495 0.618879
O O8 0.438431 0.411729 0.796503
O O9 0.265626 0.954773 0.925938
O O10 0.221048 0.732712 0.038129
O O11 0.161067 0.981892 0.068692
O O12 0.624928 0.092931 0.148401
O O13 0.500000 0.931407 0.000000
O O14 0.086962 0.977651 0.544827
O O15 0.712454 0.632077 0.717698
O O16 0.500000 0.580147 0.000000
#
# Coordination Sequence:
#
# PCOD9125518 Si02
#       8
#     4   4   4   4   2   4   4   4
#     4  11  26  42  71  96 132 181 228 281 335 415
#     4  11  21  44  70  97 133 188 218 277 346 408
#     4  11  23  40  67 101 140 175 226 281 342 393
#     4  11  22  45  73  98 132 174 232 283 340 407
#     4  12  24  44  70  94 140 182 230 272 336 422
#     4  11  27  46  67  97 139 179 232 279 343 405
#     4  10  21  41  71  98 131 181 228 271 345 401
#     4  11  24  42  66 104 136 175 225 289 332 402
#
# _framework density 20.218171000000002
#
# number of rings (size 3 to 8) (size 9 to 14) (size 15 to 20)
#    0.000    1.067    5.333    0.800    9.333    0.000 
#    2.400    2.000    0.000    0.000    0.000    0.000 
#    0.000    0.000    0.000    0.000    0.000    0.000 
#
# Total GULP energy -83562.442546 kJ/mol
# GULP energy per Si atom -5570.829503 kJ/mol
# Density = 2.017215 g / cm^3
# Si number density = 20.218171 Si / 1000 Ang^3
#
#
#
# Elastic Constant Matrix: (Units=GPa)
#
#
# Indices 1 2 3 4 5 6 
#
# 1 38.0397 12.6277 20.0383 0.0000 0.7688 0.0000
# 2 12.6277 71.1212 30.2794 0.0000 -1.9657 0.0000
# 3 20.0383 30.2794 116.1261 0.0000 -11.6588 0.0000
# 4 0.0000 0.0000 0.0000 40.4950 0.0000 -0.6165
# 5 0.7688 -1.9657 -11.6588 0.0000 26.8636 0.0000
# 6 0.0000 0.0000 0.0000 -0.6165 0.0000 11.9775
#
#
#
# Elastic Compliance Matrix: (Units=1/GPa)
#
#
# Indices 1 2 3 4 5 6 
#
# 1 0.029904 -0.003449 -0.004571 0.000000 -0.003092 0.000000
# 2 -0.003449 0.016225 -0.003666 0.000000 -0.000305 0.000000
# 3 -0.004571 -0.003666 0.010813 0.000000 0.004556 0.000000
# 4 0.000000 0.000000 0.000000 0.024714 0.000000 0.001272
# 5 -0.003092 -0.000305 0.004556 0.000000 0.039268 0.000000
# 6 0.000000 0.000000 0.000000 0.001272 0.000000 0.083556
#
#
# Mechanical properties :
#
#
# Convention : Reuss Voigt Hill
#
# Bulk Modulus (GPa) = 29.78850 39.01975 34.40413
# Shear Modulus (GPa) = 20.91677 26.68998 23.80337
#
# Velocity S-wave (km/s) = 3.21994 3.63726 3.43494
# Velocity P-wave (km/s) = 5.34691 6.08118 5.72583
#
# Compressibility (1/GPa) = 0.03357000
#
# Stress axis : x y z
#
# Youngs Moduli (GPa) = 33.44071 61.63224 92.47736
#
# Poissons Ratio (x) = 0.21255 0.42274
# Poissons Ratio (y) = 0.11533 0.33904
# Poissons Ratio (z) = 0.15287 0.22596
#
# Static dielectric constant tensor:
#      x y z
#    x 1.681710 0.000000 0.020520 
#    y 0.000000 1.766850 0.000000 
#    z 0.020520 0.000000 1.749240 
# 
# From -- ./inp_files/44315.got.cif
#   From: 2010.05.17/outbox.cif.g08.bks.cpg/sg5_23_cif.got.tgz:44315.got - 2010.06.03 18:56:24.
