data_PCOD9125482
_publ_section_title
;
Structure prediction by ZEFSAII (Michael W. Deem and Ramdas Pophale) SiO2 
 PCOD9125482
Probable space group: C 2
;
_chemical_formula_sum "Si O2"
_cell_formula_units_Z 28
_cell_length_a 21.273516
_cell_length_b 7.946540
_cell_length_c 25.459940
_cell_angle_alpha 90.000000
_cell_angle_beta 161.471588
_cell_angle_gamma 90.000000
_cell_volume 1367.710813
_symmetry_space_group_name_H-M "C 2"
_symmetry_group_IT_number 5
_symmetry_cell_setting 'monoclinic'
loop_
_space_group_symop_operation_xyz
x,y,z
-x,y,-z
1/2+x,1/2+y,z
1/2-x,1/2+y,-z
loop_
_atom_site_type_symbol
_atom_site_label
_atom_site_fract_x
_atom_site_fract_y
_atom_site_fract_z
Si Si1 0.317700 0.455720 0.612157
Si Si2 0.146125 0.477069 0.770529
Si Si3 0.675100 0.655867 0.866349
Si Si4 0.686271 0.238496 0.180526
Si Si5 0.420375 0.332525 0.269598
Si Si6 0.406872 0.199776 0.772973
Si Si7 0.463768 0.467531 0.529989
O O1 0.466244 0.614027 0.727914
O O2 0.396684 0.339286 0.626439
O O3 0.352711 0.350985 0.692111
O O4 0.088955 0.492281 0.424556
O O5 0.173576 0.333159 0.835776
O O6 0.249663 0.405902 0.800177
O O7 0.206872 0.663596 0.836054
O O8 0.692007 0.503183 0.837264
O O9 0.865570 0.647654 0.054138
O O10 0.619045 0.257481 0.187232
O O11 0.877496 0.118522 0.335608
O O12 0.500000 0.167841 0.000000
O O13 0.495527 0.348350 0.388658
O O14 0.253305 0.049455 0.640502
O O15 0.500000 0.397829 0.500000
#
# Coordination Sequence:
#
# PCOD9125482 Si02
#       7
#     4   4   4   4   4   4   4
#     4  10  23  41  63  98 128 174 215 271 327 396
#     4  12  21  42  71  92 130 175 226 267 328 397
#     4  10  23  42  67  93 133 174 212 274 330 390
#     4  11  20  40  70  93 130 178 216 272 329 390
#     4  10  23  42  65  96 126 173 220 266 328 390
#     4  11  21  41  69  97 132 174 219 266 341 390
#     4  10  21  41  68  95 131 175 219 274 328 392
#
# _framework density 20.472162000000001
#
# number of rings (size 3 to 8) (size 9 to 14) (size 15 to 20)
#    0.857    0.571    4.286    0.857    2.000    1.143 
#    5.143    3.571    0.000    0.000    0.000    0.000 
#    0.000    0.000    0.000    0.000    0.000    0.000 
#
# Total GULP energy -78099.476055 kJ/mol
# GULP energy per Si atom -5578.534004 kJ/mol
# Density = 2.042557 g / cm^3
# Si number density = 20.472162 Si / 1000 Ang^3
#
#
#
# Elastic Constant Matrix: (Units=GPa)
#
#
# Indices 1 2 3 4 5 6 
#
# 1 49.0833 9.7912 -8.0942 0.0027 -9.3246 0.0055
# 2 9.7912 69.5745 8.8282 -0.0426 -8.6578 0.0056
# 3 -8.0942 8.8282 103.0243 -0.0187 11.2386 0.0090
# 4 0.0027 -0.0426 -0.0187 4.3642 -0.0069 7.3064
# 5 -9.3246 -8.6578 11.2386 -0.0069 33.6712 0.0008
# 6 0.0055 0.0056 0.0090 7.3064 0.0008 16.7497
#
#
#
# Elastic Compliance Matrix: (Units=1/GPa)
#
#
# Indices 1 2 3 4 5 6 
#
# 1 0.022082 -0.002672 0.001424 -0.000050 0.004953 0.000014
# 2 -0.002672 0.015483 -0.001962 0.000580 0.003896 -0.000256
# 3 0.001424 -0.001962 0.010376 0.000102 -0.003573 -0.000050
# 4 -0.000050 0.000580 0.000102 0.849579 0.000284 -0.370595
# 5 0.004953 0.003896 -0.003573 0.000284 0.033265 -0.000127
# 6 0.000014 -0.000256 -0.000050 -0.370595 -0.000127 0.221360
#
#
# Mechanical properties :
#
#
# Convention : Reuss Voigt Hill
#
# Bulk Modulus (GPa) = 24.08378 26.97030 25.52704
# Shear Modulus (GPa) = 4.26473 25.03415 14.64944
#
# Velocity S-wave (km/s) = 1.44489 3.50070 2.67793
# Velocity P-wave (km/s) = 3.81750 5.43531 4.69659
#
# Compressibility (1/GPa) = 0.04152172
#
# Stress axis : x y z
#
# Youngs Moduli (GPa) = 45.28524 64.58618 96.37427
#
# Poissons Ratio (x) = 0.17257 -0.13719
# Poissons Ratio (y) = 0.12100 0.18904
# Poissons Ratio (z) = -0.06446 0.12669
#
# Static dielectric constant tensor:
#      x y z
#    x 1.742660 0.000000 0.017390 
#    y 0.000000 1.759090 -0.000010 
#    z 0.017390 -0.000010 1.713550 
# 
# From -- ./inp_files/69449.got.cif
#   From: 2010.05.17/outbox.cif.g08.bks.cpg/sg5_35_cif.got.tgz:69449.got - 2010.06.03 18:56:24.
