data_PCOD9125116
_publ_section_title
;
Structure prediction by ZEFSAII (Michael W. Deem and Ramdas Pophale) SiO2 
 PCOD9125116
Probable space group: C 2
;
_chemical_formula_sum "Si O2"
_cell_formula_units_Z 24
_cell_length_a 24.955944
_cell_length_b 5.803951
_cell_length_c 6.974415
_cell_angle_alpha 90.000000
_cell_angle_beta 71.923862
_cell_angle_gamma 90.000000
_cell_volume 960.337550
_symmetry_space_group_name_H-M "C 2"
_symmetry_group_IT_number 5
_symmetry_cell_setting 'monoclinic'
loop_
_space_group_symop_operation_xyz
x,y,z
-x,y,-z
1/2+x,1/2+y,z
1/2-x,1/2+y,-z
loop_
_atom_site_type_symbol
_atom_site_label
_atom_site_fract_x
_atom_site_fract_y
_atom_site_fract_z
Si Si1 0.452640 0.057070 0.439432
Si Si2 0.131015 0.173475 0.487481
Si Si3 0.057246 0.888037 0.869420
Si Si4 0.618486 0.333160 0.193011
Si Si5 0.737955 0.188563 0.686293
Si Si6 0.731921 0.190127 0.264117
O O1 0.500000 0.912882 0.500000
O O2 0.467896 0.175334 0.224012
O O3 0.433251 0.235507 0.623893
O O4 0.397745 0.914599 0.459359
O O5 0.196565 0.181720 0.450257
O O6 0.096262 0.018120 0.673472
O O7 0.125743 0.087119 0.273806
O O8 0.098516 0.825201 0.998020
O O9 0.000000 0.018179 0.000000
O O10 0.677253 0.208900 0.186600
O O11 0.708843 0.193874 0.510670
O O12 0.735497 0.442702 0.790788
O O13 0.732867 0.933836 0.790843
#
# Coordination Sequence:
#
# PCOD9125116 Si02
#       6
#     4   4   4   4   4   4
#     4  11  22  37  59  85 114 157 200 250 302 363
#     4  10  23  37  62  84 117 156 201 251 301 361
#     4  11  24  39  56  86 121 155 200 253 303 364
#     4  10  21  40  58  83 120 155 200 245 307 360
#     4   9  17  34  61  93 117 157 207 248 302 364
#     4   9  17  33  63  90 119 159 203 247 304 371
#
# _framework density 24.991213999999999
#
# number of rings (size 3 to 8) (size 9 to 14) (size 15 to 20)
#    0.000    2.000    3.333    0.000    2.333    2.000 
#    0.000    0.000    3.667    0.000    0.000    0.000 
#    0.000    0.000    0.000    0.000    0.000    0.000 
#
# Total GULP energy -66933.414098 kJ/mol
# GULP energy per Si atom -5577.784508 kJ/mol
# Density = 2.493433 g / cm^3
# Si number density = 24.991214 Si / 1000 Ang^3
#
#
#
# Elastic Constant Matrix: (Units=GPa)
#
#
# Indices 1 2 3 4 5 6 
#
# 1 104.6708 26.1501 41.4509 0.0000 36.1510 0.0000
# 2 26.1501 111.8824 34.8682 0.0000 8.5836 0.0000
# 3 41.4509 34.8682 140.3852 0.0000 37.7583 0.0000
# 4 0.0000 0.0000 0.0000 13.8283 0.0000 3.4827
# 5 36.1510 8.5836 37.7583 0.0000 49.3925 0.0000
# 6 0.0000 0.0000 0.0000 3.4827 0.0000 21.1244
#
#
#
# Elastic Compliance Matrix: (Units=1/GPa)
#
#
# Indices 1 2 3 4 5 6 
#
# 1 0.013531 -0.002145 -0.001132 0.000000 -0.008665 0.000000
# 2 -0.002145 0.010029 -0.002280 0.000000 0.001570 0.000000
# 3 -0.001132 -0.002280 0.009686 0.000000 -0.006180 0.000000
# 4 0.000000 0.000000 0.000000 0.075448 0.000000 -0.012439
# 5 -0.008665 0.001570 -0.006180 0.000000 0.031040 0.000000
# 6 0.000000 0.000000 0.000000 -0.012439 0.000000 0.049389
#
#
# Mechanical properties :
#
#
# Convention : Reuss Voigt Hill
#
# Bulk Modulus (GPa) = 45.18238 62.43077 53.80658
# Shear Modulus (GPa) = 24.08315 33.83366 28.95840
#
# Velocity S-wave (km/s) = 3.10766 3.68342 3.40772
# Velocity P-wave (km/s) = 5.56734 6.56700 6.08772
#
# Compressibility (1/GPa) = 0.02213252
#
# Stress axis : x y z
#
# Youngs Moduli (GPa) = 73.90634 99.70668 103.24342
#
# Poissons Ratio (x) = 0.21387 0.11684
# Poissons Ratio (y) = 0.15853 0.23539
# Poissons Ratio (z) = 0.08364 0.22733
#
# Static dielectric constant tensor:
#      x y z
#    x 2.056370 0.000000 0.009040 
#    y 0.000000 2.075930 0.000000 
#    z 0.009040 0.000000 1.981940 
# 
# From -- ./inp_files/31286.got.cif
#   From: 2010.05.17/outbox.cif.g08.bks.cpg/sg5_16_cif.got.tgz:31286.got - 2010.06.03 18:56:24.
