data_PCOD9125289
_publ_section_title
;
Structure prediction by ZEFSAII (Michael W. Deem and Ramdas Pophale) SiO2 
 PCOD9125289
Probable space group: C 2
;
_chemical_formula_sum "Si O2"
_cell_formula_units_Z 24
_cell_length_a 24.343858
_cell_length_b 11.722355
_cell_length_c 8.516840
_cell_angle_alpha 90.000000
_cell_angle_beta 151.750075
_cell_angle_gamma 90.000000
_cell_volume 1150.366581
_symmetry_space_group_name_H-M "C 2"
_symmetry_group_IT_number 5
_symmetry_cell_setting 'monoclinic'
loop_
_space_group_symop_operation_xyz
x,y,z
-x,y,-z
1/2+x,1/2+y,z
1/2-x,1/2+y,-z
loop_
_atom_site_type_symbol
_atom_site_label
_atom_site_fract_x
_atom_site_fract_y
_atom_site_fract_z
Si Si1 0.617462 0.448550 0.880938
Si Si2 0.088938 0.587091 0.868306
Si Si3 0.716846 0.682182 0.192289
Si Si4 0.239969 0.249844 0.886264
Si Si5 0.512651 0.837122 0.720261
Si Si6 0.086077 0.782888 0.089840
O O1 0.500000 0.492507 0.500000
O O2 0.705807 0.547686 0.146864
O O3 0.670577 0.353984 0.900275
O O4 0.602676 0.379107 0.003318
O O5 0.000000 0.589084 0.500000
O O6 0.078468 0.458869 0.914230
O O7 0.207327 0.646770 0.092124
O O8 0.042729 0.673538 0.883114
O O9 0.809237 0.733158 0.544012
O O10 0.733925 0.718192 0.053991
O O11 0.597212 0.731659 0.960167
O O12 0.113184 0.304313 0.524921
O O13 0.500000 0.840295 0.500000
O O14 0.000000 0.830658 0.000000
#
# Coordination Sequence:
#
# PCOD9125289 Si02
#       6
#     4   4   4   4   4   4
#     4  11  24  44  66  98 132 175 228 272 335 416
#     4  10  21  40  68  95 128 175 228 271 331 419
#     4  11  24  41  65  98 134 169 221 284 341 396
#     4  10  21  40  69  96 127 177 225 274 331 411
#     4   9  21  39  61  97 127 168 219 271 337 405
#     4  11  24  42  65  96 133 174 219 274 340 409
#
# _framework density 20.862912999999999
#
# number of rings (size 3 to 8) (size 9 to 14) (size 15 to 20)
#    0.000    1.667    0.000    5.500   11.667    0.000 
#    3.000    3.333    0.000    0.000    0.000    0.000 
#    0.000    0.000    0.000    0.000    0.000    0.000 
#
# Total GULP energy -66831.435942 kJ/mol
# GULP energy per Si atom -5569.286329 kJ/mol
# Density = 2.081543 g / cm^3
# Si number density = 20.862913 Si / 1000 Ang^3
#
#
#
# Elastic Constant Matrix: (Units=GPa)
#
#
# Indices 1 2 3 4 5 6 
#
# 1 66.0006 38.9747 10.4332 0.0000 8.8383 0.0000
# 2 38.9747 86.3364 19.3364 0.0000 -4.0368 0.0000
# 3 10.4332 19.3364 53.6783 0.0000 5.9568 0.0000
# 4 0.0000 0.0000 0.0000 87.4477 0.0000 -0.9212
# 5 8.8383 -4.0368 5.9568 0.0000 27.8533 0.0000
# 6 0.0000 0.0000 0.0000 -0.9212 0.0000 -0.2023
#
#
#
# Elastic Compliance Matrix: (Units=1/GPa)
#
#
# Indices 1 2 3 4 5 6 
#
# 1 0.022584 -0.010707 0.000445 0.000000 -0.008813 0.000000
# 2 -0.010707 0.017902 -0.005155 0.000000 0.007095 0.000000
# 3 0.000445 -0.005155 0.020997 0.000000 -0.005379 0.000000
# 4 0.000000 0.000000 0.000000 0.010912 0.000000 -0.049682
# 5 -0.008813 0.007095 -0.005379 0.000000 0.040877 0.000000
# 6 0.000000 0.000000 0.000000 -0.049682 0.000000 -4.716307
#
#
# Mechanical properties :
#
#
# Convention : Reuss Voigt Hill
#
# Bulk Modulus (GPa) = 32.62663 38.16710 35.39687
# Shear Modulus (GPa) = -1.09601 32.17114 15.53756
#
# Velocity S-wave (km/s) = -0.72559 3.93112 2.73196
# Velocity P-wave (km/s) = 3.86918 6.24011 5.19180
#
# Compressibility (1/GPa) = 0.03064981
#
# Stress axis : x y z
#
# Youngs Moduli (GPa) = 44.27971 55.85896 47.62614
#
# Poissons Ratio (x) = 0.59807 -0.02121
# Poissons Ratio (y) = 0.47409 0.24552
# Poissons Ratio (z) = -0.01972 0.28796
#
# Static dielectric constant tensor:
#      x y z
#    x 1.725330 0.000000 0.036270 
#    y 0.000000 1.763200 0.000000 
#    z 0.036270 0.000000 1.813020 
# 
# From -- ./inp_files/30971.got.cif
#   From: 2010.05.17/outbox.cif.g08.bks.cpg/sg5_16_cif.got.tgz:30971.got - 2010.06.03 18:56:24.
