data_PCOD9125755
_publ_section_title
;
Structure prediction by ZEFSAII (Michael W. Deem and Ramdas Pophale) SiO2 
 PCOD9125755
Probable space group: C 2
;
_chemical_formula_sum "Si O2"
_cell_formula_units_Z 30
_cell_length_a 14.720925
_cell_length_b 5.174085
_cell_length_c 17.872381
_cell_angle_alpha 90.000000
_cell_angle_beta 123.821503
_cell_angle_gamma 90.000000
_cell_volume 1130.927654
_symmetry_space_group_name_H-M "C 2"
_symmetry_group_IT_number 5
_symmetry_cell_setting 'monoclinic'
loop_
_space_group_symop_operation_xyz
x,y,z
-x,y,-z
1/2+x,1/2+y,z
1/2-x,1/2+y,-z
loop_
_atom_site_type_symbol
_atom_site_label
_atom_site_fract_x
_atom_site_fract_y
_atom_site_fract_z
Si Si1 0.221894 0.053460 0.030461
Si Si2 0.754370 0.715821 0.209136
Si Si3 0.000000 0.551390 0.500000
Si Si4 0.496294 0.684139 0.126228
Si Si5 0.478904 0.174132 0.779587
Si Si6 0.219268 0.212931 0.689463
Si Si7 0.669106 0.456879 0.517728
Si Si8 0.425295 0.833192 0.614729
O O1 0.273743 0.152736 0.131475
O O2 0.253749 0.258635 0.980205
O O3 0.090321 0.086038 0.973720
O O4 0.622595 0.704667 0.160296
O O5 0.796475 0.484013 0.278937
O O6 0.805858 0.979505 0.264449
O O7 0.104783 0.733900 0.531621
O O8 0.003878 0.391282 0.425682
O O9 0.467495 0.977026 0.136346
O O10 0.486274 0.470867 0.189205
O O11 0.479428 0.997071 0.705263
O O12 0.349887 0.186654 0.738119
O O13 0.174283 0.172483 0.585351
O O14 0.599110 0.527066 0.411017
O O15 0.795838 0.412811 0.555283
#
# Coordination Sequence:
#
# PCOD9125755 Si02
#       8
#     4   4   2   4   4   4   4   4
#     4  12  25  42  61  96 136 172 212 268 345 402
#     4  10  21  43  68  95 124 173 223 273 326 411
#     4  12  26  44  64 104 128 184 246 268 358 426
#     4  10  21  43  68  95 124 173 223 273 326 411
#     4   9  21  39  69  98 128 168 227 277 341 396
#     4   9  21  39  69  98 128 168 227 277 341 396
#     4  11  24  44  70  98 140 186 230 300 353 414
#     4  11  24  44  70  98 140 186 230 300 353 414
#
# _framework density 26.526895
#
# number of rings (size 3 to 8) (size 9 to 14) (size 15 to 20)
#    0.000    1.600    1.333    2.400    3.733    1.067 
#    7.200    5.333    0.000    0.000    0.000    0.000 
#    0.000    0.000    0.000    0.000    0.000    0.000 
#
# Total GULP energy -83843.795617 kJ/mol
# GULP energy per Si atom -5589.586374 kJ/mol
# Density = 2.646652 g / cm^3
# Si number density = 26.526895 Si / 1000 Ang^3
#
#
#
# Elastic Constant Matrix: (Units=GPa)
#
#
# Indices 1 2 3 4 5 6 
#
# 1 132.1460 1.0956 -7.7401 0.0000 -2.3429 0.0000
# 2 1.0956 105.1209 -10.1678 0.0001 -5.2709 0.0000
# 3 -7.7401 -10.1678 70.3856 0.0001 0.3581 0.0000
# 4 0.0000 0.0001 0.0001 36.4628 0.0000 -3.4266
# 5 -2.3429 -5.2709 0.3581 0.0000 40.1758 0.0000
# 6 0.0000 0.0000 0.0000 -3.4266 0.0000 24.2419
#
#
#
# Elastic Compliance Matrix: (Units=1/GPa)
#
#
# Indices 1 2 3 4 5 6 
#
# 1 0.007624 0.000024 0.000840 0.000000 0.000440 0.000000
# 2 0.000024 0.009711 0.001399 0.000000 0.001263 0.000000
# 3 0.000840 0.001399 0.014501 0.000000 0.000103 0.000000
# 4 0.000000 0.000000 0.000000 0.027794 0.000000 0.003929
# 5 0.000440 0.001263 0.000103 0.000000 0.025081 0.000000
# 6 0.000000 0.000000 0.000000 0.003929 0.000000 0.041806
#
#
# Mechanical properties :
#
#
# Convention : Reuss Voigt Hill
#
# Bulk Modulus (GPa) = 27.50138 30.44754 28.97446
# Shear Modulus (GPa) = 37.28170 41.80710 39.54440
#
# Velocity S-wave (km/s) = 3.75297 3.97423 3.86518
# Velocity P-wave (km/s) = 5.40089 5.70633 5.55571
#
# Compressibility (1/GPa) = 0.03636181
#
# Stress axis : x y z
#
# Youngs Moduli (GPa) = 131.16176 102.97319 68.95907
#
# Poissons Ratio (x) = -0.00245 -0.05790
# Poissons Ratio (y) = -0.00312 -0.09648
# Poissons Ratio (z) = -0.11013 -0.14407
#
# Static dielectric constant tensor:
#      x y z
#    x 2.101020 0.000000 0.064810 
#    y 0.000000 2.087400 0.000000 
#    z 0.064810 0.000000 2.112900 
# 
# From -- ./inp_files/61269.got.cif
#   From: 2010.05.17/outbox.cif.g08.bks.cpg/sg5_31_cif.got.tgz:61269.got - 2010.06.03 18:56:24.
