data_PCOD9125054
_publ_section_title
;
Structure prediction by ZEFSAII (Michael W. Deem and Ramdas Pophale) SiO2 
 PCOD9125054
Probable space group: C 2
;
_chemical_formula_sum "Si O2"
_cell_formula_units_Z 28
_cell_length_a 23.509211
_cell_length_b 9.536758
_cell_length_c 7.227728
_cell_angle_alpha 90.000000
_cell_angle_beta 53.403425
_cell_angle_gamma 90.000000
_cell_volume 1300.998252
_symmetry_space_group_name_H-M "C 2"
_symmetry_group_IT_number 5
_symmetry_cell_setting 'monoclinic'
loop_
_space_group_symop_operation_xyz
x,y,z
-x,y,-z
1/2+x,1/2+y,z
1/2-x,1/2+y,-z
loop_
_atom_site_type_symbol
_atom_site_label
_atom_site_fract_x
_atom_site_fract_y
_atom_site_fract_z
Si Si1 0.500000 0.110570 0.500000
Si Si2 0.000000 0.132743 0.500000
Si Si3 0.673240 0.976975 0.671510
Si Si4 0.372969 0.518864 0.971082
Si Si5 0.789840 0.181043 0.401253
Si Si6 0.718672 0.688876 0.136166
Si Si7 0.130154 0.705636 0.045650
Si Si8 0.098857 0.370500 0.465684
O O1 0.550998 0.202399 0.275412
O O2 0.556618 0.005878 0.481838
O O3 0.948688 0.043832 0.730130
O O4 0.951163 0.236575 0.471708
O O5 0.725113 0.082921 0.464024
O O6 0.718147 0.841447 0.647198
O O7 0.619262 0.904054 0.635839
O O8 0.637873 0.072053 0.896163
O O9 0.317456 0.571945 0.921171
O O10 0.359762 0.359981 0.059245
O O11 0.359324 0.619958 0.170493
O O12 0.789081 0.164407 0.625792
O O13 0.670299 0.829683 0.212473
O O14 0.802835 0.698176 0.944054
#
# Coordination Sequence:
#
# PCOD9125054 Si02
#       8
#     2   2   4   4   4   4   4   4
#     4  11  25  40  62  96 138 170 220 270 350 400
#     4   9  21  40  70  98 128 176 234 268 348 408
#     4  10  22  41  66  97 136 168 229 278 338 397
#     4  11  22  42  69  91 140 174 221 286 336 399
#     4  10  21  39  66 100 129 170 228 284 329 399
#     4   9  22  40  66 100 124 173 232 273 327 405
#     4  11  25  41  63 101 138 171 228 277 344 406
#     4   9  20  42  65  92 128 171 224 273 329 402
#
# _framework density 21.521937000000001
#
# number of rings (size 3 to 8) (size 9 to 14) (size 15 to 20)
#    0.000    2.000    0.000    3.000   10.000    1.714 
#    5.143    2.143    9.429    0.000    0.000    0.000 
#    0.000    0.000    0.000    0.000    0.000    0.000 
#
# Total GULP energy -78065.882683 kJ/mol
# GULP energy per Si atom -5576.134477 kJ/mol
# Density = 2.147295 g / cm^3
# Si number density = 21.521937 Si / 1000 Ang^3
#
#
#
# Elastic Constant Matrix: (Units=GPa)
#
#
# Indices 1 2 3 4 5 6 
#
# 1 57.9808 24.5506 12.3393 0.0000 -8.5718 0.0000
# 2 24.5506 144.5466 33.1256 0.0000 -1.7127 0.0000
# 3 12.3393 33.1256 106.8294 0.0000 -7.5277 0.0000
# 4 0.0000 0.0000 0.0000 29.6891 0.0000 -3.7286
# 5 -8.5718 -1.7127 -7.5277 0.0000 19.7935 0.0000
# 6 0.0000 0.0000 0.0000 -3.7286 0.0000 12.0219
#
#
#
# Elastic Compliance Matrix: (Units=1/GPa)
#
#
# Indices 1 2 3 4 5 6 
#
# 1 0.019921 -0.003112 -0.000768 0.000000 0.008066 0.000000
# 2 -0.003112 0.007935 -0.002207 0.000000 -0.001500 0.000000
# 3 -0.000768 -0.002207 0.010375 0.000000 0.003422 0.000000
# 4 0.000000 0.000000 0.000000 0.035048 0.000000 0.010870
# 5 0.008066 -0.001500 0.003422 0.000000 0.055186 0.000000
# 6 0.000000 0.000000 0.000000 0.010870 0.000000 0.086553
#
#
# Mechanical properties :
#
#
# Convention : Reuss Voigt Hill
#
# Bulk Modulus (GPa) = 38.37663 49.93200 44.15431
# Shear Modulus (GPa) = 21.19767 28.25699 24.72733
#
# Velocity S-wave (km/s) = 3.14177 3.62738 3.39327
# Velocity P-wave (km/s) = 5.57055 6.38708 5.99274
#
# Compressibility (1/GPa) = 0.02605753
#
# Stress axis : x y z
#
# Youngs Moduli (GPa) = 50.19947 126.02952 96.38774
#
# Poissons Ratio (x) = 0.39220 0.07399
# Poissons Ratio (y) = 0.15622 0.21269
# Poissons Ratio (z) = 0.03853 0.27810
#
# Static dielectric constant tensor:
#      x y z
#    x 1.835250 0.000000 -0.004860 
#    y 0.000000 1.811950 0.000000 
#    z -0.004860 0.000000 1.819540 
# 
# From -- ./inp_files/31755.got.cif
#   From: 2010.05.17/outbox.cif.g08.bks.cpg/sg5_16_cif.got.tgz:31755.got - 2010.06.03 18:56:24.
