data_PCOD9125759
_publ_section_title
;
Structure prediction by ZEFSAII (Michael W. Deem and Ramdas Pophale) SiO2 
 PCOD9125759
Probable space group: C 2
;
_chemical_formula_sum "Si O2"
_cell_formula_units_Z 18
_cell_length_a 7.376284
_cell_length_b 12.213883
_cell_length_c 9.422972
_cell_angle_alpha 90.000000
_cell_angle_beta 52.764409
_cell_angle_gamma 90.000000
_cell_volume 675.890708
_symmetry_space_group_name_H-M "C 2"
_symmetry_group_IT_number 5
_symmetry_cell_setting 'monoclinic'
loop_
_space_group_symop_operation_xyz
x,y,z
-x,y,-z
1/2+x,1/2+y,z
1/2-x,1/2+y,-z
loop_
_atom_site_type_symbol
_atom_site_label
_atom_site_fract_x
_atom_site_fract_y
_atom_site_fract_z
Si Si1 0.770616 0.383520 0.862513
Si Si2 0.500000 0.439632 0.500000
Si Si3 0.892030 0.580667 0.287667
Si Si4 0.185738 0.262317 0.579807
Si Si5 0.732602 0.729667 0.888187
O O1 0.914990 0.492219 0.760503
O O2 0.916804 0.292304 0.701185
O O3 0.500000 0.396433 0.000000
O O4 0.816243 0.337365 0.998504
O O5 0.683005 0.511384 0.324951
O O6 0.337972 0.369383 0.470775
O O7 0.764491 0.652404 0.467565
O O8 0.054494 0.670609 0.139771
O O9 0.261568 0.249795 0.708378
O O10 0.500000 0.660518 0.000000
#
# Coordination Sequence:
#
# PCOD9125759 Si02
#       5
#     4   2   4   4   4
#     4  10  24  44  67 108 143 189 247 298 364 442
#     4  10  22  40  66 110 136 184 242 298 354 422
#     4  11  22  42  72 101 143 195 241 297 371 426
#     4  10  21  46  70  97 148 186 242 298 358 434
#     4  10  21  43  68  96 147 189 231 301 366 430
#
# _framework density 26.631525
#
# number of rings (size 3 to 8) (size 9 to 14) (size 15 to 20)
#    0.000    1.778    2.222    0.667    3.111    0.000 
#   16.000    1.111    0.000    0.000    0.000    0.000 
#    0.000    0.000    0.000    0.000    0.000    0.000 
#
# Total GULP energy -50164.604391 kJ/mol
# GULP energy per Si atom -5573.844932 kJ/mol
# Density = 2.657091 g / cm^3
# Si number density = 26.631525 Si / 1000 Ang^3
#
#
#
# Elastic Constant Matrix: (Units=GPa)
#
#
# Indices 1 2 3 4 5 6 
#
# 1 143.5332 53.3268 71.0496 -0.0001 -68.8034 0.0001
# 2 53.3268 136.9291 76.2207 0.0000 -23.1713 0.0000
# 3 71.0496 76.2207 138.9210 0.0000 -54.7718 0.0002
# 4 -0.0001 0.0000 0.0000 26.6271 0.0001 -16.8455
# 5 -68.8034 -23.1713 -54.7718 0.0001 76.4621 -0.0001
# 6 0.0001 0.0000 0.0002 -16.8455 -0.0001 35.7440
#
#
#
# Elastic Compliance Matrix: (Units=1/GPa)
#
#
# Indices 1 2 3 4 5 6 
#
# 1 0.013726 -0.002834 -0.001302 0.000000 0.010560 0.000000
# 2 -0.002834 0.011196 -0.006077 0.000000 -0.003511 0.000000
# 3 -0.001302 -0.006077 0.013950 0.000000 0.006980 0.000000
# 4 0.000000 0.000000 0.000000 0.053510 0.000000 0.025218
# 5 0.010560 -0.003511 0.006980 0.000000 0.026517 0.000000
# 6 0.000000 0.000000 0.000000 0.025218 0.000000 0.039862
#
#
# Mechanical properties :
#
#
# Convention : Reuss Voigt Hill
#
# Bulk Modulus (GPa) = 54.21179 91.17528 72.69354
# Shear Modulus (GPa) = 26.97801 42.35238 34.66520
#
# Velocity S-wave (km/s) = 3.18624 3.99220 3.61177
# Velocity P-wave (km/s) = 5.82551 7.45388 6.68943
#
# Compressibility (1/GPa) = 0.01844617
#
# Stress axis : x y z
#
# Youngs Moduli (GPa) = 72.85201 89.32094 71.68210
#
# Poissons Ratio (x) = 0.25315 0.09331
# Poissons Ratio (y) = 0.20647 0.43563
# Poissons Ratio (z) = 0.09483 0.54283
#
# Static dielectric constant tensor:
#      x y z
#    x 2.165910 0.000000 -0.090690 
#    y 0.000000 2.198700 0.000000 
#    z -0.090690 0.000000 2.270200 
# 
# From -- ./inp_files/35113.got.cif
#   From: 2010.05.17/outbox.cif.g08.bks.cpg/sg5_18_cif.got.tgz:35113.got - 2010.06.03 18:56:24.
