data_PCOD9125529
_publ_section_title
;
Structure prediction by ZEFSAII (Michael W. Deem and Ramdas Pophale) SiO2 
 PCOD9125529
Probable space group: C 2
;
_chemical_formula_sum "Si O2"
_cell_formula_units_Z 30
_cell_length_a 9.068360
_cell_length_b 10.067299
_cell_length_c 13.126786
_cell_angle_alpha 90.000000
_cell_angle_beta 82.512324
_cell_angle_gamma 90.000000
_cell_volume 1188.176557
_symmetry_space_group_name_H-M "C 2"
_symmetry_group_IT_number 5
_symmetry_cell_setting 'monoclinic'
loop_
_space_group_symop_operation_xyz
x,y,z
-x,y,-z
1/2+x,1/2+y,z
1/2-x,1/2+y,-z
loop_
_atom_site_type_symbol
_atom_site_label
_atom_site_fract_x
_atom_site_fract_y
_atom_site_fract_z
Si Si1 0.415533 0.528050 0.832603
Si Si2 0.642423 0.227004 0.347255
Si Si3 0.339462 0.992974 0.813119
Si Si4 0.628111 0.407537 0.674992
Si Si5 0.833593 0.534911 0.491052
Si Si6 0.154508 0.748615 0.050337
Si Si7 0.339355 0.964951 0.258660
Si Si8 0.000000 0.224320 0.000000
O O1 0.514265 0.523021 0.721686
O O2 0.397501 0.378457 0.879652
O O3 0.248592 0.557850 0.812459
O O4 0.491148 0.626021 0.903793
O O5 0.646082 0.092611 0.283938
O O6 0.482561 0.290564 0.344031
O O7 0.677170 0.180822 0.457831
O O8 0.760013 0.325627 0.288186
O O9 0.317770 0.100304 0.904645
O O10 0.502074 0.931780 0.803508
O O11 0.221410 0.891774 0.773134
O O12 0.718366 0.448763 0.566928
O O13 0.822276 0.529926 0.371505
O O14 0.000000 0.485164 0.500000
O O15 0.330329 0.788314 0.007452
O O16 0.000000 0.730595 0.000000
#
# Coordination Sequence:
#
# PCOD9125529 Si02
#       8
#     4   4   4   4   4   4   4   2
#     4  11  24  47  72 106 144 191 241 300 378 440
#     4  10  23  42  67  91 138 183 229 295 353 420
#     4  11  21  44  69 101 137 180 237 291 358 438
#     4  10  21  41  74  92 136 194 225 291 362 423
#     4  11  23  40  67 102 138 184 245 295 358 438
#     4  12  25  48  77 112 149 194 247 312 380 442
#     4  11  23  41  74 102 137 191 241 289 367 434
#     4  12  26  50  78 106 156 186 254 314 368 460
#
# _framework density 25.248773
#
# number of rings (size 3 to 8) (size 9 to 14) (size 15 to 20)
#    0.000    1.067    7.333    0.800    1.867    1.600 
#    6.000    5.333   20.533    0.000    0.000    0.000 
#    0.000    0.000    0.000    0.000    0.000    0.000 
#
# Total GULP energy -83631.291926 kJ/mol
# GULP energy per Si atom -5575.419462 kJ/mol
# Density = 2.519131 g / cm^3
# Si number density = 25.248773 Si / 1000 Ang^3
#
#
#
# Elastic Constant Matrix: (Units=GPa)
#
#
# Indices 1 2 3 4 5 6 
#
# 1 182.7874 29.3295 28.6899 0.0000 -9.2287 0.0000
# 2 29.3295 71.3678 12.6402 0.0000 -5.3827 0.0000
# 3 28.6899 12.6402 60.1981 0.0000 6.4032 0.0000
# 4 0.0000 0.0000 0.0000 25.1442 0.0000 -13.1708
# 5 -9.2287 -5.3827 6.4032 0.0000 57.2036 0.0000
# 6 0.0000 0.0000 0.0000 -13.1708 0.0000 28.2138
#
#
#
# Elastic Compliance Matrix: (Units=1/GPa)
#
#
# Indices 1 2 3 4 5 6 
#
# 1 0.006273 -0.002018 -0.002685 0.000000 0.001123 0.000000
# 2 -0.002018 0.015374 -0.002415 0.000000 0.001391 0.000000
# 3 -0.002685 -0.002415 0.018691 0.000000 -0.002753 0.000000
# 4 0.000000 0.000000 0.000000 0.052643 0.000000 0.024575
# 5 0.001123 0.001391 -0.002753 0.000000 0.018102 0.000000
# 6 0.000000 0.000000 0.000000 0.024575 0.000000 0.046916
#
#
# Mechanical properties :
#
#
# Convention : Reuss Voigt Hill
#
# Bulk Modulus (GPa) = 38.30987 50.63028 44.47008
# Shear Modulus (GPa) = 27.63432 38.35856 32.99644
#
# Velocity S-wave (km/s) = 3.31188 3.90195 3.61896
# Velocity P-wave (km/s) = 5.46175 6.35582 5.92567
#
# Compressibility (1/GPa) = 0.02610293
#
# Stress axis : x y z
#
# Youngs Moduli (GPa) = 159.42006 65.04635 53.50046
#
# Poissons Ratio (x) = 0.13124 0.14367
# Poissons Ratio (y) = 0.32164 0.12918
# Poissons Ratio (z) = 0.42809 0.15706
#
# Static dielectric constant tensor:
#      x y z
#    x 2.124450 0.000000 0.040360 
#    y 0.000000 2.025360 0.000000 
#    z 0.040360 0.000000 2.048780 
# 
# From -- ./inp_files/50321.got.cif
#   From: 2010.05.17/outbox.cif.g08.bks.cpg/sg5_26_cif.got.tgz:50321.got - 2010.06.03 18:56:24.
