data_PCOD9125274
_publ_section_title
;
Structure prediction by ZEFSAII (Michael W. Deem and Ramdas Pophale) SiO2 
 PCOD9125274
Probable space group: C 2
;
_chemical_formula_sum "Si O2"
_cell_formula_units_Z 32
_cell_length_a 23.734061
_cell_length_b 11.711538
_cell_length_c 8.167572
_cell_angle_alpha 90.000000
_cell_angle_beta 136.738460
_cell_angle_gamma 90.000000
_cell_volume 1555.888594
_symmetry_space_group_name_H-M "C 2"
_symmetry_group_IT_number 5
_symmetry_cell_setting 'monoclinic'
loop_
_space_group_symop_operation_xyz
x,y,z
-x,y,-z
1/2+x,1/2+y,z
1/2-x,1/2+y,-z
loop_
_atom_site_type_symbol
_atom_site_label
_atom_site_fract_x
_atom_site_fract_y
_atom_site_fract_z
Si Si1 0.755383 0.675870 0.771886
Si Si2 0.033910 0.272264 0.893256
Si Si3 0.824215 0.973086 0.512363
Si Si4 0.298085 0.792327 0.879646
Si Si5 0.873949 0.354611 0.392848
Si Si6 0.509483 0.528496 0.327016
Si Si7 0.242209 0.553615 0.868121
Si Si8 0.134751 0.882521 0.040257
O O1 0.735746 0.581572 0.595740
O O2 0.680408 0.766821 0.614001
O O3 0.835518 0.753425 0.920162
O O4 0.758315 0.604690 0.948689
O O5 0.969002 0.332280 0.632746
O O6 0.032328 0.137455 0.847758
O O7 0.000000 0.291290 0.000000
O O8 0.127655 0.311206 0.087307
O O9 0.775683 0.877283 0.309545
O O10 0.901556 0.014834 0.567071
O O11 0.846787 0.923876 0.736618
O O12 0.263284 0.664715 0.807076
O O13 0.344007 0.817752 0.148647
O O14 0.840916 0.483335 0.344694
O O15 0.500000 0.552552 0.500000
O O16 0.459447 0.412699 0.190092
O O17 0.313138 0.460763 0.977568
#
# Coordination Sequence:
#
# PCOD9125274 Si02
#       8
#     4   4   4   4   4   4   4   4
#     4  10  22  41  66 101 133 174 221 280 330 410
#     4  12  25  40  64  99 137 172 223 283 338 387
#     4  12  25  42  69 101 136 176 221 282 340 400
#     4  11  24  40  67  97 130 175 221 272 332 403
#     4  10  21  40  67  95 131 173 220 275 333 395
#     4  12  25  43  66  98 132 176 229 279 331 405
#     4  10  21  40  68  96 132 169 228 268 334 399
#     4  11  25  40  69 101 138 172 228 282 343 391
#
# _framework density 20.567025000000001
#
# number of rings (size 3 to 8) (size 9 to 14) (size 15 to 20)
#    0.000    1.000    3.750    3.000    8.750    0.000 
#    0.000    1.250    0.000    0.000    0.000    0.000 
#    0.000    0.000    0.000    0.000    0.000    0.000 
#
# Total GULP energy -89393.622846 kJ/mol
# GULP energy per Si atom -5587.101428 kJ/mol
# Density = 2.052021 g / cm^3
# Si number density = 20.567025 Si / 1000 Ang^3
#
#
#
# Elastic Constant Matrix: (Units=GPa)
#
#
# Indices 1 2 3 4 5 6 
#
# 1 66.0536 17.4762 14.4324 0.0000 -5.7048 0.0000
# 2 17.4762 94.4112 23.1228 0.0000 10.7658 0.0000
# 3 14.4324 23.1228 39.1527 0.0000 -3.3844 0.0000
# 4 0.0000 0.0000 0.0000 25.4186 0.0000 11.2186
# 5 -5.7048 10.7658 -3.3844 0.0000 38.1031 0.0000
# 6 0.0000 0.0000 0.0000 11.2186 0.0000 25.9219
#
#
#
# Elastic Compliance Matrix: (Units=1/GPa)
#
#
# Indices 1 2 3 4 5 6 
#
# 1 0.017013 -0.002327 -0.004656 0.000000 0.002791 0.000000
# 2 -0.002327 0.013399 -0.007470 0.000000 -0.004798 0.000000
# 3 -0.004656 -0.007470 0.032037 0.000000 0.004259 0.000000
# 4 0.000000 0.000000 0.000000 0.048630 0.000000 -0.021046
# 5 0.002791 -0.004798 0.004259 0.000000 0.028396 0.000000
# 6 0.000000 0.000000 0.000000 -0.021046 0.000000 0.047686
#
#
# Mechanical properties :
#
#
# Convention : Reuss Voigt Hill
#
# Bulk Modulus (GPa) = 29.81218 34.40893 32.11055
# Shear Modulus (GPa) = 22.00220 27.52780 24.76500
#
# Velocity S-wave (km/s) = 3.27430 3.66244 3.47380
# Velocity P-wave (km/s) = 5.36855 5.88652 5.63349
#
# Compressibility (1/GPa) = 0.03354334
#
# Stress axis : x y z
#
# Youngs Moduli (GPa) = 58.77764 74.62976 31.21376
#
# Poissons Ratio (x) = 0.17369 0.14532
# Poissons Ratio (y) = 0.13679 0.23318
# Poissons Ratio (z) = 0.27365 0.55751
#
# Static dielectric constant tensor:
#      x y z
#    x 1.785580 0.000000 -0.026140 
#    y 0.000000 1.716680 0.000000 
#    z -0.026140 0.000000 1.758880 
# 
# From -- ./inp_files/30935.got.cif
#   From: 2010.05.17/outbox.cif.g08.bks.cpg/sg5_16_cif.got.tgz:30935.got - 2010.06.03 18:56:24.
