data_PCOD9125655
_publ_section_title
;
Structure prediction by ZEFSAII (Michael W. Deem and Ramdas Pophale) SiO2 
 PCOD9125655
Probable space group: C 2
;
_chemical_formula_sum "Si O2"
_cell_formula_units_Z 20
_cell_length_a 12.318246
_cell_length_b 7.732864
_cell_length_c 11.680084
_cell_angle_alpha 90.000000
_cell_angle_beta 131.898735
_cell_angle_gamma 90.000000
_cell_volume 828.130100
_symmetry_space_group_name_H-M "C 2"
_symmetry_group_IT_number 5
_symmetry_cell_setting 'monoclinic'
loop_
_space_group_symop_operation_xyz
x,y,z
-x,y,-z
1/2+x,1/2+y,z
1/2-x,1/2+y,-z
loop_
_atom_site_type_symbol
_atom_site_label
_atom_site_fract_x
_atom_site_fract_y
_atom_site_fract_z
Si Si1 0.371541 0.620820 0.250763
Si Si2 0.658680 0.138969 0.562424
Si Si3 0.846264 0.198398 0.899917
Si Si4 0.687680 0.732235 0.549303
Si Si5 0.258568 0.914991 0.019623
O O1 0.534211 0.693701 0.377713
O O2 0.314266 0.610640 0.340024
O O3 0.370385 0.460563 0.161719
O O4 0.265772 0.757714 0.113196
O O5 0.500000 0.180012 0.500000
O O6 0.777075 0.226213 0.728908
O O7 0.685702 0.196804 0.451786
O O8 0.683441 0.931733 0.584582
O O9 0.876388 0.360274 0.005717
O O10 0.000000 0.101549 0.000000
O O11 0.733402 0.078796 0.891228
#
# Coordination Sequence:
#
# PCOD9125655 Si02
#       5
#     4   4   4   4   4
#     4  10  21  46  72 100 144 183 234 292 349 415
#     4  12  25  44  70 101 141 184 237 286 348 418
#     4  11  24  44  69  99 140 182 227 288 348 409
#     4  11  24  45  71 100 144 184 233 294 349 412
#     4  10  21  42  69  98 134 181 227 277 348 411
#
# _framework density 24.150794000000001
#
# number of rings (size 3 to 8) (size 9 to 14) (size 15 to 20)
#    0.000    1.200    4.000    2.400    2.800    3.200 
#    0.000    2.000    0.000    0.000    0.000    0.000 
#    0.000    0.000    0.000    0.000    0.000    0.000 
#
# Total GULP energy -55771.572764 kJ/mol
# GULP energy per Si atom -5577.157276 kJ/mol
# Density = 2.409583 g / cm^3
# Si number density = 24.150794 Si / 1000 Ang^3
#
#
#
# Elastic Constant Matrix: (Units=GPa)
#
#
# Indices 1 2 3 4 5 6 
#
# 1 149.3141 23.5039 52.8807 0.0000 -24.8839 0.0000
# 2 23.5039 75.0446 41.1557 0.0000 3.7615 0.0000
# 3 52.8807 41.1557 118.2063 0.0000 -21.3335 0.0000
# 4 0.0000 0.0000 0.0000 30.6675 0.0000 -9.8137
# 5 -24.8839 3.7615 -21.3335 0.0000 33.2484 0.0000
# 6 0.0000 0.0000 0.0000 -9.8137 0.0000 23.2496
#
#
#
# Elastic Compliance Matrix: (Units=1/GPa)
#
#
# Indices 1 2 3 4 5 6 
#
# 1 0.008655 -0.001676 -0.002358 0.000000 0.005154 0.000000
# 2 -0.001676 0.018037 -0.006927 0.000000 -0.007739 0.000000
# 3 -0.002358 -0.006927 0.013288 0.000000 0.007545 0.000000
# 4 0.000000 0.000000 0.000000 0.037700 0.000000 0.015913
# 5 0.005154 -0.007739 0.007545 0.000000 0.039651 0.000000
# 6 0.000000 0.000000 0.000000 0.015913 0.000000 0.049729
#
#
# Mechanical properties :
#
#
# Convention : Reuss Voigt Hill
#
# Bulk Modulus (GPa) = 55.37638 64.18285 59.77961
# Shear Modulus (GPa) = 25.64076 32.43474 29.03775
#
# Velocity S-wave (km/s) = 3.26190 3.66868 3.47126
# Velocity P-wave (km/s) = 6.09638 6.67677 6.39316
#
# Compressibility (1/GPa) = 0.01805824
#
# Stress axis : x y z
#
# Youngs Moduli (GPa) = 115.53635 55.44120 75.25432
#
# Poissons Ratio (x) = 0.09291 0.17747
# Poissons Ratio (y) = 0.19362 0.52129
# Poissons Ratio (z) = 0.27247 0.38404
#
# Static dielectric constant tensor:
#      x y z
#    x 1.922910 0.000000 -0.015570 
#    y 0.000000 2.082690 0.000000 
#    z -0.015570 0.000000 1.873420 
# 
# From -- ./inp_files/38230.got.cif
#   From: 2010.05.17/outbox.cif.g08.bks.cpg/sg5_20_cif.got.tgz:38230.got - 2010.06.03 18:56:24.
