data_PCOD9125118
_publ_section_title
;
Structure prediction by ZEFSAII (Michael W. Deem and Ramdas Pophale) SiO2 
 PCOD9125118
Probable space group: C 2
;
_chemical_formula_sum "Si O2"
_cell_formula_units_Z 28
_cell_length_a 9.242434
_cell_length_b 10.646760
_cell_length_c 15.141922
_cell_angle_alpha 90.000000
_cell_angle_beta 112.583229
_cell_angle_gamma 90.000000
_cell_volume 1375.746204
_symmetry_space_group_name_H-M "C 2"
_symmetry_group_IT_number 5
_symmetry_cell_setting 'monoclinic'
loop_
_space_group_symop_operation_xyz
x,y,z
-x,y,-z
1/2+x,1/2+y,z
1/2-x,1/2+y,-z
loop_
_atom_site_type_symbol
_atom_site_label
_atom_site_fract_x
_atom_site_fract_y
_atom_site_fract_z
Si Si1 0.550224 0.294350 0.612535
Si Si2 0.135083 0.388342 0.097671
Si Si3 0.296263 0.295974 0.705120
Si Si4 0.039218 0.863225 0.904941
Si Si5 0.082303 0.124725 0.114225
Si Si6 0.772559 0.523955 0.713591
Si Si7 0.623230 0.042872 0.725122
O O1 0.500000 0.283455 0.500000
O O2 0.400855 0.311350 0.642123
O O3 0.662706 0.413400 0.652820
O O4 0.630838 0.165139 0.664382
O O5 0.280923 0.336060 0.074677
O O6 0.077480 0.269110 0.143291
O O7 0.194549 0.494161 0.176558
O O8 0.000000 0.430342 0.000000
O O9 0.421059 0.286287 0.815694
O O10 0.206897 0.163533 0.682723
O O11 0.190704 0.417048 0.697480
O O12 0.010105 0.007847 0.866222
O O13 0.000000 0.853160 0.000000
O O14 0.261482 0.076569 0.165557
O O15 0.000000 0.133770 0.000000
O O16 0.943983 0.523574 0.709211
#
# Coordination Sequence:
#
# PCOD9125118 Si02
#       7
#     4   4   4   4   4   4   4
#     4  11  24  46  69  91 126 165 209 272 329 377
#     4  11  22  36  60  92 128 168 217 254 306 375
#     4  10  23  42  64  95 130 163 210 259 314 380
#     4  10  21  40  58  88 132 172 208 254 309 365
#     4   9  19  37  61  85 128 168 209 251 301 366
#     4  11  23  41  63  98 127 164 213 266 314 379
#     4  10  22  42  68  92 127 169 210 258 320 379
#
# _framework density 20.352591
#
# number of rings (size 3 to 8) (size 9 to 14) (size 15 to 20)
#    0.000    1.714    2.857    0.857    6.000    5.143 
#    5.143    0.714    0.000    0.000    0.000    0.000 
#    0.000    0.000    0.000    0.000    0.000    0.000 
#
# Total GULP energy -78086.030230 kJ/mol
# GULP energy per Si atom -5577.573588 kJ/mol
# Density = 2.030627 g / cm^3
# Si number density = 20.352591 Si / 1000 Ang^3
#
#
#
# Elastic Constant Matrix: (Units=GPa)
#
#
# Indices 1 2 3 4 5 6 
#
# 1 56.1482 55.2362 36.4237 0.0000 -5.1854 0.0000
# 2 55.2362 146.6598 36.1577 0.0000 -2.3591 0.0000
# 3 36.4237 36.1577 90.0201 0.0000 -11.1228 0.0000
# 4 0.0000 0.0000 0.0000 1.7617 0.0000 2.4052
# 5 -5.1854 -2.3591 -11.1228 0.0000 20.6182 0.0000
# 6 0.0000 0.0000 0.0000 2.4052 0.0000 28.0353
#
#
#
# Elastic Compliance Matrix: (Units=1/GPa)
#
#
# Indices 1 2 3 4 5 6 
#
# 1 0.034675 -0.010694 -0.009437 0.000000 0.002406 0.000000
# 2 -0.010694 0.010879 -0.000237 0.000000 -0.001573 0.000000
# 3 -0.009437 -0.000237 0.015777 0.000000 0.006111 0.000000
# 4 0.000000 0.000000 0.000000 0.642936 0.000000 -0.055159
# 5 0.002406 -0.001573 0.006111 0.000000 0.052223 0.000000
# 6 0.000000 0.000000 0.000000 -0.055159 0.000000 0.040402
#
#
# Mechanical properties :
#
#
# Convention : Reuss Voigt Hill
#
# Bulk Modulus (GPa) = 48.55690 60.94036 54.74863
# Shear Modulus (GPa) = 5.92071 21.08374 13.50223
#
# Velocity S-wave (km/s) = 1.70745 3.22207 2.57848
# Velocity P-wave (km/s) = 5.27227 6.62190 5.98525
#
# Compressibility (1/GPa) = 0.02059440
#
# Stress axis : x y z
#
# Youngs Moduli (GPa) = 28.83963 91.91741 63.38170
#
# Poissons Ratio (x) = 0.98297 0.59815
# Poissons Ratio (y) = 0.30841 0.01503
# Poissons Ratio (z) = 0.27217 0.02180
#
# Static dielectric constant tensor:
#      x y z
#    x 1.736300 0.000000 0.008910 
#    y 0.000000 1.781710 0.000000 
#    z 0.008910 0.000000 1.695040 
# 
# From -- ./inp_files/50275.got.cif
#   From: 2010.05.17/outbox.cif.g08.bks.cpg/sg5_26_cif.got.tgz:50275.got - 2010.06.03 18:56:24.
