data_PCOD9125465
_publ_section_title
;
Structure prediction by ZEFSAII (Michael W. Deem and Ramdas Pophale) SiO2 
 PCOD9125465
Probable space group: C 2
;
_chemical_formula_sum "Si O2"
_cell_formula_units_Z 32
_cell_length_a 19.572772
_cell_length_b 14.789280
_cell_length_c 13.901961
_cell_angle_alpha 90.000000
_cell_angle_beta 158.829180
_cell_angle_gamma 90.000000
_cell_volume 1453.324838
_symmetry_space_group_name_H-M "C 2"
_symmetry_group_IT_number 5
_symmetry_cell_setting 'monoclinic'
loop_
_space_group_symop_operation_xyz
x,y,z
-x,y,-z
1/2+x,1/2+y,z
1/2-x,1/2+y,-z
loop_
_atom_site_type_symbol
_atom_site_label
_atom_site_fract_x
_atom_site_fract_y
_atom_site_fract_z
Si Si1 0.265225 0.077760 0.584563
Si Si2 0.882459 0.310610 0.434779
Si Si3 0.985367 0.636729 0.595434
Si Si4 0.780712 0.951841 0.205196
Si Si5 0.184082 0.285545 0.180436
Si Si6 0.102878 0.188052 0.873848
Si Si7 0.897325 0.461294 0.596709
Si Si8 0.166602 0.637249 0.106620
O O1 0.303439 0.091688 0.748068
O O2 0.056303 0.117688 0.298176
O O3 0.296177 0.985093 0.565653
O O4 0.448489 0.133922 0.787873
O O5 0.809113 0.383788 0.414404
O O6 0.733194 0.239472 0.196680
O O7 0.000000 0.351489 0.500000
O O8 0.014008 0.245937 0.671935
O O9 0.000000 0.620083 0.500000
O O10 0.864737 0.728339 0.453438
O O11 0.893788 0.551952 0.528356
O O12 0.202982 0.647222 0.909586
O O13 0.704478 0.893575 0.196139
O O14 0.000000 0.922451 0.500000
O O15 0.781817 0.060641 0.202208
O O16 0.616455 0.934646 0.909109
O O17 0.154241 0.249417 0.032803
O O18 0.000000 0.263436 0.000000
#
# Coordination Sequence:
#
# PCOD9125465 Si02
#       8
#     4   4   4   4   4   4   4   4
#     4   9  20  38  65  91 124 167 220 271 330 392
#     4  11  23  39  65  96 140 177 221 274 334 400
#     4  10  23  42  67  94 129 171 218 271 330 399
#     4  11  23  38  63 100 130 168 225 281 324 392
#     4  11  23  41  68  98 130 168 216 282 334 392
#     4  10  21  41  67  96 129 172 221 272 337 394
#     4  11  23  40  66  95 133 173 220 272 336 397
#     4   9  21  38  64  93 134 172 221 274 335 390
#
# _framework density 22.018478000000002
#
# number of rings (size 3 to 8) (size 9 to 14) (size 15 to 20)
#    0.000    1.750    1.250    2.625   10.500    0.000 
#    0.000    0.000   38.500    0.000    0.000    0.000 
#    0.000    0.000    0.000    0.000    0.000    0.000 
#
# Total GULP energy -89097.887158 kJ/mol
# GULP energy per Si atom -5568.617947 kJ/mol
# Density = 2.196836 g / cm^3
# Si number density = 22.018478 Si / 1000 Ang^3
#
#
#
# Elastic Constant Matrix: (Units=GPa)
#
#
# Indices 1 2 3 4 5 6 
#
# 1 72.6822 22.3485 2.6147 0.0000 0.7062 0.0000
# 2 22.3485 100.2660 31.0408 0.0000 2.2709 0.0000
# 3 2.6147 31.0408 82.0437 0.0000 19.1151 0.0000
# 4 0.0000 0.0000 0.0000 17.4798 0.0000 -14.1857
# 5 0.7062 2.2709 19.1151 0.0000 25.1925 0.0000
# 6 0.0000 0.0000 0.0000 -14.1857 0.0000 31.9575
#
#
#
# Elastic Compliance Matrix: (Units=1/GPa)
#
#
# Indices 1 2 3 4 5 6 
#
# 1 0.014845 -0.003635 0.001121 0.000000 -0.000939 0.000000
# 2 -0.003635 0.012340 -0.005245 0.000000 0.002969 0.000000
# 3 0.001121 -0.005245 0.017048 0.000000 -0.012494 0.000000
# 4 0.000000 0.000000 0.000000 0.089423 0.000000 0.039694
# 5 -0.000939 0.002969 -0.012494 0.000000 0.048933 0.000000
# 6 0.000000 0.000000 0.000000 0.039694 0.000000 0.048912
#
#
# Mechanical properties :
#
#
# Convention : Reuss Voigt Hill
#
# Bulk Modulus (GPa) = 34.82359 40.77778 37.80068
# Shear Modulus (GPa) = 19.48634 28.19180 23.83907
#
# Velocity S-wave (km/s) = 2.97812 3.58211 3.29399
# Velocity P-wave (km/s) = 5.26076 5.97232 5.62780
#
# Compressibility (1/GPa) = 0.02871617
#
# Stress axis : x y z
#
# Youngs Moduli (GPa) = 67.36328 81.03718 58.65730
#
# Poissons Ratio (x) = 0.29453 -0.06574
# Poissons Ratio (y) = 0.24483 0.30764
# Poissons Ratio (z) = -0.07550 0.42502
#
# Static dielectric constant tensor:
#      x y z
#    x 1.913430 0.000000 -0.011760 
#    y 0.000000 1.840220 0.000000 
#    z -0.011760 0.000000 1.836720 
# 
# From -- ./inp_files/57195.got.cif
#   From: 2010.05.17/outbox.cif.g08.bks.cpg/sg5_29_cif.got.tgz:57195.got - 2010.06.03 18:56:24.
