data_PCOD9125810
_publ_section_title
;
Structure prediction by ZEFSAII (Michael W. Deem and Ramdas Pophale) SiO2 
 PCOD9125810
Probable space group: C 2
;
_chemical_formula_sum "Si O2"
_cell_formula_units_Z 24
_cell_length_a 24.670527
_cell_length_b 6.852424
_cell_length_c 13.910647
_cell_angle_alpha 90.000000
_cell_angle_beta 27.795058
_cell_angle_gamma 90.000000
_cell_volume 1096.591890
_symmetry_space_group_name_H-M "C 2"
_symmetry_group_IT_number 5
_symmetry_cell_setting 'monoclinic'
loop_
_space_group_symop_operation_xyz
x,y,z
-x,y,-z
1/2+x,1/2+y,z
1/2-x,1/2+y,-z
loop_
_atom_site_type_symbol
_atom_site_label
_atom_site_fract_x
_atom_site_fract_y
_atom_site_fract_z
Si Si1 0.969579 0.002520 0.440684
Si Si2 0.334130 0.045955 0.327309
Si Si3 0.918598 0.107118 0.209818
Si Si4 0.713079 0.084748 0.821107
Si Si5 0.486485 0.182603 0.258126
Si Si6 0.435481 0.764281 0.851014
O O1 0.846919 0.115663 0.633192
O O2 0.070369 0.139466 0.236727
O O3 0.000000 0.940273 0.500000
O O4 0.947230 0.822230 0.403895
O O5 0.209482 0.023838 0.574058
O O6 0.311034 0.109542 0.254376
O O7 0.413963 0.175882 0.272596
O O8 0.393234 0.834933 0.226047
O O9 0.993996 0.123319 0.187928
O O10 0.000000 0.020971 0.000000
O O11 0.621429 0.220236 0.020372
O O12 0.672074 0.867373 0.924228
O O13 0.486019 0.956249 0.291671
#
# Coordination Sequence:
#
# PCOD9125810 Si02
#       6
#     4   4   4   4   4   4
#     4  12  25  45  68  94 128 175 227 268 315 383
#     4  11  19  37  67  90 136 168 201 266 329 393
#     4  11  20  36  58  91 131 168 201 259 325 386
#     4  10  21  44  63  91 137 164 211 275 317 390
#     4   9  23  41  64  99 128 168 215 264 330 382
#     4   9  22  43  61  92 131 165 219 262 324 377
#
# _framework density 21.885992999999999
#
# number of rings (size 3 to 8) (size 9 to 14) (size 15 to 20)
#    1.000    0.667    3.333    1.500    0.000    2.000 
#    6.000    0.833    0.000    0.000    0.000    0.000 
#    0.000    0.000    0.000    0.000    0.000    0.000 
#
# Total GULP energy -66934.907143 kJ/mol
# GULP energy per Si atom -5577.908929 kJ/mol
# Density = 2.183618 g / cm^3
# Si number density = 21.885993 Si / 1000 Ang^3
#
#
#
# Elastic Constant Matrix: (Units=GPa)
#
#
# Indices 1 2 3 4 5 6 
#
# 1 56.3694 21.1073 22.8642 0.0000 9.5186 0.0000
# 2 21.1073 48.8668 23.3591 -0.0002 6.9353 0.0000
# 3 22.8642 23.3591 138.5201 -0.0001 0.6848 0.0000
# 4 0.0000 -0.0002 -0.0001 39.5224 0.0000 -3.2024
# 5 9.5186 6.9353 0.6848 0.0000 18.5194 0.0000
# 6 0.0000 0.0000 0.0000 -3.2024 0.0000 32.8355
#
#
#
# Elastic Compliance Matrix: (Units=1/GPa)
#
#
# Indices 1 2 3 4 5 6 
#
# 1 0.023075 -0.007501 -0.002500 0.000000 -0.008959 0.000000
# 2 -0.007501 0.026014 -0.003120 0.000000 -0.005771 0.000000
# 3 -0.002500 -0.003120 0.008147 0.000000 0.002152 0.000000
# 4 0.000000 0.000000 0.000000 0.025504 0.000000 0.002487
# 5 -0.008959 -0.005771 0.002152 0.000000 0.060684 0.000000
# 6 0.000000 0.000000 0.000000 0.002487 0.000000 0.030697
#
#
# Mechanical properties :
#
#
# Convention : Reuss Voigt Hill
#
# Bulk Modulus (GPa) = 32.26261 42.04636 37.15449
# Shear Modulus (GPa) = 23.73098 29.93717 26.83407
#
# Velocity S-wave (km/s) = 3.29644 3.70248 3.50535
# Velocity P-wave (km/s) = 5.40943 6.12626 5.77897
#
# Compressibility (1/GPa) = 0.03099563
#
# Stress axis : x y z
#
# Youngs Moduli (GPa) = 43.33606 38.44052 122.73997
#
# Poissons Ratio (x) = 0.28833 0.30681
# Poissons Ratio (y) = 0.32505 0.38298
# Poissons Ratio (z) = 0.10833 0.11994
#
# Static dielectric constant tensor:
#      x y z
#    x 1.753640 0.000000 0.007790 
#    y 0.000000 1.852440 0.000000 
#    z 0.007790 0.000000 1.771650 
# 
# From -- ./inp_files/47232.got.cif
#   From: 2010.05.17/outbox.cif.g08.bks.cpg/sg5_24_cif.got.tgz:47232.got - 2010.06.03 18:56:24.
