data_PCOD9125282
_publ_section_title
;
Structure prediction by ZEFSAII (Michael W. Deem and Ramdas Pophale) SiO2 
 PCOD9125282
Probable space group: C 2
;
_chemical_formula_sum "Si O2"
_cell_formula_units_Z 22
_cell_length_a 13.427207
_cell_length_b 16.883272
_cell_length_c 8.507130
_cell_angle_alpha 90.000000
_cell_angle_beta 34.665217
_cell_angle_gamma 90.000000
_cell_volume 1096.907300
_symmetry_space_group_name_H-M "C 2"
_symmetry_group_IT_number 5
_symmetry_cell_setting 'monoclinic'
loop_
_space_group_symop_operation_xyz
x,y,z
-x,y,-z
1/2+x,1/2+y,z
1/2-x,1/2+y,-z
loop_
_atom_site_type_symbol
_atom_site_label
_atom_site_fract_x
_atom_site_fract_y
_atom_site_fract_z
Si Si1 0.704086 0.336400 0.695608
Si Si2 0.078916 0.470537 0.726012
Si Si3 0.303318 0.754537 0.277309
Si Si4 0.500000 0.355873 0.500000
Si Si5 0.813807 0.586741 0.657065
Si Si6 0.746254 0.930377 0.074014
O O1 0.765482 0.407762 0.500817
O O2 0.759429 0.261095 0.520346
O O3 0.783744 0.360230 0.760751
O O4 0.500000 0.334985 0.000000
O O5 0.144064 0.553069 0.570340
O O6 0.923583 0.442023 0.812518
O O7 0.000000 0.476214 0.000000
O O8 0.152885 0.802564 0.379434
O O9 0.295305 0.666161 0.218423
O O10 0.500000 0.786932 0.000000
O O11 0.406677 0.408067 0.754411
O O12 0.730118 0.512490 0.860163
O O13 0.000000 0.603856 0.500000
#
# Coordination Sequence:
#
# PCOD9125282 Si02
#       6
#     4   4   4   2   4   4
#     4  11  21  37  62  95 129 170 225 272 334 395
#     4  10  21  40  67  98 132 175 234 278 332 411
#     4  12  25  42  67  99 139 181 226 284 343 400
#     4  12  22  42  74  96 134 176 234 284 336 400
#     4   9  21  43  65  93 140 182 221 279 347 394
#     4  10  22  41  69  97 131 180 225 283 328 410
#
# _framework density 20.05639
#
# number of rings (size 3 to 8) (size 9 to 14) (size 15 to 20)
#    0.000    1.455    2.727    4.364    0.000    3.636 
#    0.000    0.000    0.000    0.000    0.000    0.000 
#    0.000    0.000    0.000    0.000    0.000    0.000 
#
# Total GULP energy -61396.303812 kJ/mol
# GULP energy per Si atom -5581.482165 kJ/mol
# Density = 2.001074 g / cm^3
# Si number density = 20.056390 Si / 1000 Ang^3
#
#
#
# Elastic Constant Matrix: (Units=GPa)
#
#
# Indices 1 2 3 4 5 6 
#
# 1 96.4911 38.7156 43.3037 0.0017 8.7463 -0.0018
# 2 38.7156 79.7099 40.2927 -0.0004 0.1346 0.0003
# 3 43.3037 40.2927 161.3859 0.0000 10.5799 -0.0012
# 4 0.0017 -0.0004 0.0000 17.5355 0.0000 -6.3583
# 5 8.7463 0.1346 10.5799 0.0000 45.2369 0.0008
# 6 -0.0018 0.0003 -0.0012 -6.3583 0.0008 19.2740
#
#
#
# Elastic Compliance Matrix: (Units=1/GPa)
#
#
# Indices 1 2 3 4 5 6 
#
# 1 0.013771 -0.005594 -0.002158 -0.000001 -0.002141 0.000001
# 2 -0.005594 0.016659 -0.002768 0.000001 0.001679 -0.000001
# 3 -0.002158 -0.002768 0.007554 0.000000 -0.001341 0.000000
# 4 -0.000001 0.000001 0.000000 0.064775 0.000000 0.021369
# 5 -0.002141 0.001679 -0.001341 0.000000 0.022829 -0.000001
# 6 0.000001 -0.000001 0.000000 0.021369 -0.000001 0.058933
#
#
# Mechanical properties :
#
#
# Convention : Reuss Voigt Hill
#
# Bulk Modulus (GPa) = 59.01949 64.69009 61.85479
# Shear Modulus (GPa) = 23.67319 30.76093 27.21706
#
# Velocity S-wave (km/s) = 3.43932 3.92053 3.68778
# Velocity P-wave (km/s) = 6.72775 7.26761 7.00288
#
# Compressibility (1/GPa) = 0.01694355
#
# Stress axis : x y z
#
# Youngs Moduli (GPa) = 72.61775 60.02733 132.37216
#
# Poissons Ratio (x) = 0.33580 0.28566
# Poissons Ratio (y) = 0.40623 0.36645
# Poissons Ratio (z) = 0.15671 0.16617
#
# Static dielectric constant tensor:
#      x y z
#    x 1.752400 0.000000 -0.004570 
#    y 0.000000 1.717760 0.000000 
#    z -0.004570 0.000000 1.708720 
# 
# From -- ./inp_files/15632.got.cif
#   From: 2010.05.17/outbox.cif.g08.bks.cpg/sg5_8_cif.got.tgz:15632.got - 2010.06.03 18:56:24.
