data_PCOD9125174
_publ_section_title
;
Structure prediction by ZEFSAII (Michael W. Deem and Ramdas Pophale) SiO2 
 PCOD9125174
Probable space group: C 2
;
_chemical_formula_sum "Si O2"
_cell_formula_units_Z 32
_cell_length_a 14.361221
_cell_length_b 12.469077
_cell_length_c 14.577933
_cell_angle_alpha 90.000000
_cell_angle_beta 39.309764
_cell_angle_gamma 90.000000
_cell_volume 1653.777096
_symmetry_space_group_name_H-M "C 2"
_symmetry_group_IT_number 5
_symmetry_cell_setting 'monoclinic'
loop_
_space_group_symop_operation_xyz
x,y,z
-x,y,-z
1/2+x,1/2+y,z
1/2-x,1/2+y,-z
loop_
_atom_site_type_symbol
_atom_site_label
_atom_site_fract_x
_atom_site_fract_y
_atom_site_fract_z
Si Si1 0.629995 0.571640 0.335332
Si Si2 0.098497 0.512024 0.102592
Si Si3 0.211860 0.405664 0.651271
Si Si4 0.856925 0.712758 0.061965
Si Si5 0.218809 0.142222 0.899288
Si Si6 0.573159 0.480761 0.668322
Si Si7 0.820805 0.840076 0.915880
Si Si8 0.615044 0.664282 0.775961
O O1 0.500000 0.612587 0.500000
O O2 0.705747 0.470808 0.329528
O O3 0.745873 0.662536 0.219874
O O4 0.548600 0.533872 0.305495
O O5 0.198893 0.546300 0.112120
O O6 0.940419 0.468062 0.248297
O O7 0.088475 0.612092 0.041548
O O8 0.191715 0.418943 0.983675
O O9 0.312563 0.420561 0.484694
O O10 0.173183 0.282562 0.704740
O O11 0.784608 0.791307 0.043166
O O12 0.000000 0.762050 0.000000
O O13 0.320933 0.244324 0.843002
O O14 0.189924 0.129864 0.814362
O O15 0.060922 0.164182 0.068552
O O16 0.477202 0.398323 0.801048
O O17 0.640287 0.575303 0.678636
#
# Coordination Sequence:
#
# PCOD9125174 Si02
#       8
#     4   4   4   4   4   4   4   4
#     4  10  21  40  63  89 125 159 203 260 307 358
#     4  11  21  39  61  91 125 158 203 257 304 357
#     4  11  24  39  66  92 122 162 206 257 309 365
#     4  11  22  36  61  95 121 159 213 251 303 371
#     4  10  22  37  65  96 119 157 214 255 300 364
#     4  11  23  42  62  90 131 160 201 256 316 365
#     4  11  21  38  62  89 127 163 200 257 306 362
#     4  11  22  39  66  94 118 163 209 255 304 368
#
# _framework density 19.349644999999999
#
# number of rings (size 3 to 8) (size 9 to 14) (size 15 to 20)
#    0.000    1.250    5.000    1.500    0.000    3.000 
#    0.000    1.875    0.000    0.000    0.000    0.000 
#    0.000    0.000    0.000    0.000    0.000    0.000 
#
# Total GULP energy -89332.946969 kJ/mol
# GULP energy per Si atom -5583.309186 kJ/mol
# Density = 1.930560 g / cm^3
# Si number density = 19.349645 Si / 1000 Ang^3
#
#
#
# Elastic Constant Matrix: (Units=GPa)
#
#
# Indices 1 2 3 4 5 6 
#
# 1 93.4736 13.0145 24.6594 0.0000 11.8395 0.0000
# 2 13.0145 35.7434 19.1687 0.0000 15.0006 0.0000
# 3 24.6594 19.1687 86.1757 0.0000 -1.0846 0.0000
# 4 0.0000 0.0000 0.0000 16.9429 0.0000 -1.1743
# 5 11.8395 15.0006 -1.0846 0.0000 25.6094 0.0000
# 6 0.0000 0.0000 0.0000 -1.1743 0.0000 16.4140
#
#
#
# Elastic Compliance Matrix: (Units=1/GPa)
#
#
# Indices 1 2 3 4 5 6 
#
# 1 0.012400 -0.000163 -0.003585 0.000000 -0.005789 0.000000
# 2 -0.000163 0.044639 -0.010216 0.000000 -0.026504 0.000000
# 3 -0.003585 -0.010216 0.015007 0.000000 0.008277 0.000000
# 4 0.000000 0.000000 0.000000 0.059316 0.000000 0.004243
# 5 -0.005789 -0.026504 0.008277 0.000000 0.057600 0.000000
# 6 0.000000 0.000000 0.000000 0.004243 0.000000 0.061227
#
#
# Mechanical properties :
#
#
# Convention : Reuss Voigt Hill
#
# Bulk Modulus (GPa) = 22.66699 36.56422 29.61560
# Shear Modulus (GPa) = 17.07525 22.36326 19.71926
#
# Velocity S-wave (km/s) = 2.97384 3.40331 3.19580
# Velocity P-wave (km/s) = 4.85093 5.86353 5.38110
#
# Compressibility (1/GPa) = 0.04411702
#
# Stress axis : x y z
#
# Youngs Moduli (GPa) = 80.64599 22.40218 66.63708
#
# Poissons Ratio (x) = 0.00365 0.23889
# Poissons Ratio (y) = 0.01314 0.68078
# Poissons Ratio (z) = 0.28911 0.22887
#
# Static dielectric constant tensor:
#      x y z
#    x 1.665520 0.000000 0.003790 
#    y 0.000000 1.685450 0.000000 
#    z 0.003790 0.000000 1.689000 
# 
# From -- ./inp_files/54566.got.cif
#   From: 2010.05.17/outbox.cif.g08.bks.cpg/sg5_28_cif.got.tgz:54566.got - 2010.06.03 18:56:24.
