data_PCOD9125387
_publ_section_title
;
Structure prediction by ZEFSAII (Michael W. Deem and Ramdas Pophale) SiO2 
 PCOD9125387
Probable space group: C 2
;
_chemical_formula_sum "Si O2"
_cell_formula_units_Z 20
_cell_length_a 7.858435
_cell_length_b 25.537953
_cell_length_c 8.873039
_cell_angle_alpha 90.000000
_cell_angle_beta 146.020051
_cell_angle_gamma 90.000000
_cell_volume 995.246777
_symmetry_space_group_name_H-M "C 2"
_symmetry_group_IT_number 5
_symmetry_cell_setting 'monoclinic'
loop_
_space_group_symop_operation_xyz
x,y,z
-x,y,-z
1/2+x,1/2+y,z
1/2-x,1/2+y,-z
loop_
_atom_site_type_symbol
_atom_site_label
_atom_site_fract_x
_atom_site_fract_y
_atom_site_fract_z
Si Si1 0.195000 0.454150 0.989121
Si Si2 0.206956 0.515811 0.517450
Si Si3 0.351062 0.348310 0.234812
Si Si4 0.360795 0.263292 0.747073
Si Si5 0.000000 0.092646 0.500000
Si Si6 0.500000 0.163701 0.000000
O O1 0.469149 0.495219 0.187371
O O2 0.332879 0.396144 0.103534
O O3 0.000000 0.460633 0.000000
O O4 0.974077 0.467009 0.689289
O O5 0.277953 0.556671 0.436883
O O6 0.000000 0.537225 0.500000
O O7 0.500000 0.368115 0.500000
O O8 0.543658 0.299141 0.320131
O O9 0.000000 0.332399 0.000000
O O10 0.502751 0.204828 0.862071
O O11 0.000000 0.258580 0.500000
O O12 0.500000 0.289411 0.000000
O O13 0.206024 0.128182 0.760342
#
# Coordination Sequence:
#
# PCOD9125387 Si02
#       6
#     4   4   4   4   2   2
#     4  11  21  42  61  92 135 181 210 260 327 393
#     4  12  25  41  66  98 129 171 223 271 322 391
#     4  11  23  38  64  96 135 174 212 257 329 384
#     4  10  21  41  64  91 125 164 223 265 311 392
#     4  12  22  44  70  90 132 180 206 290 330 374
#     4  10  22  42  70  88 122 178 222 258 346 378
#
# _framework density 20.095518999999999
#
# number of rings (size 3 to 8) (size 9 to 14) (size 15 to 20)
#    0.600    0.400    3.000    5.400    0.000    2.400 
#    0.000    3.000    0.000    0.000    0.000    0.000 
#    0.000    0.000    0.000    0.000    0.000    0.000 
#
# Total GULP energy -55813.801347 kJ/mol
# GULP energy per Si atom -5581.380135 kJ/mol
# Density = 2.004978 g / cm^3
# Si number density = 20.095519 Si / 1000 Ang^3
#
#
#
# Elastic Constant Matrix: (Units=GPa)
#
#
# Indices 1 2 3 4 5 6 
#
# 1 84.1838 38.3142 13.6273 0.0000 10.3685 0.0000
# 2 38.3142 99.7294 19.2461 0.0000 7.8216 0.0000
# 3 13.6273 19.2461 106.7442 0.0000 15.9508 0.0000
# 4 0.0000 0.0000 0.0000 659.8060 0.0000 84.2647
# 5 10.3685 7.8216 15.9508 0.0000 28.4092 0.0000
# 6 0.0000 0.0000 0.0000 84.2647 0.0000 24.7782
#
#
#
# Elastic Compliance Matrix: (Units=1/GPa)
#
#
# Indices 1 2 3 4 5 6 
#
# 1 0.014825 -0.005331 -0.000374 0.000000 -0.003733 0.000000
# 2 -0.005331 0.012408 -0.001459 0.000000 -0.000651 0.000000
# 3 -0.000374 -0.001459 0.010478 0.000000 -0.005345 0.000000
# 4 0.000000 0.000000 0.000000 0.002679 0.000000 -0.009111
# 5 -0.003733 -0.000651 -0.005345 0.000000 0.039743 0.000000
# 6 0.000000 0.000000 0.000000 -0.009111 0.000000 0.071344
#
#
# Mechanical properties :
#
#
# Convention : Reuss Voigt Hill
#
# Bulk Modulus (GPa) = 42.76527 48.11473 45.44000
# Shear Modulus (GPa) = 28.80216 157.23000 93.01608
#
# Velocity S-wave (km/s) = 3.78995 8.85501 6.81083
# Velocity P-wave (km/s) = 6.36230 11.33769 9.19299
#
# Compressibility (1/GPa) = 0.02338346
#
# Stress axis : x y z
#
# Youngs Moduli (GPa) = 67.45275 80.59470 95.44115
#
# Poissons Ratio (x) = 0.42962 0.03566
# Poissons Ratio (y) = 0.35957 0.13928
# Poissons Ratio (z) = 0.02520 0.11761
#
# Static dielectric constant tensor:
#      x y z
#    x 0.459160 0.000000 0.290220 
#    y 0.000000 1.720350 0.000000 
#    z 0.290220 0.000000 1.631880 
# 
# From -- ./inp_files/17594.got.cif
#   From: 2010.05.17/outbox.cif.g08.bks.cpg/sg5_9_cif.got.tgz:17594.got - 2010.06.03 18:56:24.
