data_PCOD9125651
_publ_section_title
;
Structure prediction by ZEFSAII (Michael W. Deem and Ramdas Pophale) SiO2 
 PCOD9125651
Probable space group: C 2
;
_chemical_formula_sum "Si O2"
_cell_formula_units_Z 20
_cell_length_a 13.390192
_cell_length_b 7.832987
_cell_length_c 9.345728
_cell_angle_alpha 90.000000
_cell_angle_beta 103.358622
_cell_angle_gamma 90.000000
_cell_volume 953.706494
_symmetry_space_group_name_H-M "C 2"
_symmetry_group_IT_number 5
_symmetry_cell_setting 'monoclinic'
loop_
_space_group_symop_operation_xyz
x,y,z
-x,y,-z
1/2+x,1/2+y,z
1/2-x,1/2+y,-z
loop_
_atom_site_type_symbol
_atom_site_label
_atom_site_fract_x
_atom_site_fract_y
_atom_site_fract_z
Si Si1 0.766820 0.786200 0.147766
Si Si2 0.001655 0.457847 0.331176
Si Si3 0.886769 0.549778 0.028607
Si Si4 0.068389 0.142616 0.166239
Si Si5 0.481210 0.349734 0.335590
O O1 0.833330 0.730654 0.032705
O O2 0.687825 0.636240 0.163477
O O3 0.857819 0.829222 0.285524
O O4 0.690585 0.938473 0.087768
O O5 0.901716 0.468853 0.193083
O O6 0.031679 0.660275 0.335110
O O7 0.000000 0.420490 0.500000
O O8 0.060876 0.304520 0.272310
O O9 0.000000 0.562449 0.000000
O O10 0.023858 0.978501 0.231796
O O11 0.000000 0.173137 0.000000
O O12 0.500000 0.417090 0.500000
#
# Coordination Sequence:
#
# PCOD9125651 Si02
#       5
#     4   4   4   4   4
#     4  11  23  40  69  98 126 180 226 263 347 394
#     4  10  21  42  69  94 142 175 212 286 331 387
#     4  11  22  42  65  95 136 167 227 281 320 403
#     4  12  22  44  70 100 135 175 230 279 328 405
#     4  10  25  46  64  99 141 174 227 282 330 401
#
# _framework density 20.970811999999999
#
# number of rings (size 3 to 8) (size 9 to 14) (size 15 to 20)
#    0.000    1.200    4.000    1.800    0.000    7.200 
#   10.800    0.000    0.000    0.000    0.000    0.000 
#    0.000    0.000    0.000    0.000    0.000    0.000 
#
# Total GULP energy -55697.511870 kJ/mol
# GULP energy per Si atom -5569.751187 kJ/mol
# Density = 2.092308 g / cm^3
# Si number density = 20.970812 Si / 1000 Ang^3
#
#
#
# Elastic Constant Matrix: (Units=GPa)
#
#
# Indices 1 2 3 4 5 6 
#
# 1 163.4084 37.8391 51.4550 0.0000 -0.1813 0.0000
# 2 37.8391 79.2744 47.2910 0.0000 -15.3926 0.0000
# 3 51.4550 47.2910 148.9952 0.0000 2.2244 0.0000
# 4 0.0000 0.0000 0.0000 44.9758 0.0000 -10.6597
# 5 -0.1813 -15.3926 2.2244 0.0000 16.8664 0.0000
# 6 0.0000 0.0000 0.0000 -10.6597 0.0000 22.8410
#
#
#
# Elastic Compliance Matrix: (Units=1/GPa)
#
#
# Indices 1 2 3 4 5 6 
#
# 1 0.007304 -0.003079 -0.001507 0.000000 -0.002533 0.000000
# 2 -0.003079 0.021761 -0.006152 0.000000 0.020638 0.000000
# 3 -0.001507 -0.006152 0.009287 0.000000 -0.006855 0.000000
# 4 0.000000 0.000000 0.000000 0.024999 0.000000 0.011667
# 5 -0.002533 0.020638 -0.006855 0.000000 0.079001 0.000000
# 6 0.000000 0.000000 0.000000 0.011667 0.000000 0.049226
#
#
# Mechanical properties :
#
#
# Convention : Reuss Voigt Hill
#
# Bulk Modulus (GPa) = 59.25492 73.87200 66.56346
# Shear Modulus (GPa) = 22.86433 33.94283 28.40358
#
# Velocity S-wave (km/s) = 3.30554 4.02752 3.68426
# Velocity P-wave (km/s) = 6.54874 7.54523 7.06458
#
# Compressibility (1/GPa) = 0.01687624
#
# Stress axis : x y z
#
# Youngs Moduli (GPa) = 136.90192 45.95339 107.67570
#
# Poissons Ratio (x) = 0.14149 0.16232
# Poissons Ratio (y) = 0.42153 0.66240
# Poissons Ratio (z) = 0.20638 0.28269
#
# Static dielectric constant tensor:
#      x y z
#    x 1.743020 0.000000 -0.031150 
#    y 0.000000 1.841980 0.000000 
#    z -0.031150 0.000000 1.806640 
# 
# From -- ./inp_files/18258.got.cif
#   From: 2010.05.17/outbox.cif.g08.bks.cpg/sg5_10_cif.got.tgz:18258.got - 2010.06.03 18:56:24.
