data_PCOD9125936
_publ_section_title
;
Structure prediction by ZEFSAII (Michael W. Deem and Ramdas Pophale) SiO2 
 PCOD9125936
Probable space group: C 2
;
_chemical_formula_sum "Si O2"
_cell_formula_units_Z 28
_cell_length_a 22.015665
_cell_length_b 6.234043
_cell_length_c 11.883244
_cell_angle_alpha 90.000000
_cell_angle_beta 76.798978
_cell_angle_gamma 90.000000
_cell_volume 1587.837131
_symmetry_space_group_name_H-M "C 2"
_symmetry_group_IT_number 5
_symmetry_cell_setting 'monoclinic'
loop_
_space_group_symop_operation_xyz
x,y,z
-x,y,-z
1/2+x,1/2+y,z
1/2-x,1/2+y,-z
loop_
_atom_site_type_symbol
_atom_site_label
_atom_site_fract_x
_atom_site_fract_y
_atom_site_fract_z
Si Si1 0.401091 0.819550 0.669529
Si Si2 0.500000 0.526623 0.500000
Si Si3 0.553331 0.724429 0.110792
Si Si4 0.333548 0.917505 0.364767
Si Si5 0.000000 0.837936 0.000000
Si Si6 0.196313 0.084241 0.439349
Si Si7 0.602851 0.203309 0.483285
Si Si8 0.573717 0.951328 0.871591
O O1 0.457199 0.676871 0.594341
O O2 0.404339 0.768623 0.799623
O O3 0.337448 0.736828 0.637706
O O4 0.410574 0.063825 0.623185
O O5 0.547767 0.364814 0.539849
O O6 0.536027 0.486473 0.075303
O O7 0.486063 0.836322 0.160608
O O8 0.581291 0.837971 0.988843
O O9 0.317948 0.692496 0.433187
O O10 0.366468 0.917907 0.230717
O O11 0.269421 0.051219 0.391416
O O12 0.382750 0.034336 0.425934
O O13 0.950667 0.688928 0.087381
O O14 0.162577 0.855416 0.442628
#
# Coordination Sequence:
#
# PCOD9125936 Si02
#       8
#     4   2   4   4   2   4   4   4
#     4  10  22  36  56  82 124 148 196 242 293 353
#     4  10  22  32  54  94 110 154 186 230 316 354
#     4   9  20  38  55  85 121 144 196 245 284 359
#     4  11  21  38  59  83 119 150 206 242 285 358
#     4   8  18  38  56  92 108 160 186 232 310 338
#     4  10  22  38  56  84 112 162 193 242 293 342
#     4  10  22  35  56  86 117 153 185 243 300 350
#     4   9  21  33  60  85 114 153 194 242 293 339
#
# _framework density 17.634052000000001
#
# number of rings (size 3 to 8) (size 9 to 14) (size 15 to 20)
#    0.000    2.571    1.429    0.429   10.000    4.571 
#    0.000    0.000    6.286    0.000    0.000    0.000 
#    0.000    0.000    0.000    0.000    0.000    0.000 
#
# Total GULP energy -78008.323146 kJ/mol
# GULP energy per Si atom -5572.023082 kJ/mol
# Density = 1.759392 g / cm^3
# Si number density = 17.634052 Si / 1000 Ang^3
#
#
#
# Elastic Constant Matrix: (Units=GPa)
#
#
# Indices 1 2 3 4 5 6 
#
# 1 75.8907 27.8902 52.6395 0.0000 -10.4777 0.0000
# 2 27.8902 99.2338 43.0510 0.0000 -7.6989 0.0000
# 3 52.6395 43.0510 102.2969 0.0000 -8.0693 0.0000
# 4 0.0000 0.0000 0.0000 5.5360 0.0000 0.8736
# 5 -10.4777 -7.6989 -8.0693 0.0000 32.1184 0.0000
# 6 0.0000 0.0000 0.0000 0.8736 0.0000 22.2957
#
#
#
# Elastic Compliance Matrix: (Units=1/GPa)
#
#
# Indices 1 2 3 4 5 6 
#
# 1 0.021169 -0.001281 -0.010033 0.000000 0.004078 0.000000
# 2 -0.001281 0.012496 -0.004485 0.000000 0.001451 0.000000
# 3 -0.010033 -0.004485 0.016816 0.000000 -0.000123 0.000000
# 4 0.000000 0.000000 0.000000 0.181759 0.000000 -0.007122
# 5 0.004078 0.001451 -0.000123 0.000000 0.032782 0.000000
# 6 0.000000 0.000000 0.000000 -0.007122 0.000000 0.045131
#
#
# Mechanical properties :
#
#
# Convention : Reuss Voigt Hill
#
# Bulk Modulus (GPa) = 52.95585 58.28697 55.62141
# Shear Modulus (GPa) = 14.36601 22.24608 18.30604
#
# Velocity S-wave (km/s) = 2.85735 3.55567 3.22546
# Velocity P-wave (km/s) = 6.40168 7.06983 6.74403
#
# Compressibility (1/GPa) = 0.01888365
#
# Stress axis : x y z
#
# Youngs Moduli (GPa) = 47.23793 80.02847 59.46798
#
# Poissons Ratio (x) = 0.10251 0.59661
# Poissons Ratio (y) = 0.06051 0.26672
# Poissons Ratio (z) = 0.47391 0.35894
#
# Static dielectric constant tensor:
#      x y z
#    x 1.613000 0.000000 0.015370 
#    y 0.000000 1.642910 0.000000 
#    z 0.015370 0.000000 1.598220 
# 
# From -- ./inp_files/46800.got.cif
#   From: 2010.05.17/outbox.cif.g08.bks.cpg/sg5_24_cif.got.tgz:46800.got - 2010.06.03 18:56:24.
