data_PCOD9125339
_publ_section_title
;
Structure prediction by ZEFSAII (Michael W. Deem and Ramdas Pophale) SiO2 
 PCOD9125339
Probable space group: C 2
;
_chemical_formula_sum "Si O2"
_cell_formula_units_Z 32
_cell_length_a 14.733772
_cell_length_b 23.691733
_cell_length_c 8.858371
_cell_angle_alpha 90.000000
_cell_angle_beta 149.322388
_cell_angle_gamma 90.000000
_cell_volume 1577.651100
_symmetry_space_group_name_H-M "C 2"
_symmetry_group_IT_number 5
_symmetry_cell_setting 'monoclinic'
loop_
_space_group_symop_operation_xyz
x,y,z
-x,y,-z
1/2+x,1/2+y,z
1/2-x,1/2+y,-z
loop_
_atom_site_type_symbol
_atom_site_label
_atom_site_fract_x
_atom_site_fract_y
_atom_site_fract_z
Si Si1 0.978754 0.976770 0.294443
Si Si2 0.807953 0.904277 0.808251
Si Si3 0.040763 0.596814 0.895244
Si Si4 0.136651 0.699583 0.822780
Si Si5 0.926143 0.095541 0.542218
Si Si6 0.357474 0.979258 0.668149
Si Si7 0.188127 0.276866 0.682839
Si Si8 0.982261 0.197933 0.798873
O O1 0.165801 0.974682 0.473675
O O2 0.000000 0.961296 0.500000
O O3 0.942916 0.044063 0.236667
O O4 0.839281 0.937956 0.008779
O O5 0.661848 0.937280 0.499973
O O6 0.756714 0.839570 0.754807
O O7 0.000000 0.906298 0.000000
O O8 0.060757 0.641862 0.790107
O O9 0.911932 0.542774 0.692384
O O10 0.238001 0.572945 0.213386
O O11 0.000000 0.625328 0.000000
O O12 0.000000 0.720136 0.500000
O O13 0.176860 0.741677 0.018720
O O14 0.324108 0.693911 0.002979
O O15 0.000000 0.128567 0.500000
O O16 0.902193 0.136345 0.647890
O O17 0.500000 0.963283 0.000000
O O18 0.000000 0.280029 0.500000
O O19 0.141282 0.242939 0.463325
O O20 0.000000 0.209170 0.000000
#
# Coordination Sequence:
#
# PCOD9125339 Si02
#       8
#     4   4   4   4   4   4   4   4
#     4  10  22  39  63  90 127 168 208 256 313 372
#     4  10  24  43  67  92 121 169 216 258 311 377
#     4  11  21  39  64  94 134 168 202 259 320 374
#     4  11  25  41  64  97 128 164 212 264 315 381
#     4  11  19  40  65  90 132 170 203 256 319 379
#     4  10  21  41  60  91 129 165 207 259 311 373
#     4  10  23  48  65  87 130 166 210 265 317 369
#     4  11  24  41  67  94 125 171 212 257 321 380
#
# _framework density 20.283318999999999
#
# number of rings (size 3 to 8) (size 9 to 14) (size 15 to 20)
#    0.000    1.500    5.000    0.375    1.750    6.000 
#    0.000    5.000    0.000    0.000    0.000    0.000 
#    0.000    0.000    0.000    0.000    0.000    0.000 
#
# Total GULP energy -89246.199411 kJ/mol
# GULP energy per Si atom -5577.887463 kJ/mol
# Density = 2.023715 g / cm^3
# Si number density = 20.283319 Si / 1000 Ang^3
#
#
#
# Elastic Constant Matrix: (Units=GPa)
#
#
# Indices 1 2 3 4 5 6 
#
# 1 85.4332 59.1075 44.2253 0.0000 -31.3665 0.0000
# 2 59.1075 136.5013 83.1063 0.0000 -34.9963 0.0000
# 3 44.2253 83.1063 129.4703 0.0000 -34.9358 0.0000
# 4 0.0000 0.0000 0.0000 23.0988 0.0000 4.5116
# 5 -31.3665 -34.9963 -34.9358 0.0000 43.2124 0.0000
# 6 0.0000 0.0000 0.0000 4.5116 0.0000 26.3165
#
#
#
# Elastic Compliance Matrix: (Units=1/GPa)
#
#
# Indices 1 2 3 4 5 6 
#
# 1 0.019187 -0.005743 -0.000466 0.000000 0.008899 0.000000
# 2 -0.005743 0.014461 -0.006760 0.000000 0.002078 0.000000
# 3 -0.000466 -0.006760 0.013626 0.000000 0.005203 0.000000
# 4 0.000000 0.000000 0.000000 0.044792 0.000000 -0.007679
# 5 0.008899 0.002078 0.005203 0.000000 0.035490 0.000000
# 6 0.000000 0.000000 0.000000 -0.007679 0.000000 0.039315
#
#
# Mechanical properties :
#
#
# Convention : Reuss Voigt Hill
#
# Bulk Modulus (GPa) = 46.86967 80.47590 63.67278
# Shear Modulus (GPa) = 25.00957 29.52325 27.26641
#
# Velocity S-wave (km/s) = 3.51524 3.81930 3.67042
# Velocity P-wave (km/s) = 6.29551 7.69490 7.03011
#
# Compressibility (1/GPa) = 0.02133576
#
# Stress axis : x y z
#
# Youngs Moduli (GPa) = 52.11867 69.15051 73.38656
#
# Poissons Ratio (x) = 0.39711 0.03423
# Poissons Ratio (y) = 0.29930 0.49611
# Poissons Ratio (z) = 0.02431 0.46748
#
# Static dielectric constant tensor:
#      x y z
#    x 1.807320 0.000000 0.031920 
#    y 0.000000 1.731230 0.000000 
#    z 0.031920 0.000000 1.740490 
# 
# From -- ./inp_files/25617.got.cif
#   From: 2010.05.17/outbox.cif.g08.bks.cpg/sg5_13_cif.got.tgz:25617.got - 2010.06.03 18:56:24.
