data_PCOD9125267
_publ_section_title
;
Structure prediction by ZEFSAII (Michael W. Deem and Ramdas Pophale) SiO2 
 PCOD9125267
Probable space group: C 2
;
_chemical_formula_sum "Si O2"
_cell_formula_units_Z 28
_cell_length_a 9.550068
_cell_length_b 19.993810
_cell_length_c 15.460241
_cell_angle_alpha 90.000000
_cell_angle_beta 151.862009
_cell_angle_gamma 90.000000
_cell_volume 1392.159612
_symmetry_space_group_name_H-M "C 2"
_symmetry_group_IT_number 5
_symmetry_cell_setting 'monoclinic'
loop_
_space_group_symop_operation_xyz
x,y,z
-x,y,-z
1/2+x,1/2+y,z
1/2-x,1/2+y,-z
loop_
_atom_site_type_symbol
_atom_site_label
_atom_site_fract_x
_atom_site_fract_y
_atom_site_fract_z
Si Si1 0.328794 0.105000 0.034418
Si Si2 0.266688 0.358954 0.708544
Si Si3 0.304175 0.232160 0.815925
Si Si4 0.831805 0.447303 0.994753
Si Si5 0.649503 0.939375 0.805808
Si Si6 0.186197 0.158164 0.370591
Si Si7 0.800948 0.570546 0.603751
O O1 0.573491 0.157366 0.133522
O O2 0.427875 0.101551 0.189891
O O3 0.027485 0.131867 0.824366
O O4 0.343683 0.027856 0.011776
O O5 0.351999 0.281037 0.761722
O O6 0.512968 0.412569 0.816876
O O7 0.159154 0.378669 0.745669
O O8 0.000000 0.366323 0.500000
O O9 0.974280 0.220704 0.670711
O O10 0.500000 0.260614 0.000000
O O11 0.949110 0.421485 0.151076
O O12 0.000000 0.428810 0.000000
O O13 0.428057 0.996843 0.653768
O O14 0.000000 0.963276 0.000000
O O15 0.500000 0.174033 0.500000
O O16 0.234434 0.106256 0.476553
O O17 0.500000 0.569816 0.500000
#
# Coordination Sequence:
#
# PCOD9125267 Si02
#       7
#     4   4   4   4   4   4   4
#     4  10  23  41  68  98 136 178 215 281 335 396
#     4  11  25  40  68  93 131 184 223 273 332 413
#     4  10  21  45  66  89 129 181 221 267 339 398
#     4  10  21  40  66  97 131 169 224 272 337 398
#     4   9  22  40  58  93 130 177 215 277 332 389
#     4  11  25  38  65  98 131 172 222 282 330 402
#     4  11  23  37  64  93 136 173 223 273 337 403
#
# _framework density 20.112635000000001
#
# number of rings (size 3 to 8) (size 9 to 14) (size 15 to 20)
#    0.000    1.714    1.429    2.571   12.000    0.000 
#    0.000    5.000    0.000    0.000    0.000    0.000 
#    0.000    0.000    0.000    0.000    0.000    0.000 
#
# Total GULP energy -77967.654332 kJ/mol
# GULP energy per Si atom -5569.118167 kJ/mol
# Density = 2.006686 g / cm^3
# Si number density = 20.112635 Si / 1000 Ang^3
#
#
#
# Elastic Constant Matrix: (Units=GPa)
#
#
# Indices 1 2 3 4 5 6 
#
# 1 92.4316 39.2215 34.8453 -0.0013 5.2398 0.0019
# 2 39.2215 78.7098 45.4983 0.0202 1.9119 0.0199
# 3 34.8453 45.4983 114.6223 -0.0221 -5.5302 -0.0050
# 4 -0.0013 0.0202 -0.0221 3.5331 0.0114 -11.3638
# 5 5.2398 1.9119 -5.5302 0.0114 23.0595 0.0108
# 6 0.0019 0.0199 -0.0050 -11.3638 0.0108 10.6941
#
#
#
# Elastic Compliance Matrix: (Units=1/GPa)
#
#
# Indices 1 2 3 4 5 6 
#
# 1 0.014284 -0.005756 -0.002217 -0.000028 -0.003300 -0.000020
# 2 -0.005756 0.019011 -0.005877 0.000106 -0.001678 0.000077
# 3 -0.002217 -0.005877 0.011917 -0.000057 0.003849 -0.000047
# 4 -0.000028 0.000106 -0.000057 -0.117063 0.000100 -0.124394
# 5 -0.003300 -0.001678 0.003849 0.000100 0.045178 0.000066
# 6 -0.000020 0.000077 -0.000047 -0.124394 0.000066 -0.038675
#
#
# Mechanical properties :
#
#
# Convention : Reuss Voigt Hill
#
# Bulk Modulus (GPa) = 57.10512 58.32154 57.71333
# Shear Modulus (GPa) = -157.18429 18.53726 -69.32351
#
# Velocity S-wave (km/s) = -8.84995 3.03920 -5.87728
# Velocity P-wave (km/s) = 8.71634 6.43242 4.15924
#
# Compressibility (1/GPa) = 0.01751156
#
# Stress axis : x y z
#
# Youngs Moduli (GPa) = 70.00779 52.59975 83.91466
#
# Poissons Ratio (x) = 0.30278 0.18601
# Poissons Ratio (y) = 0.40299 0.49320
# Poissons Ratio (z) = 0.15519 0.30915
#
# Static dielectric constant tensor:
#      x y z
#    x 1.745310 -0.000010 -0.021960 
#    y -0.000010 1.734390 0.000010 
#    z -0.021960 0.000010 1.770070 
# 
# From -- ./inp_files/25492.got.cif
#   From: 2010.05.17/outbox.cif.g08.bks.cpg/sg5_13_cif.got.tgz:25492.got - 2010.06.03 18:56:24.
