data_PCOD9125279
_publ_section_title
;
Structure prediction by ZEFSAII (Michael W. Deem and Ramdas Pophale) SiO2 
 PCOD9125279
Probable space group: C 2
;
_chemical_formula_sum "Si O2"
_cell_formula_units_Z 28
_cell_length_a 18.771987
_cell_length_b 9.549053
_cell_length_c 13.923465
_cell_angle_alpha 90.000000
_cell_angle_beta 31.737745
_cell_angle_gamma 90.000000
_cell_volume 1312.895213
_symmetry_space_group_name_H-M "C 2"
_symmetry_group_IT_number 5
_symmetry_cell_setting 'monoclinic'
loop_
_space_group_symop_operation_xyz
x,y,z
-x,y,-z
1/2+x,1/2+y,z
1/2-x,1/2+y,-z
loop_
_atom_site_type_symbol
_atom_site_label
_atom_site_fract_x
_atom_site_fract_y
_atom_site_fract_z
Si Si1 0.634339 0.097430 0.554692
Si Si2 0.153604 0.199013 0.208277
Si Si3 0.153994 0.689060 0.319916
Si Si4 0.340976 0.001338 0.878336
Si Si5 0.258982 0.349060 0.487540
Si Si6 0.345086 0.900725 0.196023
Si Si7 0.662254 0.676312 0.417967
O O1 0.657136 0.099748 0.414849
O O2 0.496522 0.015607 0.732616
O O3 0.617049 0.254835 0.615896
O O4 0.755564 0.013793 0.468024
O O5 0.186036 0.339659 0.112337
O O6 0.175143 0.234579 0.295371
O O7 0.996596 0.155600 0.379472
O O8 0.245141 0.072795 0.065954
O O9 0.169471 0.593840 0.208051
O O10 0.272520 0.801816 0.200572
O O11 0.000000 0.751708 0.500000
O O12 0.161893 0.327541 0.691094
O O13 0.215846 0.279834 0.437589
O O14 0.249204 0.035018 0.316365
O O15 0.500000 0.936337 0.000000
#
# Coordination Sequence:
#
# PCOD9125279 Si02
#       7
#     4   4   4   4   4   4   4
#     4  10  21  40  67  97 132 180 221 271 347 408
#     4  11  27  42  70 101 136 180 232 288 339 402
#     4   9  22  41  70  99 136 178 230 281 341 407
#     4  11  24  44  70 101 136 176 232 291 336 401
#     4  11  21  42  67  93 133 180 218 271 344 414
#     4  11  26  42  70 103 136 179 227 290 344 410
#     4  11  25  43  68  97 139 181 226 276 349 408
#
# _framework density 21.326912
#
# number of rings (size 3 to 8) (size 9 to 14) (size 15 to 20)
#    0.000    1.429    2.857    0.857   12.000    2.286 
#    0.000    0.000    0.000    3.429    0.000    0.000 
#    0.000    0.000    0.000    0.000    0.000    0.000 
#
# Total GULP energy -78135.430117 kJ/mol
# GULP energy per Si atom -5581.102151 kJ/mol
# Density = 2.127837 g / cm^3
# Si number density = 21.326912 Si / 1000 Ang^3
#
#
#
# Elastic Constant Matrix: (Units=GPa)
#
#
# Indices 1 2 3 4 5 6 
#
# 1 75.4470 17.4071 12.5316 0.0000 6.0075 0.0000
# 2 17.4071 98.7622 34.4421 0.0000 -12.0476 0.0000
# 3 12.5316 34.4421 54.5720 0.0000 10.2983 0.0000
# 4 0.0000 0.0000 0.0000 30.4935 0.0000 0.8296
# 5 6.0075 -12.0476 10.2983 0.0000 15.1046 0.0000
# 6 0.0000 0.0000 0.0000 0.8296 0.0000 42.6890
#
#
#
# Elastic Compliance Matrix: (Units=1/GPa)
#
#
# Indices 1 2 3 4 5 6 
#
# 1 0.014847 -0.004269 0.001196 0.000000 -0.010125 0.000000
# 2 -0.004269 0.020879 -0.017972 0.000000 0.030605 0.000000
# 3 0.001196 -0.017972 0.036941 0.000000 -0.039997 0.000000
# 4 0.000000 0.000000 0.000000 0.032811 0.000000 -0.000638
# 5 -0.010125 0.030605 -0.039997 0.000000 0.121912 0.000000
# 6 0.000000 0.000000 0.000000 -0.000638 0.000000 0.023438
#
#
# Mechanical properties :
#
#
# Convention : Reuss Voigt Hill
#
# Bulk Modulus (GPa) = 32.70656 39.72700 36.21678
# Shear Modulus (GPa) = 16.49564 28.61745 22.55654
#
# Velocity S-wave (km/s) = 2.78414 3.66710 3.25569
# Velocity P-wave (km/s) = 5.06995 6.04965 5.58133
#
# Compressibility (1/GPa) = 0.03057491
#
# Stress axis : x y z
#
# Youngs Moduli (GPa) = 67.35421 47.89566 27.07045
#
# Poissons Ratio (x) = 0.20446 -0.03236
# Poissons Ratio (y) = 0.28753 0.48652
# Poissons Ratio (z) = -0.08053 0.86080
#
# Static dielectric constant tensor:
#      x y z
#    x 1.808400 0.000000 0.004560 
#    y 0.000000 1.800880 0.000000 
#    z 0.004560 0.000000 1.749210 
# 
# From -- ./inp_files/56871.got.cif
#   From: 2010.05.17/outbox.cif.g08.bks.cpg/sg5_29_cif.got.tgz:56871.got - 2010.06.03 18:56:24.
