data_PCOD9125709
_publ_section_title
;
Structure prediction by ZEFSAII (Michael W. Deem and Ramdas Pophale) SiO2 
 PCOD9125709
Probable space group: C 2
;
_chemical_formula_sum "Si O2"
_cell_formula_units_Z 22
_cell_length_a 25.279424
_cell_length_b 6.788380
_cell_length_c 5.483774
_cell_angle_alpha 90.000000
_cell_angle_beta 112.173587
_cell_angle_gamma 90.000000
_cell_volume 871.454674
_symmetry_space_group_name_H-M "C 2"
_symmetry_group_IT_number 5
_symmetry_cell_setting 'monoclinic'
loop_
_space_group_symop_operation_xyz
x,y,z
-x,y,-z
1/2+x,1/2+y,z
1/2-x,1/2+y,-z
loop_
_atom_site_type_symbol
_atom_site_label
_atom_site_fract_x
_atom_site_fract_y
_atom_site_fract_z
Si Si1 0.838270 0.811370 0.913016
Si Si2 0.970079 0.715785 0.200841
Si Si3 0.620617 0.720808 0.552499
Si Si4 0.301156 0.330778 0.347756
Si Si5 0.827914 0.281618 0.857346
Si Si6 0.000000 0.325893 0.500000
O O1 0.823675 0.721270 0.625854
O O2 0.821709 0.041921 0.856565
O O3 0.905081 0.784564 0.077210
O O4 0.804467 0.733210 0.087981
O O5 0.000000 0.793960 0.500000
O O6 0.976856 0.479925 0.255022
O O7 0.000000 0.772499 0.000000
O O8 0.655735 0.516137 0.604383
O O9 0.632966 0.816162 0.311490
O O10 0.553303 0.707653 0.485420
O O11 0.645156 0.831623 0.833575
O O12 0.234984 0.368257 0.281615
#
# Coordination Sequence:
#
# PCOD9125709 Si02
#       6
#     4   4   4   4   4   2
#     4  10  21  43  63  99 131 183 222 278 347 401
#     4  10  23  43  65  95 135 184 230 282 333 404
#     4  10  23  43  68 100 135 186 222 284 347 402
#     4  10  21  43  67 101 134 176 227 286 341 413
#     4  10  22  43  66 101 136 173 232 280 347 408
#     4  10  26  46  68 100 146 176 240 280 338 422
#
# _framework density 25.245145000000001
#
# number of rings (size 3 to 8) (size 9 to 14) (size 15 to 20)
#    0.545    1.455    0.000    2.182    2.545    0.000 
#   39.273    0.000    0.000    0.000    0.000    0.000 
#    0.000    0.000    0.000    0.000    0.000    0.000 
#
# Total GULP energy -61490.871722 kJ/mol
# GULP energy per Si atom -5590.079247 kJ/mol
# Density = 2.518769 g / cm^3
# Si number density = 25.245145 Si / 1000 Ang^3
#
#
#
# Elastic Constant Matrix: (Units=GPa)
#
#
# Indices 1 2 3 4 5 6 
#
# 1 244.2748 40.5242 94.6744 0.0000 -5.1860 0.0000
# 2 40.5242 114.9746 4.4850 0.0000 9.5190 0.0000
# 3 94.6744 4.4850 229.0207 0.0000 -35.3884 0.0000
# 4 0.0000 0.0000 0.0000 -13.3006 0.0000 5.7041
# 5 -5.1860 9.5190 -35.3884 0.0000 61.0681 0.0000
# 6 0.0000 0.0000 0.0000 5.7041 0.0000 13.4945
#
#
#
# Elastic Compliance Matrix: (Units=1/GPa)
#
#
# Indices 1 2 3 4 5 6 
#
# 1 0.005223 -0.001707 -0.002214 0.000000 -0.000574 0.000000
# 2 -0.001707 0.009407 0.000299 0.000000 -0.001438 0.000000
# 3 -0.002214 0.000299 0.005755 0.000000 0.003100 0.000000
# 4 0.000000 0.000000 0.000000 -0.063647 0.000000 0.026903
# 5 -0.000574 -0.001438 0.003100 0.000000 0.018347 0.000000
# 6 0.000000 0.000000 0.000000 0.026903 0.000000 0.062732
#
#
# Mechanical properties :
#
#
# Convention : Reuss Voigt Hill
#
# Bulk Modulus (GPa) = 76.10100 96.40418 86.25259
# Shear Modulus (GPa) = 101.12936 42.15816 71.64376
#
# Velocity S-wave (km/s) = 6.33608 4.09094 5.33299
# Velocity P-wave (km/s) = 9.15085 7.78360 8.49478
#
# Compressibility (1/GPa) = 0.01314043
#
# Stress axis : x y z
#
# Youngs Moduli (GPa) = 191.46189 106.30833 173.76255
#
# Poissons Ratio (x) = 0.18147 0.38476
# Poissons Ratio (y) = 0.32683 -0.05200
# Poissons Ratio (z) = 0.42396 -0.03182
#
# Static dielectric constant tensor:
#      x y z
#    x 1.936490 0.000000 -0.033180 
#    y 0.000000 2.137740 0.000000 
#    z -0.033180 0.000000 2.050210 
# 
# From -- ./inp_files/10104.got.cif
#   From: 2010.05.17/outbox.cif.g08.bks.cpg/sg5_6_cif.got.tgz:10104.got - 2010.06.03 18:56:24.
