data_PCOD9125957
_publ_section_title
;
Structure prediction by ZEFSAII (Michael W. Deem and Ramdas Pophale) SiO2 
 PCOD9125957
Probable space group: C 2
;
_chemical_formula_sum "Si O2"
_cell_formula_units_Z 28
_cell_length_a 5.052860
_cell_length_b 24.587029
_cell_length_c 15.306084
_cell_angle_alpha 90.000000
_cell_angle_beta 58.077623
_cell_angle_gamma 90.000000
_cell_volume 1613.968286
_symmetry_space_group_name_H-M "C 2"
_symmetry_group_IT_number 5
_symmetry_cell_setting 'monoclinic'
loop_
_space_group_symop_operation_xyz
x,y,z
-x,y,-z
1/2+x,1/2+y,z
1/2-x,1/2+y,-z
loop_
_atom_site_type_symbol
_atom_site_label
_atom_site_fract_x
_atom_site_fract_y
_atom_site_fract_z
Si Si1 0.624284 0.031410 0.722672
Si Si2 0.247621 0.500909 0.883439
Si Si3 0.282808 0.836373 0.879667
Si Si4 0.054737 0.894313 0.206947
Si Si5 0.267136 0.979912 0.620011
Si Si6 0.875679 0.103527 0.124098
Si Si7 0.862403 0.217534 0.928119
O O1 0.476342 0.087821 0.784876
O O2 0.584775 0.996151 0.818006
O O3 0.450583 0.006373 0.669823
O O4 0.992692 0.022582 0.642612
O O5 0.433850 0.445553 0.861531
O O6 0.440625 0.556123 0.857375
O O7 0.000000 0.504856 0.000000
O O8 0.597234 0.870826 0.841819
O O9 0.371197 0.772846 0.872598
O O10 0.151287 0.850161 0.807032
O O11 0.000000 0.845180 0.000000
O O12 0.894873 0.923566 0.318644
O O13 0.500000 0.970853 0.500000
O O14 0.958054 0.164507 0.136692
O O15 0.000000 0.099347 0.000000
O O16 0.500000 0.201144 0.000000
O O17 0.000000 0.230307 0.000000
#
# Coordination Sequence:
#
# PCOD9125957 Si02
#       7
#     4   4   4   4   4   4   4
#     4  11  21  36  55  83 114 149 186 225 287 350
#     4  11  20  31  51  84 122 154 176 225 278 343
#     4  11  21  37  52  81 116 154 187 223 265 334
#     4  11  22  34  56  78 110 146 190 224 288 342
#     4  11  24  41  57  80 114 147 190 246 296 348
#     4  11  21  33  56  83 123 157 188 225 270 333
#     4  10  22  36  53  76 117 166 200 223 258 319
#
# _framework density 17.348545000000001
#
# number of rings (size 3 to 8) (size 9 to 14) (size 15 to 20)
#    0.000    1.143    4.286    5.571    2.000    0.571 
#    0.000    0.000    0.000    0.000    0.000    4.000 
#    0.000    0.000    0.000    0.000    0.000    0.000 
#
# Total GULP energy -77944.438562 kJ/mol
# GULP energy per Si atom -5567.459897 kJ/mol
# Density = 1.730906 g / cm^3
# Si number density = 17.348545 Si / 1000 Ang^3
#
#
#
# Elastic Constant Matrix: (Units=GPa)
#
#
# Indices 1 2 3 4 5 6 
#
# 1 107.0521 40.8679 34.4119 0.0000 -12.0516 0.0000
# 2 40.8679 128.2140 41.1410 0.0000 -11.0725 0.0000
# 3 34.4119 41.1410 109.9136 0.0000 -16.8715 0.0000
# 4 0.0000 0.0000 0.0000 284.9993 0.0000 35.4985
# 5 -12.0516 -11.0725 -16.8715 0.0000 22.8438 0.0000
# 6 0.0000 0.0000 0.0000 35.4985 0.0000 39.4309
#
#
#
# Elastic Compliance Matrix: (Units=1/GPa)
#
#
# Indices 1 2 3 4 5 6 
#
# 1 0.011392 -0.002692 -0.002072 0.000000 0.003175 0.000000
# 2 -0.002692 0.009589 -0.002539 0.000000 0.001353 0.000000
# 3 -0.002072 -0.002539 0.011662 0.000000 0.006290 0.000000
# 4 0.000000 0.000000 0.000000 0.003952 0.000000 -0.003558
# 5 0.003175 0.001353 0.006290 0.000000 0.050752 0.000000
# 6 0.000000 0.000000 0.000000 -0.003558 0.000000 0.028564
#
#
# Mechanical properties :
#
#
# Convention : Reuss Voigt Hill
#
# Bulk Modulus (GPa) = 55.43682 64.22460 59.83071
# Shear Modulus (GPa) = 36.62213 84.70539 60.66376
#
# Velocity S-wave (km/s) = 4.59951 6.99512 5.91976
# Velocity P-wave (km/s) = 7.76089 10.11646 9.01593
#
# Compressibility (1/GPa) = 0.01803855
#
# Stress axis : x y z
#
# Youngs Moduli (GPa) = 87.77741 104.28555 85.74592
#
# Poissons Ratio (x) = 0.28078 0.17763
# Poissons Ratio (y) = 0.23633 0.21768
# Poissons Ratio (z) = 0.18184 0.26475
#
# Static dielectric constant tensor:
#      x y z
#    x 1.400470 0.000000 -0.058650 
#    y 0.000000 1.614630 0.000000 
#    z -0.058650 0.000000 1.593290 
# 
# From -- ./inp_files/59006.got.cif
#   From: 2010.05.17/outbox.cif.g08.bks.cpg/sg5_30_cif.got.tgz:59006.got - 2010.06.03 18:56:24.
