data_PCOD9125857
_publ_section_title
;
Structure prediction by ZEFSAII (Michael W. Deem and Ramdas Pophale) SiO2 
 PCOD9125857
Probable space group: C 2
;
_chemical_formula_sum "Si O2"
_cell_formula_units_Z 28
_cell_length_a 8.943531
_cell_length_b 11.718249
_cell_length_c 13.482516
_cell_angle_alpha 90.000000
_cell_angle_beta 118.286589
_cell_angle_gamma 90.000000
_cell_volume 1244.272758
_symmetry_space_group_name_H-M "C 2"
_symmetry_group_IT_number 5
_symmetry_cell_setting 'monoclinic'
loop_
_space_group_symop_operation_xyz
x,y,z
-x,y,-z
1/2+x,1/2+y,z
1/2-x,1/2+y,-z
loop_
_atom_site_type_symbol
_atom_site_label
_atom_site_fract_x
_atom_site_fract_y
_atom_site_fract_z
Si Si1 0.455147 0.590440 0.876849
Si Si2 0.905851 0.849527 0.273254
Si Si3 0.913954 0.210567 0.271429
Si Si4 0.049972 0.815572 0.124954
Si Si5 0.355455 0.936732 0.668416
Si Si6 0.608848 0.118941 0.659618
Si Si7 0.850825 0.027913 0.574165
O O1 0.578606 0.640130 0.830214
O O2 0.435688 0.453320 0.879266
O O3 0.276970 0.631698 0.778919
O O4 0.500000 0.633606 0.000000
O O5 0.740567 0.918386 0.257568
O O6 0.950242 0.748515 0.363451
O O7 0.905287 0.801374 0.162230
O O8 0.064865 0.933806 0.329665
O O9 0.721818 0.255906 0.219770
O O10 0.035724 0.321585 0.310189
O O11 0.006699 0.127763 0.380636
O O12 0.000000 0.772343 0.000000
O O13 0.205855 0.965799 0.543427
O O14 0.484039 0.038703 0.682625
O O15 0.682385 0.072841 0.578395
#
# Coordination Sequence:
#
# PCOD9125857 Si02
#       7
#     4   4   4   4   4   4   4
#     4  10  21  44  73 101 145 185 236 301 364 431
#     4  12  25  46  68 104 145 182 243 305 348 437
#     4  11  23  47  72 103 148 188 242 302 357 440
#     4  11  25  46  76 105 148 193 242 300 372 434
#     4  12  25  42  75 101 142 195 242 292 365 424
#     4  11  24  45  70 100 145 187 233 301 357 435
#     4  11  25  46  67 104 146 189 244 294 358 431
#
# _framework density 22.503104
#
# number of rings (size 3 to 8) (size 9 to 14) (size 15 to 20)
#    0.000    0.857    7.143    0.857    6.000    1.143 
#    0.000    1.429    0.000    0.857    0.000    0.000 
#    0.000    0.000    0.000    0.000    0.000    0.000 
#
# Total GULP energy -78102.773372 kJ/mol
# GULP energy per Si atom -5578.769527 kJ/mol
# Density = 2.245189 g / cm^3
# Si number density = 22.503104 Si / 1000 Ang^3
#
#
#
# Elastic Constant Matrix: (Units=GPa)
#
#
# Indices 1 2 3 4 5 6 
#
# 1 121.8262 36.8829 41.7159 0.0000 -15.0920 0.0000
# 2 36.8829 91.3712 3.9134 0.0000 2.9322 0.0000
# 3 41.7159 3.9134 90.7805 0.0000 -16.0378 0.0000
# 4 0.0000 0.0000 0.0000 28.8496 0.0000 2.8005
# 5 -15.0920 2.9322 -16.0378 0.0000 29.7198 0.0000
# 6 0.0000 0.0000 0.0000 2.8005 0.0000 46.6866
#
#
#
# Elastic Compliance Matrix: (Units=1/GPa)
#
#
# Indices 1 2 3 4 5 6 
#
# 1 0.011621 -0.004628 -0.004441 0.000000 0.003961 0.000000
# 2 -0.004628 0.012867 0.001031 0.000000 -0.003063 0.000000
# 3 -0.004441 0.001031 0.013923 0.000000 0.005156 0.000000
# 4 0.000000 0.000000 0.000000 0.034866 0.000000 -0.002091
# 5 0.003961 -0.003063 0.005156 0.000000 0.038744 0.000000
# 6 0.000000 0.000000 0.000000 -0.002091 0.000000 0.021545
#
#
# Mechanical properties :
#
#
# Convention : Reuss Voigt Hill
#
# Bulk Modulus (GPa) = 44.77356 52.11138 48.44247
# Shear Modulus (GPa) = 31.82990 35.81558 33.82274
#
# Velocity S-wave (km/s) = 3.76502 3.99379 3.88109
# Velocity P-wave (km/s) = 6.23220 6.66895 6.45427
#
# Compressibility (1/GPa) = 0.02233461
#
# Stress axis : x y z
#
# Youngs Moduli (GPa) = 86.05243 77.72070 71.82501
#
# Poissons Ratio (x) = 0.35968 0.31895
# Poissons Ratio (y) = 0.39823 -0.07403
# Poissons Ratio (z) = 0.38213 -0.08011
#
# Static dielectric constant tensor:
#      x y z
#    x 1.886870 0.000000 -0.042320 
#    y 0.000000 1.886390 0.000000 
#    z -0.042320 0.000000 1.850640 
# 
# From -- ./inp_files/50554.got.cif
#   From: 2010.05.17/outbox.cif.g08.bks.cpg/sg5_26_cif.got.tgz:50554.got - 2010.06.03 18:56:24.
