data_PCOD9125575
_publ_section_title
;
Structure prediction by ZEFSAII (Michael W. Deem and Ramdas Pophale) SiO2 
 PCOD9125575
Probable space group: C 2
;
_chemical_formula_sum "Si O2"
_cell_formula_units_Z 24
_cell_length_a 17.310395
_cell_length_b 5.351425
_cell_length_c 11.968214
_cell_angle_alpha 90.000000
_cell_angle_beta 105.353392
_cell_angle_gamma 90.000000
_cell_volume 1069.111339
_symmetry_space_group_name_H-M "C 2"
_symmetry_group_IT_number 5
_symmetry_cell_setting 'monoclinic'
loop_
_space_group_symop_operation_xyz
x,y,z
-x,y,-z
1/2+x,1/2+y,z
1/2-x,1/2+y,-z
loop_
_atom_site_type_symbol
_atom_site_label
_atom_site_fract_x
_atom_site_fract_y
_atom_site_fract_z
Si Si1 0.506304 0.239390 0.805317
Si Si2 0.008923 0.342028 0.378851
Si Si3 0.136431 0.107421 0.800726
Si Si4 0.634067 0.512561 0.321501
Si Si5 0.695604 0.012246 0.251763
Si Si6 0.918099 0.361284 0.998177
O O1 0.584880 0.355998 0.780897
O O2 0.437925 0.448312 0.794381
O O3 0.465897 0.047618 0.702203
O O4 0.543136 0.093083 0.921227
O O5 0.921132 0.272391 0.299548
O O6 0.000000 0.436369 0.500000
O O7 0.075274 0.117777 0.397826
O O8 0.133262 0.214415 0.927001
O O9 0.222591 0.066021 0.782724
O O10 0.690521 0.746773 0.313733
O O11 0.683233 0.254033 0.328238
O O12 0.631046 0.961727 0.126559
O O13 0.000000 0.214572 0.000000
#
# Coordination Sequence:
#
# PCOD9125575 Si02
#       6
#     4   4   4   4   4   4
#     4  10  21  42  65 104 132 174 242 268 335 409
#     4  10  22  47  77  99 132 181 235 294 344 406
#     4  10  26  40  66 103 139 176 232 284 340 410
#     4  11  23  46  66 101 130 183 226 276 339 412
#     4  12  26  42  69  95 151 177 220 284 341 402
#     4  11  22  40  65  98 134 191 226 270 328 409
#
# _framework density 22.448550999999998
#
# number of rings (size 3 to 8) (size 9 to 14) (size 15 to 20)
#    0.000    1.333    3.333    2.000    9.333    3.333 
#    3.000    1.667    0.000    0.000    0.000    0.000 
#    0.000    0.000    0.000    0.000    0.000    0.000 
#
# Total GULP energy -66802.893444 kJ/mol
# GULP energy per Si atom -5566.907787 kJ/mol
# Density = 2.239746 g / cm^3
# Si number density = 22.448551 Si / 1000 Ang^3
#
#
#
# Elastic Constant Matrix: (Units=GPa)
#
#
# Indices 1 2 3 4 5 6 
#
# 1 113.1040 27.7773 -17.8708 0.0000 -26.2308 0.0000
# 2 27.7773 114.7627 14.7123 0.0000 -10.6651 0.0000
# 3 -17.8708 14.7123 57.9998 0.0000 0.3264 0.0000
# 4 0.0000 0.0000 0.0000 5.1956 0.0000 -10.0040
# 5 -26.2308 -10.6651 0.3264 0.0000 4.5724 0.0000
# 6 0.0000 0.0000 0.0000 -10.0040 0.0000 22.5731
#
#
#
# Elastic Compliance Matrix: (Units=1/GPa)
#
#
# Indices 1 2 3 4 5 6 
#
# 1 -0.019346 -0.006573 -0.003584 0.000000 -0.126061 0.000000
# 2 -0.006573 0.009428 -0.004330 0.000000 -0.015408 0.000000
# 3 -0.003584 -0.004330 0.017415 0.000000 -0.031905 0.000000
# 4 0.000000 0.000000 0.000000 1.312338 0.000000 0.581607
# 5 -0.126061 -0.015408 -0.031905 0.000000 -0.538139 0.000000
# 6 0.000000 0.000000 0.000000 0.581607 0.000000 0.302059
#
#
# Mechanical properties :
#
#
# Convention : Reuss Voigt Hill
#
# Bulk Modulus (GPa) = -46.55988 37.23380 -4.66304
# Shear Modulus (GPa) = 4.52256 23.88473 14.20364
#
# Velocity S-wave (km/s) = 1.42092 3.26540 2.51812
# Velocity P-wave (km/s) = 4.25367 5.55333 2.52445
#
# Compressibility (1/GPa) = -0.02147772
#
# Stress axis : x y z
#
# Youngs Moduli (GPa) = -51.68952 106.06978 57.42176
#
# Poissons Ratio (x) = 0.69719 0.20581
# Poissons Ratio (y) = -0.33975 0.24864
# Poissons Ratio (z) = -0.18526 0.45928
#
# Static dielectric constant tensor:
#      x y z
#    x 1.892030 0.000000 -0.052800 
#    y 0.000000 1.949450 0.000000 
#    z -0.052800 0.000000 1.857210 
# 
# From -- ./inp_files/43759.got.cif
#   From: 2010.05.17/outbox.cif.g08.bks.cpg/sg5_22_cif.got.tgz:43759.got - 2010.06.03 18:56:24.
