data_PCOD9125797
_publ_section_title
;
Structure prediction by ZEFSAII (Michael W. Deem and Ramdas Pophale) SiO2 
 PCOD9125797
Probable space group: C 2
;
_chemical_formula_sum "Si O2"
_cell_formula_units_Z 20
_cell_length_a 7.792291
_cell_length_b 15.644623
_cell_length_c 10.832824
_cell_angle_alpha 90.000000
_cell_angle_beta 138.349115
_cell_angle_gamma 90.000000
_cell_volume 877.658989
_symmetry_space_group_name_H-M "C 2"
_symmetry_group_IT_number 5
_symmetry_cell_setting 'monoclinic'
loop_
_space_group_symop_operation_xyz
x,y,z
-x,y,-z
1/2+x,1/2+y,z
1/2-x,1/2+y,-z
loop_
_atom_site_type_symbol
_atom_site_label
_atom_site_fract_x
_atom_site_fract_y
_atom_site_fract_z
Si Si1 0.285681 0.890110 0.484420
Si Si2 0.797686 0.643549 0.001432
Si Si3 0.698213 0.462465 0.883573
Si Si4 0.544672 0.230600 0.668321
Si Si5 0.546875 0.822538 0.856370
O O1 0.500000 0.913597 0.500000
O O2 0.189287 0.791933 0.417857
O O3 0.417157 0.884955 0.687184
O O4 0.032827 0.948810 0.337117
O O5 0.906178 0.662729 0.197099
O O6 0.000000 0.633343 0.000000
O O7 0.652923 0.552960 0.924548
O O8 0.643911 0.727812 0.876531
O O9 0.703798 0.378236 0.971494
O O10 0.000000 0.459252 0.000000
O O11 0.500000 0.203973 0.500000
O O12 0.202254 0.292463 0.196728
#
# Coordination Sequence:
#
# PCOD9125797 Si02
#       5
#     4   4   4   4   4
#     4  11  23  42  69 104 136 183 238 296 346 412
#     4  11  23  42  71 109 141 184 238 297 354 416
#     4  11  23  44  71  99 141 185 237 286 356 427
#     4  10  21  43  74  97 140 189 238 282 362 422
#     4  11  22  44  72  95 140 190 234 284 357 424
#
# _framework density 22.787894000000001
#
# number of rings (size 3 to 8) (size 9 to 14) (size 15 to 20)
#    0.000    1.200    4.000    1.800    0.000    0.000 
#   14.400    0.000    0.000    0.000    0.000    0.000 
#    0.000    0.000    0.000    0.000    0.000    0.000 
#
# Total GULP energy -55696.339603 kJ/mol
# GULP energy per Si atom -5569.633960 kJ/mol
# Density = 2.273603 g / cm^3
# Si number density = 22.787894 Si / 1000 Ang^3
#
#
#
# Elastic Constant Matrix: (Units=GPa)
#
#
# Indices 1 2 3 4 5 6 
#
# 1 74.6282 11.3788 14.9509 0.0002 -5.9005 0.0002
# 2 11.3788 105.9336 29.8082 0.0000 -19.5398 0.0000
# 3 14.9509 29.8082 138.6284 0.0002 -28.6631 0.0002
# 4 0.0002 0.0000 0.0002 12.0427 0.0002 3.8351
# 5 -5.9005 -19.5398 -28.6631 0.0002 32.8690 0.0002
# 6 0.0002 0.0000 0.0002 3.8351 0.0002 12.2684
#
#
#
# Elastic Compliance Matrix: (Units=1/GPa)
#
#
# Indices 1 2 3 4 5 6 
#
# 1 0.013845 -0.001009 -0.001081 0.000000 0.000943 0.000000
# 2 -0.001009 0.010840 -0.001131 0.000000 0.005277 0.000000
# 3 -0.001081 -0.001131 0.009021 0.000000 0.007000 0.000000
# 4 0.000000 0.000000 0.000000 0.092218 0.000000 -0.028827
# 5 0.000943 0.005277 0.007000 0.000000 0.039834 -0.000001
# 6 0.000000 0.000000 0.000000 -0.028827 -0.000001 0.090521
#
#
# Mechanical properties :
#
#
# Convention : Reuss Voigt Hill
#
# Bulk Modulus (GPa) = 36.68019 47.94067 42.31043
# Shear Modulus (GPa) = 18.39530 28.97283 23.68407
#
# Velocity S-wave (km/s) = 2.84428 3.56956 3.22736
# Velocity P-wave (km/s) = 5.18824 6.17029 5.70045
#
# Compressibility (1/GPa) = 0.02726267
#
# Stress axis : x y z
#
# Youngs Moduli (GPa) = 72.22945 92.25275 110.85663
#
# Poissons Ratio (x) = 0.09308 0.11987
# Poissons Ratio (y) = 0.07288 0.12538
# Poissons Ratio (z) = 0.07810 0.10434
#
# Static dielectric constant tensor:
#      x y z
#    x 1.966190 0.000000 -0.048070 
#    y 0.000000 1.908290 0.000000 
#    z -0.048070 0.000000 1.952610 
# 
# From -- ./inp_files/36936.got.cif
#   From: 2010.05.17/outbox.cif.g08.bks.cpg/sg5_19_cif.got.tgz:36936.got - 2010.06.03 18:56:24.
