data_PCOD9125600
_publ_section_title
;
Structure prediction by ZEFSAII (Michael W. Deem and Ramdas Pophale) SiO2 
 PCOD9125600
Probable space group: C 2
;
_chemical_formula_sum "Si O2"
_cell_formula_units_Z 32
_cell_length_a 14.734629
_cell_length_b 23.082862
_cell_length_c 9.556229
_cell_angle_alpha 90.000000
_cell_angle_beta 150.866379
_cell_angle_gamma 90.000000
_cell_volume 1582.372841
_symmetry_space_group_name_H-M "C 2"
_symmetry_group_IT_number 5
_symmetry_cell_setting 'monoclinic'
loop_
_space_group_symop_operation_xyz
x,y,z
-x,y,-z
1/2+x,1/2+y,z
1/2-x,1/2+y,-z
loop_
_atom_site_type_symbol
_atom_site_label
_atom_site_fract_x
_atom_site_fract_y
_atom_site_fract_z
Si Si1 0.468522 0.678440 0.791833
Si Si2 0.818686 0.881411 0.816058
Si Si3 0.345576 0.503691 0.694980
Si Si4 0.907347 0.603908 0.726987
Si Si5 0.167977 0.612532 0.836070
Si Si6 0.001149 0.292313 0.663833
Si Si7 0.894384 0.003225 0.223916
Si Si8 0.166846 0.875313 0.832043
O O1 0.281421 0.641242 0.515620
O O2 0.443770 0.740510 0.686313
O O3 0.500000 0.683633 0.000000
O O4 0.653166 0.649353 0.971970
O O5 0.639921 0.845684 0.535934
O O6 0.805364 0.944487 0.725352
O O7 0.855875 0.881587 0.030898
O O8 0.000000 0.850814 0.000000
O O9 0.166334 0.543271 0.435788
O O10 0.448485 0.493013 0.684995
O O11 0.500000 0.535649 0.000000
O O12 0.065671 0.631310 0.841261
O O13 0.000000 0.593516 0.000000
O O14 0.000000 0.614325 0.500000
O O15 0.246128 0.547744 0.963077
O O16 0.000000 0.270894 0.500000
O O17 0.185706 0.323163 0.973836
O O18 0.000000 0.029895 0.500000
O O19 0.797943 0.943998 0.149950
O O20 0.000000 0.861190 0.500000
#
# Coordination Sequence:
#
# PCOD9125600 Si02
#       8
#     4   4   4   4   4   4   4   4
#     4  12  27  52  68  99 143 177 237 292 341 406
#     4  10  21  42  66  97 132 176 219 271 340 401
#     4  11  20  42  67  97 144 179 213 281 343 408
#     4  12  27  44  70 107 137 182 234 284 347 413
#     4  12  26  43  72 102 135 186 227 280 348 412
#     4  10  26  46  72  95 130 182 231 285 336 409
#     4  11  22  39  67 100 143 177 216 282 341 404
#     4  10  22  42  65 100 134 172 222 274 335 402
#
# _framework density 20.222795000000001
#
# number of rings (size 3 to 8) (size 9 to 14) (size 15 to 20)
#    0.000    1.000    5.000    1.875    3.500    2.500 
#    2.250    0.000    0.000    0.000    0.000    0.000 
#    0.000    0.000    0.000    0.000    0.000    0.000 
#
# Total GULP energy -89249.764801 kJ/mol
# GULP energy per Si atom -5578.110300 kJ/mol
# Density = 2.017677 g / cm^3
# Si number density = 20.222795 Si / 1000 Ang^3
#
#
#
# Elastic Constant Matrix: (Units=GPa)
#
#
# Indices 1 2 3 4 5 6 
#
# 1 107.2895 39.3142 59.5263 0.0000 -0.9083 0.0000
# 2 39.3142 60.3451 42.8971 0.0000 -7.5376 0.0000
# 3 59.5263 42.8971 138.8532 0.0000 -21.1804 0.0000
# 4 0.0000 0.0000 0.0000 30.8815 0.0000 20.8274
# 5 -0.9083 -7.5376 -21.1804 0.0000 29.8345 0.0000
# 6 0.0000 0.0000 0.0000 20.8274 0.0000 -6.6753
#
#
#
# Elastic Compliance Matrix: (Units=1/GPa)
#
#
# Indices 1 2 3 4 5 6 
#
# 1 0.014351 -0.006475 -0.004861 0.000000 -0.004650 0.000000
# 2 -0.006475 0.024173 -0.004251 0.000000 0.002892 0.000000
# 3 -0.004861 -0.004251 0.011677 0.000000 0.007068 0.000000
# 4 0.000000 0.000000 0.000000 0.010431 0.000000 0.032547
# 5 -0.004650 0.002892 0.007068 0.000000 0.039125 0.000000
# 6 0.000000 0.000000 0.000000 0.032547 0.000000 -0.048258
#
#
# Mechanical properties :
#
#
# Convention : Reuss Voigt Hill
#
# Bulk Modulus (GPa) = 52.55678 65.55143 59.05410
# Shear Modulus (GPa) = 56.17017 21.79150 38.98083
#
# Velocity S-wave (km/s) = 5.27598 3.28620 4.39517
# Velocity P-wave (km/s) = 7.94732 6.84717 7.41767
#
# Compressibility (1/GPa) = 0.01902704
#
# Stress axis : x y z
#
# Youngs Moduli (GPa) = 69.68251 41.36913 85.63597
#
# Poissons Ratio (x) = 0.26785 0.41630
# Poissons Ratio (y) = 0.45116 0.36404
# Poissons Ratio (z) = 0.33874 0.17586
#
# Static dielectric constant tensor:
#      x y z
#    x 1.761000 0.000000 0.046990 
#    y 0.000000 1.719480 0.000000 
#    z 0.046990 0.000000 1.656710 
# 
# From -- ./inp_files/25685.got.cif
#   From: 2010.05.17/outbox.cif.g08.bks.cpg/sg5_13_cif.got.tgz:25685.got - 2010.06.03 18:56:24.
