data_PCOD9125156
_publ_section_title
;
Structure prediction by ZEFSAII (Michael W. Deem and Ramdas Pophale) SiO2 
 PCOD9125156
Probable space group: C 2
;
_chemical_formula_sum "Si O2"
_cell_formula_units_Z 28
_cell_length_a 9.813277
_cell_length_b 8.914934
_cell_length_c 13.540821
_cell_angle_alpha 90.000000
_cell_angle_beta 71.944229
_cell_angle_gamma 90.000000
_cell_volume 1126.278853
_symmetry_space_group_name_H-M "C 2"
_symmetry_group_IT_number 5
_symmetry_cell_setting 'monoclinic'
loop_
_space_group_symop_operation_xyz
x,y,z
-x,y,-z
1/2+x,1/2+y,z
1/2-x,1/2+y,-z
loop_
_atom_site_type_symbol
_atom_site_label
_atom_site_fract_x
_atom_site_fract_y
_atom_site_fract_z
Si Si1 0.159072 0.259580 0.412586
Si Si2 0.846661 0.930077 0.585177
Si Si3 0.348772 0.093959 0.590873
Si Si4 0.712909 0.171700 0.823682
Si Si5 0.135373 0.982190 0.905517
Si Si6 0.564402 0.461445 0.207129
Si Si7 0.424710 0.114286 0.804788
O O1 0.218918 0.428269 0.419933
O O2 0.190597 0.247392 0.286506
O O3 0.000000 0.259567 0.500000
O O4 0.221259 0.093703 0.428637
O O5 0.776782 0.762134 0.594199
O O6 0.898913 0.957111 0.686097
O O7 0.000000 0.917605 0.500000
O O8 0.500000 0.098978 0.500000
O O9 0.398623 0.087241 0.694667
O O10 0.652731 0.303712 0.903417
O O11 0.584762 0.074908 0.803542
O O12 0.813597 0.065612 0.863168
O O13 0.085473 0.018374 0.802777
O O14 0.291266 0.044206 0.889909
O O15 0.000000 0.029925 0.000000
O O16 0.578733 0.290800 0.174746
#
# Coordination Sequence:
#
# PCOD9125156 Si02
#       7
#     4   4   4   4   4   4   4
#     4   9  16  31  60  89 126 169 214 250 309 384
#     4   8  15  30  55  87 126 163 206 259 302 370
#     4   9  16  31  57  85 126 170 209 250 317 377
#     4  10  21  41  66  90 126 166 208 264 324 382
#     4  11  24  42  64  91 124 164 213 273 330 383
#     4   9  21  39  61  90 123 163 209 258 321 383
#     4  10  21  40  62  90 127 163 209 272 317 381
#
# _framework density 24.860627999999998
#
# number of rings (size 3 to 8) (size 9 to 14) (size 15 to 20)
#    0.000    2.571    1.429    0.000    0.000    3.429 
#    0.000    6.429   25.143    0.000    0.000    0.000 
#    0.000    0.000    0.000    0.000    0.000    0.000 
#
# Total GULP energy -77971.076379 kJ/mol
# GULP energy per Si atom -5569.362598 kJ/mol
# Density = 2.480404 g / cm^3
# Si number density = 24.860628 Si / 1000 Ang^3
#
#
#
# Elastic Constant Matrix: (Units=GPa)
#
#
# Indices 1 2 3 4 5 6 
#
# 1 116.8568 19.3910 18.3492 0.0000 -10.4674 0.0000
# 2 19.3910 117.8432 -7.6608 0.0000 25.4264 0.0000
# 3 18.3492 -7.6608 95.1616 0.0000 -21.6974 0.0000
# 4 0.0000 0.0000 0.0000 12.6040 0.0000 -12.8483
# 5 -10.4674 25.4264 -21.6974 0.0000 29.5970 0.0000
# 6 0.0000 0.0000 0.0000 -12.8483 0.0000 38.6991
#
#
#
# Elastic Compliance Matrix: (Units=1/GPa)
#
#
# Indices 1 2 3 4 5 6 
#
# 1 0.009610 -0.002737 -0.000915 0.000000 0.005079 0.000000
# 2 -0.002737 0.011364 -0.001206 0.000000 -0.011614 0.000000
# 3 -0.000915 -0.001206 0.012908 0.000000 0.010175 0.000000
# 4 0.000000 0.000000 0.000000 0.119928 0.000000 0.039817
# 5 0.005079 -0.011614 0.010175 0.000000 0.053020 0.000000
# 6 0.000000 0.000000 0.000000 0.039817 0.000000 0.039060
#
#
# Mechanical properties :
#
#
# Convention : Reuss Voigt Hill
#
# Bulk Modulus (GPa) = 41.37971 43.33560 42.35766
# Shear Modulus (GPa) = 18.96376 36.16549 27.56462
#
# Velocity S-wave (km/s) = 2.76488 3.81823 3.33343
# Velocity P-wave (km/s) = 5.18397 6.07518 5.64718
#
# Compressibility (1/GPa) = 0.02416643
#
# Stress axis : x y z
#
# Youngs Moduli (GPa) = 104.05531 87.99936 77.47276
#
# Poissons Ratio (x) = 0.24083 0.07092
# Poissons Ratio (y) = 0.28477 0.09340
# Poissons Ratio (z) = 0.09525 0.10609
#
# Static dielectric constant tensor:
#      x y z
#    x 2.073830 0.000000 0.032570 
#    y 0.000000 2.017710 0.000000 
#    z 0.032570 0.000000 2.110330 
# 
# From -- ./inp_files/52244.got.cif
#   From: 2010.05.17/outbox.cif.g08.bks.cpg/sg5_27_cif.got.tgz:52244.got - 2010.06.03 18:56:24.
