data_PCOD9125637
_publ_section_title
;
Structure prediction by ZEFSAII (Michael W. Deem and Ramdas Pophale) SiO2 
 PCOD9125637
Probable space group: C 2
;
_chemical_formula_sum "Si O2"
_cell_formula_units_Z 16
_cell_length_a 7.873633
_cell_length_b 18.225122
_cell_length_c 8.383685
_cell_angle_alpha 90.000000
_cell_angle_beta 145.825394
_cell_angle_gamma 90.000000
_cell_volume 675.768496
_symmetry_space_group_name_H-M "C 2"
_symmetry_group_IT_number 5
_symmetry_cell_setting 'monoclinic'
loop_
_space_group_symop_operation_xyz
x,y,z
-x,y,-z
1/2+x,1/2+y,z
1/2-x,1/2+y,-z
loop_
_atom_site_type_symbol
_atom_site_label
_atom_site_fract_x
_atom_site_fract_y
_atom_site_fract_z
Si Si1 0.652169 0.371230 0.772499
Si Si2 0.316515 0.484012 0.711413
Si Si3 0.157091 0.580975 0.283399
Si Si4 0.649464 0.247295 0.276020
O O1 0.500000 0.406802 0.500000
O O2 0.572706 0.428447 0.848643
O O3 0.464342 0.298154 0.669644
O O4 0.000000 0.357944 0.000000
O O5 0.188728 0.537511 0.473600
O O6 0.000000 0.441834 0.500000
O O7 0.500000 0.521838 0.000000
O O8 0.500000 0.590986 0.500000
O O9 0.035011 0.663695 0.213178
O O10 0.000000 0.548754 0.000000
O O11 0.000000 0.247683 0.500000
O O12 0.500000 0.277678 0.000000
#
# Coordination Sequence:
#
# PCOD9125637 Si02
#       4
#     4   4   4   4
#     4  12  25  42  67  96 131 172 220 274 325 386
#     4  12  25  42  66  97 135 175 220 272 326 391
#     4  10  22  42  68  96 133 175 215 266 329 396
#     4  10  21  42  68  95 129 170 216 268 329 391
#
# _framework density 23.676748
#
# number of rings (size 3 to 8) (size 9 to 14) (size 15 to 20)
#    0.000    1.000    0.000    6.750    0.000    3.000 
#    0.000    2.500    0.000    0.000    0.000    0.000 
#    0.000    0.000    0.000    0.000    0.000    0.000 
#
# Total GULP energy -44655.203326 kJ/mol
# GULP energy per Si atom -5581.900416 kJ/mol
# Density = 2.362286 g / cm^3
# Si number density = 23.676748 Si / 1000 Ang^3
#
#
#
# Elastic Constant Matrix: (Units=GPa)
#
#
# Indices 1 2 3 4 5 6 
#
# 1 96.0092 39.9341 47.8439 -0.0002 19.3232 0.0000
# 2 39.9341 86.6826 15.3063 0.0008 -11.6699 -0.0001
# 3 47.8439 15.3063 167.4123 -0.0061 -6.9623 0.0009
# 4 -0.0002 0.0008 -0.0061 -147.6315 -0.0025 18.8265
# 5 19.3232 -11.6699 -6.9623 -0.0025 56.0732 0.0003
# 6 0.0000 -0.0001 0.0009 18.8265 0.0003 8.7617
#
#
#
# Elastic Compliance Matrix: (Units=1/GPa)
#
#
# Indices 1 2 3 4 5 6 
#
# 1 0.018131 -0.008678 -0.004748 0.000000 -0.008643 0.000000
# 2 -0.008678 0.016187 0.001271 0.000000 0.006517 0.000000
# 3 -0.004748 0.001271 0.007331 0.000000 0.002811 0.000000
# 4 0.000000 0.000000 0.000000 -0.005317 0.000000 0.011424
# 5 -0.008643 0.006517 0.002811 0.000000 0.022518 0.000000
# 6 0.000000 0.000000 0.000000 0.011424 0.000000 0.089585
#
#
# Mechanical properties :
#
#
# Convention : Reuss Voigt Hill
#
# Bulk Modulus (GPa) = 57.67104 61.80807 59.73956
# Shear Modulus (GPa) = 28.00749 -0.09133 13.95808
#
# Velocity S-wave (km/s) = 3.44308 -0.19662 2.43065
# Velocity P-wave (km/s) = 6.34168 5.10980 5.75878
#
# Compressibility (1/GPa) = 0.01733973
#
# Stress axis : x y z
#
# Youngs Moduli (GPa) = 55.15528 61.77727 136.41218
#
# Poissons Ratio (x) = 0.53610 0.64762
# Poissons Ratio (y) = 0.47864 -0.17339
# Poissons Ratio (z) = 0.26185 -0.07853
#
# Static dielectric constant tensor:
#      x y z
#    x 3.886370 0.000010 0.059860 
#    y 0.000010 1.932340 0.000000 
#    z 0.059860 0.000000 1.873290 
# 
# From -- ./inp_files/15971.got.cif
#   From: 2010.05.17/outbox.cif.g08.bks.cpg/sg5_8_cif.got.tgz:15971.got - 2010.06.03 18:56:24.
