data_PCOD9125712
_publ_section_title
;
Structure prediction by ZEFSAII (Michael W. Deem and Ramdas Pophale) SiO2 
 PCOD9125712
Probable space group: C 2
;
_chemical_formula_sum "Si O2"
_cell_formula_units_Z 30
_cell_length_a 11.895343
_cell_length_b 8.757206
_cell_length_c 15.729762
_cell_angle_alpha 90.000000
_cell_angle_beta 82.738169
_cell_angle_gamma 90.000000
_cell_volume 1625.425647
_symmetry_space_group_name_H-M "C 2"
_symmetry_group_IT_number 5
_symmetry_cell_setting 'monoclinic'
loop_
_space_group_symop_operation_xyz
x,y,z
-x,y,-z
1/2+x,1/2+y,z
1/2-x,1/2+y,-z
loop_
_atom_site_type_symbol
_atom_site_label
_atom_site_fract_x
_atom_site_fract_y
_atom_site_fract_z
Si Si1 0.874099 0.824690 0.536049
Si Si2 0.715002 0.996422 0.429105
Si Si3 0.769870 0.328053 0.747058
Si Si4 0.949438 0.953586 0.192292
Si Si5 0.566440 0.584011 0.341234
Si Si6 0.610682 0.297598 0.048371
Si Si7 0.253118 0.506610 0.093640
Si Si8 0.500000 0.803244 0.500000
O O1 0.797988 0.676342 0.557842
O O2 0.000000 0.771944 0.500000
O O3 0.824360 0.926242 0.464395
O O4 0.886483 0.935138 0.615530
O O5 0.713164 0.948804 0.330829
O O6 0.609899 0.910843 0.484948
O O7 0.634984 0.314335 0.774742
O O8 0.831211 0.177237 0.711219
O O9 0.812429 0.398901 0.831983
O O10 0.866428 0.050171 0.137803
O O11 0.057732 0.891195 0.132203
O O12 0.982590 0.039826 0.273965
O O13 0.509890 0.693977 0.417006
O O14 0.677535 0.146851 0.070796
O O15 0.500000 0.262869 0.000000
O O16 0.696532 0.404500 0.987105
#
# Coordination Sequence:
#
# PCOD9125712 Si02
#       8
#     4   4   4   4   4   4   4   2
#     4  12  25  40  66  90 123 179 214 260 321 371
#     4  11  23  42  63  91 131 168 222 267 313 372
#     4   9  22  40  59  92 127 157 205 264 300 371
#     4   9  22  39  66  87 126 159 201 251 313 361
#     4  11  22  39  64  90 130 165 214 258 311 367
#     4  10  21  43  64  91 123 161 197 255 310 384
#     4   9  22  41  65  89 126 154 202 251 313 374
#     4  10  22  42  62  92 128 176 218 270 308 374
#
# _framework density 18.456703999999998
#
# number of rings (size 3 to 8) (size 9 to 14) (size 15 to 20)
#    0.800    1.067    1.333    2.400    5.600    0.000 
#    2.400    0.000    0.000    0.000    0.000    0.000 
#    0.000    0.000    0.000    0.000    0.000    0.000 
#
# Total GULP energy -83621.534461 kJ/mol
# GULP energy per Si atom -5574.768964 kJ/mol
# Density = 1.841470 g / cm^3
# Si number density = 18.456704 Si / 1000 Ang^3
#
#
#
# Elastic Constant Matrix: (Units=GPa)
#
#
# Indices 1 2 3 4 5 6 
#
# 1 59.8720 25.8389 26.9373 0.0000 -3.6465 0.0000
# 2 25.8389 88.4789 36.4405 0.0000 7.8142 0.0000
# 3 26.9373 36.4405 91.8719 0.0000 -5.4634 0.0000
# 4 0.0000 0.0000 0.0000 2.7044 0.0000 1.6167
# 5 -3.6465 7.8142 -5.4634 0.0000 19.4991 0.0000
# 6 0.0000 0.0000 0.0000 1.6167 0.0000 36.8043
#
#
#
# Elastic Compliance Matrix: (Units=1/GPa)
#
#
# Indices 1 2 3 4 5 6 
#
# 1 0.020862 -0.004916 -0.003883 0.000000 0.004784 0.000000
# 2 -0.004916 0.015687 -0.005298 0.000000 -0.008690 0.000000
# 3 -0.003883 -0.005298 0.014448 0.000000 0.005445 0.000000
# 4 0.000000 0.000000 0.000000 0.379733 0.000000 -0.016681
# 5 0.004784 -0.008690 0.005445 0.000000 0.057187 0.000000
# 6 0.000000 0.000000 0.000000 -0.016681 0.000000 0.027903
#
#
# Mechanical properties :
#
#
# Convention : Reuss Voigt Hill
#
# Bulk Modulus (GPa) = 43.84961 46.51738 45.18350
# Shear Modulus (GPa) = 9.06430 21.86865 15.46647
#
# Velocity S-wave (km/s) = 2.21851 3.44592 2.89794
# Velocity P-wave (km/s) = 5.51108 6.41020 5.97757
#
# Compressibility (1/GPa) = 0.02280522
#
# Stress axis : x y z
#
# Youngs Moduli (GPa) = 47.93415 63.74674 69.21285
#
# Poissons Ratio (x) = 0.31337 0.26872
# Poissons Ratio (y) = 0.23564 0.36666
# Poissons Ratio (z) = 0.18610 0.33771
#
# Static dielectric constant tensor:
#      x y z
#    x 1.663320 0.000000 -0.002220 
#    y 0.000000 1.607550 0.000000 
#    z -0.002220 0.000000 1.648950 
# 
# From -- ./inp_files/52281.got.cif
#   From: 2010.05.17/outbox.cif.g08.bks.cpg/sg5_27_cif.got.tgz:52281.got - 2010.06.03 18:56:24.
