data_PCOD9125566
_publ_section_title
;
Structure prediction by ZEFSAII (Michael W. Deem and Ramdas Pophale) SiO2 
 PCOD9125566
Probable space group: C 2
;
_chemical_formula_sum "Si O2"
_cell_formula_units_Z 30
_cell_length_a 11.069371
_cell_length_b 20.793669
_cell_length_c 13.001564
_cell_angle_alpha 90.000000
_cell_angle_beta 148.657094
_cell_angle_gamma 90.000000
_cell_volume 1556.630882
_symmetry_space_group_name_H-M "C 2"
_symmetry_group_IT_number 5
_symmetry_cell_setting 'monoclinic'
loop_
_space_group_symop_operation_xyz
x,y,z
-x,y,-z
1/2+x,1/2+y,z
1/2-x,1/2+y,-z
loop_
_atom_site_type_symbol
_atom_site_label
_atom_site_fract_x
_atom_site_fract_y
_atom_site_fract_z
Si Si1 0.490250 0.100460 0.178235
Si Si2 0.677564 0.147114 0.722211
Si Si3 0.500000 0.651679 0.500000
Si Si4 0.736602 0.514865 0.269127
Si Si5 0.259269 0.212850 0.877351
Si Si6 0.700411 0.293114 0.729885
Si Si7 0.170410 0.329451 0.967851
Si Si8 0.765369 0.971970 0.967521
O O1 0.442923 0.122755 0.261194
O O2 0.763119 0.111674 0.351256
O O3 0.396968 0.027395 0.101058
O O4 0.336632 0.148591 0.995896
O O5 0.500000 0.153181 0.500000
O O6 0.764877 0.218746 0.797924
O O7 0.839431 0.089519 0.800357
O O8 0.573211 0.694045 0.653613
O O9 0.744203 0.484006 0.161926
O O10 0.000000 0.512896 0.500000
O O11 0.536983 0.483400 0.192446
O O12 0.183691 0.269713 0.898770
O O13 0.500000 0.235155 0.000000
O O14 0.500000 0.297136 0.500000
O O15 0.920100 0.326716 0.838879
O O16 0.649698 0.320500 0.806360
O O17 0.201510 0.399122 0.942518
#
# Coordination Sequence:
#
# PCOD9125566 Si02
#       8
#     4   4   2   4   4   4   4   4
#     4  10  21  42  64  92 124 164 208 262 312 364
#     4   9  18  34  67  96 116 141 201 266 316 364
#     4  10  24  42  62  94 120 166 220 254 306 378
#     4   9  20  38  63  98 119 154 207 260 323 368
#     4  10  23  40  64  90 120 161 209 260 310 368
#     4  10  23  40  63  94 120 157 205 257 315 379
#     4  11  24  41  62  90 127 165 203 253 318 374
#     4  10  23  39  61  90 130 164 205 257 310 377
#
# _framework density 19.272390000000001
#
# number of rings (size 3 to 8) (size 9 to 14) (size 15 to 20)
#    0.000    2.133    1.333    0.000    7.467    4.267 
#    9.600    0.000    0.000    0.000    0.000    0.000 
#    0.000    0.000    0.000    0.000    0.000    0.000 
#
# Total GULP energy -83597.802153 kJ/mol
# GULP energy per Si atom -5573.186810 kJ/mol
# Density = 1.922853 g / cm^3
# Si number density = 19.272390 Si / 1000 Ang^3
#
#
#
# Elastic Constant Matrix: (Units=GPa)
#
#
# Indices 1 2 3 4 5 6 
#
# 1 74.3668 44.6822 34.3073 -0.0001 -4.2686 -0.0001
# 2 44.6822 142.6162 41.0624 -0.0001 4.0055 0.0000
# 3 34.3073 41.0624 123.5081 -0.0004 -6.8028 0.0000
# 4 -0.0001 -0.0001 -0.0004 21.7261 -0.0002 2.8582
# 5 -4.2686 4.0055 -6.8028 -0.0002 35.3201 0.0000
# 6 -0.0001 0.0000 0.0000 2.8582 0.0000 16.5798
#
#
#
# Elastic Compliance Matrix: (Units=1/GPa)
#
#
# Indices 1 2 3 4 5 6 
#
# 1 0.017924 -0.004725 -0.003294 0.000000 0.002068 0.000000
# 2 -0.004725 0.009068 -0.001810 0.000000 -0.001948 0.000000
# 3 -0.003294 -0.001810 0.009706 0.000000 0.001676 0.000000
# 4 0.000000 0.000000 0.000000 0.047096 0.000000 -0.008119
# 5 0.002068 -0.001948 0.001676 0.000000 0.029106 0.000000
# 6 0.000000 0.000000 0.000000 -0.008119 0.000000 0.061714
#
#
# Mechanical properties :
#
#
# Convention : Reuss Voigt Hill
#
# Bulk Modulus (GPa) = 58.68513 64.51055 61.59784
# Shear Modulus (GPa) = 25.00606 29.42116 27.21361
#
# Velocity S-wave (km/s) = 3.60600 3.91141 3.76180
# Velocity P-wave (km/s) = 6.91767 7.34469 7.13438
#
# Compressibility (1/GPa) = 0.01704009
#
# Stress axis : x y z
#
# Youngs Moduli (GPa) = 55.79006 110.27755 103.03368
#
# Poissons Ratio (x) = 0.52111 0.33939
# Poissons Ratio (y) = 0.26363 0.18644
# Poissons Ratio (z) = 0.18377 0.19955
#
# Static dielectric constant tensor:
#      x y z
#    x 1.691940 0.000000 -0.009320 
#    y 0.000000 1.670760 0.000000 
#    z -0.009320 0.000000 1.725730 
# 
# From -- ./inp_files/53424.got.cif
#   From: 2010.05.17/outbox.cif.g08.bks.cpg/sg5_27_cif.got.tgz:53424.got - 2010.06.03 18:56:24.
