data_PCOD9125323
_publ_section_title
;
Structure prediction by ZEFSAII (Michael W. Deem and Ramdas Pophale) SiO2 
 PCOD9125323
Probable space group: C 2
;
_chemical_formula_sum "Si O2"
_cell_formula_units_Z 26
_cell_length_a 26.393583
_cell_length_b 8.029499
_cell_length_c 5.085720
_cell_angle_alpha 90.000000
_cell_angle_beta 94.503891
_cell_angle_gamma 90.000000
_cell_volume 1074.474394
_symmetry_space_group_name_H-M "C 2"
_symmetry_group_IT_number 5
_symmetry_cell_setting 'monoclinic'
loop_
_space_group_symop_operation_xyz
x,y,z
-x,y,-z
1/2+x,1/2+y,z
1/2-x,1/2+y,-z
loop_
_atom_site_type_symbol
_atom_site_label
_atom_site_fract_x
_atom_site_fract_y
_atom_site_fract_z
Si Si1 0.069317 0.768440 0.858459
Si Si2 0.770122 0.889640 0.292243
Si Si3 0.374480 0.963575 0.013162
Si Si4 0.820243 0.146049 0.915964
Si Si5 0.000000 0.969065 0.500000
Si Si6 0.317984 0.085766 0.486522
Si Si7 0.604619 0.464757 0.386651
O O1 0.015923 0.843571 0.741700
O O2 0.102486 0.832127 0.622891
O O3 0.075238 0.570498 0.900263
O O4 0.092639 0.862994 0.116392
O O5 0.728996 0.763997 0.141182
O O6 0.804455 0.778247 0.496512
O O7 0.847719 0.081135 0.660925
O O8 0.801488 0.997274 0.094889
O O9 0.358058 0.013124 0.711065
O O10 0.365303 0.766952 0.047168
O O11 0.333808 0.043443 0.197729
O O12 0.734815 0.001423 0.458437
O O13 0.051376 0.062979 0.435787
#
# Coordination Sequence:
#
# PCOD9125323 Si02
#       7
#     4   4   4   4   2   4   4
#     4  10  21  40  72 103 133 173 230 286 352 424
#     4  11  24  43  65  98 143 191 239 281 340 401
#     4  11  24  42  67 102 135 181 236 285 346 410
#     4  11  25  44  68 103 144 192 234 288 336 410
#     4   8  22  42  74 106 134 174 228 290 356 430
#     4  11  24  41  63  94 138 185 236 288 333 404
#     4  10  22  41  71 105 137 178 232 284 351 415
#
# _framework density 24.197876000000001
#
# number of rings (size 3 to 8) (size 9 to 14) (size 15 to 20)
#    0.923    0.615    0.000    5.077    0.000    9.846 
#    0.000    0.000    0.000    5.538    4.000    0.000 
#    0.000    0.000    0.000    0.000    0.000    0.000 
#
# Total GULP energy -72552.693641 kJ/mol
# GULP energy per Si atom -5580.976434 kJ/mol
# Density = 2.414280 g / cm^3
# Si number density = 24.197876 Si / 1000 Ang^3
#
#
#
# Elastic Constant Matrix: (Units=GPa)
#
#
# Indices 1 2 3 4 5 6 
#
# 1 58.1216 11.0056 -10.2545 0.0000 5.9283 0.0000
# 2 11.0056 98.1593 20.8231 0.0000 -5.8479 0.0000
# 3 -10.2545 20.8231 99.8040 0.0000 3.3692 0.0000
# 4 0.0000 0.0000 0.0000 45.4019 0.0000 -1.1511
# 5 5.9283 -5.8479 3.3692 0.0000 22.8334 0.0000
# 6 0.0000 0.0000 0.0000 -1.1511 0.0000 30.2876
#
#
#
# Elastic Compliance Matrix: (Units=1/GPa)
#
#
# Indices 1 2 3 4 5 6 
#
# 1 0.018903 -0.003075 0.002790 0.000000 -0.006107 0.000000
# 2 -0.003075 0.011379 -0.002829 0.000000 0.004130 0.000000
# 3 0.002790 -0.002829 0.011000 0.000000 -0.003072 0.000000
# 4 0.000000 0.000000 0.000000 0.022047 0.000000 0.000838
# 5 -0.006107 0.004130 -0.003072 0.000000 0.046892 0.000000
# 6 0.000000 0.000000 0.000000 0.000838 0.000000 0.033049
#
#
# Mechanical properties :
#
#
# Convention : Reuss Voigt Hill
#
# Bulk Modulus (GPa) = 28.52857 33.24816 30.88836
# Shear Modulus (GPa) = 31.02076 35.33861 33.17968
#
# Velocity S-wave (km/s) = 3.58433 3.82567 3.70696
# Velocity P-wave (km/s) = 5.38008 5.76925 5.57806
#
# Compressibility (1/GPa) = 0.03505258
#
# Stress axis : x y z
#
# Youngs Moduli (GPa) = 52.90243 87.88455 90.90631
#
# Poissons Ratio (x) = 0.27025 -0.25362
# Poissons Ratio (y) = 0.16268 0.25721
# Poissons Ratio (z) = -0.14759 0.24866
#
# Static dielectric constant tensor:
#      x y z
#    x 2.098470 0.000000 0.072930 
#    y 0.000000 1.969490 0.000000 
#    z 0.072930 0.000000 1.936730 
# 
# From -- ./inp_files/11108.got.cif
#   From: 2010.05.17/outbox.cif.g08.bks.cpg/sg5_6_cif.got.tgz:11108.got - 2010.06.03 18:56:24.
