data_PCOD9125913
_publ_section_title
;
Structure prediction by ZEFSAII (Michael W. Deem and Ramdas Pophale) SiO2 
 PCOD9125913
Probable space group: C 2
;
_chemical_formula_sum "Si O2"
_cell_formula_units_Z 28
_cell_length_a 13.858158
_cell_length_b 9.277427
_cell_length_c 19.310605
_cell_angle_alpha 90.000000
_cell_angle_beta 156.460651
_cell_angle_gamma 90.000000
_cell_volume 991.548415
_symmetry_space_group_name_H-M "C 2"
_symmetry_group_IT_number 5
_symmetry_cell_setting 'monoclinic'
loop_
_space_group_symop_operation_xyz
x,y,z
-x,y,-z
1/2+x,1/2+y,z
1/2-x,1/2+y,-z
loop_
_atom_site_type_symbol
_atom_site_label
_atom_site_fract_x
_atom_site_fract_y
_atom_site_fract_z
Si Si1 0.339313 0.451840 0.690262
Si Si2 0.873902 0.407130 0.305709
Si Si3 0.940843 0.485168 0.751556
Si Si4 0.000000 0.112050 0.000000
Si Si5 0.267301 0.696026 0.051440
Si Si6 0.000000 0.574317 0.000000
Si Si7 0.783837 0.841097 0.267412
Si Si8 0.813886 0.721484 0.564194
O O1 0.087382 0.490848 0.487088
O O2 0.501869 0.590676 0.796806
O O3 0.431255 0.330603 0.698127
O O4 0.295602 0.384799 0.737908
O O5 0.174956 0.560989 0.393599
O O6 0.033065 0.275216 0.379642
O O7 0.273537 0.503153 0.845835
O O8 0.747370 0.414128 0.677822
O O9 0.136727 0.357025 0.885216
O O10 0.090207 0.617678 0.881320
O O11 0.927020 0.219970 0.888913
O O12 0.118332 0.674520 0.022515
O O13 0.203728 0.471837 0.165667
O O14 0.030689 0.768875 0.401052
#
# Coordination Sequence:
#
# PCOD9125913 Si02
#       8
#     4   4   4   2   4   2   4   4
#     4   9  19  41  79 110 161 222 289 360 426 543
#     4   9  21  41  78 118 160 220 296 346 442 524
#     4  11  25  40  75 122 168 230 286 359 441 534
#     4  11  22  42  79 128 163 229 276 384 437 525
#     4  11  21  40  70 119 167 220 287 354 441 516
#     4   9  18  38  65 112 173 215 270 360 409 523
#     4  10  22  41  75 115 173 218 284 348 444 517
#     4  10  21  46  74 112 167 234 282 366 427 528
#
# _framework density 28.238661
#
# number of rings (size 3 to 8) (size 9 to 14) (size 15 to 20)
#    0.857    1.143    1.429    1.714    6.000    0.000 
#    2.571    2.857   18.857    0.857    3.714    0.000 
#    0.000    0.000    0.000    0.000    0.000    0.000 
#
# Total GULP energy -78213.741679 kJ/mol
# GULP energy per Si atom -5586.695834 kJ/mol
# Density = 2.817439 g / cm^3
# Si number density = 28.238661 Si / 1000 Ang^3
#
#
#
# Elastic Constant Matrix: (Units=GPa)
#
#
# Indices 1 2 3 4 5 6 
#
# 1 65.0437 86.3407 46.7342 0.0172 -6.7357 0.0018
# 2 86.3407 214.2903 84.3332 0.0123 3.0588 0.0000
# 3 46.7342 84.3332 149.1466 0.0361 -4.4617 0.0014
# 4 0.0172 0.0123 0.0361 54.9609 0.0061 -29.0401
# 5 -6.7357 3.0588 -4.4617 0.0061 29.3436 0.0007
# 6 0.0018 0.0000 0.0014 -29.0401 0.0007 43.9675
#
#
#
# Elastic Compliance Matrix: (Units=1/GPa)
#
#
# Indices 1 2 3 4 5 6 
#
# 1 0.037045 -0.013637 -0.003617 -0.000012 0.009375 -0.000010
# 2 -0.013637 0.011061 -0.002119 0.000006 -0.004605 0.000005
# 3 -0.003617 -0.002119 0.009059 -0.000007 0.000768 -0.000005
# 4 -0.000012 0.000006 -0.000007 0.027948 -0.000011 0.018460
# 5 0.009375 -0.004605 0.000768 -0.000011 0.036828 -0.000008
# 6 -0.000010 0.000005 -0.000005 0.018460 -0.000008 0.034936
#
#
# Mechanical properties :
#
#
# Convention : Reuss Voigt Hill
#
# Bulk Modulus (GPa) = 54.28723 95.92184 75.10454
# Shear Modulus (GPa) = 24.78159 39.72589 32.25374
#
# Velocity S-wave (km/s) = 2.96561 3.75479 3.38329
# Velocity P-wave (km/s) = 5.56710 7.26911 6.47428
#
# Compressibility (1/GPa) = 0.01842054
#
# Stress axis : x y z
#
# Youngs Moduli (GPa) = 26.99392 90.41145 110.38471
#
# Poissons Ratio (x) = 1.23290 0.39925
# Poissons Ratio (y) = 0.36810 0.23389
# Poissons Ratio (z) = 0.09763 0.19157
#
# Static dielectric constant tensor:
#      x y z
#    x 2.310510 0.000000 0.016060 
#    y 0.000000 2.147000 -0.000020 
#    z 0.016060 -0.000020 2.295520 
# 
# From -- ./inp_files/70538.got.cif
#   From: 2010.05.17/outbox.cif.g08.bks.cpg/sg5_36_cif.got.tgz:70538.got - 2010.06.03 18:56:24.
