data_PCOD9125714
_publ_section_title
;
Structure prediction by ZEFSAII (Michael W. Deem and Ramdas Pophale) SiO2 
 PCOD9125714
Probable space group: C 2
;
_chemical_formula_sum "Si O2"
_cell_formula_units_Z 30
_cell_length_a 25.230024
_cell_length_b 8.466435
_cell_length_c 15.903874
_cell_angle_alpha 90.000000
_cell_angle_beta 158.049337
_cell_angle_gamma 90.000000
_cell_volume 1269.900907
_symmetry_space_group_name_H-M "C 2"
_symmetry_group_IT_number 5
_symmetry_cell_setting 'monoclinic'
loop_
_space_group_symop_operation_xyz
x,y,z
-x,y,-z
1/2+x,1/2+y,z
1/2-x,1/2+y,-z
loop_
_atom_site_type_symbol
_atom_site_label
_atom_site_fract_x
_atom_site_fract_y
_atom_site_fract_z
Si Si1 0.500000 0.993060 0.000000
Si Si2 0.116982 0.021906 0.100268
Si Si3 0.147162 0.285195 0.617555
Si Si4 0.940249 0.486448 0.227389
Si Si5 0.293951 0.580705 0.441042
Si Si6 0.857392 0.764821 0.474167
Si Si7 0.663963 0.465596 0.727605
Si Si8 0.055257 0.287165 0.239670
O O1 0.444976 0.885871 0.844550
O O2 0.363021 0.084102 0.827315
O O3 0.236957 0.136212 0.316733
O O4 0.211985 0.884953 0.198008
O O5 0.000000 0.980584 0.000000
O O6 0.044478 0.134888 0.923674
O O7 0.109114 0.166667 0.484550
O O8 0.014565 0.404588 0.417640
O O9 0.172608 0.155429 0.725501
O O10 0.995969 0.667565 0.314451
O O11 0.009899 0.409462 0.245328
O O12 0.776178 0.444812 0.968369
O O13 0.352328 0.405135 0.534263
O O14 0.297934 0.700064 0.523861
O O15 0.808197 0.856915 0.315104
O O16 0.500000 0.429397 0.500000
#
# Coordination Sequence:
#
# PCOD9125714 Si02
#       8
#     2   4   4   4   4   4   4   4
#     4  12  22  40  52  86 138 154 228 278 292 368
#     4  11  20  38  62  90 133 172 214 266 307 370
#     4   9  23  41  59  93 133 163 218 266 310 393
#     4  10  22  42  66  88 133 167 205 272 333 377
#     4  10  22  37  58  83 119 177 212 261 323 368
#     4  10  21  43  64  94 130 168 214 270 322 388
#     4  11  23  44  71  97 126 165 214 271 343 393
#     4  11  21  38  61  86 124 175 212 268 316 378
#
# _framework density 23.623888999999998
#
# number of rings (size 3 to 8) (size 9 to 14) (size 15 to 20)
#    0.000    1.600    3.333    0.800    2.800    5.333 
#    0.000    2.667    0.000    0.000    0.000    0.000 
#    0.000    0.000    0.000    0.000    0.000    0.000 
#
# Total GULP energy -83563.412198 kJ/mol
# GULP energy per Si atom -5570.894147 kJ/mol
# Density = 2.357012 g / cm^3
# Si number density = 23.623889 Si / 1000 Ang^3
#
#
#
# Elastic Constant Matrix: (Units=GPa)
#
#
# Indices 1 2 3 4 5 6 
#
# 1 24.0802 5.5887 8.1255 0.0000 6.4719 0.0000
# 2 5.5887 84.8649 25.3805 0.0000 2.5108 0.0000
# 3 8.1255 25.3805 104.0339 0.0000 17.1519 0.0000
# 4 0.0000 0.0000 0.0000 31.1262 0.0000 -4.6882
# 5 6.4719 2.5108 17.1519 0.0000 28.9556 0.0000
# 6 0.0000 0.0000 0.0000 -4.6882 0.0000 18.0934
#
#
#
# Elastic Compliance Matrix: (Units=1/GPa)
#
#
# Indices 1 2 3 4 5 6 
#
# 1 0.044963 -0.002252 -0.001483 0.000000 -0.008976 0.000000
# 2 -0.002252 0.012841 -0.003165 0.000000 0.001265 0.000000
# 3 -0.001483 -0.003165 0.011526 0.000000 -0.006222 0.000000
# 4 0.000000 0.000000 0.000000 0.033432 0.000000 0.008663
# 5 -0.008976 0.001265 -0.006222 0.000000 0.040118 0.000000
# 6 0.000000 0.000000 0.000000 0.008663 0.000000 0.057513
#
#
# Mechanical properties :
#
#
# Convention : Reuss Voigt Hill
#
# Bulk Modulus (GPa) = 18.00814 32.35205 25.18009
# Shear Modulus (GPa) = 21.48657 27.22731 24.35694
#
# Velocity S-wave (km/s) = 3.01911 3.39858 3.21445
# Velocity P-wave (km/s) = 4.44890 5.39674 4.94558
#
# Compressibility (1/GPa) = 0.05553046
#
# Stress axis : x y z
#
# Youngs Moduli (GPa) = 22.24033 77.87557 86.76008
#
# Poissons Ratio (x) = 0.17538 0.12862
# Poissons Ratio (y) = 0.05009 0.27463
# Poissons Ratio (z) = 0.03297 0.24651
#
# Static dielectric constant tensor:
#      x y z
#    x 2.029210 0.000000 0.018430 
#    y 0.000000 1.955090 0.000000 
#    z 0.018430 0.000000 2.022010 
# 
# From -- ./inp_files/63813.got.cif
#   From: 2010.05.17/outbox.cif.g08.bks.cpg/sg5_32_cif.got.tgz:63813.got - 2010.06.03 18:56:24.
