data_PCOD9125235
_publ_section_title
;
Structure prediction by ZEFSAII (Michael W. Deem and Ramdas Pophale) SiO2 
 PCOD9125235
Probable space group: C 2
;
_chemical_formula_sum "Si O2"
_cell_formula_units_Z 24
_cell_length_a 9.653829
_cell_length_b 9.543280
_cell_length_c 11.608000
_cell_angle_alpha 90.000000
_cell_angle_beta 79.420585
_cell_angle_gamma 90.000000
_cell_volume 1051.256739
_symmetry_space_group_name_H-M "C 2"
_symmetry_group_IT_number 5
_symmetry_cell_setting 'monoclinic'
loop_
_space_group_symop_operation_xyz
x,y,z
-x,y,-z
1/2+x,1/2+y,z
1/2-x,1/2+y,-z
loop_
_atom_site_type_symbol
_atom_site_label
_atom_site_fract_x
_atom_site_fract_y
_atom_site_fract_z
Si Si1 0.288718 0.047340 0.716882
Si Si2 0.812685 0.174382 0.486927
Si Si3 0.840633 0.067477 0.728417
Si Si4 0.294723 0.300788 0.110384
Si Si5 0.097962 0.799326 0.155550
Si Si6 0.101991 0.479263 0.615427
O O1 0.180366 0.082316 0.630567
O O2 0.336294 0.192464 0.765101
O O3 0.230722 0.948991 0.825534
O O4 0.435186 0.976517 0.652064
O O5 0.887351 0.126337 0.595391
O O6 0.840069 0.336294 0.452843
O O7 0.652640 0.125575 0.547465
O O8 0.817991 0.193667 0.820098
O O9 0.924311 0.945555 0.776895
O O10 0.689293 0.994293 0.720626
O O11 0.446802 0.249333 0.132725
O O12 0.303961 0.313373 0.972066
#
# Coordination Sequence:
#
# PCOD9125235 Si02
#       6
#     4   4   4   4   4   4
#     4  12  22  42  69  94 134 172 215 274 326 392
#     4  10  21  40  65  96 131 168 214 261 334 391
#     4  10  22  43  65  99 128 171 221 266 333 386
#     4  11  25  41  68  96 129 179 224 269 328 385
#     4  11  23  46  65  92 135 176 222 274 322 390
#     4  10  22  39  68  96 129 171 213 263 333 387
#
# _framework density 22.829818
#
# number of rings (size 3 to 8) (size 9 to 14) (size 15 to 20)
#    1.000    0.333    3.333    2.500    0.000    1.333 
#    0.000    2.500    0.000    0.000    0.000    0.000 
#    0.000    0.000    0.000    0.000    0.000    0.000 
#
# Total GULP energy -66950.633668 kJ/mol
# GULP energy per Si atom -5579.219472 kJ/mol
# Density = 2.277786 g / cm^3
# Si number density = 22.829818 Si / 1000 Ang^3
#
#
#
# Elastic Constant Matrix: (Units=GPa)
#
#
# Indices 1 2 3 4 5 6 
#
# 1 56.3384 18.4935 23.4526 0.0000 3.2741 0.0000
# 2 18.4935 138.0400 65.7773 0.0000 -11.0553 0.0000
# 3 23.4526 65.7773 130.3401 0.0000 -10.3215 0.0000
# 4 0.0000 0.0000 0.0000 25.0555 0.0000 -22.5217
# 5 3.2741 -11.0553 -10.3215 0.0000 27.9848 0.0000
# 6 0.0000 0.0000 0.0000 -22.5217 0.0000 7.7784
#
#
#
# Elastic Compliance Matrix: (Units=1/GPa)
#
#
# Indices 1 2 3 4 5 6 
#
# 1 0.019775 -0.001482 -0.003131 0.000000 -0.004054 0.000000
# 2 -0.001482 0.009765 -0.004473 0.000000 0.002381 0.000000
# 3 -0.003131 -0.004473 0.010694 0.000000 0.002544 0.000000
# 4 0.000000 0.000000 0.000000 -0.024904 0.000000 -0.072108
# 5 -0.004054 0.002381 0.002544 0.000000 0.038087 0.000000
# 6 0.000000 0.000000 0.000000 -0.072108 0.000000 -0.080220
#
#
# Mechanical properties :
#
#
# Convention : Reuss Voigt Hill
#
# Bulk Modulus (GPa) = 45.32570 60.01837 52.67204
# Shear Modulus (GPa) = -3917.33242 26.63008 -1945.35117
#
# Velocity S-wave (km/s) = -41.46817 3.41905 -29.22259
# Velocity P-wave (km/s) = 47.67510 6.47558 33.39897
#
# Compressibility (1/GPa) = 0.02206254
#
# Stress axis : x y z
#
# Youngs Moduli (GPa) = 50.56769 102.40878 93.50761
#
# Poissons Ratio (x) = 0.15176 0.29282
# Poissons Ratio (y) = 0.07493 0.41823
# Poissons Ratio (z) = 0.15835 0.45804
#
# Static dielectric constant tensor:
#      x y z
#    x 1.920330 0.000000 -0.019600 
#    y 0.000000 1.802700 0.000000 
#    z -0.019600 0.000000 1.877170 
# 
# From -- ./inp_files/38263.got.cif
#   From: 2010.05.17/outbox.cif.g08.bks.cpg/sg5_20_cif.got.tgz:38263.got - 2010.06.03 18:56:24.
