data_PCOD9125838
_publ_section_title
;
Structure prediction by ZEFSAII (Michael W. Deem and Ramdas Pophale) SiO2 
 PCOD9125838
Probable space group: C 2
;
_chemical_formula_sum "Si O2"
_cell_formula_units_Z 30
_cell_length_a 15.883038
_cell_length_b 8.360427
_cell_length_c 11.469087
_cell_angle_alpha 90.000000
_cell_angle_beta 110.816344
_cell_angle_gamma 90.000000
_cell_volume 1423.555599
_symmetry_space_group_name_H-M "C 2"
_symmetry_group_IT_number 5
_symmetry_cell_setting 'monoclinic'
loop_
_space_group_symop_operation_xyz
x,y,z
-x,y,-z
1/2+x,1/2+y,z
1/2-x,1/2+y,-z
loop_
_atom_site_type_symbol
_atom_site_label
_atom_site_fract_x
_atom_site_fract_y
_atom_site_fract_z
Si Si1 0.483246 0.255440 0.658269
Si Si2 0.584952 0.181043 0.122732
Si Si3 0.803020 0.712281 0.187308
Si Si4 0.183961 0.422377 0.286299
Si Si5 0.000000 0.035813 0.500000
Si Si6 0.095401 0.445416 0.485831
Si Si7 0.246763 0.858142 0.080865
Si Si8 0.677103 0.706505 0.675713
O O1 0.442810 0.244639 0.765576
O O2 0.590750 0.218171 0.726172
O O3 0.469916 0.422866 0.590536
O O4 0.425990 0.129322 0.553471
O O5 0.657792 0.299801 0.104522
O O6 0.618454 0.998473 0.156519
O O7 0.500000 0.179397 0.000000
O O8 0.744122 0.779019 0.266047
O O9 0.776681 0.537328 0.126098
O O10 0.775486 0.827895 0.065103
O O11 0.126875 0.381231 0.373946
O O12 0.248094 0.580710 0.332602
O O13 0.914986 0.127229 0.408634
O O14 0.172929 0.379980 0.609995
O O15 0.000000 0.400085 0.500000
O O16 0.317058 0.740309 0.183008
#
# Coordination Sequence:
#
# PCOD9125838 Si02
#       8
#     4   4   4   4   2   4   4   4
#     4  11  24  41  73  94 133 185 227 276 343 400
#     4  10  21  44  68  96 133 179 226 282 338 402
#     4  12  24  45  70  99 135 175 230 278 341 410
#     4  10  25  43  66 101 133 180 225 281 343 399
#     4  12  24  40  68  98 142 174 230 278 330 404
#     4  11  23  43  66  98 136 179 226 275 337 404
#     4  11  25  42  71  99 137 179 223 282 340 401
#     4  11  24  42  66 102 138 175 225 282 331 402
#
# _framework density 21.073993000000002
#
# number of rings (size 3 to 8) (size 9 to 14) (size 15 to 20)
#    0.000    1.067    4.000    2.400    0.000    6.400 
#    0.000    0.667    0.000    0.000    0.000    0.000 
#    0.000    0.000    0.000    0.000    0.000    0.000 
#
# Total GULP energy -83622.303706 kJ/mol
# GULP energy per Si atom -5574.820247 kJ/mol
# Density = 2.102603 g / cm^3
# Si number density = 21.073993 Si / 1000 Ang^3
#
#
#
# Elastic Constant Matrix: (Units=GPa)
#
#
# Indices 1 2 3 4 5 6 
#
# 1 74.8957 18.9132 16.9490 0.0000 -15.0161 0.0000
# 2 18.9132 64.4792 29.5720 0.0000 10.5477 0.0000
# 3 16.9490 29.5720 87.6261 0.0000 8.3961 0.0000
# 4 0.0000 0.0000 0.0000 37.4617 0.0000 11.3058
# 5 -15.0161 10.5477 8.3961 0.0000 43.5191 0.0000
# 6 0.0000 0.0000 0.0000 11.3058 0.0000 26.2900
#
#
#
# Elastic Compliance Matrix: (Units=1/GPa)
#
#
# Indices 1 2 3 4 5 6 
#
# 1 0.016613 -0.005067 -0.002211 0.000000 0.007387 0.000000
# 2 -0.005067 0.020376 -0.005355 0.000000 -0.005654 0.000000
# 3 -0.002211 -0.005355 0.013852 0.000000 -0.002138 0.000000
# 4 0.000000 0.000000 0.000000 0.030675 0.000000 -0.013192
# 5 0.007387 -0.005654 -0.002138 0.000000 0.027310 0.000000
# 6 0.000000 0.000000 0.000000 -0.013192 0.000000 0.043710
#
#
# Mechanical properties :
#
#
# Convention : Reuss Voigt Hill
#
# Bulk Modulus (GPa) = 39.10116 39.76327 39.43221
# Shear Modulus (GPa) = 26.83461 32.22527 29.52994
#
# Velocity S-wave (km/s) = 3.57228 3.91468 3.74739
# Velocity P-wave (km/s) = 5.96736 6.27234 6.12175
#
# Compressibility (1/GPa) = 0.02557469
#
# Stress axis : x y z
#
# Youngs Moduli (GPa) = 60.19406 49.07771 72.19355
#
# Poissons Ratio (x) = 0.24869 0.15962
# Poissons Ratio (y) = 0.30502 0.38656
# Poissons Ratio (z) = 0.13309 0.26279
#
# Static dielectric constant tensor:
#      x y z
#    x 1.786290 0.000000 0.004310 
#    y 0.000000 1.840150 0.000000 
#    z 0.004310 0.000000 1.764610 
# 
# From -- ./inp_files/41998.got.cif
#   From: 2010.05.17/outbox.cif.g08.bks.cpg/sg5_21_cif.got.tgz:41998.got - 2010.06.03 18:56:24.
