data_PCOD9125938
_publ_section_title
;
Structure prediction by ZEFSAII (Michael W. Deem and Ramdas Pophale) SiO2 
 PCOD9125938
Probable space group: C 2
;
_chemical_formula_sum "Si O2"
_cell_formula_units_Z 28
_cell_length_a 21.196594
_cell_length_b 5.390280
_cell_length_c 14.662172
_cell_angle_alpha 90.000000
_cell_angle_beta 42.061359
_cell_angle_gamma 90.000000
_cell_volume 1122.283542
_symmetry_space_group_name_H-M "C 2"
_symmetry_group_IT_number 5
_symmetry_cell_setting 'monoclinic'
loop_
_space_group_symop_operation_xyz
x,y,z
-x,y,-z
1/2+x,1/2+y,z
1/2-x,1/2+y,-z
loop_
_atom_site_type_symbol
_atom_site_label
_atom_site_fract_x
_atom_site_fract_y
_atom_site_fract_z
Si Si1 0.105919 0.645950 0.671673
Si Si2 0.229566 0.880260 0.410518
Si Si3 0.552827 0.896972 0.265101
Si Si4 0.500000 0.881561 0.000000
Si Si5 0.186861 0.608860 0.863124
Si Si6 0.500000 0.650846 0.500000
Si Si7 0.356902 0.492163 0.207908
Si Si8 0.144420 0.914608 0.216058
O O1 0.129677 0.848824 0.566922
O O2 0.198005 0.478804 0.591054
O O3 0.098413 0.783593 0.776148
O O4 0.018348 0.488370 0.734445
O O5 0.261484 0.605462 0.348122
O O6 0.254653 0.036011 0.292814
O O7 0.621235 0.132981 0.212901
O O8 0.490370 0.830653 0.422781
O O9 0.605506 0.634841 0.191845
O O10 0.566490 0.705169 0.870010
O O11 0.580431 0.014606 0.971723
O O12 0.169615 0.900703 0.865131
O O13 0.248604 0.492801 0.876252
O O14 0.584106 0.475868 0.373543
#
# Coordination Sequence:
#
# PCOD9125938 Si02
#       8
#     4   4   4   2   4   2   4   4
#     4  11  22  36  57  94 135 170 214 251 328 401
#     4  10  22  33  58  91 127 174 203 262 323 384
#     4  10  24  35  58  87 134 181 213 253 314 395
#     4  10  22  42  68  96 116 160 224 280 336 360
#     4  10  23  38  63  93 124 161 225 270 328 378
#     4   8  22  32  52  84 130 178 220 236 318 368
#     4  10  22  39  63  93 123 165 204 278 323 381
#     4  10  23  37  57  92 126 179 218 260 318 381
#
# _framework density 24.94913
#
# number of rings (size 3 to 8) (size 9 to 14) (size 15 to 20)
#    0.857    1.143    1.429    0.857   12.000    0.000 
#    0.000    0.000    0.000    0.000   14.857    0.000 
#    0.000    0.000    0.000    0.000    0.000    0.000 
#
# Total GULP energy -78041.167352 kJ/mol
# GULP energy per Si atom -5574.369097 kJ/mol
# Density = 2.489234 g / cm^3
# Si number density = 24.949130 Si / 1000 Ang^3
#
#
#
# Elastic Constant Matrix: (Units=GPa)
#
#
# Indices 1 2 3 4 5 6 
#
# 1 42.0940 -12.3644 0.9743 0.0443 -14.4919 0.2014
# 2 -12.3644 67.8163 -3.2531 0.0856 -1.6926 0.3162
# 3 0.9743 -3.2531 47.8879 -0.0126 -5.4408 0.0399
# 4 0.0443 0.0856 -0.0126 22.4065 0.0030 -1.2058
# 5 -14.4919 -1.6926 -5.4408 0.0030 29.6377 -0.0085
# 6 0.2014 0.3162 0.0399 -1.2058 -0.0085 24.1713
#
#
#
# Elastic Compliance Matrix: (Units=1/GPa)
#
#
# Indices 1 2 3 4 5 6 
#
# 1 0.030947 0.006113 0.001578 -0.000104 0.015771 -0.000340
# 2 0.006113 0.016035 0.001439 -0.000087 0.004169 -0.000266
# 3 0.001578 0.001439 0.021493 -0.000001 0.004799 -0.000066
# 4 -0.000104 -0.000087 -0.000001 0.044751 -0.000060 0.002234
# 5 0.015771 0.004169 0.004799 -0.000060 0.042571 -0.000182
# 6 -0.000340 -0.000266 -0.000066 0.002234 -0.000182 0.041489
#
#
# Mechanical properties :
#
#
# Convention : Reuss Voigt Hill
#
# Bulk Modulus (GPa) = 11.52952 14.27908 12.90430
# Shear Modulus (GPa) = 24.04570 26.73919 25.39245
#
# Velocity S-wave (km/s) = 3.10786 3.27731 3.19371
# Velocity P-wave (km/s) = 4.18445 4.47847 4.33396
#
# Compressibility (1/GPa) = 0.08673387
#
# Stress axis : x y z
#
# Youngs Moduli (GPa) = 32.31367 62.36469 46.52665
#
# Poissons Ratio (x) = -0.38125 -0.07341
# Poissons Ratio (y) = -0.19754 -0.06694
# Poissons Ratio (z) = -0.05098 -0.08973
#
# Static dielectric constant tensor:
#      x y z
#    x 1.972960 -0.000070 0.026300 
#    y -0.000070 2.060090 -0.000030 
#    z 0.026300 -0.000030 2.070230 
# 
# From -- ./inp_files/56511.got.cif
#   From: 2010.05.17/outbox.cif.g08.bks.cpg/sg5_29_cif.got.tgz:56511.got - 2010.06.03 18:56:24.
