data_PCOD9125589
_publ_section_title
;
Structure prediction by ZEFSAII (Michael W. Deem and Ramdas Pophale) SiO2 
 PCOD9125589
Probable space group: C 2
;
_chemical_formula_sum "Si O2"
_cell_formula_units_Z 20
_cell_length_a 11.602442
_cell_length_b 11.577289
_cell_length_c 13.485612
_cell_angle_alpha 90.000000
_cell_angle_beta 147.402811
_cell_angle_gamma 90.000000
_cell_volume 975.882792
_symmetry_space_group_name_H-M "C 2"
_symmetry_group_IT_number 5
_symmetry_cell_setting 'monoclinic'
loop_
_space_group_symop_operation_xyz
x,y,z
-x,y,-z
1/2+x,1/2+y,z
1/2-x,1/2+y,-z
loop_
_atom_site_type_symbol
_atom_site_label
_atom_site_fract_x
_atom_site_fract_y
_atom_site_fract_z
Si Si1 0.507815 0.953870 0.123159
Si Si2 0.511402 0.644086 0.337042
Si Si3 0.164470 0.790976 0.543813
Si Si4 0.171686 0.695316 0.249540
Si Si5 0.954273 0.891179 0.199722
O O1 0.729268 0.903201 0.326931
O O2 0.501480 0.091424 0.134497
O O3 0.500000 0.931683 0.000000
O O4 0.293988 0.895147 0.009406
O O5 0.627556 0.722394 0.339913
O O6 0.290415 0.682477 0.229728
O O7 0.667398 0.659073 0.545121
O O8 0.501187 0.519593 0.276489
O O9 0.019686 0.817472 0.343662
O O10 0.000000 0.731942 0.500000
O O11 0.086579 0.824061 0.210401
#
# Coordination Sequence:
#
# PCOD9125589 Si02
#       5
#     4   4   4   4   4
#     4  12  22  37  69  89 124 170 216 260 320 380
#     4  10  21  42  66  88 133 170 209 269 318 376
#     4  11  22  41  61  92 127 169 217 260 321 380
#     4  10  22  41  65  96 123 170 220 251 326 386
#     4  11  23  40  65  93 125 165 216 265 310 389
#
# _framework density 20.494264000000001
#
# number of rings (size 3 to 8) (size 9 to 14) (size 15 to 20)
#    0.000    1.200    6.000    0.000    2.800    0.000 
#    7.200    0.000    0.000    1.200    0.000    0.000 
#    0.000    0.000    0.000    0.000    0.000    0.000 
#
# Total GULP energy -55678.277755 kJ/mol
# GULP energy per Si atom -5567.827775 kJ/mol
# Density = 2.044762 g / cm^3
# Si number density = 20.494264 Si / 1000 Ang^3
#
#
#
# Elastic Constant Matrix: (Units=GPa)
#
#
# Indices 1 2 3 4 5 6 
#
# 1 115.3049 79.6521 19.7542 0.0000 18.5689 -0.0001
# 2 79.6521 87.6718 10.8722 0.0010 26.4627 0.0004
# 3 19.7542 10.8722 85.1731 0.0015 13.2954 0.0008
# 4 0.0000 0.0010 0.0015 30.0109 0.0005 0.9163
# 5 18.5689 26.4627 13.2954 0.0005 22.8508 0.0002
# 6 -0.0001 0.0004 0.0008 0.9163 0.0002 26.8964
#
#
#
# Elastic Compliance Matrix: (Units=1/GPa)
#
#
# Indices 1 2 3 4 5 6 
#
# 1 0.025949 -0.026822 -0.004566 0.000001 0.012632 0.000001
# 2 -0.026822 0.045342 0.005749 -0.000001 -0.034058 -0.000001
# 3 -0.004566 0.005749 0.013777 -0.000001 -0.010964 0.000000
# 4 0.000001 -0.000001 -0.000001 0.033356 0.000000 -0.001136
# 5 0.012632 -0.034058 -0.010964 0.000000 0.079317 0.000000
# 6 0.000001 -0.000001 0.000000 -0.001136 0.000000 0.037218
#
#
# Mechanical properties :
#
#
# Convention : Reuss Voigt Hill
#
# Bulk Modulus (GPa) = 29.59439 56.52299 43.05869
# Shear Modulus (GPa) = 16.80659 27.80970 22.30815
#
# Velocity S-wave (km/s) = 2.86678 3.68768 3.30283
# Velocity P-wave (km/s) = 5.04278 6.76548 5.96663
#
# Compressibility (1/GPa) = 0.03379019
#
# Stress axis : x y z
#
# Youngs Moduli (GPa) = 38.53656 22.05467 72.58270
#
# Poissons Ratio (x) = 0.59156 0.33145
# Poissons Ratio (y) = 1.03364 -0.41731
# Poissons Ratio (z) = 0.17598 -0.12680
#
# Static dielectric constant tensor:
#      x y z
#    x 1.749580 0.000000 0.024020 
#    y 0.000000 1.756920 0.000000 
#    z 0.024020 0.000000 1.778290 
# 
# From -- ./inp_files/18708.got.cif
#   From: 2010.05.17/outbox.cif.g08.bks.cpg/sg5_10_cif.got.tgz:18708.got - 2010.06.03 18:56:24.
