data_PCOD9125746
_publ_section_title
;
Structure prediction by ZEFSAII (Michael W. Deem and Ramdas Pophale) SiO2 
 PCOD9125746
Probable space group: C 2
;
_chemical_formula_sum "Si O2"
_cell_formula_units_Z 24
_cell_length_a 18.291263
_cell_length_b 5.088714
_cell_length_c 28.417056
_cell_angle_alpha 90.000000
_cell_angle_beta 157.505983
_cell_angle_gamma 90.000000
_cell_volume 1011.954485
_symmetry_space_group_name_H-M "C 2"
_symmetry_group_IT_number 5
_symmetry_cell_setting 'monoclinic'
loop_
_space_group_symop_operation_xyz
x,y,z
-x,y,-z
1/2+x,1/2+y,z
1/2-x,1/2+y,-z
loop_
_atom_site_type_symbol
_atom_site_label
_atom_site_fract_x
_atom_site_fract_y
_atom_site_fract_z
Si Si1 0.672897 0.408170 0.227944
Si Si2 0.444655 0.220832 0.516651
Si Si3 0.569278 0.847832 0.760045
Si Si4 0.853980 0.166917 0.880406
Si Si5 0.553098 0.540162 0.662266
Si Si6 0.925856 0.869281 0.725952
O O1 0.571156 0.568346 0.125556
O O2 0.767304 0.157174 0.259575
O O3 0.568552 0.345570 0.214267
O O4 0.861875 0.572507 0.354274
O O5 0.500000 0.357142 0.500000
O O6 0.412073 0.424324 0.539496
O O7 0.277332 0.007826 0.409417
O O8 0.478663 0.748495 0.656067
O O9 0.568870 0.595522 0.793497
O O10 0.780924 0.930132 0.870003
O O11 0.468631 0.089825 0.727281
O O12 0.653531 0.311442 0.751539
O O13 0.000000 0.320757 0.000000
#
# Coordination Sequence:
#
# PCOD9125746 Si02
#       6
#     4   4   4   4   4   4
#     4   9  22  40  66  98 126 179 226 257 316 400
#     4   9  21  39  65  96 129 183 221 261 312 386
#     4  11  24  45  64 100 132 169 215 274 333 386
#     4  10  22  46  70  93 128 173 222 276 329 396
#     4  10  21  43  67  99 130 169 236 258 320 403
#     4  11  24  43  68  96 142 170 212 275 326 377
#
# _framework density 23.716483
#
# number of rings (size 3 to 8) (size 9 to 14) (size 15 to 20)
#    0.000    2.000    1.667    0.000    9.333    3.333 
#    9.000    1.667    0.000    0.000    0.000    0.000 
#    0.000    0.000    0.000    0.000    0.000    0.000 
#
# Total GULP energy -66979.845867 kJ/mol
# GULP energy per Si atom -5581.653822 kJ/mol
# Density = 2.366250 g / cm^3
# Si number density = 23.716483 Si / 1000 Ang^3
#
#
#
# Elastic Constant Matrix: (Units=GPa)
#
#
# Indices 1 2 3 4 5 6 
#
# 1 196.9656 69.7847 31.8586 -0.0017 -28.6863 0.0043
# 2 69.7847 111.8333 9.4654 0.0199 -15.1014 -0.0802
# 3 31.8586 9.4654 61.9802 0.0009 -25.6505 -0.0140
# 4 -0.0017 0.0199 0.0009 10.5390 0.0013 3.1293
# 5 -28.6863 -15.1014 -25.6505 0.0013 26.2637 -0.0011
# 6 0.0043 -0.0802 -0.0140 3.1293 -0.0011 44.5776
#
#
#
# Elastic Compliance Matrix: (Units=1/GPa)
#
#
# Indices 1 2 3 4 5 6 
#
# 1 0.007303 -0.003840 -0.001309 0.000011 0.004490 -0.000009
# 2 -0.003840 0.011785 0.002086 -0.000031 0.004619 0.000025
# 3 -0.001309 0.002086 0.027514 -0.000014 0.026641 0.000014
# 4 0.000011 -0.000031 -0.000014 0.096905 -0.000025 -0.006803
# 5 0.004490 0.004619 0.026641 -0.000025 0.071655 0.000020
# 6 -0.000009 0.000025 0.000014 -0.006803 0.000020 0.022910
#
#
# Mechanical properties :
#
#
# Convention : Reuss Voigt Hill
#
# Bulk Modulus (GPa) = 24.70655 65.88851 45.29753
# Shear Modulus (GPa) = 19.40301 33.58742 26.49522
#
# Velocity S-wave (km/s) = 2.86339 3.76733 3.34603
# Velocity P-wave (km/s) = 4.62299 6.83855 5.83686
#
# Compressibility (1/GPa) = 0.04047510
#
# Stress axis : x y z
#
# Youngs Moduli (GPa) = 136.92373 84.85070 36.34529
#
# Poissons Ratio (x) = 0.32584 0.04759
# Poissons Ratio (y) = 0.52581 -0.07580
# Poissons Ratio (z) = 0.17927 -0.17697
#
# Static dielectric constant tensor:
#      x y z
#    x 1.969220 0.000040 -0.024220 
#    y 0.000040 1.966390 0.000000 
#    z -0.024220 0.000000 1.949810 
# 
# From -- ./inp_files/63184.got.cif
#   From: 2010.05.17/outbox.cif.g08.bks.cpg/sg5_32_cif.got.tgz:63184.got - 2010.06.03 18:56:24.
