data_PCOD9125248
_publ_section_title
;
Structure prediction by ZEFSAII (Michael W. Deem and Ramdas Pophale) SiO2 
 PCOD9125248
Probable space group: C 2
;
_chemical_formula_sum "Si O2"
_cell_formula_units_Z 26
_cell_length_a 19.437102
_cell_length_b 7.540265
_cell_length_c 9.032423
_cell_angle_alpha 90.000000
_cell_angle_beta 126.911656
_cell_angle_gamma 90.000000
_cell_volume 1058.460866
_symmetry_space_group_name_H-M "C 2"
_symmetry_group_IT_number 5
_symmetry_cell_setting 'monoclinic'
loop_
_space_group_symop_operation_xyz
x,y,z
-x,y,-z
1/2+x,1/2+y,z
1/2-x,1/2+y,-z
loop_
_atom_site_type_symbol
_atom_site_label
_atom_site_fract_x
_atom_site_fract_y
_atom_site_fract_z
Si Si1 0.291777 0.175900 0.862771
Si Si2 0.500000 0.465529 0.500000
Si Si3 0.580336 0.049091 0.484010
Si Si4 0.085486 0.140914 0.076154
Si Si5 0.244974 0.090142 0.129025
Si Si6 0.362544 0.658396 0.530482
Si Si7 0.536791 0.289332 0.834595
O O1 0.278640 0.388813 0.858343
O O2 0.233056 0.117989 0.651497
O O3 0.254325 0.099395 0.966105
O O4 0.394066 0.157247 0.004147
O O5 0.432278 0.568590 0.512768
O O6 0.555113 0.356345 0.690978
O O7 0.500000 0.019912 0.500000
O O8 0.664838 0.125012 0.674606
O O9 0.549282 0.180909 0.313401
O O10 0.611532 0.864339 0.454452
O O11 0.164029 0.208297 0.077205
O O12 0.127883 0.099218 0.288694
O O13 0.045679 0.970354 0.938364
O O14 0.000000 0.254554 0.000000
#
# Coordination Sequence:
#
# PCOD9125248 Si02
#       7
#     4   2   4   4   4   4   4
#     4  10  21  40  66 100 127 175 222 279 324 404
#     4  12  20  38  74 100 124 190 226 278 318 414
#     4  11  21  42  72 108 136 165 226 300 335 393
#     4  11  24  45  65  92 140 183 223 270 332 419
#     4  10  22  41  68 102 135 168 228 277 339 393
#     4  11  24  40  67  98 140 175 227 275 342 400
#     4  11  22  43  72  98 134 174 231 276 341 392
#
# _framework density 24.563970000000001
#
# number of rings (size 3 to 8) (size 9 to 14) (size 15 to 20)
#    0.000    1.231    4.615    1.846    0.000    0.000 
#    8.308    0.769    0.000    0.000    0.000    0.000 
#    0.000    0.000    0.000    0.000    0.000    0.000 
#
# Total GULP energy -72578.107410 kJ/mol
# GULP energy per Si atom -5582.931339 kJ/mol
# Density = 2.450806 g / cm^3
# Si number density = 24.563970 Si / 1000 Ang^3
#
#
#
# Elastic Constant Matrix: (Units=GPa)
#
#
# Indices 1 2 3 4 5 6 
#
# 1 56.7299 3.9766 28.8134 0.0000 10.8893 0.0000
# 2 3.9766 57.6748 21.8440 0.0000 -1.1334 0.0000
# 3 28.8134 21.8440 211.7021 0.0000 13.6029 0.0000
# 4 0.0000 0.0000 0.0000 28.7861 0.0000 14.3091
# 5 10.8893 -1.1334 13.6029 0.0000 49.2506 0.0000
# 6 0.0000 0.0000 0.0000 14.3091 0.0000 -5.0549
#
#
#
# Elastic Compliance Matrix: (Units=1/GPa)
#
#
# Indices 1 2 3 4 5 6 
#
# 1 0.019577 -0.000523 -0.002374 0.000000 -0.003685 0.000000
# 2 -0.000523 0.018101 -0.001864 0.000000 0.001047 0.000000
# 3 -0.002374 -0.001864 0.005302 0.000000 -0.000982 0.000000
# 4 0.000000 0.000000 0.000000 0.014432 0.000000 0.040853
# 5 -0.003685 0.001047 -0.000982 0.000000 0.021415 0.000000
# 6 0.000000 0.000000 0.000000 0.040853 0.000000 -0.082185
#
#
# Mechanical properties :
#
#
# Convention : Reuss Voigt Hill
#
# Bulk Modulus (GPa) = 29.88745 48.37496 39.13121
# Shear Modulus (GPa) = 288.74898 32.69457 160.72177
#
# Velocity S-wave (km/s) = 10.85380 3.65224 8.09765
# Velocity P-wave (km/s) = 13.01026 6.12547 10.16829
#
# Compressibility (1/GPa) = 0.03345886
#
# Stress axis : x y z
#
# Youngs Moduli (GPa) = 51.08036 55.24515 188.60335
#
# Poissons Ratio (x) = 0.02890 0.44769
# Poissons Ratio (y) = 0.02672 0.35152
# Poissons Ratio (z) = 0.12125 0.10297
#
# Static dielectric constant tensor:
#      x y z
#    x 2.060680 0.000000 0.056470 
#    y 0.000000 2.013350 0.000000 
#    z 0.056470 0.000000 1.922160 
# 
# From -- ./inp_files/26748.got.cif
#   From: 2010.05.17/outbox.cif.g08.bks.cpg/sg5_14_cif.got.tgz:26748.got - 2010.06.03 18:56:24.
