data_PCOD9125593
_publ_section_title
;
Structure prediction by ZEFSAII (Michael W. Deem and Ramdas Pophale) SiO2 
 PCOD9125593
Probable space group: C 2
;
_chemical_formula_sum "Si O2"
_cell_formula_units_Z 26
_cell_length_a 8.783963
_cell_length_b 22.264703
_cell_length_c 8.908469
_cell_angle_alpha 90.000000
_cell_angle_beta 48.401732
_cell_angle_gamma 90.000000
_cell_volume 1302.886201
_symmetry_space_group_name_H-M "C 2"
_symmetry_group_IT_number 5
_symmetry_cell_setting 'monoclinic'
loop_
_space_group_symop_operation_xyz
x,y,z
-x,y,-z
1/2+x,1/2+y,z
1/2-x,1/2+y,-z
loop_
_atom_site_type_symbol
_atom_site_label
_atom_site_fract_x
_atom_site_fract_y
_atom_site_fract_z
Si Si1 0.500000 0.158551 0.000000
Si Si2 0.000000 0.409720 0.000000
Si Si3 0.553525 0.705377 0.295687
Si Si4 0.168268 0.984028 0.107246
Si Si5 0.559485 0.843436 0.286958
Si Si6 0.651182 0.589555 0.691647
Si Si7 0.000000 0.889310 0.000000
Si Si8 0.554654 0.068313 0.238776
O O1 0.704628 0.197053 0.877161
O O2 0.491552 0.113828 0.864659
O O3 0.204171 0.450328 0.849887
O O4 0.988816 0.374534 0.845385
O O5 0.500000 0.688482 0.500000
O O6 0.491820 0.774331 0.314018
O O7 0.432183 0.656037 0.281115
O O8 0.026217 0.935087 0.121436
O O9 0.031651 0.042791 0.221701
O O10 0.355555 0.005408 0.877902
O O11 0.500000 0.863747 0.500000
O O12 0.801877 0.849441 0.137208
O O13 0.753445 0.589846 0.788086
O O14 0.844338 0.567735 0.466759
#
# Coordination Sequence:
#
# PCOD9125593 Si02
#       8
#     2   2   4   4   4   4   2   4
#     4  12  22  36  62  92 138 166 210 262 316 400
#     4  10  25  44  70  98 128 175 236 278 322 408
#     4  11  23  41  66  96 133 175 214 271 333 399
#     4  11  21  41  65  95 133 168 214 272 334 395
#     4  10  24  47  69  94 134 177 229 284 332 383
#     4  11  23  39  64  98 134 169 209 264 340 401
#     4  10  21  42  66  92 128 181 232 268 336 392
#     4  11  23  38  59 100 130 171 210 256 332 401
#
# _framework density 19.955694000000001
#
# number of rings (size 3 to 8) (size 9 to 14) (size 15 to 20)
#    0.000    1.231    4.615    0.923    0.000    3.692 
#    0.000    7.692    0.000    0.000    0.000    0.000 
#    0.000    0.000    0.000    0.000    0.000    0.000 
#
# Total GULP energy -72396.085119 kJ/mol
# GULP energy per Si atom -5568.929625 kJ/mol
# Density = 1.991027 g / cm^3
# Si number density = 19.955694 Si / 1000 Ang^3
#
#
#
# Elastic Constant Matrix: (Units=GPa)
#
#
# Indices 1 2 3 4 5 6 
#
# 1 133.4476 41.0548 38.6279 0.0000 4.1230 0.0000
# 2 41.0548 66.7805 14.9553 0.0000 6.0197 0.0000
# 3 38.6279 14.9553 71.1666 0.0000 3.8532 0.0000
# 4 0.0000 0.0000 0.0000 26.8350 0.0000 5.8382
# 5 4.1230 6.0197 3.8532 0.0000 33.1860 0.0000
# 6 0.0000 0.0000 0.0000 5.8382 0.0000 32.0593
#
#
#
# Elastic Compliance Matrix: (Units=1/GPa)
#
#
# Indices 1 2 3 4 5 6 
#
# 1 0.010480 -0.005442 -0.004556 0.000000 0.000214 0.000000
# 2 -0.005442 0.018745 -0.000843 0.000000 -0.002626 0.000000
# 3 -0.004556 -0.000843 0.016768 0.000000 -0.001228 0.000000
# 4 0.000000 0.000000 0.000000 0.038802 0.000000 -0.007066
# 5 0.000214 -0.002626 -0.001228 0.000000 0.030725 0.000000
# 6 0.000000 0.000000 0.000000 -0.007066 0.000000 0.032479
#
#
# Mechanical properties :
#
#
# Convention : Reuss Voigt Hill
#
# Bulk Modulus (GPa) = 41.13394 51.18562 46.15978
# Shear Modulus (GPa) = 28.12355 30.19985 29.16170
#
# Velocity S-wave (km/s) = 3.75814 3.89439 3.82687
# Velocity P-wave (km/s) = 6.28401 6.77695 6.53513
#
# Compressibility (1/GPa) = 0.02431082
#
# Stress axis : x y z
#
# Youngs Moduli (GPa) = 95.41983 53.34621 59.63608
#
# Poissons Ratio (x) = 0.29030 0.27173
# Poissons Ratio (y) = 0.51925 0.05030
# Poissons Ratio (z) = 0.43477 0.04499
#
# Static dielectric constant tensor:
#      x y z
#    x 1.638850 0.000000 0.056780 
#    y 0.000000 1.699420 0.000000 
#    z 0.056780 0.000000 1.769190 
# 
# From -- ./inp_files/16917.got.cif
#   From: 2010.05.17/outbox.cif.g08.bks.cpg/sg5_9_cif.got.tgz:16917.got - 2010.06.03 18:56:24.
