data_PCOD9125399
_publ_section_title
;
Structure prediction by ZEFSAII (Michael W. Deem and Ramdas Pophale) SiO2 
 PCOD9125399
Probable space group: C 2
;
_chemical_formula_sum "Si O2"
_cell_formula_units_Z 28
_cell_length_a 19.580088
_cell_length_b 5.125612
_cell_length_c 17.944722
_cell_angle_alpha 90.000000
_cell_angle_beta 44.487072
_cell_angle_gamma 90.000000
_cell_volume 1261.999438
_symmetry_space_group_name_H-M "C 2"
_symmetry_group_IT_number 5
_symmetry_cell_setting 'monoclinic'
loop_
_space_group_symop_operation_xyz
x,y,z
-x,y,-z
1/2+x,1/2+y,z
1/2-x,1/2+y,-z
loop_
_atom_site_type_symbol
_atom_site_label
_atom_site_fract_x
_atom_site_fract_y
_atom_site_fract_z
Si Si1 0.865283 0.680090 0.350671
Si Si2 0.358672 0.541063 0.493299
Si Si3 0.605518 0.298546 0.263087
Si Si4 0.000000 0.257512 0.000000
Si Si5 0.000000 0.885623 0.500000
Si Si6 0.698762 0.994064 0.817772
Si Si7 0.137283 0.014931 0.786342
Si Si8 0.487739 0.805535 0.723546
O O1 0.754911 0.592345 0.424604
O O2 0.874145 0.791557 0.427384
O O3 0.875693 0.922827 0.286896
O O4 0.948089 0.467002 0.266284
O O5 0.404917 0.524633 0.539056
O O6 0.425012 0.763368 0.404237
O O7 0.545986 0.269931 0.388132
O O8 0.710438 0.413264 0.202826
O O9 0.559736 0.518395 0.243134
O O10 0.594780 0.013653 0.235876
O O11 0.096032 0.430188 0.938925
O O12 0.033910 0.076104 0.905546
O O13 0.696878 0.779935 0.752466
O O14 0.690904 0.282733 0.790350
#
# Coordination Sequence:
#
# PCOD9125399 Si02
#       8
#     4   4   4   2   2   4   4   4
#     4  12  23  41  65  99 136 190 228 277 338 410
#     4  11  24  40  62  92 138 182 231 270 322 397
#     4  11  23  38  61  91 131 186 214 277 330 396
#     4   8  22  42  66 108 126 162 224 308 338 420
#     4  10  22  40  56  94 136 176 222 272 316 392
#     4  10  21  41  65 102 132 166 223 286 352 402
#     4  10  23  37  70  98 132 166 222 289 349 401
#     4  11  23  39  57  90 133 177 226 266 319 402
#
# _framework density 22.187011999999999
#
# number of rings (size 3 to 8) (size 9 to 14) (size 15 to 20)
#    0.857    0.571    4.286    2.143    2.000    5.714 
#    0.000    0.000    0.000    0.000   11.143    0.000 
#    0.000    0.000    0.000    0.000    0.000    0.000 
#
# Total GULP energy -77958.677343 kJ/mol
# GULP energy per Si atom -5568.476953 kJ/mol
# Density = 2.213651 g / cm^3
# Si number density = 22.187012 Si / 1000 Ang^3
#
#
#
# Elastic Constant Matrix: (Units=GPa)
#
#
# Indices 1 2 3 4 5 6 
#
# 1 130.5505 12.7965 14.3497 -0.0012 -28.1944 -0.0131
# 2 12.7965 111.9072 7.0434 0.0167 0.0110 -0.0546
# 3 14.3497 7.0434 46.0785 -0.0163 -21.8556 -0.0027
# 4 -0.0012 0.0167 -0.0163 23.4832 0.0036 4.0032
# 5 -28.1944 0.0110 -21.8556 0.0036 28.3189 -0.0007
# 6 -0.0131 -0.0546 -0.0027 4.0032 -0.0007 32.2890
#
#
#
# Elastic Compliance Matrix: (Units=1/GPa)
#
#
# Indices 1 2 3 4 5 6 
#
# 1 0.010135 -0.001342 0.002895 0.000001 0.012325 0.000002
# 2 -0.001342 0.009252 -0.002574 -0.000011 -0.003327 0.000016
# 3 0.002895 -0.002574 0.035589 0.000022 0.030350 -0.000002
# 4 0.000001 -0.000011 0.000022 0.043503 0.000013 -0.005394
# 5 0.012325 -0.003327 0.030350 0.000013 0.071007 0.000002
# 6 0.000002 0.000016 -0.000002 -0.005394 0.000002 0.031639
#
#
# Mechanical properties :
#
#
# Convention : Reuss Voigt Hill
#
# Bulk Modulus (GPa) = 18.89166 39.65727 29.27446
# Shear Modulus (GPa) = 22.64360 33.77467 28.20914
#
# Velocity S-wave (km/s) = 3.19812 3.90586 3.56957
# Velocity P-wave (km/s) = 4.70855 6.18498 5.49656
#
# Compressibility (1/GPa) = 0.05293341
#
# Stress axis : x y z
#
# Youngs Moduli (GPa) = 98.66731 108.08691 28.09833
#
# Poissons Ratio (x) = 0.14509 -0.08134
# Poissons Ratio (y) = 0.13245 0.07232
# Poissons Ratio (z) = -0.28564 0.27821
#
# Static dielectric constant tensor:
#      x y z
#    x 1.884740 0.000000 -0.009610 
#    y 0.000000 1.889150 -0.000010 
#    z -0.009610 -0.000010 1.852720 
# 
# From -- ./inp_files/66434.got.cif
#   From: 2010.05.17/outbox.cif.g08.bks.cpg/sg5_34_cif.got.tgz:66434.got - 2010.06.03 18:56:24.
