data_PCOD9125055
_publ_section_title
;
Structure prediction by ZEFSAII (Michael W. Deem and Ramdas Pophale) SiO2 
 PCOD9125055
Probable space group: C 2
;
_chemical_formula_sum "Si O2"
_cell_formula_units_Z 32
_cell_length_a 15.382486
_cell_length_b 11.138183
_cell_length_c 18.971685
_cell_angle_alpha 90.000000
_cell_angle_beta 26.025590
_cell_angle_gamma 90.000000
_cell_volume 1426.218988
_symmetry_space_group_name_H-M "C 2"
_symmetry_group_IT_number 5
_symmetry_cell_setting 'monoclinic'
loop_
_space_group_symop_operation_xyz
x,y,z
-x,y,-z
1/2+x,1/2+y,z
1/2-x,1/2+y,-z
loop_
_atom_site_type_symbol
_atom_site_label
_atom_site_fract_x
_atom_site_fract_y
_atom_site_fract_z
Si Si1 0.741757 0.532750 0.329131
Si Si2 0.457524 0.929230 0.303981
Si Si3 0.572929 0.676562 0.734972
Si Si4 0.397374 0.812602 0.149694
Si Si5 0.229373 0.307643 0.310957
Si Si6 0.725615 0.503107 0.841685
Si Si7 0.111493 0.912115 0.663363
Si Si8 0.517322 0.236784 0.368517
O O1 0.500000 0.517995 0.500000
O O2 0.810941 0.504053 0.359408
O O3 0.907971 0.446419 0.172257
O O4 0.774550 0.666494 0.276136
O O5 0.503578 0.792022 0.250884
O O6 0.675709 0.981697 0.154454
O O7 0.329225 0.928089 0.469354
O O8 0.533431 0.711431 0.845278
O O9 0.523077 0.546247 0.739910
O O10 0.808006 0.699693 0.552351
O O11 0.159283 0.812151 0.314839
O O12 0.500000 0.802795 0.000000
O O13 0.255335 0.386069 0.221844
O O14 0.359921 0.360251 0.279648
O O15 0.000000 0.319766 0.500000
O O16 0.856812 0.615627 0.724046
O O17 0.500000 0.536278 0.000000
O O18 0.009806 0.815745 0.683581
#
# Coordination Sequence:
#
# PCOD9125055 Si02
#       8
#     4   4   4   4   4   4   4   4
#     4  10  22  41  70 104 140 180 240 304 355 414
#     4  10  21  39  66 101 138 186 227 292 354 417
#     4  10  21  39  71 100 136 172 236 296 352 415
#     4  11  23  42  65  98 138 188 226 279 363 436
#     4  11  22  39  66  99 135 179 246 295 351 411
#     4  12  25  43  66  98 146 194 232 281 357 432
#     4  11  21  38  69 104 129 173 235 304 350 404
#     4  11  22  40  68  98 134 176 236 289 353 423
#
# _framework density 22.436947
#
# number of rings (size 3 to 8) (size 9 to 14) (size 15 to 20)
#    0.000    1.250    2.500    4.500    1.750    1.500 
#    4.500    0.000    0.000    0.750    0.000    0.000 
#    0.000    0.000    0.000    0.000    0.000    0.000 
#
# Total GULP energy -89139.911225 kJ/mol
# GULP energy per Si atom -5571.244452 kJ/mol
# Density = 2.238588 g / cm^3
# Si number density = 22.436947 Si / 1000 Ang^3
#
#
#
# Elastic Constant Matrix: (Units=GPa)
#
#
# Indices 1 2 3 4 5 6 
#
# 1 87.0404 32.1782 19.5839 -0.0014 1.3320 -0.0007
# 2 32.1782 133.6476 23.3886 -0.0070 15.3139 -0.0004
# 3 19.5839 23.3886 43.6630 -0.0063 8.6635 0.0001
# 4 -0.0014 -0.0070 -0.0063 11.3611 0.0001 -5.1624
# 5 1.3320 15.3139 8.6635 0.0001 31.3681 0.0014
# 6 -0.0007 -0.0004 0.0001 -5.1624 0.0014 31.6617
#
#
#
# Elastic Compliance Matrix: (Units=1/GPa)
#
#
# Indices 1 2 3 4 5 6 
#
# 1 0.013572 -0.002616 -0.005105 -0.000003 0.002111 0.000000
# 2 -0.002616 0.009031 -0.002974 0.000004 -0.003476 0.000001
# 3 -0.005105 -0.002974 0.027988 0.000014 -0.006061 0.000002
# 4 -0.000003 0.000004 0.000014 0.095062 -0.000007 0.015500
# 5 0.002111 -0.003476 -0.006061 -0.000007 0.035161 -0.000003
# 6 0.000000 0.000001 0.000002 0.015500 -0.000003 0.034111
#
#
# Mechanical properties :
#
#
# Convention : Reuss Voigt Hill
#
# Bulk Modulus (GPa) = 34.24587 46.07249 40.15918
# Shear Modulus (GPa) = 20.32097 27.49154 23.90625
#
# Velocity S-wave (km/s) = 3.01274 3.50420 3.26772
# Velocity P-wave (km/s) = 5.23435 6.07876 5.67229
#
# Compressibility (1/GPa) = 0.02920060
#
# Stress axis : x y z
#
# Youngs Moduli (GPa) = 73.67861 110.72779 35.72928
#
# Poissons Ratio (x) = 0.28970 0.18240
# Poissons Ratio (y) = 0.19277 0.10627
# Poissons Ratio (z) = 0.37613 0.32934
#
# Static dielectric constant tensor:
#      x y z
#    x 1.974150 0.000000 0.015000 
#    y 0.000000 1.952140 0.000000 
#    z 0.015000 0.000000 1.831390 
# 
# From -- ./inp_files/61693.got.cif
#   From: 2010.05.17/outbox.cif.g08.bks.cpg/sg5_31_cif.got.tgz:61693.got - 2010.06.03 18:56:24.
