data_PCOD9125503
_publ_section_title
;
Structure prediction by ZEFSAII (Michael W. Deem and Ramdas Pophale) SiO2 
 PCOD9125503
Probable space group: C 2
;
_chemical_formula_sum "Si O2"
_cell_formula_units_Z 28
_cell_length_a 15.258782
_cell_length_b 7.411849
_cell_length_c 13.996297
_cell_angle_alpha 90.000000
_cell_angle_beta 130.409742
_cell_angle_gamma 90.000000
_cell_volume 1205.281468
_symmetry_space_group_name_H-M "C 2"
_symmetry_group_IT_number 5
_symmetry_cell_setting 'monoclinic'
loop_
_space_group_symop_operation_xyz
x,y,z
-x,y,-z
1/2+x,1/2+y,z
1/2-x,1/2+y,-z
loop_
_atom_site_type_symbol
_atom_site_label
_atom_site_fract_x
_atom_site_fract_y
_atom_site_fract_z
Si Si1 0.049727 0.798440 0.812150
Si Si2 0.918995 0.388643 0.145828
Si Si3 0.888898 0.092212 0.985681
Si Si4 0.787329 0.867942 0.619921
Si Si5 0.826137 0.423820 0.276837
Si Si6 0.105315 0.818333 0.639157
Si Si7 0.317563 0.795235 0.659913
O O1 0.102503 0.602496 0.872704
O O2 0.092221 0.870572 0.739891
O O3 0.911252 0.772994 0.705355
O O4 0.077467 0.940540 0.913533
O O5 0.855891 0.271578 0.020991
O O6 0.886331 0.328031 0.230174
O O7 0.054200 0.355714 0.227628
O O8 0.789387 0.010878 0.849991
O O9 0.000000 0.131197 0.000000
O O10 0.723135 0.852215 0.474256
O O11 0.708976 0.811927 0.654749
O O12 0.813218 0.078563 0.655690
O O13 0.900313 0.598095 0.359918
O O14 0.225024 0.861405 0.672104
O O15 0.000000 0.884538 0.500000
#
# Coordination Sequence:
#
# PCOD9125503 Si02
#       7
#     4   4   4   4   4   4   4
#     4  11  23  45  70 102 135 178 230 279 344 407
#     4  11  26  44  68 101 132 184 230 277 343 407
#     4  12  24  50  68  95 143 177 233 286 340 401
#     4  11  21  43  68 102 143 178 222 285 343 405
#     4  10  25  41  69  98 136 186 220 288 341 398
#     4  10  21  41  69  98 136 179 221 279 344 402
#     4  11  22  41  68 102 142 178 225 283 342 407
#
# _framework density 23.231086000000001
#
# number of rings (size 3 to 8) (size 9 to 14) (size 15 to 20)
#    0.000    1.143    4.286    1.714   10.000    0.571 
#    5.143    1.429    0.000    0.000    0.000    0.000 
#    0.000    0.000    0.000    0.000    0.000    0.000 
#
# Total GULP energy -78400.651061 kJ/mol
# GULP energy per Si atom -5600.046504 kJ/mol
# Density = 2.317821 g / cm^3
# Si number density = 23.231086 Si / 1000 Ang^3
#
#
#
# Elastic Constant Matrix: (Units=GPa)
#
#
# Indices 1 2 3 4 5 6 
#
# 1 142.2127 6.7121 32.4635 0.0000 -35.9239 0.0000
# 2 6.7121 77.1387 15.8362 0.0000 -15.1723 0.0000
# 3 32.4635 15.8362 119.0724 0.0000 -21.1288 0.0000
# 4 0.0000 0.0000 0.0000 42.0052 0.0000 -2.2578
# 5 -35.9239 -15.1723 -21.1288 0.0000 53.6060 0.0000
# 6 0.0000 0.0000 0.0000 -2.2578 0.0000 20.7351
#
#
#
# Elastic Compliance Matrix: (Units=1/GPa)
#
#
# Indices 1 2 3 4 5 6 
#
# 1 0.008714 0.000616 -0.001495 0.000000 0.005425 0.000000
# 2 0.000616 0.013939 -0.001342 0.000000 0.003829 0.000000
# 3 -0.001495 -0.001342 0.009396 0.000000 0.002322 0.000000
# 4 0.000000 0.000000 0.000000 0.023947 0.000000 0.002607
# 5 0.005425 0.003829 0.002322 0.000000 0.024289 0.000000
# 6 0.000000 0.000000 0.000000 0.002607 0.000000 0.048511
#
#
# Mechanical properties :
#
#
# Convention : Reuss Voigt Hill
#
# Bulk Modulus (GPa) = 36.22405 49.82746 43.02576
# Shear Modulus (GPa) = 35.10208 42.16339 38.63274
#
# Velocity S-wave (km/s) = 3.89137 4.26485 4.08238
# Velocity P-wave (km/s) = 5.98474 6.76366 6.38609
#
# Compressibility (1/GPa) = 0.02760597
#
# Stress axis : x y z
#
# Youngs Moduli (GPa) = 114.75385 71.74271 106.42405
#
# Poissons Ratio (x) = -0.04417 0.15912
# Poissons Ratio (y) = -0.07065 0.14285
# Poissons Ratio (z) = 0.17157 0.09630
#
# Static dielectric constant tensor:
#      x y z
#    x 1.900700 0.000000 -0.004260 
#    y 0.000000 1.878110 0.000000 
#    z -0.004260 0.000000 1.844230 
# 
# From -- ./inp_files/42020.got.cif
#   From: 2010.05.17/outbox.cif.g08.bks.cpg/sg5_22_cif.got.tgz:42020.got - 2010.06.03 18:56:24.
