data_PCOD9125674
_publ_section_title
;
Structure prediction by ZEFSAII (Michael W. Deem and Ramdas Pophale) SiO2 
 PCOD9125674
Probable space group: C 2
;
_chemical_formula_sum "Si O2"
_cell_formula_units_Z 30
_cell_length_a 10.907340
_cell_length_b 9.793874
_cell_length_c 16.655345
_cell_angle_alpha 90.000000
_cell_angle_beta 134.056086
_cell_angle_gamma 90.000000
_cell_volume 1278.645476
_symmetry_space_group_name_H-M "C 2"
_symmetry_group_IT_number 5
_symmetry_cell_setting 'monoclinic'
loop_
_space_group_symop_operation_xyz
x,y,z
-x,y,-z
1/2+x,1/2+y,z
1/2-x,1/2+y,-z
loop_
_atom_site_type_symbol
_atom_site_label
_atom_site_fract_x
_atom_site_fract_y
_atom_site_fract_z
Si Si1 0.236900 0.439010 0.179700
Si Si2 0.000000 0.732726 0.500000
Si Si3 0.026810 0.642685 0.188974
Si Si4 0.372184 0.635744 0.868118
Si Si5 0.326500 0.348357 0.869202
Si Si6 0.056658 0.949876 0.411535
Si Si7 0.310000 0.174129 0.564299
Si Si8 0.208886 0.123415 0.933151
O O1 0.428689 0.491067 0.283970
O O2 0.206666 0.496904 0.076443
O O3 0.111270 0.511242 0.185093
O O4 0.222653 0.277801 0.180810
O O5 0.891673 0.644306 0.512822
O O6 0.930753 0.850635 0.407542
O O7 0.123278 0.768837 0.188455
O O8 0.076225 0.647529 0.304936
O O9 0.832591 0.649300 0.066538
O O10 0.259644 0.499658 0.823910
O O11 0.512472 0.602514 0.864200
O O12 0.500000 0.655367 0.000000
O O13 0.218073 0.252070 0.877420
O O14 0.500000 0.365868 0.000000
O O15 0.856476 0.079512 0.508086
O O16 0.199005 0.839470 0.448377
#
# Coordination Sequence:
#
# PCOD9125674 Si02
#       8
#     4   2   4   4   4   4   4   4
#     4  11  24  43  69 105 142 187 226 287 350 415
#     4   8  22  42  70 100 132 164 228 302 336 406
#     4  10  21  42  71 100 139 187 228 278 350 413
#     4  11  24  37  65  99 140 187 227 270 337 406
#     4   8  19  40  60  95 143 178 222 273 324 411
#     4  10  23  46  72  97 137 176 235 292 349 415
#     4  10  23  46  74  98 132 183 229 301 352 406
#     4  10  23  44  65 100 150 182 226 276 334 428
#
# _framework density 23.462327999999999
#
# number of rings (size 3 to 8) (size 9 to 14) (size 15 to 20)
#    0.800    1.333    0.000    2.800    3.733    6.400 
#    0.000    3.333    0.000    0.000    0.000    0.000 
#    0.000    0.000    0.000    0.000    0.000    0.000 
#
# Total GULP energy -83574.228629 kJ/mol
# GULP energy per Si atom -5571.615242 kJ/mol
# Density = 2.340893 g / cm^3
# Si number density = 23.462328 Si / 1000 Ang^3
#
#
#
# Elastic Constant Matrix: (Units=GPa)
#
#
# Indices 1 2 3 4 5 6 
#
# 1 80.4669 34.4393 33.3082 0.0000 -15.6123 0.0000
# 2 34.4393 136.4674 42.0016 0.0000 5.0587 0.0000
# 3 33.3082 42.0016 107.7119 0.0000 -10.1078 0.0000
# 4 0.0000 0.0000 0.0000 26.6368 0.0000 20.0031
# 5 -15.6123 5.0587 -10.1078 0.0000 29.8417 0.0000
# 6 0.0000 0.0000 0.0000 20.0031 0.0000 30.8736
#
#
#
# Elastic Compliance Matrix: (Units=1/GPa)
#
#
# Indices 1 2 3 4 5 6 
#
# 1 0.016865 -0.003644 -0.003004 0.000000 0.008423 0.000000
# 2 -0.003644 0.009313 -0.002925 0.000000 -0.004476 0.000000
# 3 -0.003004 -0.002925 0.011622 0.000000 0.002861 0.000000
# 4 0.000000 0.000000 0.000000 0.073117 0.000000 -0.047372
# 5 0.008423 -0.004476 0.002861 0.000000 0.039645 0.000000
# 6 0.000000 0.000000 0.000000 -0.047372 0.000000 0.063083
#
#
# Mechanical properties :
#
#
# Convention : Reuss Voigt Hill
#
# Bulk Modulus (GPa) = 53.60498 60.46050 57.03274
# Shear Modulus (GPa) = 20.91985 31.79690 26.35838
#
# Velocity S-wave (km/s) = 2.98927 3.68534 3.35540
# Velocity P-wave (km/s) = 5.90010 6.62828 6.27476
#
# Compressibility (1/GPa) = 0.01865498
#
# Stress axis : x y z
#
# Youngs Moduli (GPa) = 59.29561 107.37153 86.04401
#
# Poissons Ratio (x) = 0.39123 0.25846
# Poissons Ratio (y) = 0.21606 0.25168
# Poissons Ratio (z) = 0.17811 0.31406
#
# Static dielectric constant tensor:
#      x y z
#    x 1.978390 0.000000 -0.084360 
#    y 0.000000 1.896590 0.000000 
#    z -0.084360 0.000000 1.864280 
# 
# From -- ./inp_files/60305.got.cif
#   From: 2010.05.17/outbox.cif.g08.bks.cpg/sg5_31_cif.got.tgz:60305.got - 2010.06.03 18:56:24.
