data_PCOD9125996
_publ_section_title
;
Structure prediction by ZEFSAII (Michael W. Deem and Ramdas Pophale) SiO2 
 PCOD9125996
Probable space group: C 2
;
_chemical_formula_sum "Si O2"
_cell_formula_units_Z 26
_cell_length_a 6.451326
_cell_length_b 18.089434
_cell_length_c 10.743911
_cell_angle_alpha 90.000000
_cell_angle_beta 64.410280
_cell_angle_gamma 90.000000
_cell_volume 1130.835904
_symmetry_space_group_name_H-M "C 2"
_symmetry_group_IT_number 5
_symmetry_cell_setting 'monoclinic'
loop_
_space_group_symop_operation_xyz
x,y,z
-x,y,-z
1/2+x,1/2+y,z
1/2-x,1/2+y,-z
loop_
_atom_site_type_symbol
_atom_site_label
_atom_site_fract_x
_atom_site_fract_y
_atom_site_fract_z
Si Si1 0.000000 0.455981 0.500000
Si Si2 0.460202 0.230553 0.152182
Si Si3 0.867606 0.473305 0.270847
Si Si4 0.466607 0.724317 0.376550
Si Si5 0.757206 0.084370 0.127080
Si Si6 0.093073 0.067413 0.628806
Si Si7 0.376408 0.330353 0.667251
O O1 0.010915 0.430450 0.640611
O O2 0.228876 0.504384 0.452434
O O3 0.631423 0.161189 0.126396
O O4 0.490113 0.290673 0.254804
O O5 0.199453 0.204488 0.244199
O O6 0.500000 0.257565 0.000000
O O7 0.660969 0.535277 0.331440
O O8 0.732616 0.404467 0.248446
O O9 0.074877 0.518080 0.154126
O O10 0.500000 0.765400 0.500000
O O11 0.349211 0.646888 0.445432
O O12 0.311478 0.771130 0.326208
O O13 0.834109 0.083290 0.249588
O O14 0.000000 0.074395 0.000000
O O15 0.500000 0.347461 0.500000
#
# Coordination Sequence:
#
# PCOD9125996 Si02
#       7
#     2   4   4   4   4   4   4
#     4  10  22  36  68 102 146 182 244 306 370 434
#     4  12  27  48  78 111 154 201 253 316 380 452
#     4  11  25  45  72 105 147 195 246 313 379 439
#     4  12  24  41  74 108 147 196 257 308 367 442
#     4  11  25  46  76 103 141 197 259 312 373 451
#     4  11  22  40  68 106 139 189 249 311 361 436
#     4  12  27  47  73 114 158 200 247 312 381 455
#
# _framework density 22.991841999999998
#
# number of rings (size 3 to 8) (size 9 to 14) (size 15 to 20)
#    0.000    0.615    4.615    3.231    4.308    2.462 
#    0.000    4.615    0.000    0.000    0.000    0.000 
#    0.000    0.000    0.000    0.000    0.000    0.000 
#
# Total GULP energy -72458.938741 kJ/mol
# GULP energy per Si atom -5573.764519 kJ/mol
# Density = 2.293951 g / cm^3
# Si number density = 22.991842 Si / 1000 Ang^3
#
#
#
# Elastic Constant Matrix: (Units=GPa)
#
#
# Indices 1 2 3 4 5 6 
#
# 1 99.0703 21.8094 24.3977 0.0000 -19.3163 0.0000
# 2 21.8094 88.7947 -3.8472 0.0000 -5.1721 0.0000
# 3 24.3977 -3.8472 77.8706 0.0000 -3.0095 0.0000
# 4 0.0000 0.0000 0.0000 36.7261 0.0000 6.4415
# 5 -19.3163 -5.1721 -3.0095 0.0000 50.0408 0.0000
# 6 0.0000 0.0000 0.0000 6.4415 0.0000 41.3096
#
#
#
# Elastic Compliance Matrix: (Units=1/GPa)
#
#
# Indices 1 2 3 4 5 6 
#
# 1 0.012558 -0.003004 -0.003917 0.000000 0.004302 0.000000
# 2 -0.003004 0.012077 0.001545 0.000000 0.000182 0.000000
# 3 -0.003917 0.001545 0.014126 0.000000 -0.000503 0.000000
# 4 0.000000 0.000000 0.000000 0.027994 0.000000 -0.004365
# 5 0.004302 0.000182 -0.000503 0.000000 0.021633 0.000000
# 6 0.000000 0.000000 0.000000 -0.004365 0.000000 0.024888
#
#
# Mechanical properties :
#
#
# Convention : Reuss Voigt Hill
#
# Bulk Modulus (GPa) = 35.70151 38.93949 37.32050
# Shear Modulus (GPa) = 37.49118 40.50700 38.99909
#
# Velocity S-wave (km/s) = 4.04249 4.20193 4.12298
# Velocity P-wave (km/s) = 6.11151 6.36511 6.23960
#
# Compressibility (1/GPa) = 0.02801002
#
# Stress axis : x y z
#
# Youngs Moduli (GPa) = 79.62814 82.80068 70.79200
#
# Poissons Ratio (x) = 0.24871 0.27728
# Poissons Ratio (y) = 0.23918 -0.10936
# Poissons Ratio (z) = 0.31189 -0.12791
#
# Static dielectric constant tensor:
#      x y z
#    x 0.122250 0.000000 -3.256470 
#    y 0.000000 1.877870 0.000000 
#    z -3.256470 0.000000 -4.029700 
# 
# From -- ./inp_files/33732.got.cif
#   From: 2010.05.17/outbox.cif.g08.bks.cpg/sg5_17_cif.got.tgz:33732.got - 2010.06.03 18:56:24.
