data_PCOD9125763
_publ_section_title
;
Structure prediction by ZEFSAII (Michael W. Deem and Ramdas Pophale) SiO2 
 PCOD9125763
Probable space group: C 2
;
_chemical_formula_sum "Si O2"
_cell_formula_units_Z 16
_cell_length_a 9.664537
_cell_length_b 10.806140
_cell_length_c 11.092055
_cell_angle_alpha 90.000000
_cell_angle_beta 144.433539
_cell_angle_gamma 90.000000
_cell_volume 673.787705
_symmetry_space_group_name_H-M "C 2"
_symmetry_group_IT_number 5
_symmetry_cell_setting 'monoclinic'
loop_
_space_group_symop_operation_xyz
x,y,z
-x,y,-z
1/2+x,1/2+y,z
1/2-x,1/2+y,-z
loop_
_atom_site_type_symbol
_atom_site_label
_atom_site_fract_x
_atom_site_fract_y
_atom_site_fract_z
Si Si1 0.500000 0.251451 0.500000
Si Si2 0.271279 0.374186 0.909552
Si Si3 0.720618 0.463354 0.819648
Si Si4 0.610193 0.685966 0.400030
Si Si5 0.500000 0.881740 0.500000
O O1 0.658985 0.341980 0.697626
O O2 0.328016 0.174573 0.464995
O O3 0.131684 0.447002 0.703336
O O4 0.099799 0.259998 0.817304
O O5 0.500000 0.329434 0.000000
O O6 0.315251 0.444411 0.062807
O O7 0.517294 0.563588 0.644316
O O8 0.000000 0.497355 0.000000
O O9 0.671554 0.783501 0.550625
#
# Coordination Sequence:
#
# PCOD9125763 Si02
#       5
#     2   4   4   4   2
#     4  12  25  50  69 110 150 182 245 305 346 442
#     4  10  21  43  69 101 139 181 241 293 344 427
#     4  12  24  47  75 106 141 197 237 294 371 422
#     4  10  23  45  73 100 143 185 238 297 352 423
#     4   8  19  42  65 100 130 190 221 295 342 418
#
# _framework density 23.746352999999999
#
# number of rings (size 3 to 8) (size 9 to 14) (size 15 to 20)
#    1.500    0.000    2.500    3.000    0.000    0.000 
#   13.500    0.000    0.000    0.000    0.000    0.000 
#    0.000    0.000    0.000    0.000    0.000    0.000 
#
# Total GULP energy -44609.473932 kJ/mol
# GULP energy per Si atom -5576.184241 kJ/mol
# Density = 2.369230 g / cm^3
# Si number density = 23.746353 Si / 1000 Ang^3
#
#
#
# Elastic Constant Matrix: (Units=GPa)
#
#
# Indices 1 2 3 4 5 6 
#
# 1 171.5253 22.5562 68.3530 0.0008 22.6045 0.0002
# 2 22.5562 50.7066 33.6102 0.0007 12.3238 0.0004
# 3 68.3530 33.6102 99.8083 0.0012 -12.0266 0.0011
# 4 0.0008 0.0007 0.0012 18.0119 0.0009 -0.4401
# 5 22.6045 12.3238 -12.0266 0.0009 71.0612 0.0005
# 6 0.0002 0.0004 0.0011 -0.4401 0.0005 16.1126
#
#
#
# Elastic Compliance Matrix: (Units=1/GPa)
#
#
# Indices 1 2 3 4 5 6 
#
# 1 0.009143 0.001985 -0.007474 0.000000 -0.004518 0.000000
# 2 0.001985 0.028571 -0.011896 0.000000 -0.007600 0.000000
# 3 -0.007474 -0.011896 0.020089 -0.000001 0.007840 -0.000001
# 4 0.000000 0.000000 -0.000001 0.055556 -0.000001 0.001517
# 5 -0.004518 -0.007600 0.007840 -0.000001 0.018154 -0.000001
# 6 0.000000 0.000000 -0.000001 0.001517 -0.000001 0.062105
#
#
# Mechanical properties :
#
#
# Convention : Reuss Voigt Hill
#
# Bulk Modulus (GPa) = 43.41931 63.45322 53.43626
# Shear Modulus (GPa) = 21.18061 34.20518 27.69290
#
# Velocity S-wave (km/s) = 2.98980 3.79943 3.41867
# Velocity P-wave (km/s) = 5.49935 6.78431 6.17534
#
# Compressibility (1/GPa) = 0.02303123
#
# Stress axis : x y z
#
# Youngs Moduli (GPa) = 109.37531 35.00109 49.77937
#
# Poissons Ratio (x) = -0.06948 0.37206
# Poissons Ratio (y) = -0.21712 0.59219
# Poissons Ratio (z) = 0.81749 0.41638
#
# Static dielectric constant tensor:
#      x y z
#    x 1.888320 0.000000 0.018230 
#    y 0.000000 1.953850 0.000000 
#    z 0.018230 0.000000 1.941970 
# 
# From -- ./inp_files/35083.got.cif
#   From: 2010.05.17/outbox.cif.g08.bks.cpg/sg5_18_cif.got.tgz:35083.got - 2010.06.03 18:56:24.
