data_PCOD9125255
_publ_section_title
;
Structure prediction by ZEFSAII (Michael W. Deem and Ramdas Pophale) SiO2 
 PCOD9125255
Probable space group: C 2
;
_chemical_formula_sum "Si O2"
_cell_formula_units_Z 28
_cell_length_a 8.011581
_cell_length_b 30.307772
_cell_length_c 5.756713
_cell_angle_alpha 90.000000
_cell_angle_beta 120.499800
_cell_angle_gamma 90.000000
_cell_volume 1204.392658
_symmetry_space_group_name_H-M "C 2"
_symmetry_group_IT_number 5
_symmetry_cell_setting 'monoclinic'
loop_
_space_group_symop_operation_xyz
x,y,z
-x,y,-z
1/2+x,1/2+y,z
1/2-x,1/2+y,-z
loop_
_atom_site_type_symbol
_atom_site_label
_atom_site_fract_x
_atom_site_fract_y
_atom_site_fract_z
Si Si1 0.236279 0.720810 0.688369
Si Si2 0.701030 0.952028 0.515118
Si Si3 0.230780 0.861881 0.183190
Si Si4 0.000000 0.576777 0.000000
Si Si5 0.264825 0.260684 0.810613
Si Si6 0.174599 0.042899 0.449720
Si Si7 0.000000 0.409080 0.000000
Si Si8 0.210521 0.621894 0.770219
O O1 0.299086 0.735569 0.472158
O O2 0.290084 0.670040 0.776174
O O3 0.000000 0.724217 0.500000
O O4 0.297783 0.746275 0.970757
O O5 0.500000 0.962889 0.500000
O O6 0.751012 0.902673 0.628607
O O7 0.655915 0.942932 0.216528
O O8 0.838172 0.993107 0.654029
O O9 0.286194 0.811700 0.274192
O O10 0.371888 0.878304 0.076788
O O11 0.000000 0.858916 0.000000
O O12 0.880707 0.547694 0.731842
O O13 0.159326 0.608757 0.996118
O O14 0.500000 0.256135 0.000000
O O15 0.177778 0.081470 0.265013
O O16 0.000000 0.049905 0.500000
O O17 0.000000 0.622390 0.500000
#
# Coordination Sequence:
#
# PCOD9125255 Si02
#       8
#     4   4   4   2   4   4   2   4
#     4   9  18  32  61  94 131 169 227 272 338 405
#     4  10  22  42  62  91 127 167 224 270 334 409
#     4  10  23  40  64  94 133 169 225 279 344 407
#     4  10  21  40  66  90 130 174 220 272 341 400
#     4   9  19  34  59  98 129 171 220 281 335 411
#     4  11  24  40  63  97 130 173 222 277 338 409
#     4  10  23  40  66  90 128 176 216 284 339 406
#     4   9  20  36  62  92 129 170 220 271 332 405
#
# _framework density 23.248234
#
# number of rings (size 3 to 8) (size 9 to 14) (size 15 to 20)
#    0.000    2.286    0.000    1.714   11.000    1.714 
#    0.000    0.000    3.143    0.000    0.000    0.000 
#    0.000    0.000    0.000    0.000    0.000    0.000 
#
# Total GULP energy -78070.449688 kJ/mol
# GULP energy per Si atom -5576.460692 kJ/mol
# Density = 2.319532 g / cm^3
# Si number density = 23.248234 Si / 1000 Ang^3
#
#
#
# Elastic Constant Matrix: (Units=GPa)
#
#
# Indices 1 2 3 4 5 6 
#
# 1 93.7140 49.8614 29.5744 0.0000 -5.6550 0.0000
# 2 49.8614 201.0260 62.1042 0.0000 -32.2509 0.0000
# 3 29.5744 62.1042 99.1155 0.0000 -6.0239 0.0000
# 4 0.0000 0.0000 0.0000 14.4265 0.0000 -20.2642
# 5 -5.6550 -32.2509 -6.0239 0.0000 35.6742 0.0000
# 6 0.0000 0.0000 0.0000 -20.2642 0.0000 4.2772
#
#
#
# Elastic Compliance Matrix: (Units=1/GPa)
#
#
# Indices 1 2 3 4 5 6 
#
# 1 0.012699 -0.002575 -0.002217 0.000000 -0.000690 0.000000
# 2 -0.002575 0.007709 -0.003701 0.000000 0.005936 0.000000
# 3 -0.002217 -0.003701 0.012978 0.000000 -0.001506 0.000000
# 4 0.000000 0.000000 0.000000 -0.012258 0.000000 -0.058075
# 5 -0.000690 0.005936 -0.001506 0.000000 0.033034 0.000000
# 6 0.000000 0.000000 0.000000 -0.058075 0.000000 -0.041344
#
#
# Mechanical properties :
#
#
# Convention : Reuss Voigt Hill
#
# Bulk Modulus (GPa) = 60.98046 75.21505 68.09775
# Shear Modulus (GPa) = 141.75147 27.69660 84.72404
#
# Velocity S-wave (km/s) = 7.81699 3.45533 6.04337
# Velocity P-wave (km/s) = 10.38080 6.95286 8.83468
#
# Compressibility (1/GPa) = 0.01639870
#
# Stress axis : x y z
#
# Youngs Moduli (GPa) = 78.74505 129.71837 77.05106
#
# Poissons Ratio (x) = 0.33408 0.17085
# Poissons Ratio (y) = 0.20280 0.28517
# Poissons Ratio (z) = 0.17461 0.48010
#
# Static dielectric constant tensor:
#      x y z
#    x 1.906570 0.000000 0.008880 
#    y 0.000000 1.867440 0.000000 
#    z 0.008880 0.000000 2.050350 
# 
# From -- ./inp_files/4012.got.cif
#   From: 2010.05.17/outbox.cif.g08.bks.cpg/sg5_3_cif.got.tgz:4012.got - 2010.06.03 18:56:24.
