data_PCOD9125578
_publ_section_title
;
Structure prediction by ZEFSAII (Michael W. Deem and Ramdas Pophale) SiO2 
 PCOD9125578
Probable space group: C 2
;
_chemical_formula_sum "Si O2"
_cell_formula_units_Z 28
_cell_length_a 8.373559
_cell_length_b 15.553269
_cell_length_c 11.982881
_cell_angle_alpha 90.000000
_cell_angle_beta 63.143502
_cell_angle_gamma 90.000000
_cell_volume 1392.279435
_symmetry_space_group_name_H-M "C 2"
_symmetry_group_IT_number 5
_symmetry_cell_setting 'monoclinic'
loop_
_space_group_symop_operation_xyz
x,y,z
-x,y,-z
1/2+x,1/2+y,z
1/2-x,1/2+y,-z
loop_
_atom_site_type_symbol
_atom_site_label
_atom_site_fract_x
_atom_site_fract_y
_atom_site_fract_z
Si Si1 0.792738 0.285380 0.094745
Si Si2 0.207383 0.638236 0.947640
Si Si3 0.131701 0.952951 0.616646
Si Si4 0.072683 0.959519 0.101678
Si Si5 0.550218 0.283048 0.360701
Si Si6 0.000000 0.093735 0.500000
Si Si7 0.000000 0.363458 0.500000
Si Si8 0.723398 0.729898 0.305087
O O1 0.688385 0.373048 0.091256
O O2 0.740818 0.268522 0.241468
O O3 0.733561 0.199997 0.046013
O O4 0.000000 0.297737 0.000000
O O5 0.320693 0.549734 0.915842
O O6 0.253591 0.700218 0.828254
O O7 0.000000 0.613948 0.000000
O O8 0.327076 0.918563 0.524250
O O9 0.094234 0.960277 0.759844
O O10 0.982986 0.884985 0.622510
O O11 0.091473 0.039635 0.567435
O O12 0.000000 0.954138 0.000000
O O13 0.500000 0.247932 0.500000
O O14 0.404663 0.256383 0.312200
O O15 0.150847 0.149485 0.395296
O O16 0.075094 0.303306 0.376592
#
# Coordination Sequence:
#
# PCOD9125578 Si02
#       8
#     4   4   4   4   4   2   2   4
#     4  11  25  42  69 102 132 181 226 280 342 404
#     4  12  23  45  69  95 136 178 229 280 337 399
#     4  10  21  42  65  92 128 167 215 271 328 389
#     4  11  25  46  67  96 135 178 230 282 335 407
#     4  10  21  42  66  94 131 173 221 268 328 405
#     4  11  20  42  64  95 128 164 214 273 330 398
#     4   9  22  40  64  97 124 172 214 261 334 400
#     4  10  22  41  67  94 128 176 214 270 339 400
#
# _framework density 20.110904999999999
#
# number of rings (size 3 to 8) (size 9 to 14) (size 15 to 20)
#    0.000    1.429    3.571    1.286    4.000    3.429 
#    6.429    0.000    0.000    0.000    0.000    0.000 
#    0.000    0.000    0.000    0.000    0.000    0.000 
#
# Total GULP energy -78096.976709 kJ/mol
# GULP energy per Si atom -5578.355479 kJ/mol
# Density = 2.006513 g / cm^3
# Si number density = 20.110905 Si / 1000 Ang^3
#
#
#
# Elastic Constant Matrix: (Units=GPa)
#
#
# Indices 1 2 3 4 5 6 
#
# 1 61.2375 22.8571 46.3139 0.0000 -17.4213 0.0000
# 2 22.8571 91.3657 20.6444 0.0000 -6.1137 0.0000
# 3 46.3139 20.6444 152.7280 0.0000 -4.7305 0.0000
# 4 0.0000 0.0000 0.0000 -106.3707 0.0000 14.3654
# 5 -17.4213 -6.1137 -4.7305 0.0000 38.7907 0.0000
# 6 0.0000 0.0000 0.0000 14.3654 0.0000 16.4354
#
#
#
# Elastic Compliance Matrix: (Units=1/GPa)
#
#
# Indices 1 2 3 4 5 6 
#
# 1 0.026151 -0.004269 -0.007037 0.000000 0.010214 0.000000
# 2 -0.004269 0.012086 -0.000341 0.000000 -0.000054 0.000000
# 3 -0.007037 -0.000341 0.008661 0.000000 -0.002158 0.000000
# 4 0.000000 0.000000 0.000000 -0.008409 0.000000 0.007350
# 5 0.010214 -0.000054 -0.002158 0.000000 0.030095 0.000000
# 6 0.000000 0.000000 0.000000 0.007350 0.000000 0.054421
#
#
# Mechanical properties :
#
#
# Convention : Reuss Voigt Hill
#
# Bulk Modulus (GPa) = 42.36386 53.88465 48.12426
# Shear Modulus (GPa) = 32.43268 4.13879 18.28574
#
# Velocity S-wave (km/s) = 4.02019 1.43612 3.01864
# Velocity P-wave (km/s) = 6.53147 5.44076 6.01090
#
# Compressibility (1/GPa) = 0.02360502
#
# Stress axis : x y z
#
# Youngs Moduli (GPa) = 38.23995 82.73776 115.46459
#
# Poissons Ratio (x) = 0.35319 0.81249
# Poissons Ratio (y) = 0.16324 0.03936
# Poissons Ratio (z) = 0.26908 0.02821
#
# Static dielectric constant tensor:
#      x y z
#    x 1.735600 0.000000 0.024360 
#    y 0.000000 1.716100 0.000000 
#    z 0.024360 0.000000 1.780890 
# 
# From -- ./inp_files/36053.got.cif
#   From: 2010.05.17/outbox.cif.g08.bks.cpg/sg5_19_cif.got.tgz:36053.got - 2010.06.03 18:56:24.
