data_PCOD9125258
_publ_section_title
;
Structure prediction by ZEFSAII (Michael W. Deem and Ramdas Pophale) SiO2 
 PCOD9125258
Probable space group: C 2
;
_chemical_formula_sum "Si O2"
_cell_formula_units_Z 30
_cell_length_a 14.356789
_cell_length_b 15.252922
_cell_length_c 17.386593
_cell_angle_alpha 90.000000
_cell_angle_beta 23.202515
_cell_angle_gamma 90.000000
_cell_volume 1500.035427
_symmetry_space_group_name_H-M "C 2"
_symmetry_group_IT_number 5
_symmetry_cell_setting 'monoclinic'
loop_
_space_group_symop_operation_xyz
x,y,z
-x,y,-z
1/2+x,1/2+y,z
1/2-x,1/2+y,-z
loop_
_atom_site_type_symbol
_atom_site_label
_atom_site_fract_x
_atom_site_fract_y
_atom_site_fract_z
Si Si1 0.463091 0.210320 0.207572
Si Si2 0.449012 0.043339 0.954944
Si Si3 0.392214 0.860537 0.506277
Si Si4 0.500000 0.236546 0.500000
Si Si5 0.405713 0.484009 0.378443
Si Si6 0.305010 0.896811 0.313135
Si Si7 0.899347 0.300261 0.798430
Si Si8 0.151612 0.667675 0.542781
O O1 0.466412 0.112656 0.172422
O O2 0.229315 0.268969 0.376623
O O3 0.503205 0.203286 0.268690
O O4 0.664639 0.257032 0.006097
O O5 0.616187 0.960527 0.813668
O O6 0.500000 0.082115 0.000000
O O7 0.174956 0.014212 0.159087
O O8 0.500000 0.904605 0.500000
O O9 0.195985 0.915460 0.607565
O O10 0.596535 0.839090 0.289824
O O11 0.713042 0.306352 0.346892
O O12 0.517650 0.179230 0.563736
O O13 0.371980 0.439856 0.488872
O O14 0.242413 0.570483 0.493339
O O15 0.530112 0.875567 0.195268
O O16 0.114303 0.229566 0.637133
#
# Coordination Sequence:
#
# PCOD9125258 Si02
#       8
#     4   4   4   2   4   4   4   4
#     4  11  22  40  61  90 124 164 203 262 319 369
#     4  12  25  36  65  94 121 164 212 264 316 383
#     4  10  24  39  63  89 122 168 212 253 312 382
#     4  10  22  40  68  96 124 168 214 266 314 396
#     4  11  22  43  63  90 130 167 206 265 323 369
#     4  10  21  41  60  90 126 160 208 263 319 372
#     4   9  20  39  63  85 124 165 200 257 314 372
#     4  10  21  40  66  92 127 165 206 258 323 372
#
# _framework density 19.999528000000002
#
# number of rings (size 3 to 8) (size 9 to 14) (size 15 to 20)
#    0.000    1.600    2.667    2.400    2.800    1.067 
#    1.200    2.000    0.000    1.600    0.000    0.000 
#    0.000    0.000    0.000    0.000    0.000    0.000 
#
# Total GULP energy -83668.079334 kJ/mol
# GULP energy per Si atom -5577.871956 kJ/mol
# Density = 1.995401 g / cm^3
# Si number density = 19.999528 Si / 1000 Ang^3
#
#
#
# Elastic Constant Matrix: (Units=GPa)
#
#
# Indices 1 2 3 4 5 6 
#
# 1 116.1039 8.6300 39.0563 0.1112 11.6382 -0.0099
# 2 8.6300 49.8634 16.4895 -0.0023 -2.9839 0.0291
# 3 39.0563 16.4895 65.1537 0.0453 6.0063 0.0616
# 4 0.1112 -0.0023 0.0453 28.9236 -0.0560 -0.5357
# 5 11.6382 -2.9839 6.0063 -0.0560 16.3670 -0.0249
# 6 -0.0099 0.0291 0.0616 -0.5357 -0.0249 19.2110
#
#
#
# Elastic Compliance Matrix: (Units=1/GPa)
#
#
# Indices 1 2 3 4 5 6 
#
# 1 0.011289 -0.000263 -0.006165 -0.000045 -0.005813 0.000017
# 2 -0.000263 0.022525 -0.006147 0.000025 0.006550 -0.000005
# 3 -0.006165 -0.006147 0.021009 -0.000020 -0.004447 -0.000068
# 4 -0.000045 0.000025 -0.000020 0.034592 0.000163 0.000965
# 5 -0.005813 0.006550 -0.004447 0.000163 0.068059 0.000094
# 6 0.000017 -0.000005 -0.000068 0.000965 0.000094 0.052081
#
#
# Mechanical properties :
#
#
# Convention : Reuss Voigt Hill
#
# Bulk Modulus (GPa) = 33.69926 39.94140 36.82033
# Shear Modulus (GPa) = 20.44185 24.03000 22.23593
#
# Velocity S-wave (km/s) = 3.20052 3.47007 3.33802
# Velocity P-wave (km/s) = 5.52670 6.00580 5.77123
#
# Compressibility (1/GPa) = 0.02967424
#
# Stress axis : x y z
#
# Youngs Moduli (GPa) = 88.58157 44.39521 47.59759
#
# Poissons Ratio (x) = 0.01168 0.29342
# Poissons Ratio (y) = 0.02330 0.29257
# Poissons Ratio (z) = 0.54608 0.27289
#
# Static dielectric constant tensor:
#      x y z
#    x 1.724090 0.000010 -0.010070 
#    y 0.000010 1.761820 0.000020 
#    z -0.010070 0.000020 1.689750 
# 
# From -- ./inp_files/61863.got.cif
#   From: 2010.05.17/outbox.cif.g08.bks.cpg/sg5_31_cif.got.tgz:61863.got - 2010.06.03 18:56:24.
