data_PCOD9125168
_publ_section_title
;
Structure prediction by ZEFSAII (Michael W. Deem and Ramdas Pophale) SiO2 
 PCOD9125168
Probable space group: C 2
;
_chemical_formula_sum "Si O2"
_cell_formula_units_Z 24
_cell_length_a 10.107037
_cell_length_b 9.273018
_cell_length_c 11.610619
_cell_angle_alpha 90.000000
_cell_angle_beta 66.204526
_cell_angle_gamma 90.000000
_cell_volume 995.674563
_symmetry_space_group_name_H-M "C 2"
_symmetry_group_IT_number 5
_symmetry_cell_setting 'monoclinic'
loop_
_space_group_symop_operation_xyz
x,y,z
-x,y,-z
1/2+x,1/2+y,z
1/2-x,1/2+y,-z
loop_
_atom_site_type_symbol
_atom_site_label
_atom_site_fract_x
_atom_site_fract_y
_atom_site_fract_z
Si Si1 0.527254 0.782700 0.626061
Si Si2 0.000000 0.175651 0.000000
Si Si3 0.500000 0.169706 0.000000
Si Si4 0.025945 0.617983 0.625246
Si Si5 0.679511 0.589045 0.154461
Si Si6 0.533725 0.359672 0.770801
Si Si7 0.797273 0.147452 0.250929
O O1 0.500000 0.758846 0.500000
O O2 0.388842 0.723051 0.748556
O O3 0.662203 0.697620 0.634879
O O4 0.562362 0.951793 0.631443
O O5 0.893169 0.244123 0.130651
O O6 0.112232 0.097809 0.048316
O O7 0.351270 0.087847 0.082567
O O8 0.523884 0.272912 0.100041
O O9 0.109569 0.745939 0.658815
O O10 0.865040 0.641894 0.730181
O O11 0.000000 0.640843 0.500000
O O12 0.598648 0.451104 0.237444
O O13 0.644534 0.483172 0.772638
#
# Coordination Sequence:
#
# PCOD9125168 Si02
#       7
#     4   2   2   4   4   4   4
#     4   9  21  41  62  88 124 164 204 252 308 362
#     4   8  17  40  63  84 119 162 201 242 307 368
#     4  12  23  38  67 100 127 158 207 264 313 370
#     4  11  24  40  61  91 123 160 208 257 306 363
#     4  10  22  40  68  94 125 169 206 255 314 373
#     4  10  23  41  61  91 126 164 206 251 309 372
#     4  10  21  40  63  85 122 165 200 252 308 365
#
# _framework density 24.10426
#
# number of rings (size 3 to 8) (size 9 to 14) (size 15 to 20)
#    0.000    2.333    0.000    4.000    0.000    9.333 
#    0.000    8.333    0.000    0.000    0.000    0.000 
#    0.000    0.000    0.000    0.000    0.000    0.000 
#
# Total GULP energy -66929.809321 kJ/mol
# GULP energy per Si atom -5577.484110 kJ/mol
# Density = 2.404940 g / cm^3
# Si number density = 24.104260 Si / 1000 Ang^3
#
#
#
# Elastic Constant Matrix: (Units=GPa)
#
#
# Indices 1 2 3 4 5 6 
#
# 1 75.7725 4.8456 -0.5554 0.0000 -1.5879 0.0000
# 2 4.8456 104.4037 43.4372 0.0000 17.4490 0.0000
# 3 -0.5554 43.4372 104.4215 0.0000 19.4215 0.0000
# 4 0.0000 0.0000 0.0000 11.1633 0.0000 7.4161
# 5 -1.5879 17.4490 19.4215 0.0000 31.2163 0.0000
# 6 0.0000 0.0000 0.0000 7.4161 0.0000 15.4576
#
#
#
# Elastic Compliance Matrix: (Units=1/GPa)
#
#
# Indices 1 2 3 4 5 6 
#
# 1 0.013278 -0.000891 0.000252 0.000000 0.001017 0.000000
# 2 -0.000891 0.012086 -0.004260 0.000000 -0.004150 0.000000
# 3 0.000252 -0.004260 0.012332 0.000000 -0.005278 0.000000
# 4 0.000000 0.000000 0.000000 0.131487 0.000000 -0.063084
# 5 0.001017 -0.004150 -0.005278 0.000000 0.037690 0.000000
# 6 0.000000 0.000000 0.000000 -0.063084 0.000000 0.094959
#
#
# Mechanical properties :
#
#
# Convention : Reuss Voigt Hill
#
# Bulk Modulus (GPa) = 35.84633 42.22804 39.03719
# Shear Modulus (GPa) = 15.57981 27.35880 21.46931
#
# Velocity S-wave (km/s) = 2.54510 3.37266 2.98767
# Velocity P-wave (km/s) = 4.85184 5.72044 5.30395
#
# Compressibility (1/GPa) = 0.02789686
#
# Stress axis : x y z
#
# Youngs Moduli (GPa) = 75.31521 82.74261 81.09146
#
# Poissons Ratio (x) = 0.07373 -0.02045
# Poissons Ratio (y) = 0.06711 0.34547
# Poissons Ratio (z) = -0.01900 0.35250
#
# Static dielectric constant tensor:
#      x y z
#    x 1.978310 0.000000 -0.085920 
#    y 0.000000 1.948560 0.000000 
#    z -0.085920 0.000000 1.990560 
# 
# From -- ./inp_files/38292.got.cif
#   From: 2010.05.17/outbox.cif.g08.bks.cpg/sg5_20_cif.got.tgz:38292.got - 2010.06.03 18:56:24.
