data_PCOD9125022
_publ_section_title
;
Structure prediction by ZEFSAII (Michael W. Deem and Ramdas Pophale) SiO2 
 PCOD9125022
Probable space group: C 2
;
_chemical_formula_sum "Si O2"
_cell_formula_units_Z 30
_cell_length_a 8.005069
_cell_length_b 10.235047
_cell_length_c 22.264502
_cell_angle_alpha 90.000000
_cell_angle_beta 133.221790
_cell_angle_gamma 90.000000
_cell_volume 1329.295654
_symmetry_space_group_name_H-M "C 2"
_symmetry_group_IT_number 5
_symmetry_cell_setting 'monoclinic'
loop_
_space_group_symop_operation_xyz
x,y,z
-x,y,-z
1/2+x,1/2+y,z
1/2-x,1/2+y,-z
loop_
_atom_site_type_symbol
_atom_site_label
_atom_site_fract_x
_atom_site_fract_y
_atom_site_fract_z
Si Si1 0.293098 0.881610 0.317836
Si Si2 0.771179 0.870622 0.563720
Si Si3 0.500000 0.013844 0.000000
Si Si4 0.160174 0.402875 0.227213
Si Si5 0.771325 0.549811 0.071858
Si Si6 0.868156 0.668641 0.355453
Si Si7 0.489754 0.606867 0.630897
Si Si8 0.357294 0.330750 0.146123
O O1 0.158494 0.884353 0.348475
O O2 0.441859 0.753632 0.367432
O O3 0.127015 0.853349 0.221284
O O4 0.400946 0.024970 0.334141
O O5 0.500000 0.876123 0.500000
O O6 0.892564 0.739599 0.572607
O O7 0.886581 0.996560 0.560976
O O8 0.588929 0.072575 0.957531
O O9 0.276521 0.927973 0.929978
O O10 0.212882 0.276393 0.281788
O O11 0.286840 0.532183 0.285990
O O12 0.257600 0.363747 0.186591
O O13 0.901692 0.443216 0.145442
O O14 0.796245 0.686205 0.112170
O O15 0.500000 0.519834 0.000000
O O16 0.723854 0.635680 0.378260
#
# Coordination Sequence:
#
# PCOD9125022 Si02
#       8
#     4   4   2   4   4   4   4   4
#     4  11  22  39  66  96 125 169 214 267 324 390
#     4  10  23  44  64  91 136 171 205 270 332 384
#     4  10  26  44  60  94 140 174 222 294 336 400
#     4  10  21  41  67  93 133 167 218 280 326 391
#     4  11  24  45  66  96 134 185 228 278 353 400
#     4  10  21  39  64  98 124 169 218 261 324 394
#     4  10  21  39  64  99 126 167 215 264 327 388
#     4  11  20  43  65  90 133 169 220 283 327 393
#
# _framework density 22.568339999999999
#
# number of rings (size 3 to 8) (size 9 to 14) (size 15 to 20)
#    0.000    1.600    6.000    0.000    0.000    7.467 
#    1.200    0.667    0.000    0.000    0.000    0.000 
#    0.000    0.000    0.000    0.000    0.000    0.000 
#
# Total GULP energy -83511.874083 kJ/mol
# GULP energy per Si atom -5567.458272 kJ/mol
# Density = 2.251697 g / cm^3
# Si number density = 22.568340 Si / 1000 Ang^3
#
#
#
# Elastic Constant Matrix: (Units=GPa)
#
#
# Indices 1 2 3 4 5 6 
#
# 1 30.4800 23.1846 7.0348 0.0000 14.9842 0.0000
# 2 23.1846 166.6711 41.4494 0.0000 26.1928 0.0000
# 3 7.0348 41.4494 113.6153 0.0000 31.7843 0.0000
# 4 0.0000 0.0000 0.0000 29.0498 0.0000 4.5440
# 5 14.9842 26.1928 31.7843 0.0000 35.2390 0.0000
# 6 0.0000 0.0000 0.0000 4.5440 0.0000 29.9550
#
#
#
# Elastic Compliance Matrix: (Units=1/GPa)
#
#
# Indices 1 2 3 4 5 6 
#
# 1 0.044720 -0.004179 0.004289 0.000000 -0.019778 0.000000
# 2 -0.004179 0.007361 -0.001863 0.000000 -0.002014 0.000000
# 3 0.004289 -0.001863 0.012490 0.000000 -0.011704 0.000000
# 4 0.000000 0.000000 0.000000 0.035260 0.000000 -0.005349
# 5 -0.019778 -0.002014 -0.011704 0.000000 0.048841 0.000000
# 6 0.000000 0.000000 0.000000 -0.005349 0.000000 0.034195
#
#
# Mechanical properties :
#
#
# Convention : Reuss Voigt Hill
#
# Bulk Modulus (GPa) = 16.37635 50.45600 33.41617
# Shear Modulus (GPa) = 24.18609 34.78860 29.48734
#
# Velocity S-wave (km/s) = 3.27721 3.93043 3.61859
# Velocity P-wave (km/s) = 4.64674 6.55768 5.68311
#
# Compressibility (1/GPa) = 0.06106368
#
# Stress axis : x y z
#
# Youngs Moduli (GPa) = 22.36113 135.85049 80.06273
#
# Poissons Ratio (x) = 0.56775 -0.34336
# Poissons Ratio (y) = 0.09345 0.14919
# Poissons Ratio (z) = -0.09590 0.25314
#
# Static dielectric constant tensor:
#      x y z
#    x 1.893160 0.000000 0.012480 
#    y 0.000000 1.976460 0.000000 
#    z 0.012480 0.000000 1.935070 
# 
# From -- ./inp_files/70187.got.cif
#   From: 2010.05.17/outbox.cif.g08.bks.cpg/sg5_36_cif.got.tgz:70187.got - 2010.06.03 18:56:24.
