data_PCOD9125626
_publ_section_title
;
Structure prediction by ZEFSAII (Michael W. Deem and Ramdas Pophale) SiO2 
 PCOD9125626
Probable space group: C 2
;
_chemical_formula_sum "Si O2"
_cell_formula_units_Z 24
_cell_length_a 11.267790
_cell_length_b 7.580170
_cell_length_c 22.871821
_cell_angle_alpha 90.000000
_cell_angle_beta 31.500992
_cell_angle_gamma 90.000000
_cell_volume 1020.741578
_symmetry_space_group_name_H-M "C 2"
_symmetry_group_IT_number 5
_symmetry_cell_setting 'monoclinic'
loop_
_space_group_symop_operation_xyz
x,y,z
-x,y,-z
1/2+x,1/2+y,z
1/2-x,1/2+y,-z
loop_
_atom_site_type_symbol
_atom_site_label
_atom_site_fract_x
_atom_site_fract_y
_atom_site_fract_z
Si Si1 0.008680 0.669280 0.429523
Si Si2 0.121579 0.106433 0.813643
Si Si3 0.347408 0.195524 0.213012
Si Si4 0.429770 0.585622 0.463416
Si Si5 0.242109 0.235763 0.881261
Si Si6 0.631991 0.102500 0.992726
O O1 0.256672 0.631957 0.299231
O O2 0.000000 0.598267 0.500000
O O3 0.820156 0.606543 0.461024
O O4 0.974636 0.877941 0.446969
O O5 0.256645 0.211208 0.806262
O O6 0.129542 0.895735 0.820600
O O7 0.862604 0.174844 0.922714
O O8 0.529545 0.162128 0.187494
O O9 0.102024 0.167096 0.343224
O O10 0.444905 0.073296 0.120823
O O11 0.500000 0.652017 0.500000
O O12 0.217721 0.429182 0.921433
O O13 0.000000 0.148563 0.000000
O O14 0.500000 0.215788 0.000000
#
# Coordination Sequence:
#
# PCOD9125626 Si02
#       6
#     4   4   4   4   4   4
#     4  11  27  46  73 103 138 184 236 289 345 414
#     4  11  24  44  71 101 138 182 228 283 344 409
#     4  11  24  42  71 102 136 180 231 283 340 410
#     4  11  26  48  71 103 141 182 236 288 346 412
#     4  10  21  42  67  97 141 179 222 274 339 408
#     4  10  24  41  65 104 137 179 224 275 343 407
#
# _framework density 23.512319000000002
#
# number of rings (size 3 to 8) (size 9 to 14) (size 15 to 20)
#    0.000    1.333    1.667    2.000    7.000    6.000 
#    0.000    0.000    0.000    0.000    0.000    0.000 
#    0.000    0.000    0.000    0.000    0.000    0.000 
#
# Total GULP energy -66965.478962 kJ/mol
# GULP energy per Si atom -5580.456580 kJ/mol
# Density = 2.345880 g / cm^3
# Si number density = 23.512319 Si / 1000 Ang^3
#
#
#
# Elastic Constant Matrix: (Units=GPa)
#
#
# Indices 1 2 3 4 5 6 
#
# 1 125.0558 18.0972 20.8968 0.0000 18.9962 0.0000
# 2 18.0972 82.8917 2.1979 0.0000 8.1549 0.0000
# 3 20.8968 2.1979 111.3737 0.0001 16.5064 0.0000
# 4 0.0000 0.0000 0.0001 22.7460 0.0000 0.6055
# 5 18.9962 8.1549 16.5064 0.0000 47.7582 0.0000
# 6 0.0000 0.0000 0.0000 0.6055 0.0000 13.6447
#
#
#
# Elastic Compliance Matrix: (Units=1/GPa)
#
#
# Indices 1 2 3 4 5 6 
#
# 1 0.008864 -0.001625 -0.001212 0.000000 -0.002829 0.000000
# 2 -0.001625 0.012568 0.000294 0.000000 -0.001602 0.000000
# 3 -0.001212 0.000294 0.009630 0.000000 -0.002896 0.000000
# 4 0.000000 0.000000 0.000000 0.044016 0.000000 -0.001953
# 5 -0.002829 -0.001602 -0.002896 0.000000 0.023339 0.000000
# 6 0.000000 0.000000 0.000000 -0.001953 0.000000 0.073375
#
#
# Mechanical properties :
#
#
# Convention : Reuss Voigt Hill
#
# Bulk Modulus (GPa) = 38.49502 44.63390 41.56446
# Shear Modulus (GPa) = 26.94908 35.37173 31.16040
#
# Velocity S-wave (km/s) = 3.38918 3.88286 3.64439
# Velocity P-wave (km/s) = 5.63234 6.25512 5.95188
#
# Compressibility (1/GPa) = 0.02597739
#
# Stress axis : x y z
#
# Youngs Moduli (GPa) = 112.81824 79.56463 103.84646
#
# Poissons Ratio (x) = 0.12927 0.12583
# Poissons Ratio (y) = 0.18329 -0.03055
# Poissons Ratio (z) = 0.13670 -0.02340
#
# Static dielectric constant tensor:
#      x y z
#    x 1.992010 0.000000 0.018720 
#    y 0.000000 1.945060 0.000000 
#    z 0.018720 0.000000 1.904760 
# 
# From -- ./inp_files/68248.got.cif
#   From: 2010.05.17/outbox.cif.g08.bks.cpg/sg5_35_cif.got.tgz:68248.got - 2010.06.03 18:56:24.
