data_PCOD9125030
_publ_section_title
;
Structure prediction by ZEFSAII (Michael W. Deem and Ramdas Pophale) SiO2 
 PCOD9125030
Probable space group: C 2
;
_chemical_formula_sum "Si O2"
_cell_formula_units_Z 28
_cell_length_a 11.798754
_cell_length_b 14.278943
_cell_length_c 7.647574
_cell_angle_alpha 90.000000
_cell_angle_beta 120.834189
_cell_angle_gamma 90.000000
_cell_volume 1106.303265
_symmetry_space_group_name_H-M "C 2"
_symmetry_group_IT_number 5
_symmetry_cell_setting 'monoclinic'
loop_
_space_group_symop_operation_xyz
x,y,z
-x,y,-z
1/2+x,1/2+y,z
1/2-x,1/2+y,-z
loop_
_atom_site_type_symbol
_atom_site_label
_atom_site_fract_x
_atom_site_fract_y
_atom_site_fract_z
Si Si1 0.500000 0.246090 0.500000
Si Si2 0.199843 0.634589 0.101287
Si Si3 0.672080 0.335272 0.189881
Si Si4 0.768232 0.612858 0.463526
Si Si5 0.521424 0.619003 0.711906
Si Si6 0.613517 0.912167 0.446920
Si Si7 0.081487 0.904501 0.802488
Si Si8 0.500000 0.979715 0.000000
O O1 0.391171 0.179041 0.505909
O O2 0.592800 0.321212 0.674333
O O3 0.138882 0.736477 0.075279
O O4 0.234803 0.608593 0.328331
O O5 0.335888 0.651317 0.104500
O O6 0.098485 0.552257 0.974649
O O7 0.789120 0.328463 0.421447
O O8 0.552293 0.376741 0.203388
O O9 0.695424 0.400228 0.038515
O O10 0.615216 0.632717 0.292431
O O11 0.806199 0.507003 0.444909
O O12 0.500000 0.659799 0.500000
O O13 0.555126 0.508313 0.717320
O O14 0.500000 0.906859 0.500000
O O15 0.568125 0.920282 0.209217
#
# Coordination Sequence:
#
# PCOD9125030 Si02
#       8
#     2   4   4   4   4   4   4   2
#     4  12  22  40  72 104 140 180 250 290 354 432
#     4  10  22  41  71 100 135 185 240 291 358 431
#     4  11  24  43  65 104 142 180 240 297 361 420
#     4  10  21  39  65 104 133 185 232 296 350 429
#     4  10  21  41  69  98 137 184 233 286 364 425
#     4  11  24  42  68 102 144 188 237 302 364 433
#     4  11  23  41  69 103 136 186 235 295 351 439
#     4  10  24  44  74 104 136 196 252 288 366 442
#
# _framework density 25.309514
#
# number of rings (size 3 to 8) (size 9 to 14) (size 15 to 20)
#    0.000    1.429    4.286    0.857    4.000    1.714 
#    0.000    0.000    0.000    0.000   14.857    0.000 
#    0.000    0.000    0.000    0.000    0.000    0.000 
#
# Total GULP energy -78122.865455 kJ/mol
# GULP energy per Si atom -5580.204675 kJ/mol
# Density = 2.525191 g / cm^3
# Si number density = 25.309514 Si / 1000 Ang^3
#
#
#
# Elastic Constant Matrix: (Units=GPa)
#
#
# Indices 1 2 3 4 5 6 
#
# 1 126.7051 17.5777 19.8379 0.0000 24.3102 0.0000
# 2 17.5777 77.8019 22.5127 0.0000 2.5731 0.0000
# 3 19.8379 22.5127 116.5228 0.0000 5.8898 0.0000
# 4 0.0000 0.0000 0.0000 13.3860 0.0000 -1.5256
# 5 24.3102 2.5731 5.8898 0.0000 33.5694 0.0000
# 6 0.0000 0.0000 0.0000 -1.5256 0.0000 30.2701
#
#
#
# Elastic Compliance Matrix: (Units=1/GPa)
#
#
# Indices 1 2 3 4 5 6 
#
# 1 0.009543 -0.001657 -0.000970 0.000000 -0.006614 0.000000
# 2 -0.001657 0.013913 -0.002434 0.000000 0.000560 0.000000
# 3 -0.000970 -0.002434 0.009255 0.000000 -0.000734 0.000000
# 4 0.000000 0.000000 0.000000 0.075136 0.000000 0.003787
# 5 -0.006614 0.000560 -0.000734 0.000000 0.034664 0.000000
# 6 0.000000 0.000000 0.000000 0.003787 0.000000 0.033227
#
#
# Mechanical properties :
#
#
# Convention : Reuss Voigt Hill
#
# Bulk Modulus (GPa) = 44.27050 48.98737 46.62893
# Shear Modulus (GPa) = 25.85442 32.85187 29.35315
#
# Velocity S-wave (km/s) = 3.19961 3.60669 3.40923
# Velocity P-wave (km/s) = 5.58387 6.06149 5.82757
#
# Compressibility (1/GPa) = 0.02258841
#
# Stress axis : x y z
#
# Youngs Moduli (GPa) = 104.78896 71.87366 108.05356
#
# Poissons Ratio (x) = 0.11906 0.10485
# Poissons Ratio (y) = 0.17359 0.26305
# Poissons Ratio (z) = 0.10168 0.17497
#
# Static dielectric constant tensor:
#      x y z
#    x 2.065550 0.000000 0.039390 
#    y 0.000000 1.987500 0.000000 
#    z 0.039390 0.000000 2.216980 
# 
# From -- ./inp_files/20757.got.cif
#   From: 2010.05.17/outbox.cif.g08.bks.cpg/sg5_11_cif.got.tgz:20757.got - 2010.06.03 18:56:24.
