data_PCOD9125193
_publ_section_title
;
Structure prediction by ZEFSAII (Michael W. Deem and Ramdas Pophale) SiO2 
 PCOD9125193
Probable space group: C 2
;
_chemical_formula_sum "Si O2"
_cell_formula_units_Z 30
_cell_length_a 21.998420
_cell_length_b 8.912770
_cell_length_c 9.299002
_cell_angle_alpha 90.000000
_cell_angle_beta 130.637862
_cell_angle_gamma 90.000000
_cell_volume 1383.538900
_symmetry_space_group_name_H-M "C 2"
_symmetry_group_IT_number 5
_symmetry_cell_setting 'monoclinic'
loop_
_space_group_symop_operation_xyz
x,y,z
-x,y,-z
1/2+x,1/2+y,z
1/2-x,1/2+y,-z
loop_
_atom_site_type_symbol
_atom_site_label
_atom_site_fract_x
_atom_site_fract_y
_atom_site_fract_z
Si Si1 0.704226 0.252820 0.885166
Si Si2 0.086861 0.118178 0.170300
Si Si3 0.852497 0.875119 0.895005
Si Si4 0.577990 0.056179 0.516252
Si Si5 0.322227 0.570923 0.237922
Si Si6 0.500000 0.487887 0.500000
Si Si7 0.478708 0.320478 0.764417
Si Si8 0.812527 0.302048 0.463747
O O1 0.638001 0.147700 0.712274
O O2 0.710160 0.402001 0.800589
O O3 0.678589 0.322142 0.999355
O O4 0.781084 0.155944 0.042469
O O5 0.143387 0.240245 0.328364
O O6 0.123225 0.048214 0.082065
O O7 0.069465 0.964101 0.239804
O O8 0.000000 0.182071 0.000000
O O9 0.778793 0.860125 0.669621
O O10 0.939189 0.792570 0.018927
O O11 0.500000 0.023674 0.500000
O O12 0.560143 0.164574 0.349877
O O13 0.628269 0.915166 0.531049
O O14 0.417671 0.576180 0.374367
O O15 0.300947 0.655468 0.349238
O O16 0.503430 0.387425 0.647186
#
# Coordination Sequence:
#
# PCOD9125193 Si02
#       8
#     4   4   4   4   4   2   4   4
#     4  11  20  39  63  98 126 169 206 263 330 380
#     4  10  23  43  66  85 121 175 220 258 307 393
#     4  10  21  40  64  85 122 166 217 254 308 390
#     4  12  22  38  65  97 134 158 204 276 326 386
#     4  11  22  37  61  92 131 160 214 261 324 388
#     4  12  18  36  66  92 128 164 202 266 324 402
#     4  11  19  40  66  93 117 172 217 252 327 385
#     4  11  25  40  61  96 127 165 213 273 324 368
#
# _framework density 21.683524999999999
#
# number of rings (size 3 to 8) (size 9 to 14) (size 15 to 20)
#    0.000    1.067    6.000    1.600    0.933    1.067 
#    0.000    4.667    0.000    0.000    0.000    0.000 
#    0.000    0.000    0.000    0.000    0.000    0.000 
#
# Total GULP energy -83589.676926 kJ/mol
# GULP energy per Si atom -5572.645128 kJ/mol
# Density = 2.163417 g / cm^3
# Si number density = 21.683525 Si / 1000 Ang^3
#
#
#
# Elastic Constant Matrix: (Units=GPa)
#
#
# Indices 1 2 3 4 5 6 
#
# 1 41.4986 14.1811 12.9535 0.0000 12.7810 0.0000
# 2 14.1811 59.2525 37.1064 0.0000 13.1222 0.0000
# 3 12.9535 37.1064 159.3942 0.0000 35.9601 0.0000
# 4 0.0000 0.0000 0.0000 52.9415 0.0000 -6.8356
# 5 12.7810 13.1222 35.9601 0.0000 38.8781 0.0000
# 6 0.0000 0.0000 0.0000 -6.8356 0.0000 15.4177
#
#
#
# Elastic Compliance Matrix: (Units=1/GPa)
#
#
# Indices 1 2 3 4 5 6 
#
# 1 0.028231 -0.005458 0.000827 0.000000 -0.008204 0.000000
# 2 -0.005458 0.021103 -0.004129 0.000000 -0.001510 0.000000
# 3 0.000827 -0.004129 0.008738 0.000000 -0.006961 0.000000
# 4 0.000000 0.000000 0.000000 0.020036 0.000000 0.008883
# 5 -0.008204 -0.001510 -0.006961 0.000000 0.035366 0.000000
# 6 0.000000 0.000000 0.000000 0.008883 0.000000 0.068799
#
#
# Mechanical properties :
#
#
# Convention : Reuss Voigt Hill
#
# Bulk Modulus (GPa) = 24.65889 43.18081 33.91985
# Shear Modulus (GPa) = 23.44021 34.50773 28.97397
#
# Velocity S-wave (km/s) = 3.29145 3.99360 3.65940
# Velocity P-wave (km/s) = 5.08347 6.42047 5.79069
#
# Compressibility (1/GPa) = 0.04055333
#
# Stress axis : x y z
#
# Youngs Moduli (GPa) = 35.42245 47.38669 114.44280
#
# Poissons Ratio (x) = 0.25862 -0.09465
# Poissons Ratio (y) = 0.19332 0.47248
# Poissons Ratio (z) = -0.02930 0.19564
#
# Static dielectric constant tensor:
#      x y z
#    x 1.856130 0.000000 0.002040 
#    y 0.000000 1.806170 0.000000 
#    z 0.002040 0.000000 1.926390 
# 
# From -- ./inp_files/47882.got.cif
#   From: 2010.05.17/outbox.cif.g08.bks.cpg/sg5_24_cif.got.tgz:47882.got - 2010.06.03 18:56:24.
