data_PCOD9125890
_publ_section_title
;
Structure prediction by ZEFSAII (Michael W. Deem and Ramdas Pophale) SiO2 
 PCOD9125890
Probable space group: C 2
;
_chemical_formula_sum "Si O2"
_cell_formula_units_Z 26
_cell_length_a 22.073343
_cell_length_b 10.057098
_cell_length_c 17.323268
_cell_angle_alpha 90.000000
_cell_angle_beta 162.293215
_cell_angle_gamma 90.000000
_cell_volume 1169.640901
_symmetry_space_group_name_H-M "C 2"
_symmetry_group_IT_number 5
_symmetry_cell_setting 'monoclinic'
loop_
_space_group_symop_operation_xyz
x,y,z
-x,y,-z
1/2+x,1/2+y,z
1/2-x,1/2+y,-z
loop_
_atom_site_type_symbol
_atom_site_label
_atom_site_fract_x
_atom_site_fract_y
_atom_site_fract_z
Si Si1 0.273917 0.932790 0.651758
Si Si2 0.000934 0.086770 0.586163
Si Si3 0.416974 0.347793 0.114096
Si Si4 0.777951 0.480591 0.266156
Si Si5 0.052020 0.537153 0.872571
Si Si6 0.000000 0.198317 0.000000
Si Si7 0.014402 0.348012 0.342341
O O1 0.374776 0.792473 0.791407
O O2 0.096307 0.919996 0.374409
O O3 0.440725 0.027867 0.818619
O O4 0.175976 0.986244 0.611530
O O5 0.000000 0.155979 0.500000
O O6 0.985103 0.191354 0.637447
O O7 0.211759 0.013169 0.839709
O O8 0.460663 0.189819 0.171297
O O9 0.359679 0.393857 0.958322
O O10 0.212157 0.383167 0.909312
O O11 0.827099 0.406060 0.405266
O O12 0.000000 0.506250 0.500000
O O13 0.653295 0.610154 0.136969
O O14 0.956357 0.421976 0.702954
#
# Coordination Sequence:
#
# PCOD9125890 Si02
#       7
#     4   4   4   4   4   2   4
#     4  12  27  43  66 104 140 186 233 290 363 413
#     4  11  24  46  71  98 142 188 239 291 350 425
#     4  10  23  44  68 104 137 182 237 289 349 423
#     4  10  24  45  71 100 138 183 235 289 351 420
#     4  11  24  42  69 101 141 180 234 295 352 422
#     4  12  28  44  66 102 142 182 238 290 358 418
#     4  10  21  45  72 103 135 187 234 291 350 418
#
# _framework density 22.229046
#
# number of rings (size 3 to 8) (size 9 to 14) (size 15 to 20)
#    0.000    1.231    1.538    4.154    6.462    1.846 
#    2.769    0.000    0.000    0.000    0.000    0.000 
#    0.000    0.000    0.000    0.000    0.000    0.000 
#
# Total GULP energy -72582.233422 kJ/mol
# GULP energy per Si atom -5583.248725 kJ/mol
# Density = 2.217845 g / cm^3
# Si number density = 22.229046 Si / 1000 Ang^3
#
#
#
# Elastic Constant Matrix: (Units=GPa)
#
#
# Indices 1 2 3 4 5 6 
#
# 1 80.3211 36.0676 28.6177 0.0006 6.1718 0.0002
# 2 36.0676 60.5987 38.8854 0.0002 6.4224 0.0001
# 3 28.6177 38.8854 123.2661 0.0006 -10.4091 0.0003
# 4 0.0006 0.0002 0.0006 32.2199 0.0005 1.9670
# 5 6.1718 6.4224 -10.4091 0.0005 31.0430 0.0002
# 6 0.0002 0.0001 0.0003 1.9670 0.0002 43.1484
#
#
#
# Elastic Compliance Matrix: (Units=1/GPa)
#
#
# Indices 1 2 3 4 5 6 
#
# 1 0.017183 -0.009227 -0.001241 0.000000 -0.001923 0.000000
# 2 -0.009227 0.027074 -0.006912 0.000000 -0.006085 0.000000
# 3 -0.001241 -0.006912 0.011035 0.000000 0.005377 0.000000
# 4 0.000000 0.000000 0.000000 0.031123 -0.000001 -0.001419
# 5 -0.001923 -0.006085 0.005377 -0.000001 0.035658 0.000000
# 6 0.000000 0.000000 0.000000 -0.001419 0.000000 0.023240
#
#
# Mechanical properties :
#
#
# Convention : Reuss Voigt Hill
#
# Bulk Modulus (GPa) = 48.70478 52.36969 50.53723
# Shear Modulus (GPa) = 26.74944 31.98995 29.36969
#
# Velocity S-wave (km/s) = 3.47270 3.79767 3.63882
# Velocity P-wave (km/s) = 6.16746 6.54523 6.35915
#
# Compressibility (1/GPa) = 0.02053187
#
# Stress axis : x y z
#
# Youngs Moduli (GPa) = 58.19585 36.93517 90.61829
#
# Poissons Ratio (x) = 0.34081 0.11245
# Poissons Ratio (y) = 0.53698 0.62640
# Poissons Ratio (z) = 0.07222 0.25531
#
# Static dielectric constant tensor:
#      x y z
#    x 1.830990 0.000000 -0.035490 
#    y 0.000000 1.803900 0.000000 
#    z -0.035490 0.000000 1.820080 
# 
# From -- ./inp_files/63328.got.cif
#   From: 2010.05.17/outbox.cif.g08.bks.cpg/sg5_32_cif.got.tgz:63328.got - 2010.06.03 18:56:24.
