data_PCOD9125833
_publ_section_title
;
Structure prediction by ZEFSAII (Michael W. Deem and Ramdas Pophale) SiO2 
 PCOD9125833
Probable space group: C 2
;
_chemical_formula_sum "Si O2"
_cell_formula_units_Z 16
_cell_length_a 11.850941
_cell_length_b 7.451465
_cell_length_c 11.563938
_cell_angle_alpha 90.000000
_cell_angle_beta 36.171692
_cell_angle_gamma 90.000000
_cell_volume 602.704648
_symmetry_space_group_name_H-M "C 2"
_symmetry_group_IT_number 5
_symmetry_cell_setting 'monoclinic'
loop_
_space_group_symop_operation_xyz
x,y,z
-x,y,-z
1/2+x,1/2+y,z
1/2-x,1/2+y,-z
loop_
_atom_site_type_symbol
_atom_site_label
_atom_site_fract_x
_atom_site_fract_y
_atom_site_fract_z
Si Si1 0.795971 0.379590 0.638733
Si Si2 0.522266 0.854310 0.849194
Si Si3 0.884417 0.003594 0.438888
Si Si4 0.253690 0.159158 0.100974
O O1 0.847868 0.198258 0.525288
O O2 0.667603 0.485786 0.654186
O O3 0.716409 0.309107 0.826101
O O4 0.000000 0.470740 0.500000
O O5 0.738806 0.870462 0.623740
O O6 0.371957 0.748156 0.894846
O O7 0.500000 0.796031 0.000000
O O8 0.445825 0.061621 0.905374
O O9 0.113484 0.997256 0.261689
#
# Coordination Sequence:
#
# PCOD9125833 Si02
#       4
#     4   4   4   4
#     4  10  21  44  68  93 129 174 218 263 325 384
#     4  12  26  43  66  99 133 172 219 270 324 384
#     4  11  22  45  69  91 133 175 215 268 324 385
#     4  11  27  44  67  99 133 173 219 267 325 389
#
# _framework density 26.546997000000001
#
# number of rings (size 3 to 8) (size 9 to 14) (size 15 to 20)
#    0.000    1.000    7.500    0.000    3.500    2.000 
#    0.000    3.750    0.000    0.000    0.000    0.000 
#    0.000    0.000    0.000    0.000    0.000    0.000 
#
# Total GULP energy -44753.578659 kJ/mol
# GULP energy per Si atom -5594.197332 kJ/mol
# Density = 2.648657 g / cm^3
# Si number density = 26.546997 Si / 1000 Ang^3
#
#
#
# Elastic Constant Matrix: (Units=GPa)
#
#
# Indices 1 2 3 4 5 6 
#
# 1 197.8776 22.4654 37.3802 0.0000 37.1692 0.0000
# 2 22.4654 44.0761 2.5741 0.0000 7.1018 0.0000
# 3 37.3802 2.5741 118.0742 0.0000 -9.9331 0.0000
# 4 0.0000 0.0000 0.0000 21.7273 0.0000 -5.3736
# 5 37.1692 7.1018 -9.9331 0.0000 50.9684 0.0000
# 6 0.0000 0.0000 0.0000 -5.3736 0.0000 73.5170
#
#
#
# Elastic Compliance Matrix: (Units=1/GPa)
#
#
# Indices 1 2 3 4 5 6 
#
# 1 0.006764 -0.002483 -0.002514 0.000000 -0.005077 0.000000
# 2 -0.002483 0.024193 0.000129 0.000000 -0.001535 0.000000
# 3 -0.002514 0.000129 0.009572 0.000000 0.003681 0.000000
# 4 0.000000 0.000000 0.000000 0.046872 0.000000 0.003426
# 5 -0.005077 -0.001535 0.003681 0.000000 0.024254 0.000000
# 6 0.000000 0.000000 0.000000 0.003426 0.000000 0.013853
#
#
# Mechanical properties :
#
#
# Convention : Reuss Voigt Hill
#
# Bulk Modulus (GPa) = 32.47380 53.87416 43.17398
# Shear Modulus (GPa) = 34.36224 49.08306 41.72265
#
# Velocity S-wave (km/s) = 3.60167 4.30456 3.96871
# Velocity P-wave (km/s) = 5.43647 6.71145 6.10732
#
# Compressibility (1/GPa) = 0.03079405
#
# Stress axis : x y z
#
# Youngs Moduli (GPa) = 147.83892 41.33378 104.47020
#
# Poissons Ratio (x) = 0.10262 0.26268
# Poissons Ratio (y) = 0.36705 -0.01352
# Poissons Ratio (z) = 0.37172 -0.00535
#
# Static dielectric constant tensor:
#      x y z
#    x 2.033110 0.000000 0.043890 
#    y 0.000000 2.086180 0.000000 
#    z 0.043890 0.000000 2.177380 
# 
# From -- ./inp_files/17924.got.cif
#   From: 2010.05.17/outbox.cif.g08.bks.cpg/sg5_9_cif.got.tgz:17924.got - 2010.06.03 18:56:24.
