data_PCOD9125275
_publ_section_title
;
Structure prediction by ZEFSAII (Michael W. Deem and Ramdas Pophale) SiO2 
 PCOD9125275
Probable space group: C 2
;
_chemical_formula_sum "Si O2"
_cell_formula_units_Z 24
_cell_length_a 10.296718
_cell_length_b 16.771565
_cell_length_c 9.877555
_cell_angle_alpha 90.000000
_cell_angle_beta 43.046076
_cell_angle_gamma 90.000000
_cell_volume 1164.338930
_symmetry_space_group_name_H-M "C 2"
_symmetry_group_IT_number 5
_symmetry_cell_setting 'monoclinic'
loop_
_space_group_symop_operation_xyz
x,y,z
-x,y,-z
1/2+x,1/2+y,z
1/2-x,1/2+y,-z
loop_
_atom_site_type_symbol
_atom_site_label
_atom_site_fract_x
_atom_site_fract_y
_atom_site_fract_z
Si Si1 0.984518 0.034920 0.849530
Si Si2 0.976400 0.670347 0.359939
Si Si3 0.346122 0.762771 0.002042
Si Si4 0.887022 0.442142 0.959447
Si Si5 0.616460 0.982252 0.542150
Si Si6 0.943070 0.191868 0.388080
O O1 0.012250 0.114386 0.739300
O O2 0.162953 0.981692 0.664814
O O3 0.000000 0.048078 0.000000
O O4 0.784923 0.994878 0.965327
O O5 0.946943 0.574489 0.377776
O O6 0.782098 0.706659 0.450820
O O7 0.000000 0.690343 0.500000
O O8 0.163858 0.705480 0.148217
O O9 0.500000 0.738380 0.000000
O O10 0.305046 0.855601 0.061610
O O11 0.437295 0.757274 0.783877
O O12 0.048413 0.433656 0.722430
O O13 0.000000 0.478736 0.000000
O O14 0.500000 0.956311 0.500000
O O15 0.000000 0.180791 0.500000
#
# Coordination Sequence:
#
# PCOD9125275 Si02
#       6
#     4   4   4   4   4   4
#     4  11  23  44  69  93 126 177 218 260 325 388
#     4  10  21  41  70  91 118 171 222 260 314 384
#     4  11  23  44  66  92 133 176 214 255 325 396
#     4  11  26  41  63  98 133 172 210 269 320 381
#     4  10  21  40  67  96 121 165 220 266 314 378
#     4  11  25  41  66 101 128 162 215 283 317 366
#
# _framework density 20.612556000000001
#
# number of rings (size 3 to 8) (size 9 to 14) (size 15 to 20)
#    0.000    1.333    3.333    1.500    7.000    2.667 
#    3.000    0.000    0.000    0.000    0.000    0.000 
#    0.000    0.000    0.000    0.000    0.000    0.000 
#
# Total GULP energy -67027.858849 kJ/mol
# GULP energy per Si atom -5585.654904 kJ/mol
# Density = 2.056564 g / cm^3
# Si number density = 20.612556 Si / 1000 Ang^3
#
#
#
# Elastic Constant Matrix: (Units=GPa)
#
#
# Indices 1 2 3 4 5 6 
#
# 1 159.6646 31.7861 73.0768 0.0001 0.9923 0.0000
# 2 31.7861 32.1672 20.3249 0.0001 1.2855 0.0000
# 3 73.0768 20.3249 137.4887 0.0000 -2.3713 0.0000
# 4 0.0001 0.0001 0.0000 9.7703 -0.0001 7.0700
# 5 0.9923 1.2855 -2.3713 -0.0001 39.7312 0.0000
# 6 0.0000 0.0000 0.0000 7.0700 0.0000 9.2873
#
#
#
# Elastic Compliance Matrix: (Units=1/GPa)
#
#
# Indices 1 2 3 4 5 6 
#
# 1 0.009461 -0.006793 -0.004029 0.000000 -0.000257 0.000000
# 2 -0.006793 0.039247 -0.002213 -0.000001 -0.001232 0.000001
# 3 -0.004029 -0.002213 0.009755 0.000000 0.000754 0.000000
# 4 0.000000 -0.000001 0.000000 0.227884 0.000001 -0.173477
# 5 -0.000257 -0.001232 0.000754 0.000001 0.025260 0.000000
# 6 0.000000 0.000001 0.000000 -0.173477 0.000000 0.239734
#
#
# Mechanical properties :
#
#
# Convention : Reuss Voigt Hill
#
# Bulk Modulus (GPa) = 30.86973 64.41070 47.64021
# Shear Modulus (GPa) = 8.50039 25.36661 16.93350
#
# Velocity S-wave (km/s) = 2.03294 3.51185 2.86932
# Velocity P-wave (km/s) = 4.52981 6.91088 5.84292
#
# Compressibility (1/GPa) = 0.03239420
#
# Stress axis : x y z
#
# Youngs Moduli (GPa) = 105.69637 25.47943 102.51336
#
# Poissons Ratio (x) = 0.17308 0.41301
# Poissons Ratio (y) = 0.71800 0.22682
# Poissons Ratio (z) = 0.42584 0.05638
#
# Static dielectric constant tensor:
#      x y z
#    x 1.715610 0.000000 0.005710 
#    y 0.000000 1.772240 0.000000 
#    z 0.005710 0.000000 1.758860 
# 
# From -- ./inp_files/16674.got.cif
#   From: 2010.05.17/outbox.cif.g08.bks.cpg/sg5_9_cif.got.tgz:16674.got - 2010.06.03 18:56:24.
