data_PCOD9125882
_publ_section_title
;
Structure prediction by ZEFSAII (Michael W. Deem and Ramdas Pophale) SiO2 
 PCOD9125882
Probable space group: C 2
;
_chemical_formula_sum "Si O2"
_cell_formula_units_Z 28
_cell_length_a 14.153313
_cell_length_b 8.301334
_cell_length_c 11.962906
_cell_angle_alpha 90.000000
_cell_angle_beta 59.826422
_cell_angle_gamma 90.000000
_cell_volume 1215.097260
_symmetry_space_group_name_H-M "C 2"
_symmetry_group_IT_number 5
_symmetry_cell_setting 'monoclinic'
loop_
_space_group_symop_operation_xyz
x,y,z
-x,y,-z
1/2+x,1/2+y,z
1/2-x,1/2+y,-z
loop_
_atom_site_type_symbol
_atom_site_label
_atom_site_fract_x
_atom_site_fract_y
_atom_site_fract_z
Si Si1 0.323034 0.334300 0.448069
Si Si2 0.000000 0.728714 0.000000
Si Si3 0.601046 0.993875 0.095160
Si Si4 0.194887 0.151909 0.975789
Si Si5 0.835101 0.930453 0.203636
Si Si6 0.309722 0.624271 0.765289
Si Si7 0.146728 0.486909 0.684720
Si Si8 0.000000 0.003774 0.500000
O O1 0.315345 0.453489 0.345170
O O2 0.206715 0.349587 0.578549
O O3 0.418565 0.395496 0.472905
O O4 0.343823 0.156086 0.388157
O O5 0.947749 0.830994 0.128249
O O6 0.088087 0.613699 0.999564
O O7 0.479856 0.957774 0.211987
O O8 0.679113 0.104440 0.124477
O O9 0.657963 0.832552 0.018638
O O10 0.143076 0.072529 0.896993
O O11 0.172822 0.080327 0.114281
O O12 0.740867 0.806190 0.214935
O O13 0.224498 0.513679 0.746497
O O14 0.422442 0.607084 0.628997
#
# Coordination Sequence:
#
# PCOD9125882 Si02
#       8
#     4   2   4   4   4   4   4   2
#     4  10  23  49  69 102 141 188 243 292 361 424
#     4  12  22  46  68  98 148 188 224 304 376 412
#     4  12  23  45  71 103 148 193 235 296 359 430
#     4  12  25  42  68 112 141 188 244 290 358 437
#     4  11  24  46  67 101 150 187 231 301 359 433
#     4  10  21  45  69  98 143 185 232 294 360 415
#     4  10  23  48  73  97 145 196 233 300 359 422
#     4  10  24  42  76 106 134 192 240 304 348 428
#
# _framework density 23.043422
#
# number of rings (size 3 to 8) (size 9 to 14) (size 15 to 20)
#    0.000    1.143    5.714    0.000    2.000    5.143 
#   10.286    0.000    0.000    0.000    0.000    0.000 
#    0.000    0.000    0.000    0.000    0.000    0.000 
#
# Total GULP energy -78121.563410 kJ/mol
# GULP energy per Si atom -5580.111672 kJ/mol
# Density = 2.299097 g / cm^3
# Si number density = 23.043422 Si / 1000 Ang^3
#
#
#
# Elastic Constant Matrix: (Units=GPa)
#
#
# Indices 1 2 3 4 5 6 
#
# 1 81.6627 34.3905 34.3296 0.0000 -10.3187 0.0000
# 2 34.3905 91.9628 23.6410 0.0000 -9.9227 0.0000
# 3 34.3296 23.6410 110.8792 0.0000 -16.1235 0.0000
# 4 0.0000 0.0000 0.0000 28.3858 0.0000 7.9125
# 5 -10.3187 -9.9227 -16.1235 0.0000 55.4893 0.0000
# 6 0.0000 0.0000 0.0000 7.9125 0.0000 6.3735
#
#
#
# Elastic Compliance Matrix: (Units=1/GPa)
#
#
# Indices 1 2 3 4 5 6 
#
# 1 0.016027 -0.004916 -0.003768 0.000000 0.001006 0.000000
# 2 -0.004916 0.013118 -0.001114 0.000000 0.001108 0.000000
# 3 -0.003768 -0.001114 0.010746 0.000000 0.002223 0.000000
# 4 0.000000 0.000000 0.000000 0.053872 0.000000 -0.066881
# 5 0.001006 0.001108 0.002223 0.000000 0.019053 0.000000
# 6 0.000000 0.000000 0.000000 -0.066881 0.000000 0.239932
#
#
# Mechanical properties :
#
#
# Convention : Reuss Voigt Hill
#
# Bulk Modulus (GPa) = 49.27077 52.13632 50.70355
# Shear Modulus (GPa) = 13.18884 30.85928 22.02406
#
# Velocity S-wave (km/s) = 2.39497 3.66345 3.09490
# Velocity P-wave (km/s) = 5.39222 6.36937 5.90105
#
# Compressibility (1/GPa) = 0.02029601
#
# Stress axis : x y z
#
# Youngs Moduli (GPa) = 62.39522 76.22927 93.05799
#
# Poissons Ratio (x) = 0.37477 0.35060
# Poissons Ratio (y) = 0.30675 0.10364
# Poissons Ratio (z) = 0.23508 0.08490
#
# Static dielectric constant tensor:
#      x y z
#    x 2.267500 0.000000 -0.019100 
#    y 0.000000 1.903250 0.000000 
#    z -0.019100 0.000000 1.887990 
# 
# From -- ./inp_files/41649.got.cif
#   From: 2010.05.17/outbox.cif.g08.bks.cpg/sg5_21_cif.got.tgz:41649.got - 2010.06.03 18:56:24.
