data_PCOD9125489
_publ_section_title
;
Structure prediction by ZEFSAII (Michael W. Deem and Ramdas Pophale) SiO2 
 PCOD9125489
Probable space group: C 2
;
_chemical_formula_sum "Si O2"
_cell_formula_units_Z 28
_cell_length_a 15.722616
_cell_length_b 6.017751
_cell_length_c 13.323710
_cell_angle_alpha 90.000000
_cell_angle_beta 67.913019
_cell_angle_gamma 90.000000
_cell_volume 1168.108259
_symmetry_space_group_name_H-M "C 2"
_symmetry_group_IT_number 5
_symmetry_cell_setting 'monoclinic'
loop_
_space_group_symop_operation_xyz
x,y,z
-x,y,-z
1/2+x,1/2+y,z
1/2-x,1/2+y,-z
loop_
_atom_site_type_symbol
_atom_site_label
_atom_site_fract_x
_atom_site_fract_y
_atom_site_fract_z
Si Si1 0.811953 0.232210 0.736670
Si Si2 0.146951 0.138463 0.510750
Si Si3 0.299823 0.586891 0.310319
Si Si4 0.963982 0.796800 0.178668
Si Si5 0.991833 0.454207 0.671431
Si Si6 0.342571 0.947103 0.140285
Si Si7 0.000000 0.130572 0.000000
Si Si8 0.500000 0.286041 0.500000
O O1 0.811074 0.175043 0.617923
O O2 0.762085 0.471986 0.748056
O O3 0.916628 0.263564 0.720398
O O4 0.757731 0.057259 0.829819
O O5 0.224641 0.103619 0.561669
O O6 0.082038 0.337124 0.583773
O O7 0.076096 0.937928 0.519126
O O8 0.390584 0.435280 0.275249
O O9 0.328329 0.822711 0.252864
O O10 0.905505 0.662020 0.122962
O O11 0.003597 0.605699 0.231782
O O12 0.016372 0.979037 0.090877
O O13 0.956723 0.624184 0.601765
O O14 0.406984 0.776065 0.052239
#
# Coordination Sequence:
#
# PCOD9125489 Si02
#       8
#     4   4   4   4   4   4   2   2
#     4  11  25  36  59 107 141 188 219 281 340 413
#     4  12  23  38  60  96 146 198 224 260 333 409
#     4  10  23  37  60  96 134 183 232 273 331 398
#     4  10  21  41  69 102 123 178 240 287 343 411
#     4  12  23  40  63 100 142 194 231 268 338 424
#     4  10  22  42  66 102 134 168 232 296 345 410
#     4  10  22  44  74 108 118 180 238 316 350 394
#     4  12  22  38  60  90 148 196 234 260 314 420
#
# _framework density 23.970379999999999
#
# number of rings (size 3 to 8) (size 9 to 14) (size 15 to 20)
#    0.000    1.143    5.714    0.429    4.000    0.000 
#    0.000    0.000    0.000    0.000   63.143    0.000 
#    0.000    0.000    0.000    0.000    0.000    0.000 
#
# Total GULP energy -78093.442888 kJ/mol
# GULP energy per Si atom -5578.103063 kJ/mol
# Density = 2.391582 g / cm^3
# Si number density = 23.970380 Si / 1000 Ang^3
#
#
#
# Elastic Constant Matrix: (Units=GPa)
#
#
# Indices 1 2 3 4 5 6 
#
# 1 39.6660 18.5830 21.9050 0.0000 -16.0534 0.0000
# 2 18.5830 96.8755 41.7477 0.0000 -20.5319 0.0003
# 3 21.9050 41.7477 88.7752 0.0000 -25.7046 0.0000
# 4 0.0000 0.0000 0.0000 46.4125 0.0000 -9.0669
# 5 -16.0534 -20.5319 -25.7046 0.0000 23.2892 0.0000
# 6 0.0000 0.0003 0.0000 -9.0669 0.0000 31.4738
#
#
#
# Elastic Compliance Matrix: (Units=1/GPa)
#
#
# Indices 1 2 3 4 5 6 
#
# 1 0.035490 -0.001516 -0.001981 0.000000 0.020941 0.000000
# 2 -0.001516 0.013812 -0.004259 0.000000 0.006431 0.000000
# 3 -0.001981 -0.004259 0.018038 0.000000 0.014789 0.000000
# 4 0.000000 0.000000 0.000000 0.022831 0.000000 0.006577
# 5 0.020941 0.006431 0.014789 0.000000 0.079365 0.000000
# 6 0.000000 0.000000 0.000000 0.006577 0.000000 0.033667
#
#
# Mechanical properties :
#
#
# Convention : Reuss Voigt Hill
#
# Bulk Modulus (GPa) = 19.29466 43.30977 31.30222
# Shear Modulus (GPa) = 21.18737 29.77382 25.48059
#
# Velocity S-wave (km/s) = 2.97627 3.52818 3.26391
# Velocity P-wave (km/s) = 4.45845 5.89107 5.22410
#
# Compressibility (1/GPa) = 0.05182781
#
# Stress axis : x y z
#
# Youngs Moduli (GPa) = 28.17730 72.40253 55.43830
#
# Poissons Ratio (x) = 0.10976 0.10981
# Poissons Ratio (y) = 0.04272 0.23612
# Poissons Ratio (z) = 0.05581 0.30837
#
# Static dielectric constant tensor:
#      x y z
#    x 2.023330 0.000000 -0.043840 
#    y 0.000000 2.001470 0.000000 
#    z -0.043840 0.000000 1.956180 
# 
# From -- ./inp_files/55247.got.cif
#   From: 2010.05.17/outbox.cif.g08.bks.cpg/sg5_28_cif.got.tgz:55247.got - 2010.06.03 18:56:24.
