data_PCOD9125219
_publ_section_title
;
Structure prediction by ZEFSAII (Michael W. Deem and Ramdas Pophale) SiO2 
 PCOD9125219
Probable space group: C 2
;
_chemical_formula_sum "Si O2"
_cell_formula_units_Z 30
_cell_length_a 12.181570
_cell_length_b 15.349873
_cell_length_c 8.407919
_cell_angle_alpha 90.000000
_cell_angle_beta 69.177611
_cell_angle_gamma 90.000000
_cell_volume 1469.476686
_symmetry_space_group_name_H-M "C 2"
_symmetry_group_IT_number 5
_symmetry_cell_setting 'monoclinic'
loop_
_space_group_symop_operation_xyz
x,y,z
-x,y,-z
1/2+x,1/2+y,z
1/2-x,1/2+y,-z
loop_
_atom_site_type_symbol
_atom_site_label
_atom_site_fract_x
_atom_site_fract_y
_atom_site_fract_z
Si Si1 0.192824 0.542730 0.412461
Si Si2 0.815874 0.928996 0.791020
Si Si3 0.366749 0.915744 0.851330
Si Si4 0.369436 0.885146 0.339094
Si Si5 0.013665 0.804342 0.807316
Si Si6 0.866600 0.097520 0.556027
Si Si7 0.000000 0.688609 0.500000
Si Si8 0.280874 0.781001 0.669753
O O1 0.162916 0.484220 0.274611
O O2 0.152079 0.480390 0.576339
O O3 0.323300 0.570359 0.401070
O O4 0.113534 0.627557 0.450397
O O5 0.744852 0.864894 0.708140
O O6 0.924501 0.884121 0.823992
O O7 0.857612 0.012817 0.672490
O O8 0.710364 0.950433 0.965056
O O9 0.504164 0.896985 0.805824
O O10 0.320280 0.821775 0.815938
O O11 0.365512 0.818159 0.487647
O O12 0.988235 0.741163 0.671078
O O13 0.151850 0.821852 0.711997
O O14 0.000000 0.774494 0.000000
O O15 0.784985 0.177074 0.657733
O O16 0.000000 0.128521 0.500000
#
# Coordination Sequence:
#
# PCOD9125219 Si02
#       8
#     4   4   4   4   4   4   2   4
#     4  10  21  40  64  99 127 177 232 287 348 417
#     4  11  26  40  64 103 137 182 222 292 368 419
#     4  11  21  42  67  92 139 174 231 284 357 424
#     4  10  21  40  68  92 129 180 234 283 346 426
#     4  12  26  44  69 103 144 182 236 296 353 434
#     4  11  25  42  66  98 136 178 239 291 350 426
#     4  12  22  44  72 100 136 180 242 292 352 418
#     4  11  22  43  68  93 127 182 235 285 345 416
#
# _framework density 20.415430000000001
#
# number of rings (size 3 to 8) (size 9 to 14) (size 15 to 20)
#    0.000    1.067    4.000    3.200    6.533    1.067 
#    0.000    0.000    0.000    1.600    0.000    0.000 
#    0.000    0.000    0.000    0.000    0.000    0.000 
#
# Total GULP energy -83615.188050 kJ/mol
# GULP energy per Si atom -5574.345870 kJ/mol
# Density = 2.036896 g / cm^3
# Si number density = 20.415430 Si / 1000 Ang^3
#
#
#
# Elastic Constant Matrix: (Units=GPa)
#
#
# Indices 1 2 3 4 5 6 
#
# 1 116.3128 16.1812 19.5396 0.0000 -5.8226 0.0000
# 2 16.1812 56.8452 10.3021 0.0000 8.3156 0.0000
# 3 19.5396 10.3021 80.9125 0.0000 4.8889 0.0000
# 4 0.0000 0.0000 0.0000 1.3563 0.0000 -3.1379
# 5 -5.8226 8.3156 4.8889 0.0000 32.1108 0.0000
# 6 0.0000 0.0000 0.0000 -3.1379 0.0000 26.6411
#
#
#
# Elastic Compliance Matrix: (Units=1/GPa)
#
#
# Indices 1 2 3 4 5 6 
#
# 1 0.009466 -0.002714 -0.002106 0.000000 0.002740 0.000000
# 2 -0.002714 0.019409 -0.001496 0.000000 -0.005291 0.000000
# 3 -0.002106 -0.001496 0.013179 0.000000 -0.002001 0.000000
# 4 0.000000 0.000000 0.000000 1.013534 0.000000 0.119380
# 5 0.002740 -0.005291 -0.002001 0.000000 0.033314 0.000000
# 6 0.000000 0.000000 0.000000 0.119380 0.000000 0.051597
#
#
# Mechanical properties :
#
#
# Convention : Reuss Voigt Hill
#
# Bulk Modulus (GPa) = 33.98772 38.45736 36.22254
# Shear Modulus (GPa) = 4.29946 25.89147 15.09546
#
# Velocity S-wave (km/s) = 1.45278 3.56509 2.72217
# Velocity P-wave (km/s) = 4.41568 5.98538 5.25942
#
# Compressibility (1/GPa) = 0.02942239
#
# Stress axis : x y z
#
# Youngs Moduli (GPa) = 105.64154 51.52203 75.87817
#
# Poissons Ratio (x) = 0.13981 0.15980
# Poissons Ratio (y) = 0.28667 0.11353
# Poissons Ratio (z) = 0.22248 0.07709
#
# Static dielectric constant tensor:
#      x y z
#    x 1.811870 0.000000 0.046480 
#    y 0.000000 1.715890 0.000000 
#    z 0.046480 0.000000 1.764640 
# 
# From -- ./inp_files/20629.got.cif
#   From: 2010.05.17/outbox.cif.g08.bks.cpg/sg5_11_cif.got.tgz:20629.got - 2010.06.03 18:56:24.
