data_PCOD9125242
_publ_section_title
;
Structure prediction by ZEFSAII (Michael W. Deem and Ramdas Pophale) SiO2 
 PCOD9125242
Probable space group: C 2
;
_chemical_formula_sum "Si O2"
_cell_formula_units_Z 30
_cell_length_a 14.021312
_cell_length_b 8.314563
_cell_length_c 12.612867
_cell_angle_alpha 90.000000
_cell_angle_beta 61.524689
_cell_angle_gamma 90.000000
_cell_volume 1292.533950
_symmetry_space_group_name_H-M "C 2"
_symmetry_group_IT_number 5
_symmetry_cell_setting 'monoclinic'
loop_
_space_group_symop_operation_xyz
x,y,z
-x,y,-z
1/2+x,1/2+y,z
1/2-x,1/2+y,-z
loop_
_atom_site_type_symbol
_atom_site_label
_atom_site_fract_x
_atom_site_fract_y
_atom_site_fract_z
Si Si1 0.365727 0.965900 0.494108
Si Si2 0.722198 0.435387 0.913126
Si Si3 0.728244 0.813777 0.891618
Si Si4 0.608912 0.229419 0.790087
Si Si5 0.000000 0.499522 0.000000
Si Si6 0.630313 0.338376 0.561103
Si Si7 0.070852 0.328185 0.309757
Si Si8 0.829153 0.020295 0.662742
O O1 0.249154 0.895651 0.532670
O O2 0.447555 0.882799 0.366996
O O3 0.394143 0.910919 0.597705
O O4 0.372412 0.157354 0.482363
O O5 0.710826 0.624791 0.908336
O O6 0.650199 0.344856 0.863032
O O7 0.846730 0.389177 0.821219
O O8 0.705517 0.375437 0.041137
O O9 0.610382 0.899064 0.952195
O O10 0.792105 0.869984 0.753101
O O11 0.569971 0.323115 0.705999
O O12 0.519886 0.113193 0.887745
O O13 0.716796 0.121953 0.703278
O O14 0.612724 0.461025 0.474319
O O15 0.093217 0.140352 0.314117
#
# Coordination Sequence:
#
# PCOD9125242 Si02
#       8
#     4   4   4   4   2   4   4   4
#     4  11  22  39  66  93 137 176 218 270 340 396
#     4  11  22  44  67  95 136 174 229 267 355 392
#     4  11  24  41  71  96 131 185 219 289 327 412
#     4  10  22  41  69  96 138 180 214 289 325 408
#     4  10  24  44  66 100 136 174 242 270 342 388
#     4  12  21  40  68 102 132 178 214 275 344 403
#     4  10  22  42  64  93 136 180 218 285 325 413
#     4  10  21  40  65  98 135 172 224 270 349 391
#
# _framework density 23.210222000000002
#
# number of rings (size 3 to 8) (size 9 to 14) (size 15 to 20)
#    0.000    1.333    4.000    3.200    1.867    0.533 
#    0.000    9.333    8.800    0.000    0.000    0.000 
#    0.000    0.000    0.000    0.000    0.000    0.000 
#
# Total GULP energy -83929.965146 kJ/mol
# GULP energy per Si atom -5595.331010 kJ/mol
# Density = 2.315739 g / cm^3
# Si number density = 23.210222 Si / 1000 Ang^3
#
#
#
# Elastic Constant Matrix: (Units=GPa)
#
#
# Indices 1 2 3 4 5 6 
#
# 1 35.2529 31.7259 32.1979 0.0000 5.1150 0.0000
# 2 31.7259 119.6032 26.1089 0.0000 6.8471 0.0000
# 3 32.1979 26.1089 109.1353 0.0000 12.2005 0.0000
# 4 0.0000 0.0000 0.0000 43.9938 0.0000 3.0908
# 5 5.1150 6.8471 12.2005 0.0000 27.2856 0.0000
# 6 0.0000 0.0000 0.0000 3.0908 0.0000 3.5659
#
#
#
# Elastic Compliance Matrix: (Units=1/GPa)
#
#
# Indices 1 2 3 4 5 6 
#
# 1 0.048439 -0.010221 -0.011702 0.000000 -0.001283 0.000000
# 2 -0.010221 0.011025 0.000498 0.000000 -0.001073 0.000000
# 3 -0.011702 0.000498 0.012910 0.000000 -0.003704 0.000000
# 4 0.000000 0.000000 0.000000 0.024204 0.000000 -0.020979
# 5 -0.001283 -0.001073 -0.003704 0.000000 0.038815 0.000000
# 6 0.000000 0.000000 0.000000 -0.020979 0.000000 0.298614
#
#
# Mechanical properties :
#
#
# Convention : Reuss Voigt Hill
#
# Bulk Modulus (GPa) = 33.87089 49.33961 41.60525
# Shear Modulus (GPa) = 10.27327 26.56633 18.41980
#
# Velocity S-wave (km/s) = 2.10613 3.38686 2.82016
# Velocity P-wave (km/s) = 4.53201 6.04965 5.34497
#
# Compressibility (1/GPa) = 0.02952388
#
# Stress axis : x y z
#
# Youngs Moduli (GPa) = 20.64453 90.70360 77.45712
#
# Poissons Ratio (x) = 0.92707 0.90642
# Poissons Ratio (y) = 0.21101 -0.03856
# Poissons Ratio (z) = 0.24159 -0.04516
#
# Static dielectric constant tensor:
#      x y z
#    x 1.990780 0.000000 -0.019920 
#    y 0.000000 1.836940 0.000000 
#    z -0.019920 0.000000 1.934170 
# 
# From -- ./inp_files/41934.got.cif
#   From: 2010.05.17/outbox.cif.g08.bks.cpg/sg5_21_cif.got.tgz:41934.got - 2010.06.03 18:56:24.
