data_PCOD9125141
_publ_section_title
;
Structure prediction by ZEFSAII (Michael W. Deem and Ramdas Pophale) SiO2 
 PCOD9125141
Probable space group: C 2
;
_chemical_formula_sum "Si O2"
_cell_formula_units_Z 28
_cell_length_a 22.074852
_cell_length_b 5.049322
_cell_length_c 24.516152
_cell_angle_alpha 90.000000
_cell_angle_beta 25.675090
_cell_angle_gamma 90.000000
_cell_volume 1183.965576
_symmetry_space_group_name_H-M "C 2"
_symmetry_group_IT_number 5
_symmetry_cell_setting 'monoclinic'
loop_
_space_group_symop_operation_xyz
x,y,z
-x,y,-z
1/2+x,1/2+y,z
1/2-x,1/2+y,-z
loop_
_atom_site_type_symbol
_atom_site_label
_atom_site_fract_x
_atom_site_fract_y
_atom_site_fract_z
Si Si1 0.005323 0.480850 0.061845
Si Si2 0.260257 0.125661 0.418916
Si Si3 0.832630 0.977860 0.213159
Si Si4 0.414575 0.626718 0.325809
Si Si5 0.096120 0.772570 0.470802
Si Si6 0.365371 0.974127 0.727269
Si Si7 0.178281 0.977566 0.169676
O O1 0.890700 0.687084 0.176576
O O2 0.156798 0.533890 0.964548
O O3 0.958887 0.184577 0.113048
O O4 0.000000 0.510838 0.000000
O O5 0.385835 0.916896 0.326596
O O6 0.168814 0.005313 0.445026
O O7 0.329924 0.412334 0.359169
O O8 0.162772 0.117361 0.552266
O O9 0.710278 0.086115 0.350161
O O10 0.765627 0.992804 0.207056
O O11 0.575619 0.549614 0.203560
O O12 0.000000 0.883166 0.500000
O O13 0.000197 0.590609 0.587427
O O14 0.342118 0.173215 0.796469
O O15 0.375306 0.673151 0.738519
#
# Coordination Sequence:
#
# PCOD9125141 Si02
#       7
#     4   4   4   4   4   4   4
#     4  12  22  39  62  87 132 175 220 272 313 373
#     4  10  21  40  61  90 132 162 205 263 318 388
#     4  11  23  40  57  94 129 179 212 251 332 393
#     4  10  22  37  62  93 123 165 212 264 320 366
#     4  10  24  41  66  97 140 172 207 260 334 407
#     4  11  21  36  60  93 131 165 202 264 325 385
#     4  12  22  36  64  92 126 162 218 272 320 367
#
# _framework density 23.649336999999999
#
# number of rings (size 3 to 8) (size 9 to 14) (size 15 to 20)
#    0.000    1.143    4.286    2.143    4.000    2.286 
#    0.000    6.429    0.000    3.429    0.000    0.000 
#    0.000    0.000    0.000    0.000    0.000    0.000 
#
# Total GULP energy -78448.627200 kJ/mol
# GULP energy per Si atom -5603.473371 kJ/mol
# Density = 2.359551 g / cm^3
# Si number density = 23.649337 Si / 1000 Ang^3
#
#
#
# Elastic Constant Matrix: (Units=GPa)
#
#
# Indices 1 2 3 4 5 6 
#
# 1 95.3132 2.0015 15.1081 0.0161 -31.1185 -0.0249
# 2 2.0015 68.8169 -3.6245 -0.0039 1.3133 0.0003
# 3 15.1081 -3.6245 64.6284 0.0253 -27.2282 -0.0203
# 4 0.0161 -0.0039 0.0253 27.6047 0.0038 -1.8766
# 5 -31.1185 1.3133 -27.2282 0.0038 34.6364 -0.0053
# 6 -0.0249 0.0003 -0.0203 -1.8766 -0.0053 28.7511
#
#
#
# Elastic Compliance Matrix: (Units=1/GPa)
#
#
# Indices 1 2 3 4 5 6 
#
# 1 0.015330 -0.000585 0.003283 -0.000013 0.016376 0.000018
# 2 -0.000585 0.014597 0.000749 0.000002 -0.000491 0.000000
# 3 0.003283 0.000749 0.023891 -0.000025 0.021702 0.000022
# 4 -0.000013 0.000002 -0.000025 0.036387 -0.000035 0.002375
# 5 0.016376 -0.000491 0.021702 -0.000035 0.060663 0.000038
# 6 0.000018 0.000000 0.000022 0.002375 0.000038 0.034936
#
#
# Mechanical properties :
#
#
# Convention : Reuss Voigt Hill
#
# Bulk Modulus (GPa) = 16.47176 28.41428 22.44302
# Shear Modulus (GPa) = 25.10677 32.54999 28.82838
#
# Velocity S-wave (km/s) = 3.26180 3.71396 3.49520
# Velocity P-wave (km/s) = 4.60064 5.51654 5.07928
#
# Compressibility (1/GPa) = 0.06070997
#
# Stress axis : x y z
#
# Youngs Moduli (GPa) = 65.23054 68.50651 41.85721
#
# Poissons Ratio (x) = 0.04011 -0.13741
# Poissons Ratio (y) = 0.03819 -0.03134
# Poissons Ratio (z) = -0.21413 -0.05129
#
# Static dielectric constant tensor:
#      x y z
#    x 1.911220 -0.000030 0.015640 
#    y -0.000030 1.829560 0.000040 
#    z 0.015640 0.000040 1.900710 
# 
# From -- ./inp_files/69330.got.cif
#   From: 2010.05.17/outbox.cif.g08.bks.cpg/sg5_35_cif.got.tgz:69330.got - 2010.06.03 18:56:24.
