data_PCOD9125132
_publ_section_title
;
Structure prediction by ZEFSAII (Michael W. Deem and Ramdas Pophale) SiO2 
 PCOD9125132
Probable space group: C 2
;
_chemical_formula_sum "Si O2"
_cell_formula_units_Z 32
_cell_length_a 14.689826
_cell_length_b 25.539868
_cell_length_c 8.652931
_cell_angle_alpha 90.000000
_cell_angle_beta 27.695086
_cell_angle_gamma 90.000000
_cell_volume 1508.804571
_symmetry_space_group_name_H-M "C 2"
_symmetry_group_IT_number 5
_symmetry_cell_setting 'monoclinic'
loop_
_space_group_symop_operation_xyz
x,y,z
-x,y,-z
1/2+x,1/2+y,z
1/2-x,1/2+y,-z
loop_
_atom_site_type_symbol
_atom_site_label
_atom_site_fract_x
_atom_site_fract_y
_atom_site_fract_z
Si Si1 0.552377 0.127980 0.599187
Si Si2 0.796004 0.192654 0.720995
Si Si3 0.338479 0.393624 0.878125
Si Si4 0.445770 0.495502 0.418004
Si Si5 0.338621 0.028879 0.377945
Si Si6 0.946401 0.426974 0.917290
Si Si7 0.790492 0.219021 0.363483
Si Si8 0.943108 0.793599 0.906616
O O1 0.500000 0.125200 0.500000
O O2 0.620786 0.072113 0.557438
O O3 0.726320 0.169086 0.361475
O O4 0.370346 0.151658 0.972641
O O5 0.792810 0.198772 0.538702
O O6 0.000000 0.180765 0.500000
O O7 0.723833 0.250785 0.876629
O O8 0.500000 0.384040 0.500000
O O9 0.389534 0.451974 0.863601
O O10 0.379336 0.348920 0.938048
O O11 0.125527 0.392942 0.117606
O O12 0.500000 0.522357 0.500000
O O13 0.373690 0.530257 0.384754
O O14 0.249388 0.461428 0.751086
O O15 0.387629 0.970243 0.364601
O O16 0.500000 0.039101 0.000000
O O17 0.000000 0.400021 0.000000
O O18 0.637551 0.264832 0.553560
O O19 0.000000 0.238215 0.000000
O O20 0.000000 0.798749 0.000000
#
# Coordination Sequence:
#
# PCOD9125132 Si02
#       8
#     4   4   4   4   4   4   4   4
#     4  11  22  37  58  84 117 151 189 234 286 344
#     4  10  21  40  61  83 113 148 188 237 292 346
#     4   9  16  30  52  80 109 146 191 231 277 332
#     4   7  13  27  48  75 106 139 182 230 274 327
#     4   9  16  32  54  77 108 148 189 232 284 334
#     4   7  13  27  48  74 107 140 181 230 273 323
#     4  10  21  40  61  85 112 144 190 240 290 346
#     4   9  20  37  57  82 116 150 183 230 289 344
#
# _framework density 21.208843999999999
#
# number of rings (size 3 to 8) (size 9 to 14) (size 15 to 20)
#    0.000    3.500    0.000    2.625    0.000    3.000 
#    0.000   28.125    0.000    0.000    0.000    0.000 
#    0.000    0.000    0.000    0.000    0.000    0.000 
#
# Total GULP energy -89154.664222 kJ/mol
# GULP energy per Si atom -5572.166514 kJ/mol
# Density = 2.116057 g / cm^3
# Si number density = 21.208844 Si / 1000 Ang^3
#
#
#
# Elastic Constant Matrix: (Units=GPa)
#
#
# Indices 1 2 3 4 5 6 
#
# 1 125.4003 50.4895 13.1152 -0.0003 -22.2112 0.0000
# 2 50.4895 75.5907 4.2042 0.0000 -1.6897 -0.0001
# 3 13.1152 4.2042 11.3140 -0.0009 -1.3731 0.0002
# 4 -0.0003 0.0000 -0.0009 -8.2957 0.0002 -1.0125
# 5 -22.2112 -1.6897 -1.3731 0.0002 23.8136 -0.0001
# 6 0.0000 -0.0001 0.0002 -1.0125 -0.0001 40.9398
#
#
#
# Elastic Compliance Matrix: (Units=1/GPa)
#
#
# Indices 1 2 3 4 5 6 
#
# 1 0.015304 -0.009225 -0.012749 0.000001 0.012885 0.000000
# 2 -0.009225 0.019080 0.002743 0.000000 -0.007092 0.000000
# 3 -0.012749 0.002743 0.101435 -0.000011 -0.005848 -0.000001
# 4 0.000001 0.000000 -0.000011 -0.120181 0.000002 -0.002972
# 5 0.012885 -0.007092 -0.005848 0.000002 0.053170 0.000000
# 6 0.000000 0.000000 -0.000001 -0.002972 0.000000 0.024353
#
#
# Mechanical properties :
#
#
# Convention : Reuss Voigt Hill
#
# Bulk Modulus (GPa) = 10.27144 38.65809 24.46476
# Shear Modulus (GPa) = 30.47379 20.92461 25.69920
#
# Velocity S-wave (km/s) = 3.79468 3.14442 3.48475
# Velocity P-wave (km/s) = 4.90439 5.60804 5.26798
#
# Compressibility (1/GPa) = 0.09735735
#
# Stress axis : x y z
#
# Youngs Moduli (GPa) = 65.34107 52.41137 9.85851
#
# Poissons Ratio (x) = 0.48350 0.12569
# Poissons Ratio (y) = 0.60278 -0.02704
# Poissons Ratio (z) = 0.83303 -0.14377
#
# Static dielectric constant tensor:
#      x y z
#    x 1.819790 0.000000 0.003040 
#    y 0.000000 1.778300 0.000000 
#    z 0.003040 0.000000 1.827530 
# 
# From -- ./inp_files/25692.got.cif
#   From: 2010.05.17/outbox.cif.g08.bks.cpg/sg5_13_cif.got.tgz:25692.got - 2010.06.03 18:56:24.
