data_PCOD9125698
_publ_section_title
;
Structure prediction by ZEFSAII (Michael W. Deem and Ramdas Pophale) SiO2 
 PCOD9125698
Probable space group: C 2
;
_chemical_formula_sum "Si O2"
_cell_formula_units_Z 20
_cell_length_a 10.742896
_cell_length_b 8.033986
_cell_length_c 9.800027
_cell_angle_alpha 90.000000
_cell_angle_beta 88.609594
_cell_angle_gamma 90.000000
_cell_volume 845.574397
_symmetry_space_group_name_H-M "C 2"
_symmetry_group_IT_number 5
_symmetry_cell_setting 'monoclinic'
loop_
_space_group_symop_operation_xyz
x,y,z
-x,y,-z
1/2+x,1/2+y,z
1/2-x,1/2+y,-z
loop_
_atom_site_type_symbol
_atom_site_label
_atom_site_fract_x
_atom_site_fract_y
_atom_site_fract_z
Si Si1 0.693869 0.630600 0.344074
Si Si2 0.204208 0.628315 0.167122
Si Si3 0.630594 0.493884 0.076404
Si Si4 0.846067 0.946956 0.385242
Si Si5 0.969453 0.614051 0.341928
O O1 0.622601 0.620104 0.204243
O O2 0.729880 0.815656 0.392603
O O3 0.635843 0.530300 0.469785
O O4 0.831390 0.551638 0.313449
O O5 0.306526 0.588187 0.280292
O O6 0.074858 0.560673 0.234461
O O7 0.172768 0.817351 0.134537
O O8 0.261081 0.548325 0.030508
O O9 0.500000 0.481994 0.000000
O O10 0.951359 0.816671 0.334748
O O11 0.000000 0.579829 0.500000
#
# Coordination Sequence:
#
# PCOD9125698 Si02
#       5
#     4   4   4   4   4
#     4  10  22  44  75 113 145 188 250 295 367 441
#     4  12  24  48  72 105 152 192 249 299 374 433
#     4  12  28  48  71 107 149 204 243 304 367 436
#     4  10  21  42  78 111 139 192 243 298 369 433
#     4  10  21  42  81 103 146 192 230 308 379 417
#
# _framework density 23.652560999999999
#
# number of rings (size 3 to 8) (size 9 to 14) (size 15 to 20)
#    1.200    0.000    2.000    4.800    2.800    0.000 
#    7.200    1.000    8.800    0.000    0.000    0.000 
#    0.000    0.000    0.000    0.000    0.000    0.000 
#
# Total GULP energy -55862.876892 kJ/mol
# GULP energy per Si atom -5586.287689 kJ/mol
# Density = 2.359873 g / cm^3
# Si number density = 23.652561 Si / 1000 Ang^3
#
#
#
# Elastic Constant Matrix: (Units=GPa)
#
#
# Indices 1 2 3 4 5 6 
#
# 1 98.2503 32.4421 51.4219 0.0000 -10.9834 0.0000
# 2 32.4421 72.2549 44.1592 0.0000 -4.6429 0.0000
# 3 51.4219 44.1592 158.6306 0.0000 -0.7807 0.0000
# 4 0.0000 0.0000 0.0000 39.5232 0.0000 4.7299
# 5 -10.9834 -4.6429 -0.7807 0.0000 49.8742 0.0000
# 6 0.0000 0.0000 0.0000 4.7299 0.0000 41.2791
#
#
#
# Elastic Compliance Matrix: (Units=1/GPa)
#
#
# Indices 1 2 3 4 5 6 
#
# 1 0.013455 -0.003879 -0.003269 0.000000 0.002551 0.000000
# 2 -0.003879 0.017906 -0.003723 0.000000 0.000754 0.000000
# 3 -0.003269 -0.003723 0.008396 0.000000 -0.000935 0.000000
# 4 0.000000 0.000000 0.000000 0.025653 0.000000 -0.002939
# 5 0.002551 0.000754 -0.000935 0.000000 0.020668 0.000000
# 6 0.000000 0.000000 0.000000 -0.002939 0.000000 0.024562
#
#
# Mechanical properties :
#
#
# Convention : Reuss Voigt Hill
#
# Bulk Modulus (GPa) = 55.51624 65.02024 60.26824
# Shear Modulus (GPa) = 36.13036 39.54282 37.83659
#
# Velocity S-wave (km/s) = 3.91262 4.09322 4.00394
# Velocity P-wave (km/s) = 6.62827 7.06319 6.84919
#
# Compressibility (1/GPa) = 0.01801275
#
# Stress axis : x y z
#
# Youngs Moduli (GPa) = 74.32051 55.84810 119.11057
#
# Poissons Ratio (x) = 0.21666 0.38939
# Poissons Ratio (y) = 0.28832 0.44348
# Poissons Ratio (z) = 0.24297 0.20794
#
# Static dielectric constant tensor:
#      x y z
#    x 1.926160 0.000000 -0.000890 
#    y 0.000000 1.908810 0.000000 
#    z -0.000890 0.000000 1.884500 
# 
# From -- ./inp_files/18316.got.cif
#   From: 2010.05.17/outbox.cif.g08.bks.cpg/sg5_10_cif.got.tgz:18316.got - 2010.06.03 18:56:24.
