data_PCOD9125096
_publ_section_title
;
Structure prediction by ZEFSAII (Michael W. Deem and Ramdas Pophale) SiO2 
 PCOD9125096
Probable space group: C 2
;
_chemical_formula_sum "Si O2"
_cell_formula_units_Z 30
_cell_length_a 11.294835
_cell_length_b 17.087418
_cell_length_c 11.789392
_cell_angle_alpha 90.000000
_cell_angle_beta 39.086170
_cell_angle_gamma 90.000000
_cell_volume 1434.580390
_symmetry_space_group_name_H-M "C 2"
_symmetry_group_IT_number 5
_symmetry_cell_setting 'monoclinic'
loop_
_space_group_symop_operation_xyz
x,y,z
-x,y,-z
1/2+x,1/2+y,z
1/2-x,1/2+y,-z
loop_
_atom_site_type_symbol
_atom_site_label
_atom_site_fract_x
_atom_site_fract_y
_atom_site_fract_z
Si Si1 0.078032 0.946760 0.676974
Si Si2 0.650787 0.346527 0.984998
Si Si3 0.141692 0.691579 0.119845
Si Si4 0.500000 0.520226 0.500000
Si Si5 0.079137 0.390834 0.695741
Si Si6 0.409674 0.059812 0.192307
Si Si7 0.532162 0.604008 0.844630
Si Si8 0.694752 0.757715 0.783413
O O1 0.278927 0.905349 0.514024
O O2 0.921655 0.896589 0.854978
O O3 0.013757 0.965568 0.598471
O O4 0.091296 0.029713 0.729823
O O5 0.626658 0.256037 0.033967
O O6 0.500000 0.367243 0.000000
O O7 0.872957 0.363463 0.808351
O O8 0.153915 0.739615 0.230068
O O9 0.986276 0.625808 0.219734
O O10 0.334600 0.643199 0.958466
O O11 0.687182 0.569692 0.349020
O O12 0.056456 0.473345 0.779721
O O13 0.180402 0.328885 0.706082
O O14 0.500000 0.064950 0.000000
O O15 0.678822 0.675097 0.730415
O O16 0.500000 0.580586 0.000000
O O17 0.500000 0.765578 0.000000
#
# Coordination Sequence:
#
# PCOD9125096 Si02
#       8
#     4   4   4   2   4   4   4   4
#     4  11  25  41  68 103 136 180 242 287 351 429
#     4  12  25  43  67  98 146 184 232 294 360 429
#     4  10  21  39  69 105 134 185 232 288 362 414
#     4  10  24  42  64 100 140 176 236 298 336 420
#     4  11  23  44  71 102 138 192 239 294 358 420
#     4  11  22  39  69  99 137 190 238 287 358 428
#     4   9  18  40  71 100 136 178 227 292 352 413
#     4   9  18  39  75 100 133 186 236 291 349 418
#
# _framework density 20.912039
#
# number of rings (size 3 to 8) (size 9 to 14) (size 15 to 20)
#    0.000    1.867    2.667    3.600    3.733    1.600 
#    4.800    2.667    5.867    0.000    0.000    0.000 
#    0.000    0.000    0.000    0.000    0.000    0.000 
#
# Total GULP energy -83727.530002 kJ/mol
# GULP energy per Si atom -5581.835333 kJ/mol
# Density = 2.086444 g / cm^3
# Si number density = 20.912039 Si / 1000 Ang^3
#
#
#
# Elastic Constant Matrix: (Units=GPa)
#
#
# Indices 1 2 3 4 5 6 
#
# 1 100.2162 31.5113 27.0962 0.0116 -13.5722 0.0078
# 2 31.5113 111.9651 20.3350 0.0200 1.3786 0.0141
# 3 27.0962 20.3350 49.1457 0.0160 -4.6151 0.0050
# 4 0.0116 0.0200 0.0160 129.6391 0.0029 163.1190
# 5 -13.5722 1.3786 -4.6151 0.0029 29.3121 0.0081
# 6 0.0078 0.0141 0.0050 163.1190 0.0081 263.0680
#
#
#
# Elastic Compliance Matrix: (Units=1/GPa)
#
#
# Indices 1 2 3 4 5 6 
#
# 1 0.013061 -0.002729 -0.005575 0.000001 0.005298 -0.000001
# 2 -0.002729 0.010262 -0.002949 -0.000002 -0.002210 0.000001
# 3 -0.005575 -0.002949 0.024779 -0.000009 0.001459 0.000005
# 4 0.000001 -0.000002 -0.000009 0.035094 0.000002 -0.021761
# 5 0.005298 -0.002210 0.001459 0.000002 0.036902 -0.000002
# 6 -0.000001 0.000001 0.000005 -0.021761 -0.000002 0.017294
#
#
# Mechanical properties :
#
#
# Convention : Reuss Voigt Hill
#
# Bulk Modulus (GPa) = 39.06759 46.57909 42.82334
# Shear Modulus (GPa) = 29.68588 96.56281 63.12434
#
# Velocity S-wave (km/s) = 3.77179 6.80264 5.50011
# Velocity P-wave (km/s) = 6.13930 9.16643 7.80110
#
# Compressibility (1/GPa) = 0.02559667
#
# Stress axis : x y z
#
# Youngs Moduli (GPa) = 76.56244 97.44517 40.35750
#
# Poissons Ratio (x) = 0.26590 0.22498
# Poissons Ratio (y) = 0.20892 0.11903
# Poissons Ratio (z) = 0.42681 0.28739
#
# Static dielectric constant tensor:
#      x y z
#    x 1.368980 0.000050 -0.019700 
#    y 0.000050 1.755750 0.000000 
#    z -0.019700 0.000000 1.749920 
# 
# From -- ./inp_files/40462.got.cif
#   From: 2010.05.17/outbox.cif.g08.bks.cpg/sg5_21_cif.got.tgz:40462.got - 2010.06.03 18:56:24.
