data_PCOD9125256
_publ_section_title
;
Structure prediction by ZEFSAII (Michael W. Deem and Ramdas Pophale) SiO2 
 PCOD9125256
Probable space group: C 2
;
_chemical_formula_sum "Si O2"
_cell_formula_units_Z 20
_cell_length_a 9.709164
_cell_length_b 20.512015
_cell_length_c 5.357372
_cell_angle_alpha 90.000000
_cell_angle_beta 53.857820
_cell_angle_gamma 90.000000
_cell_volume 861.617609
_symmetry_space_group_name_H-M "C 2"
_symmetry_group_IT_number 5
_symmetry_cell_setting 'monoclinic'
loop_
_space_group_symop_operation_xyz
x,y,z
-x,y,-z
1/2+x,1/2+y,z
1/2-x,1/2+y,-z
loop_
_atom_site_type_symbol
_atom_site_label
_atom_site_fract_x
_atom_site_fract_y
_atom_site_fract_z
Si Si1 0.803004 0.559540 0.282036
Si Si2 0.303446 0.627814 0.111324
Si Si3 0.602968 0.756104 0.146736
Si Si4 0.037835 0.392743 0.696248
Si Si5 0.392220 0.425802 0.369338
O O1 0.795537 0.605901 0.535210
O O2 0.702360 0.494493 0.476528
O O3 0.715394 0.584426 0.117755
O O4 0.000000 0.553760 0.000000
O O5 0.500000 0.625218 0.000000
O O6 0.258187 0.701389 0.062831
O O7 0.500000 0.731395 0.500000
O O8 0.601089 0.834322 0.189165
O O9 0.500000 0.756188 0.000000
O O10 0.236430 0.375063 0.499250
O O11 0.000000 0.437569 0.500000
O O12 0.000000 0.422305 0.000000
O O13 0.500000 0.409622 0.500000
O O14 0.500000 0.429269 0.000000
#
# Coordination Sequence:
#
# PCOD9125256 Si02
#       5
#     4   4   4   4   4
#     4  12  25  40  61  94 132 168 209 261 320 380
#     4  11  21  39  66  92 122 166 213 256 310 381
#     4   9  18  34  63  90 114 157 211 251 299 369
#     4  10  21  40  66  92 121 164 213 259 312 377
#     4  12  25  41  63  94 130 167 211 263 320 379
#
# _framework density 23.212154999999999
#
# number of rings (size 3 to 8) (size 9 to 14) (size 15 to 20)
#    0.000    1.200    0.000    8.400    0.000    1.600 
#    0.000    0.000    0.000   80.400    0.000    0.000 
#    0.000    0.000    0.000    0.000    0.000    0.000 
#
# Total GULP energy -55677.220693 kJ/mol
# GULP energy per Si atom -5567.722069 kJ/mol
# Density = 2.315932 g / cm^3
# Si number density = 23.212155 Si / 1000 Ang^3
#
#
#
# Elastic Constant Matrix: (Units=GPa)
#
#
# Indices 1 2 3 4 5 6 
#
# 1 145.6923 28.0579 73.1834 0.0000 37.3707 0.0000
# 2 28.0579 86.4367 44.1674 0.0000 2.9446 0.0000
# 3 73.1834 44.1674 201.5446 0.0000 31.9293 0.0000
# 4 0.0000 0.0000 0.0000 19.7053 0.0000 12.7297
# 5 37.3707 2.9446 31.9293 0.0000 53.4322 0.0000
# 6 0.0000 0.0000 0.0000 12.7297 0.0000 24.5353
#
#
#
# Elastic Compliance Matrix: (Units=1/GPa)
#
#
# Indices 1 2 3 4 5 6 
#
# 1 0.009732 -0.001806 -0.002293 0.000000 -0.005337 0.000000
# 2 -0.001806 0.013421 -0.002616 0.000000 0.002087 0.000000
# 3 -0.002293 -0.002616 0.006727 0.000000 -0.002272 0.000000
# 4 0.000000 0.000000 0.000000 0.076331 0.000000 -0.039603
# 5 -0.005337 0.002087 -0.002272 0.000000 0.023691 0.000000
# 6 0.000000 0.000000 0.000000 -0.039603 0.000000 0.061305
#
#
# Mechanical properties :
#
#
# Convention : Reuss Voigt Hill
#
# Bulk Modulus (GPa) = 60.78376 80.49900 70.64138
# Shear Modulus (GPa) = 23.79586 38.75224 31.27405
#
# Velocity S-wave (km/s) = 3.20526 4.09036 3.67456
# Velocity P-wave (km/s) = 6.31991 7.55401 6.96435
#
# Compressibility (1/GPa) = 0.01645176
#
# Stress axis : x y z
#
# Youngs Moduli (GPa) = 102.75191 74.51029 148.64497
#
# Poissons Ratio (x) = 0.13455 0.34078
# Poissons Ratio (y) = 0.18555 0.38885
# Poissons Ratio (z) = 0.23557 0.19492
#
# Static dielectric constant tensor:
#      x y z
#    x 1.967940 0.000000 0.017700 
#    y 0.000000 2.072110 0.000000 
#    z 0.017700 0.000000 1.925170 
# 
# From -- ./inp_files/5902.got.cif
#   From: 2010.05.17/outbox.cif.g08.bks.cpg/sg5_3_cif.got.tgz:5902.got - 2010.06.03 18:56:24.
