data_PCOD9125356
_publ_section_title
;
Structure prediction by ZEFSAII (Michael W. Deem and Ramdas Pophale) SiO2 
 PCOD9125356
Probable space group: C 2
;
_chemical_formula_sum "Si O2"
_cell_formula_units_Z 32
_cell_length_a 8.360038
_cell_length_b 11.383413
_cell_length_c 20.517102
_cell_angle_alpha 90.000000
_cell_angle_beta 129.767135
_cell_angle_gamma 90.000000
_cell_volume 1500.809993
_symmetry_space_group_name_H-M "C 2"
_symmetry_group_IT_number 5
_symmetry_cell_setting 'monoclinic'
loop_
_space_group_symop_operation_xyz
x,y,z
-x,y,-z
1/2+x,1/2+y,z
1/2-x,1/2+y,-z
loop_
_atom_site_type_symbol
_atom_site_label
_atom_site_fract_x
_atom_site_fract_y
_atom_site_fract_z
Si Si1 0.174878 0.703770 0.687250
Si Si2 0.767198 0.138281 0.451746
Si Si3 0.101729 0.136137 0.374769
Si Si4 0.322116 0.128950 0.905012
Si Si5 0.051770 0.582879 0.839707
Si Si6 0.105266 0.048296 0.154966
Si Si7 0.260574 0.464823 0.338784
Si Si8 0.765271 0.789826 0.775157
O O1 0.262350 0.617328 0.653836
O O2 0.287929 0.658590 0.780609
O O3 0.230046 0.828606 0.671459
O O4 0.927555 0.701872 0.630708
O O5 0.749350 0.149506 0.524426
O O6 0.000000 0.184862 0.500000
O O7 0.760707 0.011406 0.413289
O O8 0.928635 0.240141 0.317867
O O9 0.958058 0.026043 0.356115
O O10 0.225185 0.235481 0.837213
O O11 0.139547 0.063125 0.895948
O O12 0.500000 0.172066 0.000000
O O13 0.556795 0.053094 0.119265
O O14 0.293582 0.557567 0.890751
O O15 0.935311 0.513004 0.752133
O O16 0.973999 0.717487 0.810688
O O17 0.183461 0.926167 0.207546
#
# Coordination Sequence:
#
# PCOD9125356 Si02
#       8
#     4   4   4   4   4   4   4   4
#     4  12  23  39  68  95 124 178 227 258 338 398
#     4  10  23  40  58  91 129 166 225 271 320 375
#     4  10  21  41  62  90 129 171 217 279 318 379
#     4  10  24  48  65 101 140 164 222 284 328 408
#     4   9  21  42  67  97 133 173 222 268 330 405
#     4  12  22  42  75  99 130 188 215 268 352 399
#     4  10  21  43  62  91 132 170 210 284 322 379
#     4   9  22  45  63 100 138 164 227 277 323 415
#
# _framework density 21.321819999999999
#
# number of rings (size 3 to 8) (size 9 to 14) (size 15 to 20)
#    0.750    1.000    2.500    1.125    0.000    5.500 
#    2.250    0.000    0.000    0.000    0.000    0.000 
#    0.000    0.000    0.000    0.000    0.000    0.000 
#
# Total GULP energy -89083.943322 kJ/mol
# GULP energy per Si atom -5567.746458 kJ/mol
# Density = 2.127329 g / cm^3
# Si number density = 21.321820 Si / 1000 Ang^3
#
#
#
# Elastic Constant Matrix: (Units=GPa)
#
#
# Indices 1 2 3 4 5 6 
#
# 1 121.7056 14.7886 7.8556 0.0000 10.4540 0.0000
# 2 14.7886 74.6520 6.8654 0.0000 10.1551 0.0000
# 3 7.8556 6.8654 68.2919 0.0000 14.1822 0.0000
# 4 0.0000 0.0000 0.0000 5.3740 0.0000 -2.3159
# 5 10.4540 10.1551 14.1822 0.0000 6.4579 0.0000
# 6 0.0000 0.0000 0.0000 -2.3159 0.0000 3.0261
#
#
#
# Elastic Compliance Matrix: (Units=1/GPa)
#
#
# Indices 1 2 3 4 5 6 
#
# 1 0.010263 0.001556 0.004819 0.000000 -0.029643 0.000000
# 2 0.001556 0.019368 0.008681 0.000000 -0.052040 0.000000
# 3 0.004819 0.008681 0.032487 0.000000 -0.092797 0.000000
# 4 0.000000 0.000000 0.000000 0.277652 0.000000 0.212492
# 5 -0.029643 -0.052040 -0.092797 0.000000 0.488460 0.000000
# 6 0.000000 0.000000 0.000000 0.212492 0.000000 0.493087
#
#
# Mechanical properties :
#
#
# Convention : Reuss Voigt Hill
#
# Bulk Modulus (GPa) = 10.84239 35.96318 23.40279
# Shear Modulus (GPa) = 3.78230 18.64758 11.21494
#
# Velocity S-wave (km/s) = 1.33333 2.96053 2.29592
# Velocity P-wave (km/s) = 2.73249 5.34694 4.24596
#
# Compressibility (1/GPa) = 0.09223056
#
# Stress axis : x y z
#
# Youngs Moduli (GPa) = 97.44091 51.63165 30.78138
#
# Poissons Ratio (x) = -0.08035 -0.14834
# Poissons Ratio (y) = -0.15164 -0.26722
# Poissons Ratio (z) = -0.46958 -0.44822
#
# Static dielectric constant tensor:
#      x y z
#    x 1.878310 0.000000 -0.002720 
#    y 0.000000 1.771650 0.000000 
#    z -0.002720 0.000000 1.790460 
# 
# From -- ./inp_files/64568.got.cif
#   From: 2010.05.17/outbox.cif.g08.bks.cpg/sg5_33_cif.got.tgz:64568.got - 2010.06.03 18:56:24.
