data_PCOD9125419
_publ_section_title
;
Structure prediction by ZEFSAII (Michael W. Deem and Ramdas Pophale) SiO2 
 PCOD9125419
Probable space group: C 2
;
_chemical_formula_sum "Si O2"
_cell_formula_units_Z 22
_cell_length_a 5.370357
_cell_length_b 24.026982
_cell_length_c 7.187340
_cell_angle_alpha 90.000000
_cell_angle_beta 108.366195
_cell_angle_gamma 90.000000
_cell_volume 880.167224
_symmetry_space_group_name_H-M "C 2"
_symmetry_group_IT_number 5
_symmetry_cell_setting 'monoclinic'
loop_
_space_group_symop_operation_xyz
x,y,z
-x,y,-z
1/2+x,1/2+y,z
1/2-x,1/2+y,-z
loop_
_atom_site_type_symbol
_atom_site_label
_atom_site_fract_x
_atom_site_fract_y
_atom_site_fract_z
Si Si1 0.500000 0.262871 0.500000
Si Si2 0.458148 0.734846 0.199160
Si Si3 0.695947 0.463203 0.365877
Si Si4 0.274914 0.079449 0.215657
Si Si5 0.282346 0.623622 0.223827
Si Si6 0.240015 0.342286 0.704993
O O1 0.225146 0.233828 0.383485
O O2 0.460879 0.305366 0.660935
O O3 0.245373 0.690142 0.226068
O O4 0.362374 0.798774 0.167630
O O5 0.500000 0.715299 0.000000
O O6 0.500000 0.464421 0.500000
O O7 0.676826 0.517163 0.231333
O O8 0.663827 0.404968 0.247742
O O9 0.000000 0.464740 0.500000
O O10 0.586583 0.088785 0.305994
O O11 0.093719 0.115071 0.311063
O O12 0.248853 0.100410 0.995821
O O13 0.000000 0.345946 0.500000
#
# Coordination Sequence:
#
# PCOD9125419 Si02
#       6
#     2   4   4   4   4   4
#     4  10  22  42  68 102 140 188 240 286 372 430
#     4  11  23  43  70 102 143 197 233 300 363 428
#     4  11  22  42  71  98 141 186 233 297 362 424
#     4  10  21  41  65  95 129 189 233 286 356 413
#     4  10  22  42  66  90 142 181 234 302 345 413
#     4   9  21  41  66 101 137 183 236 296 358 432
#
# _framework density 24.995249999999999
#
# number of rings (size 3 to 8) (size 9 to 14) (size 15 to 20)
#    0.000    1.818    2.727    1.091    2.545    0.727 
#    4.909    4.545    0.000    0.000    0.000    0.000 
#    0.000    0.000    0.000    0.000    0.000    0.000 
#
# Total GULP energy -61370.120553 kJ/mol
# GULP energy per Si atom -5579.101868 kJ/mol
# Density = 2.493836 g / cm^3
# Si number density = 24.995250 Si / 1000 Ang^3
#
#
#
# Elastic Constant Matrix: (Units=GPa)
#
#
# Indices 1 2 3 4 5 6 
#
# 1 169.6561 50.6867 17.3415 0.0000 -23.5753 0.0000
# 2 50.6867 250.4430 33.8266 0.0000 -16.2106 0.0000
# 3 17.3415 33.8266 85.8291 0.0000 2.6768 0.0000
# 4 0.0000 0.0000 0.0000 30.2151 0.0000 -3.2259
# 5 -23.5753 -16.2106 2.6768 0.0000 27.4382 0.0000
# 6 0.0000 0.0000 0.0000 -3.2259 0.0000 20.1624
#
#
#
# Elastic Compliance Matrix: (Units=1/GPa)
#
#
# Indices 1 2 3 4 5 6 
#
# 1 0.007079 -0.000896 -0.001254 0.000000 0.005675 0.000000
# 2 -0.000896 0.004534 -0.001671 0.000000 0.002072 0.000000
# 3 -0.001254 -0.001671 0.012666 0.000000 -0.003300 0.000000
# 4 0.000000 0.000000 0.000000 0.033671 0.000000 0.005387
# 5 0.005675 0.002072 -0.003300 0.000000 0.042868 0.000000
# 6 0.000000 0.000000 0.000000 0.005387 0.000000 0.050459
#
#
# Mechanical properties :
#
#
# Convention : Reuss Voigt Hill
#
# Bulk Modulus (GPa) = 60.10569 78.84862 69.47716
# Shear Modulus (GPa) = 30.40184 42.50136 36.45160
#
# Velocity S-wave (km/s) = 3.49134 4.12804 3.82297
# Velocity P-wave (km/s) = 6.35230 7.37122 6.88064
#
# Compressibility (1/GPa) = 0.01663736
#
# Stress axis : x y z
#
# Youngs Moduli (GPa) = 141.26765 220.55638 78.95309
#
# Poissons Ratio (x) = 0.19760 0.09902
# Poissons Ratio (y) = 0.12656 0.13189
# Poissons Ratio (z) = 0.17717 0.36844
#
# Static dielectric constant tensor:
#      x y z
#    x 2.428610 0.000000 0.396970 
#    y 0.000000 2.019950 0.000000 
#    z 0.396970 0.000000 2.393540 
# 
# From -- ./inp_files/12579.got.cif
#   From: 2010.05.17/outbox.cif.g08.bks.cpg/sg5_7_cif.got.tgz:12579.got - 2010.06.03 18:56:24.
