data_PCOD9125109
_publ_section_title
;
Structure prediction by ZEFSAII (Michael W. Deem and Ramdas Pophale) SiO2 
 PCOD9125109
Probable space group: C 2
;
_chemical_formula_sum "Si O2"
_cell_formula_units_Z 26
_cell_length_a 7.600948
_cell_length_b 13.991685
_cell_length_c 11.374414
_cell_angle_alpha 90.000000
_cell_angle_beta 121.999462
_cell_angle_gamma 90.000000
_cell_volume 1025.864128
_symmetry_space_group_name_H-M "C 2"
_symmetry_group_IT_number 5
_symmetry_cell_setting 'monoclinic'
loop_
_space_group_symop_operation_xyz
x,y,z
-x,y,-z
1/2+x,1/2+y,z
1/2-x,1/2+y,-z
loop_
_atom_site_type_symbol
_atom_site_label
_atom_site_fract_x
_atom_site_fract_y
_atom_site_fract_z
Si Si1 0.574666 0.140870 0.645625
Si Si2 0.645040 0.830950 0.399366
Si Si3 0.365921 0.671065 0.197720
Si Si4 0.767000 0.964636 0.753149
Si Si5 0.795410 0.022196 0.358838
Si Si6 0.418853 0.289103 0.732524
Si Si7 0.000000 0.092661 0.000000
O O1 0.500000 0.188205 0.500000
O O2 0.394528 0.078693 0.646534
O O3 0.605627 0.225405 0.749416
O O4 0.728170 0.056719 0.659100
O O5 0.563595 0.732764 0.314035
O O6 0.433041 0.896319 0.329654
O O7 0.758855 0.804002 0.563112
O O8 0.776215 0.907887 0.369823
O O9 0.320144 0.568368 0.240003
O O10 0.180478 0.734358 0.190182
O O11 0.408286 0.653274 0.075708
O O12 0.955471 0.896191 0.787172
O O13 0.818701 0.021314 0.890094
O O14 0.000000 0.052893 0.500000
#
# Coordination Sequence:
#
# PCOD9125109 Si02
#       7
#     4   4   4   4   4   4   2
#     4  10  21  39  71 106 141 176 219 294 371 427
#     4  10  21  43  73 106 133 170 227 306 373 417
#     4  10  22  44  63  98 140 186 231 284 344 412
#     4  10  22  44  63  98 140 186 231 284 344 412
#     4  10  21  39  71 106 141 176 219 294 371 427
#     4  10  21  43  73 106 133 170 227 306 373 417
#     4  12  28  44  66  92 142 208 238 274 336 420
#
# _framework density 25.344484000000001
#
# number of rings (size 3 to 8) (size 9 to 14) (size 15 to 20)
#    0.000    1.846    0.000    5.538    6.462    0.615 
#   11.077    5.385    0.000    0.000    0.000    0.000 
#    0.000    0.000    0.000    0.000    0.000    0.000 
#
# Total GULP energy -72468.115724 kJ/mol
# GULP energy per Si atom -5574.470440 kJ/mol
# Density = 2.528680 g / cm^3
# Si number density = 25.344484 Si / 1000 Ang^3
#
#
#
# Elastic Constant Matrix: (Units=GPa)
#
#
# Indices 1 2 3 4 5 6 
#
# 1 105.5789 51.2619 23.9717 0.0000 -33.9233 0.0000
# 2 51.2619 186.7397 32.0245 0.0000 -36.2233 0.0000
# 3 23.9717 32.0245 99.3837 0.0000 -33.8058 0.0000
# 4 0.0000 0.0000 0.0000 44.3283 0.0000 -11.1903
# 5 -33.9233 -36.2233 -33.8058 0.0000 47.4337 0.0000
# 6 0.0000 0.0000 0.0000 -11.1903 0.0000 41.6285
#
#
#
# Elastic Compliance Matrix: (Units=1/GPa)
#
#
# Indices 1 2 3 4 5 6 
#
# 1 0.012944 -0.002071 0.000206 0.000000 0.007822 0.000000
# 2 -0.002071 0.006638 -0.000553 0.000000 0.003194 0.000000
# 3 0.000206 -0.000553 0.013328 0.000000 0.009224 0.000000
# 4 0.000000 0.000000 0.000000 0.024201 0.000000 0.006506
# 5 0.007822 0.003194 0.009224 0.000000 0.035689 0.000000
# 6 0.000000 0.000000 0.000000 0.006506 0.000000 0.025771
#
#
# Mechanical properties :
#
#
# Convention : Reuss Voigt Hill
#
# Bulk Modulus (GPa) = 35.62073 67.35762 51.48918
# Shear Modulus (GPa) = 37.66053 45.64105 41.65079
#
# Velocity S-wave (km/s) = 3.85898 4.24822 4.05827
# Velocity P-wave (km/s) = 5.82587 7.12023 6.50532
#
# Compressibility (1/GPa) = 0.02807354
#
# Stress axis : x y z
#
# Youngs Moduli (GPa) = 77.25726 150.64855 75.02969
#
# Poissons Ratio (x) = 0.31202 -0.01546
# Poissons Ratio (y) = 0.16002 0.04149
# Poissons Ratio (z) = -0.01592 0.08331
#
# Static dielectric constant tensor:
#      x y z
#    x 2.256240 0.000000 0.121990 
#    y 0.000000 2.002190 0.000000 
#    z 0.121990 0.000000 2.119050 
# 
# From -- ./inp_files/36260.got.cif
#   From: 2010.05.17/outbox.cif.g08.bks.cpg/sg5_19_cif.got.tgz:36260.got - 2010.06.03 18:56:24.
