data_PCOD9125760
_publ_section_title
;
Structure prediction by ZEFSAII (Michael W. Deem and Ramdas Pophale) SiO2 
 PCOD9125760
Probable space group: C 2
;
_chemical_formula_sum "Si O2"
_cell_formula_units_Z 20
_cell_length_a 8.266585
_cell_length_b 10.271026
_cell_length_c 21.318583
_cell_angle_alpha 90.000000
_cell_angle_beta 30.895340
_cell_angle_gamma 90.000000
_cell_volume 929.425556
_symmetry_space_group_name_H-M "C 2"
_symmetry_group_IT_number 5
_symmetry_cell_setting 'monoclinic'
loop_
_space_group_symop_operation_xyz
x,y,z
-x,y,-z
1/2+x,1/2+y,z
1/2-x,1/2+y,-z
loop_
_atom_site_type_symbol
_atom_site_label
_atom_site_fract_x
_atom_site_fract_y
_atom_site_fract_z
Si Si1 0.285438 0.767860 0.954299
Si Si2 0.016377 0.119687 0.389987
Si Si3 0.436934 0.054228 0.876354
Si Si4 0.173481 0.405567 0.570405
Si Si5 0.835515 0.576825 0.768953
O O1 0.589715 0.685287 0.829540
O O2 0.386082 0.918525 0.929927
O O3 0.172941 0.684117 0.051649
O O4 0.000000 0.762475 0.000000
O O5 0.201151 0.077191 0.265355
O O6 0.302715 0.123955 0.345561
O O7 0.884381 0.262439 0.433428
O O8 0.751429 0.014972 0.493619
O O9 0.730837 0.039731 0.136291
O O10 0.500000 0.397720 0.500000
O O11 0.876209 0.452935 0.710951
#
# Coordination Sequence:
#
# PCOD9125760 Si02
#       5
#     4   4   4   4   4
#     4  12  25  41  68  93 133 174 223 267 322 381
#     4   9  23  42  69  96 133 167 214 268 326 386
#     4  10  26  43  65  94 134 175 217 270 325 379
#     4  10  21  43  68  97 134 169 212 272 328 386
#     4   9  23  43  69  91 136 171 214 270 328 380
#
# _framework density 21.518667000000001
#
# number of rings (size 3 to 8) (size 9 to 14) (size 15 to 20)
#    1.200    0.800    0.000    1.800    8.400    3.200 
#    3.600    0.000    0.000    0.000    0.000    0.000 
#    0.000    0.000    0.000    0.000    0.000    0.000 
#
# Total GULP energy -55732.064588 kJ/mol
# GULP energy per Si atom -5573.206459 kJ/mol
# Density = 2.146969 g / cm^3
# Si number density = 21.518667 Si / 1000 Ang^3
#
#
#
# Elastic Constant Matrix: (Units=GPa)
#
#
# Indices 1 2 3 4 5 6 
#
# 1 17.7626 38.4217 31.9834 0.0002 4.8581 -0.0001
# 2 38.4217 210.9273 70.8790 -0.0005 16.6706 0.0001
# 3 31.9834 70.8790 84.2873 -0.0050 12.7115 0.0014
# 4 0.0002 -0.0005 -0.0050 41.8861 0.0012 -0.6802
# 5 4.8581 16.6706 12.7115 0.0012 25.9025 0.0002
# 6 -0.0001 0.0001 0.0014 -0.6802 0.0002 24.5704
#
#
#
# Elastic Compliance Matrix: (Units=1/GPa)
#
#
# Indices 1 2 3 4 5 6 
#
# 1 0.210932 -0.016214 -0.066969 -0.000009 0.003739 0.000004
# 2 -0.016214 0.007921 -0.000214 0.000000 -0.001952 0.000000
# 3 -0.066969 -0.000214 0.038381 0.000005 -0.006138 -0.000002
# 4 -0.000009 0.000000 0.000005 0.023885 -0.000002 0.000661
# 5 0.003739 -0.001952 -0.006138 -0.000002 0.042173 0.000000
# 6 0.000004 0.000000 -0.000002 0.000661 0.000000 0.040718
#
#
# Mechanical properties :
#
#
# Convention : Reuss Voigt Hill
#
# Bulk Modulus (GPa) = 11.05695 66.17172 38.61433
# Shear Modulus (GPa) = 8.91346 29.91801 19.41573
#
# Velocity S-wave (km/s) = 2.03745 3.73276 3.00705
# Velocity P-wave (km/s) = 3.26870 7.02820 5.48087
#
# Compressibility (1/GPa) = 0.09044087
#
# Stress axis : x y z
#
# Youngs Moduli (GPa) = 4.74086 126.25413 26.05450
#
# Poissons Ratio (x) = 2.04713 1.74483
# Poissons Ratio (y) = 0.07687 0.00556
# Poissons Ratio (z) = 0.31749 0.02696
#
# Static dielectric constant tensor:
#      x y z
#    x 1.829610 0.000000 0.038880 
#    y 0.000000 1.761340 0.000000 
#    z 0.038880 0.000000 1.864100 
# 
# From -- ./inp_files/71683.got.cif
#   From: 2010.05.17/outbox.cif.g08.bks.cpg/sg5_36_cif.got.tgz:71683.got - 2010.06.03 18:56:24.
