data_PCOD9125743
_publ_section_title
;
Structure prediction by ZEFSAII (Michael W. Deem and Ramdas Pophale) SiO2 
 PCOD9125743
Probable space group: C 2
;
_chemical_formula_sum "Si O2"
_cell_formula_units_Z 24
_cell_length_a 14.853478
_cell_length_b 5.301954
_cell_length_c 15.006886
_cell_angle_alpha 90.000000
_cell_angle_beta 52.711261
_cell_angle_gamma 90.000000
_cell_volume 940.254484
_symmetry_space_group_name_H-M "C 2"
_symmetry_group_IT_number 5
_symmetry_cell_setting 'monoclinic'
loop_
_space_group_symop_operation_xyz
x,y,z
-x,y,-z
1/2+x,1/2+y,z
1/2-x,1/2+y,-z
loop_
_atom_site_type_symbol
_atom_site_label
_atom_site_fract_x
_atom_site_fract_y
_atom_site_fract_z
Si Si1 0.791452 0.818070 0.948377
Si Si2 0.617072 0.545480 0.483854
Si Si3 0.798397 0.579343 0.761326
Si Si4 0.059187 0.538393 0.616704
Si Si5 0.613931 0.227830 0.941194
Si Si6 0.156265 0.424768 0.745874
O O1 0.808295 0.794373 0.832882
O O2 0.692617 0.608536 0.029480
O O3 0.878048 0.661337 0.959786
O O4 0.500000 0.531832 0.500000
O O5 0.612919 0.300697 0.550893
O O6 0.724348 0.551767 0.354394
O O7 0.620087 0.801908 0.536309
O O8 0.733261 0.357339 0.849850
O O9 0.928426 0.529193 0.661808
O O10 0.710329 0.651242 0.736181
O O11 0.074196 0.484738 0.712979
O O12 0.606652 0.017799 0.869595
O O13 0.500000 0.389155 0.000000
#
# Coordination Sequence:
#
# PCOD9125743 Si02
#       6
#     4   4   4   4   4   4
#     4  10  21  43  67  98 139 185 238 299 364 436
#     4  12  26  49  78 112 154 198 252 318 388 462
#     4  11  25  47  73 110 148 204 252 316 386 461
#     4  12  28  47  77 114 155 198 252 321 387 462
#     4  11  25  46  72 104 147 196 253 316 379 453
#     4  12  26  47  77 111 151 201 258 315 387 469
#
# _framework density 25.525006999999999
#
# number of rings (size 3 to 8) (size 9 to 14) (size 15 to 20)
#    0.000    0.667    3.333    3.500    4.667    0.667 
#   12.000    0.000    0.000    0.000    0.000    0.000 
#    0.000    0.000    0.000    0.000    0.000    0.000 
#
# Total GULP energy -66890.924382 kJ/mol
# GULP energy per Si atom -5574.243699 kJ/mol
# Density = 2.546691 g / cm^3
# Si number density = 25.525007 Si / 1000 Ang^3
#
#
#
# Elastic Constant Matrix: (Units=GPa)
#
#
# Indices 1 2 3 4 5 6 
#
# 1 67.4244 2.3856 16.9227 -0.0005 10.4075 0.0018
# 2 2.3856 129.3472 27.9267 -0.0008 5.3173 0.0052
# 3 16.9227 27.9267 77.4804 -0.0004 4.5693 0.0006
# 4 -0.0005 -0.0008 -0.0004 35.5981 0.0001 8.6289
# 5 10.4075 5.3173 4.5693 0.0001 54.8264 -0.0001
# 6 0.0018 0.0052 0.0006 8.6289 -0.0001 15.2070
#
#
#
# Elastic Compliance Matrix: (Units=1/GPa)
#
#
# Indices 1 2 3 4 5 6 
#
# 1 0.016143 0.000590 -0.003572 0.000001 -0.002824 -0.000002
# 2 0.000590 0.008422 -0.003125 0.000001 -0.000668 -0.000003
# 3 -0.003572 -0.003125 0.014828 0.000000 -0.000255 0.000001
# 4 0.000001 0.000001 0.000000 0.032571 0.000000 -0.018482
# 5 -0.002824 -0.000668 -0.000255 0.000000 0.018861 0.000001
# 6 -0.000002 -0.000003 0.000001 -0.018482 0.000001 0.076246
#
#
# Mechanical properties :
#
#
# Convention : Reuss Voigt Hill
#
# Bulk Modulus (GPa) = 36.79354 40.96913 38.88134
# Shear Modulus (GPa) = 26.54680 36.26077 31.40379
#
# Velocity S-wave (km/s) = 3.22845 3.77317 3.51139
# Velocity P-wave (km/s) = 5.32383 5.92181 5.63077
#
# Compressibility (1/GPa) = 0.02717868
#
# Stress axis : x y z
#
# Youngs Moduli (GPa) = 61.94667 118.73021 67.43986
#
# Poissons Ratio (x) = -0.06999 0.24088
# Poissons Ratio (y) = -0.03652 0.21076
# Poissons Ratio (z) = 0.22126 0.37104
#
# Static dielectric constant tensor:
#      x y z
#    x 2.154690 0.000000 0.000040 
#    y 0.000000 2.205920 0.000000 
#    z 0.000040 0.000000 2.153810 
# 
# From -- ./inp_files/53753.got.cif
#   From: 2010.05.17/outbox.cif.g08.bks.cpg/sg5_27_cif.got.tgz:53753.got - 2010.06.03 18:56:24.
