data_PCOD9125488
_publ_section_title
;
Structure prediction by ZEFSAII (Michael W. Deem and Ramdas Pophale) SiO2 
 PCOD9125488
Probable space group: C 2
;
_chemical_formula_sum "Si O2"
_cell_formula_units_Z 28
_cell_length_a 9.307297
_cell_length_b 14.422342
_cell_length_c 10.447923
_cell_angle_alpha 90.000000
_cell_angle_beta 56.027061
_cell_angle_gamma 90.000000
_cell_volume 1163.059206
_symmetry_space_group_name_H-M "C 2"
_symmetry_group_IT_number 5
_symmetry_cell_setting 'monoclinic'
loop_
_space_group_symop_operation_xyz
x,y,z
-x,y,-z
1/2+x,1/2+y,z
1/2-x,1/2+y,-z
loop_
_atom_site_type_symbol
_atom_site_label
_atom_site_fract_x
_atom_site_fract_y
_atom_site_fract_z
Si Si1 0.882735 0.549290 0.940643
Si Si2 0.363565 0.722933 0.180817
Si Si3 0.350393 0.784343 0.471931
Si Si4 0.910071 0.626504 0.404604
Si Si5 0.710101 0.399264 0.167816
Si Si6 0.501976 0.532967 0.139103
Si Si7 0.302637 0.461401 0.556271
O O1 0.964698 0.584440 0.767653
O O2 0.832997 0.439396 0.992175
O O3 0.000000 0.581520 0.000000
O O4 0.686178 0.587726 0.057844
O O5 0.410575 0.758575 0.298235
O O6 0.211209 0.791318 0.205090
O O7 0.358100 0.612213 0.206883
O O8 0.500000 0.737285 0.000000
O O9 0.500000 0.767994 0.500000
O O10 0.175468 0.725609 0.581660
O O11 0.293566 0.890309 0.487896
O O12 0.739264 0.561216 0.478245
O O13 0.000000 0.627365 0.500000
O O14 0.527597 0.448958 0.224014
O O15 0.781599 0.449775 0.259787
O O16 0.500000 0.488657 0.000000
O O17 0.500000 0.442243 0.500000
#
# Coordination Sequence:
#
# PCOD9125488 Si02
#       7
#     4   4   4   4   4   4   4
#     4  10  21  41  69 101 138 183 244 295 359 442
#     4  10  22  41  71 101 137 192 237 302 362 430
#     4  11  27  45  68 104 146 188 243 297 370 445
#     4  12  26  41  71 108 144 191 232 302 372 440
#     4   9  21  40  71 101 135 184 243 297 359 429
#     4   9  21  37  67 105 134 186 240 293 361 437
#     4  11  24  46  69  99 143 188 235 302 368 441
#
# _framework density 24.074442000000001
#
# number of rings (size 3 to 8) (size 9 to 14) (size 15 to 20)
#    0.857    0.857    1.429    1.714   12.000    0.000 
#    0.000    0.000    0.000    3.429    0.000    0.000 
#    0.000    0.000    0.000    0.000    0.000    0.000 
#
# Total GULP energy -77973.437086 kJ/mol
# GULP energy per Si atom -5569.531220 kJ/mol
# Density = 2.401965 g / cm^3
# Si number density = 24.074442 Si / 1000 Ang^3
#
#
#
# Elastic Constant Matrix: (Units=GPa)
#
#
# Indices 1 2 3 4 5 6 
#
# 1 176.7243 44.5641 49.2971 0.0000 16.6217 0.0000
# 2 44.5641 100.8617 17.5748 0.0000 17.9197 0.0000
# 3 49.2971 17.5748 126.9004 0.0000 9.7564 0.0000
# 4 0.0000 0.0000 0.0000 29.3919 0.0000 2.2700
# 5 16.6217 17.9197 9.7564 0.0000 36.1431 0.0000
# 6 0.0000 0.0000 0.0000 2.2700 0.0000 42.7911
#
#
#
# Elastic Compliance Matrix: (Units=1/GPa)
#
#
# Indices 1 2 3 4 5 6 
#
# 1 0.007051 -0.002468 -0.002290 0.000000 -0.001401 0.000000
# 2 -0.002468 0.011892 -0.000329 0.000000 -0.004673 0.000000
# 3 -0.002290 -0.000329 0.008907 0.000000 -0.001188 0.000000
# 4 0.000000 0.000000 0.000000 0.034163 0.000000 -0.001812
# 5 -0.001401 -0.004673 -0.001188 0.000000 0.030950 0.000000
# 6 0.000000 0.000000 0.000000 -0.001812 0.000000 0.023465
#
#
# Mechanical properties :
#
#
# Convention : Reuss Voigt Hill
#
# Bulk Modulus (GPa) = 56.56994 69.70650 63.13822
# Shear Modulus (GPa) = 37.73766 41.20191 39.46979
#
# Velocity S-wave (km/s) = 3.96351 4.14144 4.05345
# Velocity P-wave (km/s) = 6.67045 7.20320 6.94194
#
# Compressibility (1/GPa) = 0.01767723
#
# Stress axis : x y z
#
# Youngs Moduli (GPa) = 141.81810 84.08789 112.27603
#
# Poissons Ratio (x) = 0.20749 0.25708
# Poissons Ratio (y) = 0.34994 0.03696
# Poissons Ratio (z) = 0.32473 0.02768
#
# Static dielectric constant tensor:
#      x y z
#    x 1.905590 0.000000 -0.061950 
#    y 0.000000 1.939050 0.000000 
#    z -0.061950 0.000000 2.080610 
# 
# From -- ./inp_files/36290.got.cif
#   From: 2010.05.17/outbox.cif.g08.bks.cpg/sg5_19_cif.got.tgz:36290.got - 2010.06.03 18:56:24.
