data_PCOD9125111
_publ_section_title
;
Structure prediction by ZEFSAII (Michael W. Deem and Ramdas Pophale) SiO2 
 PCOD9125111
Probable space group: C 2
;
_chemical_formula_sum "Si O2"
_cell_formula_units_Z 20
_cell_length_a 19.852324
_cell_length_b 5.237008
_cell_length_c 17.085750
_cell_angle_alpha 90.000000
_cell_angle_beta 26.891813
_cell_angle_gamma 90.000000
_cell_volume 803.456212
_symmetry_space_group_name_H-M "C 2"
_symmetry_group_IT_number 5
_symmetry_cell_setting 'monoclinic'
loop_
_space_group_symop_operation_xyz
x,y,z
-x,y,-z
1/2+x,1/2+y,z
1/2-x,1/2+y,-z
loop_
_atom_site_type_symbol
_atom_site_label
_atom_site_fract_x
_atom_site_fract_y
_atom_site_fract_z
Si Si1 0.614536 0.262890 0.440342
Si Si2 0.878808 0.124888 0.766473
Si Si3 0.329663 0.182587 0.446407
Si Si4 0.368375 0.055292 0.084686
Si Si5 0.912858 0.442077 0.878844
O O1 0.500000 0.120855 0.500000
O O2 0.506799 0.488223 0.585329
O O3 0.663278 0.123425 0.468586
O O4 0.757241 0.377312 0.249167
O O5 0.946397 0.287927 0.765854
O O6 0.750331 0.235055 0.840153
O O7 0.765425 0.936448 0.929508
O O8 0.249168 0.449311 0.515834
O O9 0.492451 0.195816 0.237985
O O10 0.551085 0.890193 0.067655
O O11 0.500000 0.171790 0.000000
#
# Coordination Sequence:
#
# PCOD9125111 Si02
#       5
#     4   4   4   4   4
#     4  10  21  42  69 100 143 189 232 294 354 424
#     4   9  20  38  69  98 136 186 241 279 347 424
#     4  12  26  45  74 107 145 186 239 294 356 421
#     4   9  20  37  66  98 143 184 229 302 356 409
#     4  10  21  39  71  97 138 189 242 281 348 429
#
# _framework density 24.892455999999999
#
# number of rings (size 3 to 8) (size 9 to 14) (size 15 to 20)
#    1.200    0.800    0.000    3.600    0.000    0.000 
#    0.000   10.000    0.000    0.000    0.000    0.000 
#    0.000    0.000    0.000    0.000    0.000    0.000 
#
# Total GULP energy -55668.111235 kJ/mol
# GULP energy per Si atom -5566.811123 kJ/mol
# Density = 2.483580 g / cm^3
# Si number density = 24.892456 Si / 1000 Ang^3
#
#
#
# Elastic Constant Matrix: (Units=GPa)
#
#
# Indices 1 2 3 4 5 6 
#
# 1 153.7773 25.6477 53.3426 0.0400 3.1364 -0.0089
# 2 25.6477 36.0989 17.2856 -0.0283 -2.2689 0.0187
# 3 53.3426 17.2856 121.8187 -0.0236 9.2896 0.0192
# 4 0.0400 -0.0283 -0.0236 30.0362 0.0089 3.8256
# 5 3.1364 -2.2689 9.2896 0.0089 44.9819 -0.0028
# 6 -0.0089 0.0187 0.0192 3.8256 -0.0028 -8.4258
#
#
#
# Elastic Compliance Matrix: (Units=1/GPa)
#
#
# Indices 1 2 3 4 5 6 
#
# 1 0.008286 -0.004472 -0.002979 -0.000014 -0.000188 -0.000032
# 2 -0.004472 0.032394 -0.002831 0.000023 0.002531 0.000080
# 3 -0.002979 -0.002831 0.010069 0.000007 -0.002014 0.000024
# 4 -0.000014 0.000023 0.000007 0.031473 -0.000005 0.014290
# 5 -0.000188 0.002531 -0.002014 -0.000005 0.022788 -0.000009
# 6 -0.000032 0.000080 0.000024 0.014290 -0.000009 -0.112195
#
#
# Mechanical properties :
#
#
# Convention : Reuss Voigt Hill
#
# Bulk Modulus (GPa) = 33.13111 56.02742 44.57927
# Shear Modulus (GPa) = 213.28894 27.67973 120.48433
#
# Velocity S-wave (km/s) = 9.26662 3.33824 6.96470
# Velocity P-wave (km/s) = 11.30629 6.11679 9.08976
#
# Compressibility (1/GPa) = 0.03018311
#
# Stress axis : x y z
#
# Youngs Moduli (GPa) = 120.68281 30.86994 99.31550
#
# Poissons Ratio (x) = 0.13806 0.29590
# Poissons Ratio (y) = 0.53974 0.28118
# Poissons Ratio (z) = 0.35957 0.08740
#
# Static dielectric constant tensor:
#      x y z
#    x 2.085600 -0.000010 -0.028540 
#    y -0.000010 2.005750 0.000010 
#    z -0.028540 0.000010 1.954140 
# 
# From -- ./inp_files/62039.got.cif
#   From: 2010.05.17/outbox.cif.g08.bks.cpg/sg5_32_cif.got.tgz:62039.got - 2010.06.03 18:56:24.
