data_PCOD9125474
_publ_section_title
;
Structure prediction by ZEFSAII (Michael W. Deem and Ramdas Pophale) SiO2 
 PCOD9125474
Probable space group: C 2
;
_chemical_formula_sum "Si O2"
_cell_formula_units_Z 20
_cell_length_a 25.292789
_cell_length_b 4.974933
_cell_length_c 7.930458
_cell_angle_alpha 90.000000
_cell_angle_beta 124.167742
_cell_angle_gamma 90.000000
_cell_volume 825.650250
_symmetry_space_group_name_H-M "C 2"
_symmetry_group_IT_number 5
_symmetry_cell_setting 'monoclinic'
loop_
_space_group_symop_operation_xyz
x,y,z
-x,y,-z
1/2+x,1/2+y,z
1/2-x,1/2+y,-z
loop_
_atom_site_type_symbol
_atom_site_label
_atom_site_fract_x
_atom_site_fract_y
_atom_site_fract_z
Si Si1 0.883377 0.492580 0.929567
Si Si2 0.233505 0.445487 0.069444
Si Si3 0.733547 0.282888 0.376665
Si Si4 0.517543 0.111725 0.339546
Si Si5 0.060722 0.115319 0.237033
O O1 0.841206 0.745683 0.795408
O O2 0.889566 0.279917 0.789466
O O3 0.838256 0.377452 0.997165
O O4 0.951002 0.591793 0.116831
O O5 0.267563 0.173328 0.076632
O O6 0.265166 0.618235 0.278655
O O7 0.752704 0.585621 0.441819
O O8 0.500000 0.177891 0.500000
O O9 0.563281 0.325020 0.328078
O O10 0.546625 0.817160 0.366823
O O11 0.000000 0.102445 0.000000
#
# Coordination Sequence:
#
# PCOD9125474 Si02
#       5
#     4   4   4   4   4
#     4   9  24  43  67  93 137 173 214 263 334 375
#     4  10  22  41  65  92 135 168 213 272 322 376
#     4  10  22  41  65  92 130 166 224 261 312 391
#     4  11  23  42  64  97 127 163 217 270 317 387
#     4  10  21  41  68  88 126 171 213 261 321 387
#
# _framework density 24.223331000000002
#
# number of rings (size 3 to 8) (size 9 to 14) (size 15 to 20)
#    1.200    0.800    0.000    3.600    0.000    9.600 
#   10.800    0.000    0.000    0.000    0.000    0.000 
#    0.000    0.000    0.000    0.000    0.000    0.000 
#
# Total GULP energy -55818.658469 kJ/mol
# GULP energy per Si atom -5581.865847 kJ/mol
# Density = 2.416820 g / cm^3
# Si number density = 24.223331 Si / 1000 Ang^3
#
#
#
# Elastic Constant Matrix: (Units=GPa)
#
#
# Indices 1 2 3 4 5 6 
#
# 1 98.3739 23.3632 12.6910 0.0000 -29.0034 0.0000
# 2 23.3632 129.0317 19.0050 0.0000 -12.7806 0.0000
# 3 12.6910 19.0050 60.8659 0.0000 -20.5520 0.0000
# 4 0.0000 0.0000 0.0000 28.5944 0.0000 -17.6693
# 5 -29.0034 -12.7806 -20.5520 0.0000 43.2687 0.0000
# 6 0.0000 0.0000 0.0000 -17.6693 0.0000 -11.6059
#
#
#
# Elastic Compliance Matrix: (Units=1/GPa)
#
#
# Indices 1 2 3 4 5 6 
#
# 1 0.012979 -0.001604 0.000681 0.000000 0.008550 0.000000
# 2 -0.001604 0.008396 -0.002159 0.000000 0.000380 0.000000
# 3 0.000681 -0.002159 0.020129 0.000000 0.009380 0.000000
# 4 0.000000 0.000000 0.000000 0.018020 0.000000 -0.027434
# 5 0.008550 0.000380 0.009380 0.000000 0.033410 0.000000
# 6 0.000000 0.000000 0.000000 -0.027434 0.000000 -0.044397
#
#
# Mechanical properties :
#
#
# Convention : Reuss Voigt Hill
#
# Bulk Modulus (GPa) = 28.29533 44.26553 36.28043
# Shear Modulus (GPa) = 75.21099 27.59893 51.40496
#
# Velocity S-wave (km/s) = 5.57821 3.37909 4.61165
# Velocity P-wave (km/s) = 7.29348 5.79120 6.58532
#
# Compressibility (1/GPa) = 0.03534152
#
# Stress axis : x y z
#
# Youngs Moduli (GPa) = 77.04763 119.10448 49.67993
#
# Poissons Ratio (x) = 0.19099 -0.03386
# Poissons Ratio (y) = 0.12355 0.10726
# Poissons Ratio (z) = -0.05251 0.25716
#
# Static dielectric constant tensor:
#      x y z
#    x 2.034750 0.000000 0.017690 
#    y 0.000000 1.886100 0.000000 
#    z 0.017690 0.000000 2.071890 
# 
# From -- ./inp_files/31224.got.cif
#   From: 2010.05.17/outbox.cif.g08.bks.cpg/sg5_16_cif.got.tgz:31224.got - 2010.06.03 18:56:24.
