data_PCOD9125139
_publ_section_title
;
Structure prediction by ZEFSAII (Michael W. Deem and Ramdas Pophale) SiO2 
 PCOD9125139
Probable space group: C 2
;
_chemical_formula_sum "Si O2"
_cell_formula_units_Z 28
_cell_length_a 20.577748
_cell_length_b 14.040542
_cell_length_c 8.419355
_cell_angle_alpha 90.000000
_cell_angle_beta 33.922302
_cell_angle_gamma 90.000000
_cell_volume 1357.524797
_symmetry_space_group_name_H-M "C 2"
_symmetry_group_IT_number 5
_symmetry_cell_setting 'monoclinic'
loop_
_space_group_symop_operation_xyz
x,y,z
-x,y,-z
1/2+x,1/2+y,z
1/2-x,1/2+y,-z
loop_
_atom_site_type_symbol
_atom_site_label
_atom_site_fract_x
_atom_site_fract_y
_atom_site_fract_z
Si Si1 0.788355 0.365590 0.805179
Si Si2 0.977203 0.380922 0.863195
Si Si3 0.620586 0.172666 0.674465
Si Si4 0.361232 0.550289 0.784756
Si Si5 0.976129 0.557356 0.728148
Si Si6 0.769428 0.668768 0.218325
Si Si7 0.310125 0.739160 0.075253
O O1 0.910484 0.393759 0.476721
O O2 0.748389 0.281920 0.764836
O O3 0.709259 0.456026 0.014810
O O4 0.806270 0.305907 0.929445
O O5 0.903093 0.471634 0.955426
O O6 0.000000 0.392861 0.000000
O O7 0.917055 0.280770 0.957438
O O8 0.576724 0.087941 0.647280
O O9 0.707304 0.145792 0.643311
O O10 0.692382 0.242735 0.415816
O O11 0.500000 0.207810 0.000000
O O12 0.500000 0.532540 0.500000
O O13 0.319025 0.601602 0.703769
O O14 0.333241 0.632708 0.969823
O O15 0.000000 0.532805 0.500000
O O16 0.892746 0.648113 0.885185
#
# Coordination Sequence:
#
# PCOD9125139 Si02
#       7
#     4   4   4   4   4   4   4
#     4  11  23  40  63  91 124 169 219 263 321 393
#     4  12  23  38  64  96 125 163 215 273 325 382
#     4  10  22  39  65  96 129 168 215 270 329 380
#     4  11  24  41  63  93 128 171 221 272 324 384
#     4  11  21  38  65  94 122 161 214 266 318 386
#     4  10  21  40  61  88 127 165 209 266 322 379
#     4  11  22  40  64  90 127 169 215 270 325 386
#
# _framework density 20.625772999999999
#
# number of rings (size 3 to 8) (size 9 to 14) (size 15 to 20)
#    0.000    1.143    0.000    9.429    0.000    2.857 
#    0.000    1.429    0.000    2.571    0.000    0.000 
#    0.000    0.000    0.000    0.000    0.000    0.000 
#
# Total GULP energy -78018.235961 kJ/mol
# GULP energy per Si atom -5572.731140 kJ/mol
# Density = 2.057883 g / cm^3
# Si number density = 20.625773 Si / 1000 Ang^3
#
#
#
# Elastic Constant Matrix: (Units=GPa)
#
#
# Indices 1 2 3 4 5 6 
#
# 1 108.0034 24.5015 34.0690 0.0000 10.3497 0.0000
# 2 24.5015 106.2838 35.0024 0.0000 -5.3113 0.0000
# 3 34.0690 35.0024 129.8806 0.0000 11.3587 0.0000
# 4 0.0000 0.0000 0.0000 28.4633 0.0000 -4.0492
# 5 10.3497 -5.3113 11.3587 0.0000 31.4954 0.0000
# 6 0.0000 0.0000 0.0000 -4.0492 0.0000 34.2889
#
#
#
# Elastic Compliance Matrix: (Units=1/GPa)
#
#
# Indices 1 2 3 4 5 6 
#
# 1 0.010626 -0.001949 -0.001991 0.000000 -0.003103 0.000000
# 2 -0.001949 0.010934 -0.002739 0.000000 0.003472 0.000000
# 3 -0.001991 -0.002739 0.009234 0.000000 -0.003138 0.000000
# 4 0.000000 0.000000 0.000000 0.035733 0.000000 0.004220
# 5 -0.003103 0.003472 -0.003138 0.000000 0.034487 0.000000
# 6 0.000000 0.000000 0.000000 0.004220 0.000000 0.029662
#
#
# Mechanical properties :
#
#
# Convention : Reuss Voigt Hill
#
# Bulk Modulus (GPa) = 57.35103 59.03483 58.19293
# Shear Modulus (GPa) = 33.36733 35.55583 34.46158
#
# Velocity S-wave (km/s) = 4.02649 4.15644 4.09198
# Velocity P-wave (km/s) = 7.03439 7.19157 7.11341
#
# Compressibility (1/GPa) = 0.01743648
#
# Stress axis : x y z
#
# Youngs Moduli (GPa) = 94.10480 91.46091 108.29360
#
# Poissons Ratio (x) = 0.17827 0.21559
# Poissons Ratio (y) = 0.18342 0.29661
# Poissons Ratio (z) = 0.18734 0.25051
#
# Static dielectric constant tensor:
#      x y z
#    x 1.959830 0.000000 0.070250 
#    y 0.000000 1.807120 0.000000 
#    z 0.070250 0.000000 1.840800 
# 
# From -- ./inp_files/29890.got.cif
#   From: 2010.05.17/outbox.cif.g08.bks.cpg/sg5_15_cif.got.tgz:29890.got - 2010.06.03 18:56:24.
