data_PCOD9125964
_publ_section_title
;
Structure prediction by ZEFSAII (Michael W. Deem and Ramdas Pophale) SiO2 
 PCOD9125964
Probable space group: C 2
;
_chemical_formula_sum "Si O2"
_cell_formula_units_Z 22
_cell_length_a 14.983293
_cell_length_b 12.918844
_cell_length_c 11.936490
_cell_angle_alpha 90.000000
_cell_angle_beta 29.642834
_cell_angle_gamma 90.000000
_cell_volume 1142.758446
_symmetry_space_group_name_H-M "C 2"
_symmetry_group_IT_number 5
_symmetry_cell_setting 'monoclinic'
loop_
_space_group_symop_operation_xyz
x,y,z
-x,y,-z
1/2+x,1/2+y,z
1/2-x,1/2+y,-z
loop_
_atom_site_type_symbol
_atom_site_label
_atom_site_fract_x
_atom_site_fract_y
_atom_site_fract_z
Si Si1 0.218725 0.251070 0.054535
Si Si2 0.042855 0.631423 0.585650
Si Si3 0.714966 0.918139 0.379722
Si Si4 0.949597 0.174524 0.185918
Si Si5 0.000000 0.241666 0.500000
Si Si6 0.918255 0.948723 0.925976
O O1 0.141506 0.199241 0.254299
O O2 0.059841 0.257958 0.135931
O O3 0.378386 0.180082 0.832174
O O4 0.299721 0.365993 0.987833
O O5 0.077790 0.508415 0.563996
O O6 0.233403 0.678621 0.419444
O O7 0.000000 0.647967 0.500000
O O8 0.616407 0.814938 0.453565
O O9 0.883808 0.898399 0.275134
O O10 0.810761 0.958330 0.160836
O O11 0.023824 0.067105 0.161137
O O12 0.000000 0.175168 0.000000
#
# Coordination Sequence:
#
# PCOD9125964 Si02
#       6
#     4   4   4   4   2   4
#     4  11  24  35  60  97 131 159 206 265 313 364
#     4  11  19  35  62  94 121 160 207 260 305 361
#     4   9  16  33  61  84 117 157 213 251 294 353
#     4  11  20  39  64  95 125 160 212 261 308 369
#     4  10  22  36  56  92 126 166 202 254 310 376
#     4   9  18  36  58  93 122 158 203 266 299 361
#
# _framework density 19.251662
#
# number of rings (size 3 to 8) (size 9 to 14) (size 15 to 20)
#    0.000    1.818    6.364    0.000    5.091    0.000 
#    0.000    0.000    2.000    0.000    9.455    0.000 
#    0.000    0.000    0.000    0.000    0.000    0.000 
#
# Total GULP energy -61235.499612 kJ/mol
# GULP energy per Si atom -5566.863601 kJ/mol
# Density = 1.920784 g / cm^3
# Si number density = 19.251662 Si / 1000 Ang^3
#
#
#
# Elastic Constant Matrix: (Units=GPa)
#
#
# Indices 1 2 3 4 5 6 
#
# 1 129.3553 52.8114 51.7232 0.0000 -24.4461 0.0000
# 2 52.8114 37.3696 33.0916 0.0001 -2.9198 0.0000
# 3 51.7232 33.0916 145.2294 0.0000 -1.0165 0.0000
# 4 0.0000 0.0001 0.0000 20.5268 0.0000 -0.8995
# 5 -24.4461 -2.9198 -1.0165 0.0000 36.3549 0.0000
# 6 0.0000 0.0000 0.0000 -0.8995 0.0000 29.7500
#
#
#
# Elastic Compliance Matrix: (Units=1/GPa)
#
#
# Indices 1 2 3 4 5 6 
#
# 1 0.023257 -0.030803 -0.001172 0.000000 0.013132 0.000000
# 2 -0.030803 0.074546 -0.006120 0.000000 -0.014897 0.000000
# 3 -0.001172 -0.006120 0.008690 0.000000 -0.001037 0.000000
# 4 0.000000 0.000000 0.000000 0.048781 0.000000 0.001475
# 5 0.013132 -0.014897 -0.001037 0.000000 0.035111 0.000000
# 6 0.000000 0.000000 0.000000 0.001475 0.000000 0.033658
#
#
# Mechanical properties :
#
#
# Convention : Reuss Voigt Hill
#
# Bulk Modulus (GPa) = 32.99954 65.24518 49.12236
# Shear Modulus (GPa) = 16.11159 28.94823 22.52991
#
# Velocity S-wave (km/s) = 2.89605 3.88193 3.42465
# Velocity P-wave (km/s) = 5.32552 7.35233 6.41942
#
# Compressibility (1/GPa) = 0.03030345
#
# Stress axis : x y z
#
# Youngs Moduli (GPa) = 42.99796 13.41450 115.07020
#
# Poissons Ratio (x) = 0.41321 0.13490
# Poissons Ratio (y) = 1.32446 0.70420
# Poissons Ratio (z) = 0.05041 0.08209
#
# Static dielectric constant tensor:
#      x y z
#    x 1.725340 0.000000 -0.022920 
#    y 0.000000 1.712620 0.000000 
#    z -0.022920 0.000000 1.749430 
# 
# From -- ./inp_files/42871.got.cif
#   From: 2010.05.17/outbox.cif.g08.bks.cpg/sg5_22_cif.got.tgz:42871.got - 2010.06.03 18:56:24.
