data_PCOD9125727
_publ_section_title
;
Structure prediction by ZEFSAII (Michael W. Deem and Ramdas Pophale) SiO2 
 PCOD9125727
Probable space group: C 2
;
_chemical_formula_sum "Si O2"
_cell_formula_units_Z 22
_cell_length_a 19.750629
_cell_length_b 11.399081
_cell_length_c 15.835629
_cell_angle_alpha 90.000000
_cell_angle_beta 19.440146
_cell_angle_gamma 90.000000
_cell_volume 1186.582795
_symmetry_space_group_name_H-M "C 2"
_symmetry_group_IT_number 5
_symmetry_cell_setting 'monoclinic'
loop_
_space_group_symop_operation_xyz
x,y,z
-x,y,-z
1/2+x,1/2+y,z
1/2-x,1/2+y,-z
loop_
_atom_site_type_symbol
_atom_site_label
_atom_site_fract_x
_atom_site_fract_y
_atom_site_fract_z
Si Si1 0.119420 0.289290 0.774187
Si Si2 0.061222 0.200926 0.189629
Si Si3 0.348280 0.057259 0.309836
Si Si4 0.981463 0.608676 0.340242
Si Si5 0.079425 0.370293 0.500173
Si Si6 0.000000 0.735984 0.000000
O O1 0.148892 0.428720 0.732996
O O2 0.332791 0.220159 0.523817
O O3 0.996104 0.250539 0.835398
O O4 0.000000 0.259866 0.000000
O O5 0.881164 0.108027 0.421211
O O6 0.044038 0.300686 0.281967
O O7 0.284069 0.145270 0.928717
O O8 0.429009 0.054943 0.310245
O O9 0.488216 0.148674 0.093700
O O10 0.929387 0.507527 0.468343
O O11 0.000000 0.347343 0.500000
O O12 0.305304 0.318238 0.236145
#
# Coordination Sequence:
#
# PCOD9125727 Si02
#       6
#     4   4   4   4   4   2
#     4  11  24  41  64  92 123 160 203 254 309 359
#     4  10  24  43  62  91 122 163 205 250 304 362
#     4  10  21  43  66  88 120 163 206 253 300 362
#     4  11  25  40  63  91 127 161 202 252 308 360
#     4  11  24  40  63  91 121 161 206 247 303 365
#     4  10  22  42  66  86 120 162 210 250 298 360
#
# _framework density 18.540637
#
# number of rings (size 3 to 8) (size 9 to 14) (size 15 to 20)
#    0.000    1.455    2.727    1.091    6.364    1.455 
#    0.000    0.000    0.000    0.000    0.000    0.000 
#    0.000    0.000    0.000    0.000    0.000    0.000 
#
# Total GULP energy -61440.998378 kJ/mol
# GULP energy per Si atom -5585.545307 kJ/mol
# Density = 1.849844 g / cm^3
# Si number density = 18.540637 Si / 1000 Ang^3
#
#
#
# Elastic Constant Matrix: (Units=GPa)
#
#
# Indices 1 2 3 4 5 6 
#
# 1 95.8074 20.9327 32.6929 0.0003 10.2138 -0.0025
# 2 20.9327 98.7221 55.1089 0.0008 -5.9701 -0.0015
# 3 32.6929 55.1089 102.9714 -0.0057 1.2449 0.0173
# 4 0.0003 0.0008 -0.0057 22.5138 0.0000 18.2186
# 5 10.2138 -5.9701 1.2449 0.0000 29.1329 0.0007
# 6 -0.0025 -0.0015 0.0173 18.2186 0.0007 -46.9514
#
#
#
# Elastic Compliance Matrix: (Units=1/GPa)
#
#
# Indices 1 2 3 4 5 6 
#
# 1 0.012249 -0.001026 -0.003287 0.000000 -0.004364 -0.000002
# 2 -0.001026 0.014854 -0.007669 0.000000 0.003731 -0.000003
# 3 -0.003287 -0.007669 0.014872 0.000000 -0.001055 0.000006
# 4 0.000000 0.000000 0.000000 0.033803 0.000000 0.013117
# 5 -0.004364 0.003731 -0.001055 0.000000 0.036665 0.000000
# 6 -0.000002 -0.000003 0.000006 0.013117 0.000000 -0.016209
#
#
# Mechanical properties :
#
#
# Convention : Reuss Voigt Hill
#
# Bulk Modulus (GPa) = 55.52330 57.21890 56.37110
# Shear Modulus (GPa) = 39.61943 13.52347 26.57145
#
# Velocity S-wave (km/s) = 4.62767 2.70366 3.78980
# Velocity P-wave (km/s) = 7.65282 6.37768 7.04416
#
# Compressibility (1/GPa) = 0.01801046
#
# Stress axis : x y z
#
# Youngs Moduli (GPa) = 81.64140 67.32401 67.24071
#
# Poissons Ratio (x) = 0.06909 0.22101
# Poissons Ratio (y) = 0.08379 0.51565
# Poissons Ratio (z) = 0.26835 0.51629
#
# Static dielectric constant tensor:
#      x y z
#    x 1.817310 0.000010 -0.018450 
#    y 0.000010 1.619640 0.000000 
#    z -0.018450 0.000000 1.618090 
# 
# From -- ./inp_files/6581.got.cif
#   From: 2010.05.17/outbox.cif.g08.bks.cpg/sg5_4_cif.got.tgz:6581.got - 2010.06.03 18:56:24.
