data_PCOD9125888
_publ_section_title
;
Structure prediction by ZEFSAII (Michael W. Deem and Ramdas Pophale) SiO2 
 PCOD9125888
Probable space group: C 2
;
_chemical_formula_sum "Si O2"
_cell_formula_units_Z 22
_cell_length_a 13.607712
_cell_length_b 11.670940
_cell_length_c 10.886409
_cell_angle_alpha 90.000000
_cell_angle_beta 30.530771
_cell_angle_gamma 90.000000
_cell_volume 878.294548
_symmetry_space_group_name_H-M "C 2"
_symmetry_group_IT_number 5
_symmetry_cell_setting 'monoclinic'
loop_
_space_group_symop_operation_xyz
x,y,z
-x,y,-z
1/2+x,1/2+y,z
1/2-x,1/2+y,-z
loop_
_atom_site_type_symbol
_atom_site_label
_atom_site_fract_x
_atom_site_fract_y
_atom_site_fract_z
Si Si1 0.335483 0.875000 0.435101
Si Si2 0.270849 0.389074 0.907979
Si Si3 0.674050 0.124395 0.536638
Si Si4 0.500000 0.209671 0.500000
Si Si5 0.782696 0.859168 0.177290
Si Si6 0.834213 0.604947 0.076546
O O1 0.540172 0.866273 0.146294
O O2 0.243198 0.748850 0.512622
O O3 0.354843 0.890357 0.561089
O O4 0.239224 0.001284 0.509769
O O5 0.297371 0.409449 0.024884
O O6 0.393902 0.289749 0.713648
O O7 0.307861 0.501200 0.787907
O O8 0.658680 0.138598 0.406242
O O9 0.455390 0.111743 0.820406
O O10 0.739491 0.725691 0.200697
O O11 0.000000 0.867849 0.000000
O O12 0.000000 0.586518 0.000000
#
# Coordination Sequence:
#
# PCOD9125888 Si02
#       6
#     4   4   4   2   4   4
#     4  11  25  47  76 103 142 187 244 288 359 421
#     4  11  26  42  73 103 143 188 240 288 360 418
#     4  11  25  46  72 101 148 189 234 299 355 418
#     4  12  26  46  64 106 146 188 238 298 354 416
#     4  11  21  47  72  99 138 188 240 289 354 417
#     4  10  21  45  71  95 144 192 228 294 357 413
#
# _framework density 25.048546999999999
#
# number of rings (size 3 to 8) (size 9 to 14) (size 15 to 20)
#    0.000    1.091    5.455    0.545   10.182    0.000 
#   13.091    0.000    0.000    0.000    0.000    0.000 
#    0.000    0.000    0.000    0.000    0.000    0.000 
#
# Total GULP energy -61365.815323 kJ/mol
# GULP energy per Si atom -5578.710484 kJ/mol
# Density = 2.499154 g / cm^3
# Si number density = 25.048547 Si / 1000 Ang^3
#
#
#
# Elastic Constant Matrix: (Units=GPa)
#
#
# Indices 1 2 3 4 5 6 
#
# 1 71.6527 29.7049 -11.0520 -0.0008 10.3964 0.0003
# 2 29.7049 176.3656 11.2108 -0.0004 -12.7331 0.0002
# 3 -11.0520 11.2108 89.3397 -0.0011 11.8954 0.0010
# 4 -0.0008 -0.0004 -0.0011 16.2763 0.0007 -7.2040
# 5 10.3964 -12.7331 11.8954 0.0007 31.2964 -0.0005
# 6 0.0003 0.0002 0.0010 -7.2040 -0.0005 31.7236
#
#
#
# Elastic Compliance Matrix: (Units=1/GPa)
#
#
# Indices 1 2 3 4 5 6 
#
# 1 0.017390 -0.003803 0.003796 0.000001 -0.008767 0.000000
# 2 -0.003803 0.006779 -0.001956 0.000000 0.004765 0.000000
# 3 0.003796 -0.001956 0.012831 0.000001 -0.006934 0.000000
# 4 0.000001 0.000000 0.000001 0.068304 -0.000002 0.015511
# 5 -0.008767 0.004765 -0.006934 -0.000002 0.039439 0.000000
# 6 0.000000 0.000000 0.000000 0.015511 0.000000 0.035045
#
#
# Mechanical properties :
#
#
# Convention : Reuss Voigt Hill
#
# Bulk Modulus (GPa) = 30.23437 44.12059 37.17748
# Shear Modulus (GPa) = 25.67530 36.35888 31.01709
#
# Velocity S-wave (km/s) = 3.20507 3.81404 3.52274
# Velocity P-wave (km/s) = 5.07869 6.08672 5.60541
#
# Compressibility (1/GPa) = 0.03307494
#
# Stress axis : x y z
#
# Youngs Moduli (GPa) = 57.50268 147.51582 77.93373
#
# Poissons Ratio (x) = 0.56105 -0.29583
# Poissons Ratio (y) = 0.21870 0.15240
# Poissons Ratio (z) = -0.21828 0.28848
#
# Static dielectric constant tensor:
#      x y z
#    x 2.066810 0.000000 0.017170 
#    y 0.000000 2.071150 0.000000 
#    z 0.017170 0.000000 2.012460 
# 
# From -- ./inp_files/42656.got.cif
#   From: 2010.05.17/outbox.cif.g08.bks.cpg/sg5_22_cif.got.tgz:42656.got - 2010.06.03 18:56:24.
