data_PCOD9125970
_publ_section_title
;
Structure prediction by ZEFSAII (Michael W. Deem and Ramdas Pophale) SiO2 
 PCOD9125970
Probable space group: C 2
;
_chemical_formula_sum "Si O2"
_cell_formula_units_Z 28
_cell_length_a 8.170412
_cell_length_b 12.396429
_cell_length_c 19.919140
_cell_angle_alpha 90.000000
_cell_angle_beta 139.992859
_cell_angle_gamma 90.000000
_cell_volume 1297.009430
_symmetry_space_group_name_H-M "C 2"
_symmetry_group_IT_number 5
_symmetry_cell_setting 'monoclinic'
loop_
_space_group_symop_operation_xyz
x,y,z
-x,y,-z
1/2+x,1/2+y,z
1/2-x,1/2+y,-z
loop_
_atom_site_type_symbol
_atom_site_label
_atom_site_fract_x
_atom_site_fract_y
_atom_site_fract_z
Si Si1 0.515106 0.600080 0.622560
Si Si2 0.728448 0.395828 0.620467
Si Si3 0.318852 0.844694 0.333936
Si Si4 0.136919 0.975572 0.799606
Si Si5 0.500000 0.514791 0.000000
Si Si6 0.500000 0.014550 0.500000
Si Si7 0.211295 0.129039 0.937132
Si Si8 0.463846 0.866249 0.152942
O O1 0.638095 0.515955 0.609843
O O2 0.608097 0.719804 0.635741
O O3 0.588876 0.554451 0.719788
O O4 0.209655 0.585743 0.527855
O O5 0.500000 0.350685 0.500000
O O6 0.990208 0.385475 0.663086
O O7 0.811616 0.351132 0.720259
O O8 0.021103 0.866110 0.234572
O O9 0.370699 0.929619 0.409581
O O10 0.416542 0.931898 0.871553
O O11 0.072235 0.049367 0.842009
O O12 0.361664 0.588393 0.012078
O O13 0.721037 0.437052 0.100259
O O14 0.126529 0.250805 0.899205
O O15 0.500000 0.122497 0.000000
#
# Coordination Sequence:
#
# PCOD9125970 Si02
#       8
#     4   4   4   4   2   2   4   4
#     4  10  23  41  65  92 135 184 235 292 357 421
#     4  11  23  44  69 102 142 185 242 295 344 434
#     4  11  23  40  64  94 133 186 230 291 357 413
#     4  10  24  45  66 102 140 179 235 296 356 436
#     4  12  26  46  76 112 140 186 248 296 368 450
#     4  10  22  36  58  94 128 172 240 286 344 420
#     4  12  25  47  77 106 146 189 236 305 373 427
#     4  11  25  47  73 107 148 188 241 301 367 434
#
# _framework density 21.588125999999999
#
# number of rings (size 3 to 8) (size 9 to 14) (size 15 to 20)
#    0.000    1.143    3.571    1.714    2.000    4.571 
#    2.571    2.857    0.000    0.000    0.000    0.000 
#    0.000    0.000    0.000    0.000    0.000    0.000 
#
# Total GULP energy -78003.901932 kJ/mol
# GULP energy per Si atom -5571.707281 kJ/mol
# Density = 2.153899 g / cm^3
# Si number density = 21.588126 Si / 1000 Ang^3
#
#
#
# Elastic Constant Matrix: (Units=GPa)
#
#
# Indices 1 2 3 4 5 6 
#
# 1 95.6043 37.0795 21.5072 0.0000 11.7706 0.0000
# 2 37.0795 128.7074 38.4294 0.0000 14.4807 0.0000
# 3 21.5072 38.4294 54.0551 -0.0001 -2.0125 0.0000
# 4 0.0000 0.0000 -0.0001 19.4737 0.0000 17.3550
# 5 11.7706 14.4807 -2.0125 0.0000 40.6129 0.0000
# 6 0.0000 0.0000 0.0000 17.3550 0.0000 44.2946
#
#
#
# Elastic Compliance Matrix: (Units=1/GPa)
#
#
# Indices 1 2 3 4 5 6 
#
# 1 0.012475 -0.002210 -0.003504 0.000000 -0.003001 0.000000
# 2 -0.002210 0.010902 -0.007005 0.000000 -0.003594 0.000000
# 3 -0.003504 -0.007005 0.025051 0.000000 0.004755 0.000000
# 4 0.000000 0.000000 0.000000 0.078903 0.000000 -0.030915
# 5 -0.003001 -0.003594 0.004755 0.000000 0.027010 0.000000
# 6 0.000000 0.000000 0.000000 -0.030915 0.000000 0.034689
#
#
# Mechanical properties :
#
#
# Convention : Reuss Voigt Hill
#
# Bulk Modulus (GPa) = 43.49795 52.48876 47.99336
# Shear Modulus (GPa) = 22.50929 32.96629 27.73779
#
# Velocity S-wave (km/s) = 3.23254 3.91200 3.58839
# Velocity P-wave (km/s) = 5.84168 6.69115 6.28079
#
# Compressibility (1/GPa) = 0.02298959
#
# Stress axis : x y z
#
# Youngs Moduli (GPa) = 80.16258 91.72475 39.91851
#
# Poissons Ratio (x) = 0.20271 0.13987
# Poissons Ratio (y) = 0.17716 0.27964
# Poissons Ratio (z) = 0.28089 0.64255
#
# Static dielectric constant tensor:
#      x y z
#    x 1.772470 0.000000 -0.056140 
#    y 0.000000 1.733910 0.000000 
#    z -0.056140 0.000000 1.638360 
# 
# From -- ./inp_files/64593.got.cif
#   From: 2010.05.17/outbox.cif.g08.bks.cpg/sg5_33_cif.got.tgz:64593.got - 2010.06.03 18:56:24.
