data_PCOD9125187
_publ_section_title
;
Structure prediction by ZEFSAII (Michael W. Deem and Ramdas Pophale) SiO2 
 PCOD9125187
Probable space group: C 2
;
_chemical_formula_sum "Si O2"
_cell_formula_units_Z 32
_cell_length_a 15.239587
_cell_length_b 13.886025
_cell_length_c 8.096239
_cell_angle_alpha 90.000000
_cell_angle_beta 134.008635
_cell_angle_gamma 90.000000
_cell_volume 1232.268465
_symmetry_space_group_name_H-M "C 2"
_symmetry_group_IT_number 5
_symmetry_cell_setting 'monoclinic'
loop_
_space_group_symop_operation_xyz
x,y,z
-x,y,-z
1/2+x,1/2+y,z
1/2-x,1/2+y,-z
loop_
_atom_site_type_symbol
_atom_site_label
_atom_site_fract_x
_atom_site_fract_y
_atom_site_fract_z
Si Si1 0.397070 0.037650 0.251357
Si Si2 0.912124 0.744140 0.618674
Si Si3 0.284350 0.606729 0.711299
Si Si4 0.334520 0.441268 0.578655
Si Si5 0.053663 0.382675 0.256158
Si Si6 0.660789 0.298779 0.857122
Si Si7 0.339123 0.514598 0.217089
Si Si8 0.414294 0.707700 0.159288
O O1 0.500000 0.090809 0.500000
O O2 0.289577 0.045863 0.247876
O O3 0.478857 0.951319 0.284051
O O4 0.302406 0.049656 0.975369
O O5 0.819731 0.657944 0.536742
O O6 0.866555 0.776019 0.373519
O O7 0.057887 0.732840 0.809044
O O8 0.892982 0.839875 0.698505
O O9 0.368112 0.532125 0.729912
O O10 0.366177 0.683868 0.912437
O O11 0.362343 0.477046 0.430960
O O12 0.190842 0.419185 0.416559
O O13 0.031611 0.275443 0.301412
O O14 0.000000 0.385476 0.000000
O O15 0.644907 0.412985 0.861041
O O16 0.798490 0.268967 0.077624
O O17 0.414812 0.605722 0.251604
#
# Coordination Sequence:
#
# PCOD9125187 Si02
#       8
#     4   4   4   4   4   4   4   4
#     4  11  21  35  63  98 122 166 226 281 329 396
#     4   9  20  37  62  89 121 173 212 265 326 402
#     4  10  22  38  64  97 127 172 224 275 334 411
#     4  11  22  41  66  94 135 171 225 275 333 402
#     4  12  21  40  65  97 134 171 217 279 352 396
#     4   9  17  37  64  82 122 165 218 257 320 403
#     4  10  21  40  63  94 127 176 220 271 337 407
#     4  10  22  39  64  96 129 172 218 269 348 405
#
# _framework density 25.968367000000001
#
# number of rings (size 3 to 8) (size 9 to 14) (size 15 to 20)
#    0.000    1.750    3.750    1.500    5.250    0.000 
#    6.750    0.000    2.750    3.000    0.000    0.000 
#    0.000    0.000    0.000    0.000    0.000    0.000 
#
# Total GULP energy -89268.949109 kJ/mol
# GULP energy per Si atom -5579.309319 kJ/mol
# Density = 2.590926 g / cm^3
# Si number density = 25.968367 Si / 1000 Ang^3
#
#
#
# Elastic Constant Matrix: (Units=GPa)
#
#
# Indices 1 2 3 4 5 6 
#
# 1 76.3458 43.1477 9.6508 0.0000 11.3485 0.0000
# 2 43.1477 153.6593 19.8673 0.0000 1.2077 0.0000
# 3 9.6508 19.8673 56.5137 0.0000 24.4325 0.0000
# 4 0.0000 0.0000 0.0000 24.0488 0.0000 -13.2046
# 5 11.3485 1.2077 24.4325 0.0000 26.6345 0.0000
# 6 0.0000 0.0000 0.0000 -13.2046 0.0000 24.4727
#
#
#
# Elastic Compliance Matrix: (Units=1/GPa)
#
#
# Indices 1 2 3 4 5 6 
#
# 1 0.017077 -0.005131 0.003203 0.000000 -0.009982 0.000000
# 2 -0.005131 0.008521 -0.004802 0.000000 0.006205 0.000000
# 3 0.003203 -0.004802 0.032037 0.000000 -0.030536 0.000000
# 4 0.000000 0.000000 0.000000 0.059087 0.000000 0.031881
# 5 -0.009982 0.006205 -0.030536 0.000000 0.069528 0.000000
# 6 0.000000 0.000000 0.000000 0.031881 0.000000 0.058064
#
#
# Mechanical properties :
#
#
# Convention : Reuss Voigt Hill
#
# Bulk Modulus (GPa) = 22.63686 47.98337 35.31011
# Shear Modulus (GPa) = 18.34869 29.28806 23.81837
#
# Velocity S-wave (km/s) = 2.66104 3.36197 3.03183
# Velocity P-wave (km/s) = 4.26351 5.79553 5.08752
#
# Compressibility (1/GPa) = 0.04417575
#
# Stress axis : x y z
#
# Youngs Moduli (GPa) = 58.55854 117.36087 31.21356
#
# Poissons Ratio (x) = 0.60217 -0.09997
# Poissons Ratio (y) = 0.30046 0.14988
# Poissons Ratio (z) = -0.18756 0.56352
#
# Static dielectric constant tensor:
#      x y z
#    x 2.112200 0.000000 -0.011490 
#    y 0.000000 2.123550 0.000000 
#    z -0.011490 0.000000 2.095840 
# 
# From -- ./inp_files/24643.got.cif
#   From: 2010.05.17/outbox.cif.g08.bks.cpg/sg5_13_cif.got.tgz:24643.got - 2010.06.03 18:56:24.
