data_PCOD9125445
_publ_section_title
;
Structure prediction by ZEFSAII (Michael W. Deem and Ramdas Pophale) SiO2 
 PCOD9125445
Probable space group: C 2
;
_chemical_formula_sum "Si O2"
_cell_formula_units_Z 26
_cell_length_a 15.697269
_cell_length_b 10.074626
_cell_length_c 10.312763
_cell_angle_alpha 90.000000
_cell_angle_beta 46.526041
_cell_angle_gamma 90.000000
_cell_volume 1183.525191
_symmetry_space_group_name_H-M "C 2"
_symmetry_group_IT_number 5
_symmetry_cell_setting 'monoclinic'
loop_
_space_group_symop_operation_xyz
x,y,z
-x,y,-z
1/2+x,1/2+y,z
1/2-x,1/2+y,-z
loop_
_atom_site_type_symbol
_atom_site_label
_atom_site_fract_x
_atom_site_fract_y
_atom_site_fract_z
Si Si1 0.277064 0.087340 0.837221
Si Si2 0.077804 0.894202 0.715685
Si Si3 0.500000 0.977556 0.500000
Si Si4 0.100078 0.175956 0.804119
Si Si5 0.635740 0.502100 0.382003
Si Si6 0.813359 0.280966 0.561290
Si Si7 0.177299 0.837507 0.079077
O O1 0.209748 0.136489 0.779712
O O2 0.256888 0.199279 0.967531
O O3 0.415972 0.072699 0.670832
O O4 0.234807 0.942519 0.923030
O O5 0.181365 0.834965 0.692393
O O6 0.956825 0.816612 0.825350
O O7 0.045173 0.038667 0.806816
O O8 0.134672 0.917699 0.514914
O O9 0.408174 0.883428 0.520288
O O10 0.141799 0.251018 0.632140
O O11 0.000000 0.240650 0.000000
O O12 0.500000 0.535660 0.500000
O O13 0.693058 0.643231 0.353004
O O14 0.677125 0.414392 0.218106
#
# Coordination Sequence:
#
# PCOD9125445 Si02
#       7
#     4   4   2   4   4   4   4
#     4  12  28  44  72 100 145 177 236 289 346 404
#     4  10  21  41  66  98 133 183 226 279 341 407
#     4  12  28  44  66 106 140 182 232 294 342 406
#     4  11  23  42  67  97 138 188 227 278 342 415
#     4   9  20  38  67  95 133 181 228 269 339 415
#     4  11  23  40  72  99 139 181 233 282 346 407
#     4  11  26  44  70 100 138 183 231 284 350 409
#
# _framework density 21.968267999999998
#
# number of rings (size 3 to 8) (size 9 to 14) (size 15 to 20)
#    0.000    1.231    3.846    0.923    9.692    0.000 
#    0.000    0.000    0.000    0.000    0.000    0.000 
#    0.000    0.000    0.000    0.000    0.000    0.000 
#
# Total GULP energy -72681.441079 kJ/mol
# GULP energy per Si atom -5590.880083 kJ/mol
# Density = 2.191827 g / cm^3
# Si number density = 21.968268 Si / 1000 Ang^3
#
#
#
# Elastic Constant Matrix: (Units=GPa)
#
#
# Indices 1 2 3 4 5 6 
#
# 1 115.4779 38.8154 15.5789 0.0000 -0.1995 0.0000
# 2 38.8154 61.5990 14.2697 0.0000 -6.7072 0.0000
# 3 15.5789 14.2697 74.0993 0.0000 12.0187 0.0000
# 4 0.0000 0.0000 0.0000 21.3787 0.0000 1.3941
# 5 -0.1995 -6.7072 12.0187 0.0000 27.3328 0.0000
# 6 0.0000 0.0000 0.0000 1.3941 0.0000 25.3634
#
#
#
# Elastic Compliance Matrix: (Units=1/GPa)
#
#
# Indices 1 2 3 4 5 6 
#
# 1 0.011100 -0.006951 -0.000788 0.000000 -0.001278 0.000000
# 2 -0.006951 0.022324 -0.004003 0.000000 0.007188 0.000000
# 3 -0.000788 -0.004003 0.015713 0.000000 -0.007897 0.000000
# 4 0.000000 0.000000 0.000000 0.046944 0.000000 -0.002580
# 5 -0.001278 0.007188 -0.007897 0.000000 0.041813 0.000000
# 6 0.000000 0.000000 0.000000 -0.002580 0.000000 0.039569
#
#
# Mechanical properties :
#
#
# Convention : Reuss Voigt Hill
#
# Bulk Modulus (GPa) = 38.98271 43.16713 41.07492
# Shear Modulus (GPa) = 23.86646 26.98247 25.42446
#
# Velocity S-wave (km/s) = 3.29964 3.50844 3.40564
# Velocity P-wave (km/s) = 5.68334 6.00871 5.84829
#
# Compressibility (1/GPa) = 0.02565240
#
# Stress axis : x y z
#
# Youngs Moduli (GPa) = 90.08789 44.79419 63.64177
#
# Poissons Ratio (x) = 0.31138 0.05013
# Poissons Ratio (y) = 0.62623 0.25479
# Poissons Ratio (z) = 0.07097 0.17933
#
# Static dielectric constant tensor:
#      x y z
#    x 1.821540 0.000000 0.035450 
#    y 0.000000 1.810980 0.000000 
#    z 0.035450 0.000000 1.835500 
# 
# From -- ./inp_files/44575.got.cif
#   From: 2010.05.17/outbox.cif.g08.bks.cpg/sg5_23_cif.got.tgz:44575.got - 2010.06.03 18:56:24.
