data_PCOD9125211
_publ_section_title
;
Structure prediction by ZEFSAII (Michael W. Deem and Ramdas Pophale) SiO2 
 PCOD9125211
Probable space group: C 2
;
_chemical_formula_sum "Si O2"
_cell_formula_units_Z 30
_cell_length_a 18.828910
_cell_length_b 13.989749
_cell_length_c 13.768745
_cell_angle_alpha 90.000000
_cell_angle_beta 21.713613
_cell_angle_gamma 90.000000
_cell_volume 1341.816213
_symmetry_space_group_name_H-M "C 2"
_symmetry_group_IT_number 5
_symmetry_cell_setting 'monoclinic'
loop_
_space_group_symop_operation_xyz
x,y,z
-x,y,-z
1/2+x,1/2+y,z
1/2-x,1/2+y,-z
loop_
_atom_site_type_symbol
_atom_site_label
_atom_site_fract_x
_atom_site_fract_y
_atom_site_fract_z
Si Si1 0.782199 0.395270 0.170898
Si Si2 0.544213 0.336659 0.287181
Si Si3 0.280434 0.113183 0.132902
Si Si4 0.124218 0.671050 0.579604
Si Si5 0.940884 0.172347 0.414923
Si Si6 0.847085 0.337152 0.397730
Si Si7 0.000000 0.081995 0.000000
Si Si8 0.965560 0.990733 0.236058
O O1 0.675679 0.359951 0.209920
O O2 0.673288 0.356619 0.401793
O O3 0.747373 0.507405 0.214438
O O4 0.996152 0.361327 0.882799
O O5 0.537873 0.224113 0.278300
O O6 0.577547 0.411839 0.158194
O O7 0.239806 0.175355 0.280870
O O8 0.121616 0.144107 0.254435
O O9 0.491578 0.107656 0.817667
O O10 0.199003 0.756736 0.551741
O O11 0.309349 0.634755 0.285213
O O12 0.951504 0.277452 0.351887
O O13 0.927148 0.085544 0.352070
O O14 0.722765 0.433980 0.565761
O O15 0.070045 0.024307 0.005587
#
# Coordination Sequence:
#
# PCOD9125211 Si02
#       8
#     4   4   4   4   4   4   2   4
#     4  11  20  40  66 100 130 172 229 279 339 392
#     4  10  21  40  64  94 128 172 224 280 326 399
#     4  11  23  43  76  99 130 175 229 281 343 401
#     4  11  24  41  62  98 132 179 222 267 338 405
#     4  11  22  47  70 103 136 171 226 293 335 400
#     4  11  25  40  67  99 136 180 216 277 341 404
#     4  12  24  44  62  92 142 176 222 278 330 400
#     4  11  23  43  63  94 134 176 216 281 334 395
#
# _framework density 22.357755000000001
#
# number of rings (size 3 to 8) (size 9 to 14) (size 15 to 20)
#    0.000    1.067    4.000    3.200    0.000    4.267 
#    2.400    0.000    0.000    0.000    0.000    0.000 
#    0.000    0.000    0.000    0.000    0.000    0.000 
#
# Total GULP energy -83599.325720 kJ/mol
# GULP energy per Si atom -5573.288381 kJ/mol
# Density = 2.230687 g / cm^3
# Si number density = 22.357755 Si / 1000 Ang^3
#
#
#
# Elastic Constant Matrix: (Units=GPa)
#
#
# Indices 1 2 3 4 5 6 
#
# 1 83.5199 20.1554 12.7923 -0.0002 19.4809 0.0000
# 2 20.1554 45.2319 27.0926 -0.0003 9.4199 0.0001
# 3 12.7923 27.0926 99.7457 -0.0011 23.4665 0.0002
# 4 -0.0002 -0.0003 -0.0011 23.7806 0.0003 8.8491
# 5 19.4809 9.4199 23.4665 0.0003 33.1718 0.0000
# 6 0.0000 0.0001 0.0002 8.8491 0.0000 31.0355
#
#
#
# Elastic Compliance Matrix: (Units=1/GPa)
#
#
# Indices 1 2 3 4 5 6 
#
# 1 0.015110 -0.005984 0.001650 0.000000 -0.008342 0.000000
# 2 -0.005984 0.029010 -0.007199 0.000000 0.000369 0.000000
# 3 0.001650 -0.007199 0.013816 0.000001 -0.008698 0.000000
# 4 0.000000 0.000000 0.000001 0.047042 -0.000001 -0.013413
# 5 -0.008342 0.000369 -0.008698 -0.000001 0.041094 0.000000
# 6 0.000000 0.000000 0.000000 -0.013413 0.000000 0.036046
#
#
# Mechanical properties :
#
#
# Convention : Reuss Voigt Hill
#
# Bulk Modulus (GPa) = 28.67828 38.73090 33.70459
# Shear Modulus (GPa) = 23.06199 28.82805 25.94502
#
# Velocity S-wave (km/s) = 3.21518 3.59471 3.41023
# Velocity P-wave (km/s) = 5.16120 5.88134 5.53300
#
# Compressibility (1/GPa) = 0.03486959
#
# Stress axis : x y z
#
# Youngs Moduli (GPa) = 66.17980 34.47092 72.38201
#
# Poissons Ratio (x) = 0.20628 -0.11944
# Poissons Ratio (y) = 0.39604 0.52107
# Poissons Ratio (z) = -0.10920 0.24815
#
# Static dielectric constant tensor:
#      x y z
#    x 1.920440 0.000000 -0.048070 
#    y 0.000000 1.893250 0.000000 
#    z -0.048070 0.000000 1.874760 
# 
# From -- ./inp_files/57120.got.cif
#   From: 2010.05.17/outbox.cif.g08.bks.cpg/sg5_29_cif.got.tgz:57120.got - 2010.06.03 18:56:24.
