data_PCOD9125554
_publ_section_title
;
Structure prediction by ZEFSAII (Michael W. Deem and Ramdas Pophale) SiO2 
 PCOD9125554
Probable space group: C 2
;
_chemical_formula_sum "Si O2"
_cell_formula_units_Z 18
_cell_length_a 8.079403
_cell_length_b 16.377393
_cell_length_c 8.639211
_cell_angle_alpha 90.000000
_cell_angle_beta 52.848080
_cell_angle_gamma 90.000000
_cell_volume 911.122140
_symmetry_space_group_name_H-M "C 2"
_symmetry_group_IT_number 5
_symmetry_cell_setting 'monoclinic'
loop_
_space_group_symop_operation_xyz
x,y,z
-x,y,-z
1/2+x,1/2+y,z
1/2-x,1/2+y,-z
loop_
_atom_site_type_symbol
_atom_site_label
_atom_site_fract_x
_atom_site_fract_y
_atom_site_fract_z
Si Si1 0.842182 0.411860 0.456548
Si Si2 0.309971 0.044916 0.212191
Si Si3 0.444492 0.447757 0.853838
Si Si4 0.500000 0.198998 0.000000
Si Si5 0.121444 0.306906 0.082612
O O1 0.801875 0.486358 0.362616
O O2 0.627200 0.397330 0.666915
O O3 0.000000 0.439313 0.500000
O O4 0.950845 0.336653 0.305494
O O5 0.110225 0.027310 0.217649
O O6 0.500000 0.015183 0.000000
O O7 0.382520 0.138550 0.189272
O O8 0.500000 0.467285 0.000000
O O9 0.247515 0.388537 0.967221
O O10 0.691743 0.249754 0.961604
O O11 0.000000 0.275185 0.000000
#
# Coordination Sequence:
#
# PCOD9125554 Si02
#       5
#     4   4   4   2   4
#     4  12  21  38  70  98 123 172 227 269 327 384
#     4  10  21  42  63  93 134 167 219 266 326 390
#     4  12  21  39  71  97 127 170 223 282 323 382
#     4  10  24  44  66  94 146 174 210 272 336 396
#     4  12  22  42  68  98 135 172 217 276 329 394
#
# _framework density 19.755859000000001
#
# number of rings (size 3 to 8) (size 9 to 14) (size 15 to 20)
#    0.667    0.000    7.778    0.667    0.000    0.889 
#    0.000    6.667    0.000    0.000    0.000    0.000 
#    0.000    0.000    0.000    0.000    0.000    0.000 
#
# Total GULP energy -50100.459284 kJ/mol
# GULP energy per Si atom -5566.717698 kJ/mol
# Density = 1.971089 g / cm^3
# Si number density = 19.755859 Si / 1000 Ang^3
#
#
#
# Elastic Constant Matrix: (Units=GPa)
#
#
# Indices 1 2 3 4 5 6 
#
# 1 146.7199 50.6042 43.1670 0.0000 13.3315 0.0000
# 2 50.6042 78.4059 10.7170 0.0000 8.8658 0.0000
# 3 43.1670 10.7170 105.9136 0.0000 -3.2336 0.0000
# 4 0.0000 0.0000 0.0000 2.1700 0.0000 -14.4729
# 5 13.3315 8.8658 -3.2336 0.0000 38.9502 0.0000
# 6 0.0000 0.0000 0.0000 -14.4729 0.0000 30.0191
#
#
#
# Elastic Compliance Matrix: (Units=1/GPa)
#
#
# Indices 1 2 3 4 5 6 
#
# 1 0.010075 -0.005734 -0.003600 0.000000 -0.002442 0.000000
# 2 -0.005734 0.016571 0.000607 0.000000 -0.001759 0.000000
# 3 -0.003600 0.000607 0.010909 0.000000 0.002000 0.000000
# 4 0.000000 0.000000 0.000000 -0.207999 0.000000 -0.100281
# 5 -0.002442 -0.001759 0.002000 0.000000 0.027076 0.000000
# 6 0.000000 0.000000 0.000000 -0.100281 0.000000 -0.015036
#
#
# Mechanical properties :
#
#
# Convention : Reuss Voigt Hill
#
# Bulk Modulus (GPa) = 49.75498 60.00175 54.87837
# Shear Modulus (GPa) = -37.24422 29.33128 -3.95647
#
# Velocity S-wave (km/s) = -4.34663 3.85734 -1.41670
# Velocity P-wave (km/s) = 0.22071 7.09058 5.01623
#
# Compressibility (1/GPa) = 0.02009849
#
# Stress axis : x y z
#
# Youngs Moduli (GPa) = 99.25990 60.34670 91.66949
#
# Poissons Ratio (x) = 0.34603 0.33005
# Poissons Ratio (y) = 0.56916 -0.05560
# Poissons Ratio (z) = 0.35738 -0.03660
#
# Static dielectric constant tensor:
#      x y z
#    x 1.836370 0.000000 -0.071030 
#    y 0.000000 1.731150 0.000000 
#    z -0.071030 0.000000 1.767500 
# 
# From -- ./inp_files/15485.got.cif
#   From: 2010.05.17/outbox.cif.g08.bks.cpg/sg5_8_cif.got.tgz:15485.got - 2010.06.03 18:56:24.
