data_PCOD9125100
_publ_section_title
;
Structure prediction by ZEFSAII (Michael W. Deem and Ramdas Pophale) SiO2 
 PCOD9125100
Probable space group: C 2
;
_chemical_formula_sum "Si O2"
_cell_formula_units_Z 26
_cell_length_a 13.272227
_cell_length_b 15.285195
_cell_length_c 7.889463
_cell_angle_alpha 90.000000
_cell_angle_beta 41.703647
_cell_angle_gamma 90.000000
_cell_volume 1064.793303
_symmetry_space_group_name_H-M "C 2"
_symmetry_group_IT_number 5
_symmetry_cell_setting 'monoclinic'
loop_
_space_group_symop_operation_xyz
x,y,z
-x,y,-z
1/2+x,1/2+y,z
1/2-x,1/2+y,-z
loop_
_atom_site_type_symbol
_atom_site_label
_atom_site_fract_x
_atom_site_fract_y
_atom_site_fract_z
Si Si1 0.000000 0.181401 0.000000
Si Si2 0.717719 0.262129 0.859481
Si Si3 0.378834 0.970586 0.390466
Si Si4 0.698501 0.625059 0.030608
Si Si5 0.232177 0.808249 0.448265
Si Si6 0.792135 0.444095 0.887157
Si Si7 0.500000 0.217913 0.500000
Si Si8 0.000000 0.618505 0.000000
O O1 0.061603 0.121633 0.071424
O O2 0.136967 0.245122 0.782175
O O3 0.727711 0.292202 0.654832
O O4 0.708397 0.351250 0.979731
O O5 0.845266 0.204182 0.789137
O O6 0.597538 0.184186 0.989488
O O7 0.285387 0.908476 0.380884
O O8 0.307733 0.976175 0.669221
O O9 0.543743 0.930313 0.232819
O O10 0.408759 0.059197 0.248798
O O11 0.722209 0.527553 0.069268
O O12 0.857817 0.658031 0.741347
O O13 0.082227 0.779643 0.536453
#
# Coordination Sequence:
#
# PCOD9125100 Si02
#       8
#     2   4   4   4   4   4   2   2
#     4  10  23  37  66  94 138 184 228 286 354 420
#     4  11  24  39  68 102 141 176 247 297 345 413
#     4  10  21  39  69  97 134 183 240 281 350 433
#     4  11  22  42  67  96 136 194 237 290 354 431
#     4  10  22  42  67 105 140 187 234 295 351 426
#     4  10  22  41  66  97 135 191 233 285 359 432
#     4  10  22  40  70 100 144 186 238 288 360 426
#     4  12  23  39  70 108 138 186 236 302 344 430
#
# _framework density 24.417885999999999
#
# number of rings (size 3 to 8) (size 9 to 14) (size 15 to 20)
#    0.000    1.538    1.538    3.231    4.308    3.692 
#    0.000    0.000    0.000    0.000    0.000    0.000 
#    0.000    0.000    0.000    0.000    0.000    0.000 
#
# Total GULP energy -72558.200118 kJ/mol
# GULP energy per Si atom -5581.400009 kJ/mol
# Density = 2.436231 g / cm^3
# Si number density = 24.417886 Si / 1000 Ang^3
#
#
#
# Elastic Constant Matrix: (Units=GPa)
#
#
# Indices 1 2 3 4 5 6 
#
# 1 131.6101 49.0306 13.9112 0.0000 -7.2047 0.0000
# 2 49.0306 197.7747 31.5806 0.0000 -7.2262 0.0000
# 3 13.9112 31.5806 48.1197 0.0000 -8.7829 0.0000
# 4 0.0000 0.0000 0.0000 27.2070 0.0000 -7.8650
# 5 -7.2047 -7.2262 -8.7829 0.0000 24.2485 0.0000
# 6 0.0000 0.0000 0.0000 -7.8650 0.0000 45.6699
#
#
#
# Elastic Compliance Matrix: (Units=1/GPa)
#
#
# Indices 1 2 3 4 5 6 
#
# 1 0.008491 -0.001900 -0.000911 0.000000 0.001627 0.000000
# 2 -0.001900 0.006076 -0.003438 0.000000 0.000001 0.000000
# 3 -0.000911 -0.003438 0.024698 0.000000 0.007650 0.000000
# 4 0.000000 0.000000 0.000000 0.038681 0.000000 0.006661
# 5 0.001627 0.000001 0.007650 0.000000 0.044494 0.000000
# 6 0.000000 0.000000 0.000000 0.006661 0.000000 0.023043
#
#
# Mechanical properties :
#
#
# Convention : Reuss Voigt Hill
#
# Bulk Modulus (GPa) = 37.35977 62.94994 50.15486
# Shear Modulus (GPa) = 29.95707 38.29054 34.12380
#
# Velocity S-wave (km/s) = 3.50644 3.96426 3.74236
# Velocity P-wave (km/s) = 5.63266 6.84033 6.26566
#
# Compressibility (1/GPa) = 0.02676676
#
# Stress axis : x y z
#
# Youngs Moduli (GPa) = 117.76545 164.57031 40.48943
#
# Poissons Ratio (x) = 0.31273 0.03688
# Poissons Ratio (y) = 0.22378 0.13922
# Poissons Ratio (z) = 0.10726 0.56586
#
# Static dielectric constant tensor:
#      x y z
#    x 2.156240 0.000000 0.100230 
#    y 0.000000 1.940600 0.000000 
#    z 0.100230 0.000000 2.032180 
# 
# From -- ./inp_files/24806.got.cif
#   From: 2010.05.17/outbox.cif.g08.bks.cpg/sg5_13_cif.got.tgz:24806.got - 2010.06.03 18:56:24.
