data_PCOD9125021
_publ_section_title
;
Structure prediction by ZEFSAII (Michael W. Deem and Ramdas Pophale) SiO2 
 PCOD9125021
Probable space group: C 2
;
_chemical_formula_sum "Si O2"
_cell_formula_units_Z 26
_cell_length_a 8.523586
_cell_length_b 18.206260
_cell_length_c 11.670050
_cell_angle_alpha 90.000000
_cell_angle_beta 38.194453
_cell_angle_gamma 90.000000
_cell_volume 1119.792994
_symmetry_space_group_name_H-M "C 2"
_symmetry_group_IT_number 5
_symmetry_cell_setting 'monoclinic'
loop_
_space_group_symop_operation_xyz
x,y,z
-x,y,-z
1/2+x,1/2+y,z
1/2-x,1/2+y,-z
loop_
_atom_site_type_symbol
_atom_site_label
_atom_site_fract_x
_atom_site_fract_y
_atom_site_fract_z
Si Si1 0.068820 0.226260 0.736186
Si Si2 0.537967 0.558330 0.713574
Si Si3 0.232732 0.292020 0.285139
Si Si4 0.000000 0.552751 0.000000
Si Si5 0.936662 0.731102 0.712485
Si Si6 0.413343 0.076770 0.301849
Si Si7 0.245674 0.461902 0.219842
O O1 0.009110 0.139774 0.781602
O O2 0.182604 0.254854 0.791349
O O3 0.316885 0.238484 0.512216
O O4 0.831991 0.259291 0.802581
O O5 0.652809 0.572904 0.522156
O O6 0.725132 0.512275 0.684836
O O7 0.269790 0.515826 0.870477
O O8 0.480889 0.269408 0.215930
O O9 0.212546 0.378936 0.278590
O O10 0.000000 0.266424 0.500000
O O11 0.919701 0.593031 0.163315
O O12 0.924736 0.643366 0.738552
O O13 0.533840 0.997869 0.260551
O O14 0.500000 0.467021 0.000000
#
# Coordination Sequence:
#
# PCOD9125021 Si02
#       7
#     4   4   4   2   4   4   4
#     4   9  18  37  67  99 131 175 231 282 338 414
#     4  11  22  42  70  99 136 180 226 283 348 405
#     4  10  21  39  64  97 137 178 224 280 348 411
#     4  12  24  38  62 104 138 164 226 288 332 406
#     4   9  18  37  67  99 131 175 231 282 338 414
#     4  11  22  42  70  99 136 180 226 283 348 405
#     4  12  24  45  65  95 139 186 230 282 338 415
#
# _framework density 23.218577
#
# number of rings (size 3 to 8) (size 9 to 14) (size 15 to 20)
#    0.000    1.538    3.077    2.769    0.000    2.462 
#    8.308    0.000    0.000    0.000    0.000    0.000 
#    0.000    0.000    0.000    0.000    0.000    0.000 
#
# Total GULP energy -72519.145928 kJ/mol
# GULP energy per Si atom -5578.395841 kJ/mol
# Density = 2.316573 g / cm^3
# Si number density = 23.218577 Si / 1000 Ang^3
#
#
#
# Elastic Constant Matrix: (Units=GPa)
#
#
# Indices 1 2 3 4 5 6 
#
# 1 200.9451 63.8833 34.8139 -0.0013 11.2874 0.0006
# 2 63.8833 102.8900 -19.2882 -0.0006 5.1270 0.0002
# 3 34.8139 -19.2882 122.0184 -0.0001 15.9980 0.0003
# 4 -0.0013 -0.0006 -0.0001 -118.0445 0.0005 46.5972
# 5 11.2874 5.1270 15.9980 0.0005 33.3880 -0.0004
# 6 0.0006 0.0002 0.0003 46.5972 -0.0004 10.7151
#
#
#
# Elastic Compliance Matrix: (Units=1/GPa)
#
#
# Indices 1 2 3 4 5 6 
#
# 1 0.007006 -0.004845 -0.002723 0.000000 -0.000320 0.000000
# 2 -0.004845 0.013557 0.003824 0.000000 -0.002276 0.000000
# 3 -0.002723 0.003824 0.010172 0.000000 -0.004541 0.000000
# 4 0.000000 0.000000 0.000000 -0.003118 0.000000 0.013561
# 5 -0.000320 -0.002276 -0.004541 0.000000 0.032584 0.000000
# 6 0.000000 0.000000 0.000000 0.013561 0.000000 0.034354
#
#
# Mechanical properties :
#
#
# Convention : Reuss Voigt Hill
#
# Bulk Modulus (GPa) = 43.01381 64.96349 53.98865
# Shear Modulus (GPa) = 45.54040 8.30802 26.92421
#
# Velocity S-wave (km/s) = 4.43355 1.89366 3.40898
# Velocity P-wave (km/s) = 6.69136 5.72897 6.22878
#
# Compressibility (1/GPa) = 0.02324835
#
# Stress axis : x y z
#
# Youngs Moduli (GPa) = 142.72652 73.76049 98.30741
#
# Poissons Ratio (x) = 0.35735 0.26768
# Poissons Ratio (y) = 0.69147 -0.37591
# Poissons Ratio (z) = 0.38863 -0.28205
#
# Static dielectric constant tensor:
#      x y z
#    x 2.011420 0.000000 0.015240 
#    y 0.000000 1.797800 0.000000 
#    z 0.015240 0.000000 1.902160 
# 
# From -- ./inp_files/37275.got.cif
#   From: 2010.05.17/outbox.cif.g08.bks.cpg/sg5_19_cif.got.tgz:37275.got - 2010.06.03 18:56:24.
