data_PCOD9125617
_publ_section_title
;
Structure prediction by ZEFSAII (Michael W. Deem and Ramdas Pophale) SiO2 
 PCOD9125617
Probable space group: C 2
;
_chemical_formula_sum "Si O2"
_cell_formula_units_Z 32
_cell_length_a 29.126527
_cell_length_b 5.736603
_cell_length_c 19.948973
_cell_angle_alpha 90.000000
_cell_angle_beta 154.313686
_cell_angle_gamma 90.000000
_cell_volume 1444.763870
_symmetry_space_group_name_H-M "C 2"
_symmetry_group_IT_number 5
_symmetry_cell_setting 'monoclinic'
loop_
_space_group_symop_operation_xyz
x,y,z
-x,y,-z
1/2+x,1/2+y,z
1/2-x,1/2+y,-z
loop_
_atom_site_type_symbol
_atom_site_label
_atom_site_fract_x
_atom_site_fract_y
_atom_site_fract_z
Si Si1 0.036861 0.555610 0.292426
Si Si2 0.605697 0.660396 0.482440
Si Si3 0.760574 0.206656 0.910268
Si Si4 0.245662 0.761153 0.532425
Si Si5 0.891432 0.540198 0.982922
Si Si6 0.279014 0.938141 0.264163
Si Si7 0.692043 0.831889 0.249336
Si Si8 0.102673 0.884494 0.812899
O O1 0.937091 0.648307 0.203573
O O2 0.081901 0.325513 0.387085
O O3 0.130494 0.742822 0.415944
O O4 0.999145 0.548826 0.166079
O O5 0.623448 0.806670 0.573604
O O6 0.719520 0.534970 0.627232
O O7 0.504017 0.498176 0.355822
O O8 0.819977 0.376945 0.937027
O O9 0.687474 0.335876 0.867259
O O10 0.693488 0.046768 0.771339
O O11 0.844554 0.051643 0.062080
O O12 0.250903 0.511993 0.500122
O O13 0.329898 0.754280 0.704024
O O14 0.824535 0.777429 0.886341
O O15 0.898060 0.429812 0.918005
O O16 0.245026 0.125506 0.275793
#
# Coordination Sequence:
#
# PCOD9125617 Si02
#       8
#     4   4   4   4   4   4   4   4
#     4  12  23  44  71 102 130 192 234 287 358 435
#     4  11  21  41  70  93 134 185 237 286 345 433
#     4  11  24  39  62 102 136 183 239 289 346 399
#     4  12  27  46  79 108 141 180 242 307 365 437
#     4  10  22  41  71  95 138 186 230 280 349 429
#     4  10  21  42  67  94 136 181 230 285 350 422
#     4  10  22  44  69 100 136 183 220 291 367 423
#     4  12  24  39  67  96 139 185 240 293 342 423
#
# _framework density 22.148949000000002
#
# number of rings (size 3 to 8) (size 9 to 14) (size 15 to 20)
#    0.000    1.000    5.000    1.500    1.750    0.000 
#    0.000   15.625    0.000    0.000    0.000    0.000 
#    0.000    0.000    0.000    0.000    0.000    0.000 
#
# Total GULP energy -89350.577045 kJ/mol
# GULP energy per Si atom -5584.411065 kJ/mol
# Density = 2.209854 g / cm^3
# Si number density = 22.148949 Si / 1000 Ang^3
#
#
#
# Elastic Constant Matrix: (Units=GPa)
#
#
# Indices 1 2 3 4 5 6 
#
# 1 67.2083 22.9075 11.0970 0.0000 -16.5622 0.0000
# 2 22.9075 87.2261 34.0110 0.0003 -17.5490 0.0001
# 3 11.0970 34.0110 131.8766 0.0000 -35.7974 0.0000
# 4 0.0000 0.0003 0.0000 54.8102 0.0000 -10.9331
# 5 -16.5622 -17.5490 -35.7974 0.0000 36.8366 0.0000
# 6 0.0000 0.0001 0.0000 -10.9331 0.0000 30.1091
#
#
#
# Elastic Compliance Matrix: (Units=1/GPa)
#
#
# Indices 1 2 3 4 5 6 
#
# 1 0.017801 -0.003726 0.001567 0.000000 0.007751 0.000000
# 2 -0.003726 0.013955 -0.002629 0.000000 0.002418 0.000000
# 3 0.001567 -0.002629 0.010840 0.000000 0.009986 0.000000
# 4 0.000000 0.000000 0.000000 0.019669 0.000000 0.007142
# 5 0.007751 0.002418 0.009986 0.000000 0.041488 0.000000
# 6 0.000000 0.000000 0.000000 0.007142 0.000000 0.035806
#
#
# Mechanical properties :
#
#
# Convention : Reuss Voigt Hill
#
# Bulk Modulus (GPa) = 30.28640 46.92691 38.60666
# Shear Modulus (GPa) = 31.22249 38.90422 35.06336
#
# Velocity S-wave (km/s) = 3.75862 4.19559 3.98310
# Velocity P-wave (km/s) = 5.70438 6.68607 6.21464
#
# Compressibility (1/GPa) = 0.03301812
#
# Stress axis : x y z
#
# Youngs Moduli (GPa) = 56.17795 71.66076 92.25380
#
# Poissons Ratio (x) = 0.26704 -0.14458
# Poissons Ratio (y) = 0.20935 0.24254
# Poissons Ratio (z) = -0.08804 0.18840
#
# Static dielectric constant tensor:
#      x y z
#    x 1.818510 0.000000 -0.035400 
#    y 0.000000 1.899260 0.000000 
#    z -0.035400 0.000000 1.831720 
# 
# From -- ./inp_files/63744.got.cif
#   From: 2010.05.17/outbox.cif.g08.bks.cpg/sg5_32_cif.got.tgz:63744.got - 2010.06.03 18:56:24.
