data_PCOD9125245
_publ_section_title
;
Structure prediction by ZEFSAII (Michael W. Deem and Ramdas Pophale) SiO2 
 PCOD9125245
Probable space group: C 2
;
_chemical_formula_sum "Si O2"
_cell_formula_units_Z 28
_cell_length_a 9.098528
_cell_length_b 19.398793
_cell_length_c 14.414808
_cell_angle_alpha 90.000000
_cell_angle_beta 30.125210
_cell_angle_gamma 90.000000
_cell_volume 1276.922149
_symmetry_space_group_name_H-M "C 2"
_symmetry_group_IT_number 5
_symmetry_cell_setting 'monoclinic'
loop_
_space_group_symop_operation_xyz
x,y,z
-x,y,-z
1/2+x,1/2+y,z
1/2-x,1/2+y,-z
loop_
_atom_site_type_symbol
_atom_site_label
_atom_site_fract_x
_atom_site_fract_y
_atom_site_fract_z
Si Si1 0.190725 0.803560 0.624893
Si Si2 0.518408 0.861346 0.697774
Si Si3 0.847184 0.126721 0.179227
Si Si4 0.702083 0.878695 0.977739
Si Si5 0.158802 0.203565 0.173577
Si Si6 0.193968 0.143961 0.475796
Si Si7 0.734179 0.475625 0.718428
O O1 0.500000 0.828516 0.500000
O O2 0.192625 0.843631 0.523919
O O3 0.226801 0.722324 0.595333
O O4 0.915211 0.813144 0.843026
O O5 0.384069 0.783542 0.772925
O O6 0.354338 0.924696 0.735035
O O7 0.482542 0.879304 0.826449
O O8 0.501774 0.118763 0.345926
O O9 0.974510 0.183165 0.181900
O O10 0.905035 0.048696 0.178183
O O11 0.000000 0.143540 0.000000
O O12 0.953718 0.935702 0.833406
O O13 0.500000 0.883206 0.000000
O O14 0.017624 0.151399 0.323076
O O15 0.500000 0.191078 0.000000
O O16 0.000000 0.110653 0.500000
O O17 0.000000 0.485194 0.500000
#
# Coordination Sequence:
#
# PCOD9125245 Si02
#       7
#     4   4   4   4   4   4   4
#     4  10  21  40  65  99 134 184 221 287 348 422
#     4  11  23  42  72  96 140 185 237 283 355 415
#     4  12  27  45  72 102 142 191 238 293 360 437
#     4  12  25  38  66 104 135 176 234 292 343 420
#     4  11  24  41  68 105 141 186 235 297 352 423
#     4  10  23  42  67  99 139 176 235 289 357 414
#     4  12  24  50  72  94 138 193 237 285 362 430
#
# _framework density 21.927724999999999
#
# number of rings (size 3 to 8) (size 9 to 14) (size 15 to 20)
#    0.000    0.857    2.857    4.286    8.000    1.143 
#    0.000    4.286    0.000    0.000    0.000    0.000 
#    0.000    0.000    0.000    0.000    0.000    0.000 
#
# Total GULP energy -77974.313270 kJ/mol
# GULP energy per Si atom -5569.593805 kJ/mol
# Density = 2.187782 g / cm^3
# Si number density = 21.927725 Si / 1000 Ang^3
#
#
#
# Elastic Constant Matrix: (Units=GPa)
#
#
# Indices 1 2 3 4 5 6 
#
# 1 117.9558 5.1889 36.9541 -0.0211 9.6889 0.0087
# 2 5.1889 33.9981 -7.3225 -0.0140 -0.1893 0.0078
# 3 36.9541 -7.3225 60.0070 -0.0581 5.8011 0.0183
# 4 -0.0211 -0.0140 -0.0581 24.0958 0.0244 3.8585
# 5 9.6889 -0.1893 5.8011 0.0244 44.5063 -0.0106
# 6 0.0087 0.0078 0.0183 3.8585 -0.0106 9.9767
#
#
#
# Elastic Compliance Matrix: (Units=1/GPa)
#
#
# Indices 1 2 3 4 5 6 
#
# 1 0.010923 -0.003177 -0.006971 -0.000009 -0.001483 0.000008
# 2 -0.003177 0.031137 0.005749 0.000036 0.000075 -0.000046
# 3 -0.006971 0.005749 0.021785 0.000061 -0.001298 -0.000064
# 4 -0.000009 0.000036 0.000061 0.044241 -0.000034 -0.017110
# 5 -0.001483 0.000075 -0.001298 -0.000034 0.022961 0.000041
# 6 0.000008 -0.000046 -0.000064 -0.017110 0.000041 0.106851
#
#
# Mechanical properties :
#
#
# Convention : Reuss Voigt Hill
#
# Bulk Modulus (GPa) = 18.16647 31.28909 24.72778
# Shear Modulus (GPa) = 18.86471 27.52513 23.19492
#
# Velocity S-wave (km/s) = 2.93629 3.54682 3.25590
# Velocity P-wave (km/s) = 4.44954 5.57435 5.04340
#
# Compressibility (1/GPa) = 0.05504647
#
# Stress axis : x y z
#
# Youngs Moduli (GPa) = 91.54744 32.11622 45.90346
#
# Poissons Ratio (x) = 0.10203 0.32000
# Poissons Ratio (y) = 0.29083 -0.26389
# Poissons Ratio (z) = 0.63820 -0.18463
#
# Static dielectric constant tensor:
#      x y z
#    x 1.932330 0.000010 -0.006680 
#    y 0.000010 1.806510 -0.000020 
#    z -0.006680 -0.000020 1.885330 
# 
# From -- ./inp_files/51608.got.cif
#   From: 2010.05.17/outbox.cif.g08.bks.cpg/sg5_26_cif.got.tgz:51608.got - 2010.06.03 18:56:24.
