data_PCOD9125646
_publ_section_title
;
Structure prediction by ZEFSAII (Michael W. Deem and Ramdas Pophale) SiO2 
 PCOD9125646
Probable space group: C 2
;
_chemical_formula_sum "Si O2"
_cell_formula_units_Z 20
_cell_length_a 11.641869
_cell_length_b 7.591265
_cell_length_c 9.535041
_cell_angle_alpha 90.000000
_cell_angle_beta 73.886168
_cell_angle_gamma 90.000000
_cell_volume 809.566859
_symmetry_space_group_name_H-M "C 2"
_symmetry_group_IT_number 5
_symmetry_cell_setting 'monoclinic'
loop_
_space_group_symop_operation_xyz
x,y,z
-x,y,-z
1/2+x,1/2+y,z
1/2-x,1/2+y,-z
loop_
_atom_site_type_symbol
_atom_site_label
_atom_site_fract_x
_atom_site_fract_y
_atom_site_fract_z
Si Si1 0.688109 0.383270 0.879840
Si Si2 0.186786 0.136906 0.366374
Si Si3 0.456301 0.509845 0.823650
Si Si4 0.601152 0.982963 0.550517
Si Si5 0.054668 0.418644 0.125629
O O1 0.726778 0.205453 0.788266
O O2 0.595498 0.473346 0.803146
O O3 0.813572 0.480530 0.871512
O O4 0.617436 0.378423 0.050880
O O5 0.091877 0.013457 0.318562
O O6 0.124415 0.309025 0.450708
O O7 0.270185 0.061142 0.458755
O O8 0.431320 0.706329 0.890959
O O9 0.500000 0.090873 0.500000
O O10 0.540297 0.944768 0.719575
O O11 0.000000 0.487826 0.000000
#
# Coordination Sequence:
#
# PCOD9125646 Si02
#       5
#     4   4   4   4   4
#     4  10  21  42  69 104 140 184 236 281 362 414
#     4  11  27  45  72 105 140 192 241 292 359 426
#     4  10  21  43  69 100 140 187 231 293 352 408
#     4  12  26  47  71 106 144 190 238 293 363 421
#     4  11  22  42  71 102 140 191 233 293 349 420
#
# _framework density 24.70457
#
# number of rings (size 3 to 8) (size 9 to 14) (size 15 to 20)
#    0.000    1.200    6.000    1.200    2.800    1.600 
#   18.000    0.000    0.000    0.000    0.000    0.000 
#    0.000    0.000    0.000    0.000    0.000    0.000 
#
# Total GULP energy -55897.982267 kJ/mol
# GULP energy per Si atom -5589.798227 kJ/mol
# Density = 2.464834 g / cm^3
# Si number density = 24.704570 Si / 1000 Ang^3
#
#
#
# Elastic Constant Matrix: (Units=GPa)
#
#
# Indices 1 2 3 4 5 6 
#
# 1 213.5722 36.8287 35.4034 0.0000 44.9111 0.0000
# 2 36.8287 36.7930 8.6921 0.0000 9.0309 0.0000
# 3 35.4034 8.6921 101.9675 0.0000 13.2043 0.0000
# 4 0.0000 0.0000 0.0000 38.3783 0.0000 4.7204
# 5 44.9111 9.0309 13.2043 0.0000 57.7866 0.0000
# 6 0.0000 0.0000 0.0000 4.7204 0.0000 38.5810
#
#
#
# Elastic Compliance Matrix: (Units=1/GPa)
#
#
# Indices 1 2 3 4 5 6 
#
# 1 0.006683 -0.005380 -0.001338 0.000000 -0.004047 0.000000
# 2 -0.005380 0.032953 -0.000841 0.000000 -0.000777 0.000000
# 3 -0.001338 -0.000841 0.010502 0.000000 -0.001229 0.000000
# 4 0.000000 0.000000 0.000000 0.026454 0.000000 -0.003237
# 5 -0.004047 -0.000777 -0.001229 0.000000 0.020853 0.000000
# 6 0.000000 0.000000 0.000000 -0.003237 0.000000 0.026316
#
#
# Mechanical properties :
#
#
# Convention : Reuss Voigt Hill
#
# Bulk Modulus (GPa) = 28.55314 57.13123 42.84218
# Shear Modulus (GPa) = 33.21123 45.04308 39.12715
#
# Velocity S-wave (km/s) = 3.67050 4.27461 3.98402
# Velocity P-wave (km/s) = 5.43565 6.89485 6.20827
#
# Compressibility (1/GPa) = 0.03502242
#
# Stress axis : x y z
#
# Youngs Moduli (GPa) = 149.63779 30.34586 95.21775
#
# Poissons Ratio (x) = 0.16326 0.12736
# Poissons Ratio (y) = 0.80503 0.08004
# Poissons Ratio (z) = 0.20015 0.02551
#
# Static dielectric constant tensor:
#      x y z
#    x 2.120280 0.000000 0.029760 
#    y 0.000000 1.985720 0.000000 
#    z 0.029760 0.000000 1.961750 
# 
# From -- ./inp_files/18257.got.cif
#   From: 2010.05.17/outbox.cif.g08.bks.cpg/sg5_10_cif.got.tgz:18257.got - 2010.06.03 18:56:24.
