data_PCOD9125095
_publ_section_title
;
Structure prediction by ZEFSAII (Michael W. Deem and Ramdas Pophale) SiO2 
 PCOD9125095
Probable space group: C 2
;
_chemical_formula_sum "Si O2"
_cell_formula_units_Z 16
_cell_length_a 12.230630
_cell_length_b 8.459001
_cell_length_c 7.110235
_cell_angle_alpha 90.000000
_cell_angle_beta 51.864507
_cell_angle_gamma 90.000000
_cell_volume 578.601626
_symmetry_space_group_name_H-M "C 2"
_symmetry_group_IT_number 5
_symmetry_cell_setting 'monoclinic'
loop_
_space_group_symop_operation_xyz
x,y,z
-x,y,-z
1/2+x,1/2+y,z
1/2-x,1/2+y,-z
loop_
_atom_site_type_symbol
_atom_site_label
_atom_site_fract_x
_atom_site_fract_y
_atom_site_fract_z
Si Si1 0.051764 0.137860 0.637274
Si Si2 0.285074 0.348289 0.425521
Si Si3 0.451833 0.170255 0.768286
Si Si4 0.810325 0.346285 0.040757
O O1 0.000000 0.055173 0.500000
O O2 0.151134 0.282158 0.460862
O O3 0.921200 0.209420 0.881512
O O4 0.143891 0.019055 0.664344
O O5 0.409294 0.222867 0.272909
O O6 0.618521 0.009080 0.092934
O O7 0.226989 0.350048 0.700461
O O8 0.500000 0.155345 0.500000
O O9 0.334071 0.305090 0.908612
#
# Coordination Sequence:
#
# PCOD9125095 Si02
#       4
#     4   4   4   4
#     4  12  25  46  72 100 138 180 225 280 338 400
#     4  11  25  45  68 100 139 178 226 281 336 401
#     4  10  21  39  69 104 138 179 227 279 337 402
#     4  11  22  42  69 100 138 179 226 280 337 401
#
# _framework density 27.65288
#
# number of rings (size 3 to 8) (size 9 to 14) (size 15 to 20)
#    0.000    1.000    0.000    8.250    0.000    2.000 
#    0.000   15.000    0.000    0.000    0.000    0.000 
#    0.000    0.000    0.000    0.000    0.000    0.000 
#
# Total GULP energy -44956.993582 kJ/mol
# GULP energy per Si atom -5619.624198 kJ/mol
# Density = 2.758994 g / cm^3
# Si number density = 27.652880 Si / 1000 Ang^3
#
#
#
# Elastic Constant Matrix: (Units=GPa)
#
#
# Indices 1 2 3 4 5 6 
#
# 1 96.2906 28.8384 33.6407 0.0000 -32.3162 0.0000
# 2 28.8384 159.8057 69.9850 0.0000 -23.2419 0.0000
# 3 33.6407 69.9850 186.1483 0.0000 -31.1715 0.0000
# 4 0.0000 0.0000 0.0000 79.0110 0.0000 -24.4325
# 5 -32.3162 -23.2419 -31.1715 0.0000 49.5567 0.0000
# 6 0.0000 0.0000 0.0000 -24.4325 0.0000 49.2046
#
#
#
# Elastic Compliance Matrix: (Units=1/GPa)
#
#
# Indices 1 2 3 4 5 6 
#
# 1 0.013606 -0.000965 -0.000767 0.000000 0.007938 0.000000
# 2 -0.000965 0.007731 -0.002493 0.000000 0.001428 0.000000
# 3 -0.000767 -0.002493 0.006895 0.000000 0.002667 0.000000
# 4 0.000000 0.000000 0.000000 0.014952 0.000000 0.007425
# 5 0.007938 0.001428 0.002667 0.000000 0.027703 0.000000
# 6 0.000000 0.000000 0.000000 0.007425 0.000000 0.024010
#
#
# Mechanical properties :
#
#
# Convention : Reuss Voigt Hill
#
# Bulk Modulus (GPa) = 50.55079 78.57473 64.56276
# Shear Modulus (GPa) = 45.47877 56.20650 50.84264
#
# Velocity S-wave (km/s) = 4.05980 4.51330 4.29254
# Velocity P-wave (km/s) = 6.34793 7.45897 6.92576
#
# Compressibility (1/GPa) = 0.01978208
#
# Stress axis : x y z
#
# Youngs Moduli (GPa) = 73.49613 129.34392 145.04026
#
# Poissons Ratio (x) = 0.12483 0.11123
# Poissons Ratio (y) = 0.07093 0.36160
# Poissons Ratio (z) = 0.05636 0.32247
#
# Static dielectric constant tensor:
#      x y z
#    x 2.140620 0.000000 0.051120 
#    y 0.000000 2.140550 0.000000 
#    z 0.051120 0.000000 2.075030 
# 
# From -- ./inp_files/18589.got.cif
#   From: 2010.05.17/outbox.cif.g08.bks.cpg/sg5_10_cif.got.tgz:18589.got - 2010.06.03 18:56:24.
