data_PCOD9125783
_publ_section_title
;
Structure prediction by ZEFSAII (Michael W. Deem and Ramdas Pophale) SiO2 
 PCOD9125783
Probable space group: C 2
;
_chemical_formula_sum "Si O2"
_cell_formula_units_Z 20
_cell_length_a 7.498484
_cell_length_b 19.250620
_cell_length_c 8.275538
_cell_angle_alpha 90.000000
_cell_angle_beta 54.836738
_cell_angle_gamma 90.000000
_cell_volume 976.584453
_symmetry_space_group_name_H-M "C 2"
_symmetry_group_IT_number 5
_symmetry_cell_setting 'monoclinic'
loop_
_space_group_symop_operation_xyz
x,y,z
-x,y,-z
1/2+x,1/2+y,z
1/2-x,1/2+y,-z
loop_
_atom_site_type_symbol
_atom_site_label
_atom_site_fract_x
_atom_site_fract_y
_atom_site_fract_z
Si Si1 0.500000 0.866180 0.000000
Si Si2 0.699125 0.105015 0.272906
Si Si3 0.622851 0.592786 0.265436
Si Si4 0.622615 0.261342 0.263912
Si Si5 0.278270 0.479384 0.010541
Si Si6 0.000000 0.708596 0.000000
O O1 0.315121 0.816450 0.168600
O O2 0.623702 0.913926 0.066413
O O3 0.500000 0.100293 0.500000
O O4 0.701535 0.182139 0.205311
O O5 0.931036 0.099286 0.235407
O O6 0.669365 0.043339 0.162873
O O7 0.500000 0.598576 0.500000
O O8 0.801900 0.653630 0.146417
O O9 0.697163 0.514177 0.181673
O O10 0.500000 0.265970 0.500000
O O11 0.501618 0.261580 0.153644
O O12 0.500000 0.464144 0.000000
#
# Coordination Sequence:
#
# PCOD9125783 Si02
#       6
#     2   4   4   4   4   2
#     4  12  27  46  72  95 154 192 218 304 359 420
#     4  10  21  43  71 104 135 180 240 300 344 424
#     4  11  22  37  70 106 137 176 233 297 358 409
#     4  11  25  45  72 102 143 185 240 286 357 425
#     4  10  24  44  68 104 140 185 236 289 357 423
#     4  12  23  42  74 105 140 180 238 300 351 424
#
# _framework density 20.47954
#
# number of rings (size 3 to 8) (size 9 to 14) (size 15 to 20)
#    0.000    1.200    2.000    4.200    5.600    0.800 
#    3.600    0.000    0.000    0.000    0.000    0.000 
#    0.000    0.000    0.000    0.000    0.000    0.000 
#
# Total GULP energy -55709.871131 kJ/mol
# GULP energy per Si atom -5570.987113 kJ/mol
# Density = 2.043293 g / cm^3
# Si number density = 20.479540 Si / 1000 Ang^3
#
#
#
# Elastic Constant Matrix: (Units=GPa)
#
#
# Indices 1 2 3 4 5 6 
#
# 1 90.7042 52.4182 53.7765 0.0000 -0.4701 0.0000
# 2 52.4182 124.0857 65.4571 0.0000 -7.9702 0.0000
# 3 53.7765 65.4571 130.4099 0.0000 12.9736 0.0000
# 4 0.0000 0.0000 0.0000 12.8685 0.0000 -18.2691
# 5 -0.4701 -7.9702 12.9736 0.0000 33.2085 0.0000
# 6 0.0000 0.0000 0.0000 -18.2691 0.0000 46.1099
#
#
#
# Elastic Compliance Matrix: (Units=1/GPa)
#
#
# Indices 1 2 3 4 5 6 
#
# 1 0.016304 -0.004388 -0.004618 0.000000 0.000982 0.000000
# 2 -0.004388 0.012993 -0.005219 0.000000 0.005095 0.000000
# 3 -0.004618 -0.005219 0.012822 0.000000 -0.006327 0.000000
# 4 0.000000 0.000000 0.000000 0.177614 0.000000 0.070372
# 5 0.000982 0.005095 -0.006327 0.000000 0.033821 0.000000
# 6 0.000000 0.000000 0.000000 0.070372 0.000000 0.049569
#
#
# Mechanical properties :
#
#
# Convention : Reuss Voigt Hill
#
# Bulk Modulus (GPa) = 73.16524 76.50037 74.83280
# Shear Modulus (GPa) = 14.87521 30.00726 22.44123
#
# Velocity S-wave (km/s) = 2.69800 3.83199 3.31386
# Velocity P-wave (km/s) = 6.74605 7.55079 7.15974
#
# Compressibility (1/GPa) = 0.01366769
#
# Stress axis : x y z
#
# Youngs Moduli (GPa) = 61.33506 76.96453 77.99333
#
# Poissons Ratio (x) = 0.33772 0.36020
# Poissons Ratio (y) = 0.26914 0.40705
# Poissons Ratio (z) = 0.28327 0.40168
#
# Static dielectric constant tensor:
#      x y z
#    x 1.962460 0.000000 0.082460 
#    y 0.000000 1.768240 0.000000 
#    z 0.082460 0.000000 1.740210 
# 
# From -- ./inp_files/15937.got.cif
#   From: 2010.05.17/outbox.cif.g08.bks.cpg/sg5_8_cif.got.tgz:15937.got - 2010.06.03 18:56:24.
