data_PCOD9125517
_publ_section_title
;
Structure prediction by ZEFSAII (Michael W. Deem and Ramdas Pophale) SiO2 
 PCOD9125517
Probable space group: C 2
;
_chemical_formula_sum "Si O2"
_cell_formula_units_Z 32
_cell_length_a 18.870621
_cell_length_b 14.967461
_cell_length_c 12.743175
_cell_angle_alpha 90.000000
_cell_angle_beta 28.690854
_cell_angle_gamma 90.000000
_cell_volume 1727.940292
_symmetry_space_group_name_H-M "C 2"
_symmetry_group_IT_number 5
_symmetry_cell_setting 'monoclinic'
loop_
_space_group_symop_operation_xyz
x,y,z
-x,y,-z
1/2+x,1/2+y,z
1/2-x,1/2+y,-z
loop_
_atom_site_type_symbol
_atom_site_label
_atom_site_fract_x
_atom_site_fract_y
_atom_site_fract_z
Si Si1 0.653325 0.056740 0.362432
Si Si2 0.885582 0.753259 0.893045
Si Si3 0.131878 0.626889 0.627355
Si Si4 0.300973 0.713236 0.070243
Si Si5 0.660497 0.844199 0.342296
Si Si6 0.608624 0.355735 0.451685
Si Si7 0.635816 0.777787 0.609992
Si Si8 0.150335 0.449954 0.739647
O O1 0.500000 0.077463 0.500000
O O2 0.643746 0.090299 0.493662
O O3 0.780043 0.113667 0.141122
O O4 0.675711 0.951078 0.331583
O O5 0.780031 0.719573 0.936607
O O6 0.972278 0.674233 0.838942
O O7 0.009386 0.812561 0.672460
O O8 0.787545 0.807753 0.101793
O O9 0.253568 0.702157 0.492368
O O10 0.151154 0.544492 0.680655
O O11 0.212254 0.778936 0.265215
O O12 0.468308 0.744596 0.843145
O O13 0.500000 0.826127 0.500000
O O14 0.665555 0.799649 0.449858
O O15 0.500000 0.386080 0.500000
O O16 0.711747 0.432821 0.363022
O O17 0.655514 0.868971 0.649626
O O18 0.000000 0.441317 0.000000
#
# Coordination Sequence:
#
# PCOD9125517 Si02
#       8
#     4   4   4   4   4   4   4   4
#     4  11  21  42  70  99 127 171 233 276 325 403
#     4  11  22  42  69  96 133 176 220 272 336 399
#     4  12  26  43  67 101 135 177 221 274 343 395
#     4  11  20  41  72 100 127 173 231 280 321 392
#     4  11  25  43  67  98 138 178 219 276 345 402
#     4  10  21  41  71  98 126 173 226 276 325 391
#     4  12  25  44  67 100 142 174 219 281 339 395
#     4  12  25  45  67 102 137 176 226 276 337 405
#
# _framework density 18.519158000000001
#
# number of rings (size 3 to 8) (size 9 to 14) (size 15 to 20)
#    0.000    0.750    7.500    0.375    1.750    1.000 
#    0.000    3.125    0.000    0.000    0.000    0.000 
#    0.000    0.000    0.000    0.000    0.000    0.000 
#
# Total GULP energy -89450.847605 kJ/mol
# GULP energy per Si atom -5590.677975 kJ/mol
# Density = 1.847701 g / cm^3
# Si number density = 18.519158 Si / 1000 Ang^3
#
#
#
# Elastic Constant Matrix: (Units=GPa)
#
#
# Indices 1 2 3 4 5 6 
#
# 1 137.0714 77.8045 68.6939 0.0000 -1.2209 0.0000
# 2 77.8045 122.5061 60.8452 0.0000 -1.3733 0.0000
# 3 68.6939 60.8452 114.6379 -0.0001 8.1509 0.0000
# 4 0.0000 0.0000 -0.0001 28.7046 0.0000 4.3585
# 5 -1.2209 -1.3733 8.1509 0.0000 34.6775 0.0000
# 6 0.0000 0.0000 0.0000 4.3585 0.0000 37.5614
#
#
#
# Elastic Compliance Matrix: (Units=1/GPa)
#
#
# Indices 1 2 3 4 5 6 
#
# 1 0.013055 -0.005898 -0.004789 0.000000 0.001352 0.000000
# 2 -0.005898 0.013868 -0.003916 0.000000 0.001262 0.000000
# 3 -0.004789 -0.003916 0.013927 0.000000 -0.003597 0.000000
# 4 0.000000 0.000000 0.000000 0.035462 0.000000 -0.004115
# 5 0.001352 0.001262 -0.003597 0.000000 0.029780 0.000000
# 6 0.000000 0.000000 0.000000 -0.004115 0.000000 0.027101
#
#
# Mechanical properties :
#
#
# Convention : Reuss Voigt Hill
#
# Bulk Modulus (GPa) = 85.87711 87.65585 86.76648
# Shear Modulus (GPa) = 30.06980 31.31348 30.69164
#
# Velocity S-wave (km/s) = 4.03390 4.11648 4.07540
# Velocity P-wave (km/s) = 8.25646 8.36834 8.31259
#
# Compressibility (1/GPa) = 0.01164455
#
# Stress axis : x y z
#
# Youngs Moduli (GPa) = 76.59818 72.10971 71.80346
#
# Poissons Ratio (x) = 0.42529 0.34385
# Poissons Ratio (y) = 0.45176 0.28119
# Poissons Ratio (z) = 0.36681 0.28239
#
# Static dielectric constant tensor:
#      x y z
#    x 1.644460 0.000000 -0.008930 
#    y 0.000000 1.618100 0.000000 
#    z -0.008930 0.000000 1.614590 
# 
# From -- ./inp_files/31049.got.cif
#   From: 2010.05.17/outbox.cif.g08.bks.cpg/sg5_16_cif.got.tgz:31049.got - 2010.06.03 18:56:24.
