data_PCOD9125461
_publ_section_title
;
Structure prediction by ZEFSAII (Michael W. Deem and Ramdas Pophale) SiO2 
 PCOD9125461
Probable space group: C 2
;
_chemical_formula_sum "Si O2"
_cell_formula_units_Z 22
_cell_length_a 16.345536
_cell_length_b 8.244189
_cell_length_c 7.018048
_cell_angle_alpha 90.000000
_cell_angle_beta 106.689321
_cell_angle_gamma 90.000000
_cell_volume 905.884334
_symmetry_space_group_name_H-M "C 2"
_symmetry_group_IT_number 5
_symmetry_cell_setting 'monoclinic'
loop_
_space_group_symop_operation_xyz
x,y,z
-x,y,-z
1/2+x,1/2+y,z
1/2-x,1/2+y,-z
loop_
_atom_site_type_symbol
_atom_site_label
_atom_site_fract_x
_atom_site_fract_y
_atom_site_fract_z
Si Si1 0.096460 0.629520 0.710548
Si Si2 0.728564 0.488569 0.067358
Si Si3 0.883544 0.140142 0.703155
Si Si4 0.253221 0.149812 0.721723
Si Si5 0.000000 0.936071 0.500000
Si Si6 0.928640 0.505513 0.725751
O O1 0.192256 0.609675 0.840424
O O2 0.087181 0.522312 0.513047
O O3 0.066831 0.809505 0.637066
O O4 0.026177 0.562927 0.812485
O O5 0.646195 0.546443 0.128507
O O6 0.757717 0.318796 0.175566
O O7 0.719234 0.507011 0.835534
O O8 0.800224 0.151543 0.508999
O O9 0.913732 0.320652 0.772483
O O10 0.954397 0.045361 0.628315
O O11 0.353357 0.118424 0.754782
#
# Coordination Sequence:
#
# PCOD9125461 Si02
#       6
#     4   4   4   4   2   4
#     4  10  21  41  67  97 129 176 216 273 326 394
#     4  12  26  42  70  96 136 171 227 268 332 390
#     4  12  23  44  70  96 132 175 219 278 322 402
#     4  12  25  42  68 100 132 178 218 275 326 396
#     4  10  24  38  72  96 132 174 224 264 342 380
#     4  10  21  41  67  95 130 171 221 262 338 376
#
# _framework density 24.285658999999999
#
# number of rings (size 3 to 8) (size 9 to 14) (size 15 to 20)
#    0.000    1.091    3.636    4.364    5.091    0.727 
#    0.000    0.909    0.000    0.000    0.000    0.000 
#    0.000    0.000    0.000    0.000    0.000    0.000 
#
# Total GULP energy -61616.906726 kJ/mol
# GULP energy per Si atom -5601.536975 kJ/mol
# Density = 2.423038 g / cm^3
# Si number density = 24.285659 Si / 1000 Ang^3
#
#
#
# Elastic Constant Matrix: (Units=GPa)
#
#
# Indices 1 2 3 4 5 6 
#
# 1 119.0763 26.7557 18.7852 0.0000 -18.1056 0.0000
# 2 26.7557 74.7227 -14.1496 0.0000 14.1980 0.0000
# 3 18.7852 -14.1496 48.7632 0.0000 -14.5238 0.0000
# 4 0.0000 0.0000 0.0000 29.7889 0.0000 -2.4559
# 5 -18.1056 14.1980 -14.5238 0.0000 40.6514 0.0000
# 6 0.0000 0.0000 0.0000 -2.4559 0.0000 47.7938
#
#
#
# Elastic Compliance Matrix: (Units=1/GPa)
#
#
# Indices 1 2 3 4 5 6 
#
# 1 0.011260 -0.005913 -0.004414 0.000000 0.005503 0.000000
# 2 -0.005913 0.017839 0.005387 0.000000 -0.006939 0.000000
# 3 -0.004414 0.005387 0.025319 0.000000 0.005198 0.000000
# 4 0.000000 0.000000 0.000000 0.033712 0.000000 0.001732
# 5 0.005503 -0.006939 0.005198 0.000000 0.031331 0.000000
# 6 0.000000 0.000000 0.000000 0.001732 0.000000 0.021012
#
#
# Mechanical properties :
#
#
# Convention : Reuss Voigt Hill
#
# Bulk Modulus (GPa) = 22.45300 33.92721 28.19011
# Shear Modulus (GPa) = 30.26625 37.72488 33.99557
#
# Velocity S-wave (km/s) = 3.53407 3.94557 3.74548
# Velocity P-wave (km/s) = 5.09100 5.89551 5.50797
#
# Compressibility (1/GPa) = 0.04453747
#
# Stress axis : x y z
#
# Youngs Moduli (GPa) = 88.81125 56.05727 39.49540
#
# Poissons Ratio (x) = 0.33149 0.17435
# Poissons Ratio (y) = 0.52517 -0.21278
# Poissons Ratio (z) = 0.39206 -0.30201
#
# Static dielectric constant tensor:
#      x y z
#    x 1.922630 0.000000 0.032990 
#    y 0.000000 1.864380 0.000000 
#    z 0.032990 0.000000 1.989520 
# 
# From -- ./inp_files/22719.got.cif
#   From: 2010.05.17/outbox.cif.g08.bks.cpg/sg5_12_cif.got.tgz:22719.got - 2010.06.03 18:56:24.
