data_PCOD9125570
_publ_section_title
;
Structure prediction by ZEFSAII (Michael W. Deem and Ramdas Pophale) SiO2 
 PCOD9125570
Probable space group: C 2
;
_chemical_formula_sum "Si O2"
_cell_formula_units_Z 28
_cell_length_a 24.862646
_cell_length_b 7.800222
_cell_length_c 9.259222
_cell_angle_alpha 90.000000
_cell_angle_beta 131.497837
_cell_angle_gamma 90.000000
_cell_volume 1344.929296
_symmetry_space_group_name_H-M "C 2"
_symmetry_group_IT_number 5
_symmetry_cell_setting 'monoclinic'
loop_
_space_group_symop_operation_xyz
x,y,z
-x,y,-z
1/2+x,1/2+y,z
1/2-x,1/2+y,-z
loop_
_atom_site_type_symbol
_atom_site_label
_atom_site_fract_x
_atom_site_fract_y
_atom_site_fract_z
Si Si1 0.435831 0.026010 0.690093
Si Si2 0.681938 0.751550 0.154275
Si Si3 0.904917 0.595659 0.963758
Si Si4 0.650265 0.324763 0.588085
Si Si5 0.856871 0.166244 0.603026
Si Si6 0.227105 0.756771 0.177870
Si Si7 0.300931 0.535753 0.068902
O O1 0.521130 0.048986 0.826767
O O2 0.395862 0.153204 0.509947
O O3 0.408584 0.827514 0.650951
O O4 0.418713 0.104998 0.817899
O O5 0.767910 0.776380 0.309366
O O6 0.651797 0.650746 0.240047
O O7 0.659566 0.674593 0.959507
O O8 0.648648 0.937796 0.111572
O O9 0.856741 0.751480 0.933877
O O10 0.625583 0.485296 0.442690
O O11 0.652992 0.403325 0.754576
O O12 0.778291 0.221515 0.403502
O O13 0.249999 0.623146 0.095104
O O14 0.243603 0.935628 0.131443
#
# Coordination Sequence:
#
# PCOD9125570 Si02
#       7
#     4   4   4   4   4   4   4
#     4  10  23  42  65  95 134 160 212 270 325 375
#     4  11  21  39  64  96 126 164 220 266 315 380
#     4  10  21  42  64  94 127 169 204 268 331 376
#     4  11  22  40  65  96 129 167 214 268 316 379
#     4  10  23  37  67  96 125 164 216 269 319 372
#     4  11  20  38  62  93 121 164 215 259 317 375
#     4  11  22  36  62  92 130 164 216 264 314 378
#
# _framework density 20.818936999999998
#
# number of rings (size 3 to 8) (size 9 to 14) (size 15 to 20)
#    0.000    1.429    4.286    1.714    6.000    0.000 
#    2.571    2.143    3.143    0.000    0.000    0.000 
#    0.000    0.000    0.000    0.000    0.000    0.000 
#
# Total GULP energy -78090.888121 kJ/mol
# GULP energy per Si atom -5577.920580 kJ/mol
# Density = 2.077155 g / cm^3
# Si number density = 20.818937 Si / 1000 Ang^3
#
#
#
# Elastic Constant Matrix: (Units=GPa)
#
#
# Indices 1 2 3 4 5 6 
#
# 1 45.5142 1.0179 29.9438 0.0000 0.0604 0.0000
# 2 1.0179 58.6906 19.1658 0.0000 -2.1512 0.0000
# 3 29.9438 19.1658 51.6828 0.0000 5.9967 0.0000
# 4 0.0000 0.0000 0.0000 38.0827 0.0000 -13.3794
# 5 0.0604 -2.1512 5.9967 0.0000 41.5976 0.0000
# 6 0.0000 0.0000 0.0000 -13.3794 0.0000 20.4338
#
#
#
# Elastic Compliance Matrix: (Units=1/GPa)
#
#
# Indices 1 2 3 4 5 6 
#
# 1 0.038845 0.007943 -0.025926 0.000000 0.004092 0.000000
# 2 0.007943 0.021188 -0.012799 0.000000 0.002929 0.000000
# 3 -0.025926 -0.012799 0.039855 0.000000 -0.006370 0.000000
# 4 0.000000 0.000000 0.000000 0.034104 0.000000 0.022330
# 5 0.004092 0.002929 -0.006370 0.000000 0.025104 0.000000
# 6 0.000000 0.000000 0.000000 0.022330 0.000000 0.063559
#
#
# Mechanical properties :
#
#
# Convention : Reuss Voigt Hill
#
# Bulk Modulus (GPa) = 26.09383 28.46029 27.27706
# Shear Modulus (GPa) = 16.83540 27.07349 21.95444
#
# Velocity S-wave (km/s) = 2.84678 3.61005 3.25089
# Velocity P-wave (km/s) = 4.83388 5.57465 5.21743
#
# Compressibility (1/GPa) = 0.03832323
#
# Stress axis : x y z
#
# Youngs Moduli (GPa) = 25.74342 47.19723 25.09090
#
# Poissons Ratio (x) = -0.37487 0.65051
# Poissons Ratio (y) = -0.20447 0.32113
# Poissons Ratio (z) = 0.66742 0.60407
#
# Static dielectric constant tensor:
#      x y z
#    x 1.752340 0.000000 -0.003040 
#    y 0.000000 1.863470 0.000000 
#    z -0.003040 0.000000 1.754350 
# 
# From -- ./inp_files/31773.got.cif
#   From: 2010.05.17/outbox.cif.g08.bks.cpg/sg5_16_cif.got.tgz:31773.got - 2010.06.03 18:56:24.
