data_PCOD9125192
_publ_section_title
;
Structure prediction by ZEFSAII (Michael W. Deem and Ramdas Pophale) SiO2 
 PCOD9125192
Probable space group: C 2
;
_chemical_formula_sum "Si O2"
_cell_formula_units_Z 26
_cell_length_a 7.104569
_cell_length_b 8.352820
_cell_length_c 18.959229
_cell_angle_alpha 90.000000
_cell_angle_beta 121.360240
_cell_angle_gamma 90.000000
_cell_volume 960.737451
_symmetry_space_group_name_H-M "C 2"
_symmetry_group_IT_number 5
_symmetry_cell_setting 'monoclinic'
loop_
_space_group_symop_operation_xyz
x,y,z
-x,y,-z
1/2+x,1/2+y,z
1/2-x,1/2+y,-z
loop_
_atom_site_type_symbol
_atom_site_label
_atom_site_fract_x
_atom_site_fract_y
_atom_site_fract_z
Si Si1 0.474767 0.345050 0.075394
Si Si2 0.000000 0.328935 0.000000
Si Si3 0.730560 0.015911 0.780045
Si Si4 0.829269 0.016849 0.531380
Si Si5 0.621428 0.034820 0.160893
Si Si6 0.952338 0.356295 0.623997
Si Si7 0.389951 0.350185 0.315275
O O1 0.530022 0.492689 0.137474
O O2 0.644297 0.212539 0.135372
O O3 0.500000 0.392229 0.000000
O O4 0.239850 0.255627 0.035923
O O5 0.954554 0.430600 0.920553
O O6 0.567646 0.016568 0.816164
O O7 0.670196 0.180604 0.729576
O O8 0.680416 0.883917 0.709420
O O9 0.598395 0.987460 0.446687
O O10 0.000000 0.996410 0.500000
O O11 0.879816 0.881131 0.600150
O O12 0.889440 0.185638 0.578444
O O13 0.838857 0.976301 0.243745
O O14 0.784098 0.381169 0.656061
#
# Coordination Sequence:
#
# PCOD9125192 Si02
#       7
#     4   2   4   4   4   4   4
#     4  12  26  46  71 101 137 187 240 299 363 431
#     4  12  26  44  72 102 136 184 238 306 362 422
#     4  11  24  44  68 102 140 185 241 293 359 430
#     4  10  21  40  64 100 138 183 233 289 351 420
#     4  11  24  45  68  99 136 184 236 294 358 424
#     4  10  22  39  67  99 141 183 235 290 350 429
#     4  10  23  41  66 100 139 184 233 291 355 425
#
# _framework density 27.062545
#
# number of rings (size 3 to 8) (size 9 to 14) (size 15 to 20)
#    0.000    1.231    2.308    2.769    0.000    8.615 
#    1.385    0.000    0.000    0.923    0.000    0.000 
#    0.000    0.000    0.000    0.000    0.000    0.000 
#
# Total GULP energy -72779.957031 kJ/mol
# GULP energy per Si atom -5598.458233 kJ/mol
# Density = 2.700095 g / cm^3
# Si number density = 27.062545 Si / 1000 Ang^3
#
#
#
# Elastic Constant Matrix: (Units=GPa)
#
#
# Indices 1 2 3 4 5 6 
#
# 1 77.3855 -11.7610 50.7920 0.0000 -13.1433 0.0000
# 2 -11.7610 99.4575 83.2070 0.0000 -4.8184 0.0000
# 3 50.7920 83.2070 275.4895 0.0000 -14.0397 0.0000
# 4 0.0000 0.0000 0.0000 55.6743 0.0000 -1.3660
# 5 -13.1433 -4.8184 -14.0397 0.0000 58.6363 0.0000
# 6 0.0000 0.0000 0.0000 -1.3660 0.0000 20.5859
#
#
#
# Elastic Compliance Matrix: (Units=1/GPa)
#
#
# Indices 1 2 3 4 5 6 
#
# 1 0.017813 0.006521 -0.005085 0.000000 0.003311 0.000000
# 2 0.006521 0.015842 -0.005919 0.000000 0.001346 0.000000
# 3 -0.005085 -0.005919 0.006350 0.000000 -0.000106 0.000000
# 4 0.000000 0.000000 0.000000 0.017991 0.000000 0.001194
# 5 0.003311 0.001346 -0.000106 0.000000 0.017882 0.000000
# 6 0.000000 0.000000 0.000000 0.001194 0.000000 0.048656
#
#
# Mechanical properties :
#
#
# Convention : Reuss Voigt Hill
#
# Bulk Modulus (GPa) = 32.21619 77.42318 54.81969
# Shear Modulus (GPa) = 34.75931 48.98562 41.87246
#
# Velocity S-wave (km/s) = 3.58775 4.25913 3.93777
# Velocity P-wave (km/s) = 5.39377 7.27035 6.40120
#
# Compressibility (1/GPa) = 0.03104029
#
# Stress axis : x y z
#
# Youngs Moduli (GPa) = 56.13757 63.12137 157.48833
#
# Poissons Ratio (x) = -0.41162 0.80084
# Poissons Ratio (y) = -0.36608 0.93212
# Poissons Ratio (z) = 0.28547 0.37359
#
# Static dielectric constant tensor:
#      x y z
#    x 2.178110 0.000000 0.071160 
#    y 0.000000 2.132340 0.000000 
#    z 0.071160 0.000000 2.047170 
# 
# From -- ./inp_files/64403.got.cif
#   From: 2010.05.17/outbox.cif.g08.bks.cpg/sg5_33_cif.got.tgz:64403.got - 2010.06.03 18:56:24.
