data_PCOD9125647
_publ_section_title
;
Structure prediction by ZEFSAII (Michael W. Deem and Ramdas Pophale) SiO2 
 PCOD9125647
Probable space group: C 2
;
_chemical_formula_sum "Si O2"
_cell_formula_units_Z 20
_cell_length_a 14.691488
_cell_length_b 7.157005
_cell_length_c 22.368165
_cell_angle_alpha 90.000000
_cell_angle_beta 19.432287
_cell_angle_gamma 90.000000
_cell_volume 782.475237
_symmetry_space_group_name_H-M "C 2"
_symmetry_group_IT_number 5
_symmetry_cell_setting 'monoclinic'
loop_
_space_group_symop_operation_xyz
x,y,z
-x,y,-z
1/2+x,1/2+y,z
1/2-x,1/2+y,-z
loop_
_atom_site_type_symbol
_atom_site_label
_atom_site_fract_x
_atom_site_fract_y
_atom_site_fract_z
Si Si1 0.482655 0.584830 0.223423
Si Si2 0.208301 0.251624 0.201800
Si Si3 0.855866 0.683682 0.774354
Si Si4 0.989982 0.342620 0.106595
Si Si5 0.896015 0.234286 0.507465
O O1 0.509181 0.676744 0.272890
O O2 0.418482 0.732730 0.211308
O O3 0.255016 0.420304 0.371095
O O4 0.788138 0.505796 0.017101
O O5 0.211096 0.474711 0.200744
O O6 0.157218 0.223922 0.303091
O O7 0.500000 0.176009 0.000000
O O8 0.780455 0.833021 0.769207
O O9 0.166787 0.678589 0.602191
O O10 0.685013 0.728337 0.939649
O O11 0.000000 0.120076 0.500000
#
# Coordination Sequence:
#
# PCOD9125647 Si02
#       5
#     4   4   4   4   4
#     4  11  25  42  75 104 148 186 245 289 363 424
#     4  12  25  43  71 106 143 192 237 295 360 424
#     4  10  22  43  68  98 151 180 237 295 356 425
#     4  10  21  42  69 108 135 192 230 297 351 426
#     4  11  26  46  69 102 145 193 241 298 355 424
#
# _framework density 25.559915
#
# number of rings (size 3 to 8) (size 9 to 14) (size 15 to 20)
#    0.000    1.200    2.000    3.600   11.200    0.000 
#    0.000    1.000    0.000    0.000    0.000    0.000 
#    0.000    0.000    0.000    0.000    0.000    0.000 
#
# Total GULP energy -55776.947389 kJ/mol
# GULP energy per Si atom -5577.694739 kJ/mol
# Density = 2.550174 g / cm^3
# Si number density = 25.559915 Si / 1000 Ang^3
#
#
#
# Elastic Constant Matrix: (Units=GPa)
#
#
# Indices 1 2 3 4 5 6 
#
# 1 193.6313 18.8780 57.5429 -0.0010 13.8236 0.0007
# 2 18.8780 59.7901 1.1539 -0.0020 -5.3660 -0.0018
# 3 57.5429 1.1539 87.1646 -0.0422 -10.0419 -0.0075
# 4 -0.0010 -0.0020 -0.0422 1.1847 0.0007 -5.9796
# 5 13.8236 -5.3660 -10.0419 0.0007 47.0074 -0.0050
# 6 0.0007 -0.0018 -0.0075 -5.9796 -0.0050 22.7851
#
#
#
# Elastic Compliance Matrix: (Units=1/GPa)
#
#
# Indices 1 2 3 4 5 6 
#
# 1 0.007171 -0.002478 -0.005102 0.000593 -0.003481 0.000153
# 2 -0.002478 0.017755 0.001762 -0.000316 0.003132 -0.000080
# 3 -0.005102 0.001762 0.015391 -0.001777 0.004989 -0.000460
# 4 0.000593 -0.000316 -0.001777 -2.600561 -0.000627 -0.682475
# 5 -0.003481 0.003132 0.004989 -0.000627 0.023720 -0.000157
# 6 0.000153 -0.000080 -0.000460 -0.682475 -0.000157 -0.135216
#
#
# Mechanical properties :
#
#
# Convention : Reuss Voigt Hill
#
# Bulk Modulus (GPa) = 34.86772 55.08171 44.97471
# Shear Modulus (GPa) = -1.88641 31.72955 14.92157
#
# Velocity S-wave (km/s) = -0.86002 3.52714 2.41879
# Velocity P-wave (km/s) = 3.56160 6.17936 5.04329
#
# Compressibility (1/GPa) = 0.02867983
#
# Stress axis : x y z
#
# Youngs Moduli (GPa) = 139.45541 56.32328 64.97233
#
# Poissons Ratio (x) = 0.13957 0.33148
# Poissons Ratio (y) = 0.34558 -0.11445
# Poissons Ratio (z) = 0.71148 -0.09921
#
# Static dielectric constant tensor:
#      x y z
#    x 2.121660 0.000000 -0.196860 
#    y 0.000000 2.097490 0.000020 
#    z -0.196860 0.000020 2.202880 
# 
# From -- ./inp_files/68618.got.cif
#   From: 2010.05.17/outbox.cif.g08.bks.cpg/sg5_35_cif.got.tgz:68618.got - 2010.06.03 18:56:24.
