data_PCOD9125296
_publ_section_title
;
Structure prediction by ZEFSAII (Michael W. Deem and Ramdas Pophale) SiO2 
 PCOD9125296
Probable space group: C 2
;
_chemical_formula_sum "Si O2"
_cell_formula_units_Z 30
_cell_length_a 20.349128
_cell_length_b 5.879015
_cell_length_c 11.543785
_cell_angle_alpha 90.000000
_cell_angle_beta 115.305107
_cell_angle_gamma 90.000000
_cell_volume 1248.499543
_symmetry_space_group_name_H-M "C 2"
_symmetry_group_IT_number 5
_symmetry_cell_setting 'monoclinic'
loop_
_space_group_symop_operation_xyz
x,y,z
-x,y,-z
1/2+x,1/2+y,z
1/2-x,1/2+y,-z
loop_
_atom_site_type_symbol
_atom_site_label
_atom_site_fract_x
_atom_site_fract_y
_atom_site_fract_z
Si Si1 0.034085 0.167060 0.226961
Si Si2 0.729352 0.571386 0.612888
Si Si3 0.500000 0.028148 0.000000
Si Si4 0.722660 0.497971 0.859380
Si Si5 0.903377 0.314713 0.246381
Si Si6 0.135897 0.792759 0.368868
Si Si7 0.396411 0.907509 0.498081
Si Si8 0.629353 0.175495 0.950079
O O1 0.069479 0.271270 0.369701
O O2 0.951268 0.136937 0.208206
O O3 0.079900 0.936040 0.249497
O O4 0.031570 0.350364 0.121281
O O5 0.713419 0.426571 0.717528
O O6 0.814863 0.616307 0.665557
O O7 0.695597 0.449687 0.476611
O O8 0.685338 0.809958 0.581310
O O9 0.563995 0.183632 0.993437
O O10 0.679979 0.737367 0.823477
O O11 0.680402 0.362662 0.927188
O O12 0.807860 0.516793 0.946471
O O13 0.927771 0.350189 0.395941
O O14 0.909526 0.551500 0.186232
O O15 0.099516 0.662351 0.450052
#
# Coordination Sequence:
#
# PCOD9125296 Si02
#       8
#     4   4   2   4   4   4   4   4
#     4  10  24  44  66  99 143 183 236 291 363 432
#     4  10  22  38  64 103 144 172 233 295 346 430
#     4  10  26  48  68 104 154 184 238 312 356 426
#     4  11  23  42  70  98 135 190 240 283 355 427
#     4  10  22  45  65 100 137 182 240 297 343 430
#     4  11  21  40  67 105 137 182 230 294 371 422
#     4  10  21  40  68  98 136 180 230 294 351 421
#     4  11  23  46  70  98 141 191 239 293 360 423
#
# _framework density 24.028843999999999
#
# number of rings (size 3 to 8) (size 9 to 14) (size 15 to 20)
#    0.000    1.600    2.667    1.200    1.867    2.133 
#    9.600    5.333    0.000    0.000    0.000    0.000 
#    0.000    0.000    0.000    0.000    0.000    0.000 
#
# Total GULP energy -83623.369389 kJ/mol
# GULP energy per Si atom -5574.891293 kJ/mol
# Density = 2.397415 g / cm^3
# Si number density = 24.028844 Si / 1000 Ang^3
#
#
#
# Elastic Constant Matrix: (Units=GPa)
#
#
# Indices 1 2 3 4 5 6 
#
# 1 150.7910 20.0019 46.1698 0.0000 -9.3291 0.0000
# 2 20.0019 35.9884 15.2750 0.0000 -8.6150 0.0000
# 3 46.1698 15.2750 131.7534 0.0000 -13.2240 0.0000
# 4 0.0000 0.0000 0.0000 36.6386 0.0000 -0.2824
# 5 -9.3291 -8.6150 -13.2240 0.0000 39.3022 0.0000
# 6 0.0000 0.0000 0.0000 -0.2824 0.0000 31.6399
#
#
#
# Elastic Compliance Matrix: (Units=1/GPa)
#
#
# Indices 1 2 3 4 5 6 
#
# 1 0.007796 -0.003264 -0.002318 0.000000 0.000355 0.000000
# 2 -0.003264 0.031765 -0.001985 0.000000 0.005520 0.000000
# 3 -0.002318 -0.001985 0.008832 0.000000 0.001986 0.000000
# 4 0.000000 0.000000 0.000000 0.027296 0.000000 0.000244
# 5 0.000355 0.005520 0.001986 0.000000 0.027407 0.000000
# 6 0.000000 0.000000 0.000000 0.000244 0.000000 0.031608
#
#
# Mechanical properties :
#
#
# Convention : Reuss Voigt Hill
#
# Bulk Modulus (GPa) = 30.06714 53.49178 41.77946
# Shear Modulus (GPa) = 31.07076 37.32187 34.19632
#
# Velocity S-wave (km/s) = 3.59982 3.94536 3.77654
# Velocity P-wave (km/s) = 5.46062 6.56234 6.03666
#
# Compressibility (1/GPa) = 0.03325890
#
# Stress axis : x y z
#
# Youngs Moduli (GPa) = 128.26463 31.48140 113.22870
#
# Poissons Ratio (x) = 0.10276 0.26246
# Poissons Ratio (y) = 0.41869 0.22473
# Poissons Ratio (z) = 0.29731 0.06248
#
# Static dielectric constant tensor:
#      x y z
#    x 2.015360 0.000000 -0.021550 
#    y 0.000000 1.989920 0.000000 
#    z -0.021550 0.000000 1.925680 
# 
# From -- ./inp_files/45727.got.cif
#   From: 2010.05.17/outbox.cif.g08.bks.cpg/sg5_23_cif.got.tgz:45727.got - 2010.06.03 18:56:24.
