data_PCOD9125735
_publ_section_title
;
Structure prediction by ZEFSAII (Michael W. Deem and Ramdas Pophale) SiO2 
 PCOD9125735
Probable space group: C 2
;
_chemical_formula_sum "Si O2"
_cell_formula_units_Z 28
_cell_length_a 25.305911
_cell_length_b 4.740747
_cell_length_c 9.282641
_cell_angle_alpha 90.000000
_cell_angle_beta 86.307653
_cell_angle_gamma 90.000000
_cell_volume 1111.316793
_symmetry_space_group_name_H-M "C 2"
_symmetry_group_IT_number 5
_symmetry_cell_setting 'monoclinic'
loop_
_space_group_symop_operation_xyz
x,y,z
-x,y,-z
1/2+x,1/2+y,z
1/2-x,1/2+y,-z
loop_
_atom_site_type_symbol
_atom_site_label
_atom_site_fract_x
_atom_site_fract_y
_atom_site_fract_z
Si Si1 0.657383 0.782480 0.248990
Si Si2 0.632475 0.313026 0.072327
Si Si3 0.450418 0.803031 0.584365
Si Si4 0.354065 0.632649 0.231240
Si Si5 0.482873 0.159557 0.849749
Si Si6 0.582937 0.169839 0.676419
Si Si7 0.747012 0.126108 0.398510
O O1 0.670905 0.491068 0.169860
O O2 0.607352 0.701163 0.358192
O O3 0.700005 0.953927 0.331547
O O4 0.641766 0.988768 0.116472
O O5 0.569657 0.344388 0.118938
O O6 0.641522 0.445792 0.914179
O O7 0.500000 0.641996 0.500000
O O8 0.437059 0.046178 0.470314
O O9 0.471417 0.931313 0.729702
O O10 0.390038 0.911817 0.239610
O O11 0.293669 0.699866 0.278981
O O12 0.375605 0.417914 0.348342
O O13 0.535082 0.304761 0.776857
O O14 0.500000 0.036428 0.000000
O O15 0.768485 0.909093 0.516137
#
# Coordination Sequence:
#
# PCOD9125735 Si02
#       7
#     4   4   4   4   4   4   4
#     4  11  24  44  68  98 143 178 233 299 353 423
#     4  11  25  43  67 103 136 185 229 285 365 427
#     4   9  21  40  65  95 132 176 227 280 351 414
#     4  12  25  44  71  99 138 182 238 290 353 428
#     4  10  21  43  67 101 139 185 229 289 352 425
#     4  11  24  43  68 101 141 182 232 294 346 423
#     4  12  26  46  73 103 136 187 243 301 365 422
#
# _framework density 25.195339000000001
#
# number of rings (size 3 to 8) (size 9 to 14) (size 15 to 20)
#    0.000    1.143    1.429    4.286    2.000    8.000 
#    0.000    6.429    0.000    0.000    0.000    0.000 
#    0.000    0.000    0.000    0.000    0.000    0.000 
#
# Total GULP energy -78273.076123 kJ/mol
# GULP energy per Si atom -5590.934009 kJ/mol
# Density = 2.513799 g / cm^3
# Si number density = 25.195339 Si / 1000 Ang^3
#
#
#
# Elastic Constant Matrix: (Units=GPa)
#
#
# Indices 1 2 3 4 5 6 
#
# 1 94.3414 6.0437 33.6885 0.0000 -17.1750 0.0000
# 2 6.0437 98.3307 28.1303 0.0000 -0.2915 0.0000
# 3 33.6885 28.1303 145.6230 0.0000 4.4239 0.0000
# 4 0.0000 0.0000 0.0000 41.6218 0.0000 12.0024
# 5 -17.1750 -0.2915 4.4239 0.0000 45.6987 0.0000
# 6 0.0000 0.0000 0.0000 12.0024 0.0000 25.3321
#
#
#
# Elastic Compliance Matrix: (Units=1/GPa)
#
#
# Indices 1 2 3 4 5 6 
#
# 1 0.012615 0.000125 -0.003096 0.000000 0.005042 0.000000
# 2 0.000125 0.010769 -0.002119 0.000000 0.000321 0.000000
# 3 -0.003096 -0.002119 0.008052 0.000000 -0.001956 0.000000
# 4 0.000000 0.000000 0.000000 0.027828 0.000000 -0.013185
# 5 0.005042 0.000321 -0.001956 0.000000 0.023969 0.000000
# 6 0.000000 0.000000 0.000000 -0.013185 0.000000 0.045723
#
#
# Mechanical properties :
#
#
# Convention : Reuss Voigt Hill
#
# Bulk Modulus (GPa) = 47.04287 52.66888 49.85587
# Shear Modulus (GPa) = 34.19494 40.55936 37.37715
#
# Velocity S-wave (km/s) = 3.68801 4.01658 3.85579
# Velocity P-wave (km/s) = 6.07017 6.51614 6.29711
#
# Compressibility (1/GPa) = 0.02125721
#
# Stress axis : x y z
#
# Youngs Moduli (GPa) = 79.27026 92.85715 124.19301
#
# Poissons Ratio (x) = -0.01163 0.38447
# Poissons Ratio (y) = -0.00993 0.26317
# Poissons Ratio (z) = 0.24540 0.19677
#
# Static dielectric constant tensor:
#      x y z
#    x 2.065080 0.000000 0.040880 
#    y 0.000000 1.962810 0.000000 
#    z 0.040880 0.000000 2.001060 
# 
# From -- ./inp_files/31406.got.cif
#   From: 2010.05.17/outbox.cif.g08.bks.cpg/sg5_16_cif.got.tgz:31406.got - 2010.06.03 18:56:24.
