data_PCOD9125621
_publ_section_title
;
Structure prediction by ZEFSAII (Michael W. Deem and Ramdas Pophale) SiO2 
 PCOD9125621
Probable space group: C 2
;
_chemical_formula_sum "Si O2"
_cell_formula_units_Z 24
_cell_length_a 24.945662
_cell_length_b 7.404427
_cell_length_c 11.888175
_cell_angle_alpha 90.000000
_cell_angle_beta 26.667021
_cell_angle_gamma 90.000000
_cell_volume 985.505566
_symmetry_space_group_name_H-M "C 2"
_symmetry_group_IT_number 5
_symmetry_cell_setting 'monoclinic'
loop_
_space_group_symop_operation_xyz
x,y,z
-x,y,-z
1/2+x,1/2+y,z
1/2-x,1/2+y,-z
loop_
_atom_site_type_symbol
_atom_site_label
_atom_site_fract_x
_atom_site_fract_y
_atom_site_fract_z
Si Si1 0.122693 0.636160 0.331442
Si Si2 0.541453 0.803331 0.045817
Si Si3 0.138841 0.212204 0.253965
Si Si4 0.822442 0.150696 0.574572
Si Si5 0.615654 0.194554 0.824137
Si Si6 0.196155 0.737641 0.433231
O O1 0.125764 0.422436 0.306936
O O2 0.119676 0.677768 0.470015
O O3 0.000000 0.703326 0.500000
O O4 0.252677 0.698752 0.039237
O O5 0.664459 0.716129 0.853261
O O6 0.567047 0.016006 0.978689
O O7 0.500000 0.740049 0.000000
O O8 0.441771 0.756505 0.322033
O O9 0.189515 0.118389 0.271336
O O10 0.000000 0.146816 0.500000
O O11 0.714470 0.265509 0.723351
O O12 0.824317 0.953722 0.513787
O O13 0.676030 0.147782 0.591996
O O14 0.500000 0.303625 0.000000
#
# Coordination Sequence:
#
# PCOD9125621 Si02
#       6
#     4   4   4   4   4   4
#     4  11  27  46  72 102 137 183 232 285 348 407
#     4  10  21  42  67  96 141 178 219 269 340 403
#     4  11  26  48  72  99 139 183 232 287 346 407
#     4  11  24  43  73 100 134 182 226 281 340 401
#     4  10  24  41  65 100 141 174 220 272 338 407
#     4  11  24  43  69 103 135 176 230 278 337 407
#
# _framework density 24.352982000000001
#
# number of rings (size 3 to 8) (size 9 to 14) (size 15 to 20)
#    0.000    1.333    1.667    2.000    7.000    7.333 
#    0.000    0.000    0.000    0.000    0.000    0.000 
#    0.000    0.000    0.000    0.000    0.000    0.000 
#
# Total GULP energy -67046.204179 kJ/mol
# GULP energy per Si atom -5587.183682 kJ/mol
# Density = 2.429755 g / cm^3
# Si number density = 24.352982 Si / 1000 Ang^3
#
#
#
# Elastic Constant Matrix: (Units=GPa)
#
#
# Indices 1 2 3 4 5 6 
#
# 1 148.7168 -9.5022 52.8397 0.0000 -17.0142 0.0000
# 2 -9.5022 75.8924 9.9885 0.0000 2.3339 0.0000
# 3 52.8397 9.9885 138.7178 0.0000 -19.0252 0.0000
# 4 0.0000 0.0000 0.0000 21.4105 0.0000 10.4736
# 5 -17.0142 2.3339 -19.0252 0.0000 52.6517 0.0000
# 6 0.0000 0.0000 0.0000 10.4736 0.0000 22.0658
#
#
#
# Elastic Compliance Matrix: (Units=1/GPa)
#
#
# Indices 1 2 3 4 5 6 
#
# 1 0.008028 0.001349 -0.002954 0.000000 0.001467 0.000000
# 2 0.001349 0.013578 -0.001593 0.000000 -0.000742 0.000000
# 3 -0.002954 -0.001593 0.008762 0.000000 0.002282 0.000000
# 4 0.000000 0.000000 0.000000 0.060830 0.000000 -0.028873
# 5 0.001467 -0.000742 0.002282 0.000000 0.020324 0.000000
# 6 0.000000 0.000000 0.000000 -0.028873 0.000000 0.059024
#
#
# Mechanical properties :
#
#
# Convention : Reuss Voigt Hill
#
# Bulk Modulus (GPa) = 41.71720 52.21989 46.96855
# Shear Modulus (GPa) = 27.03694 39.89236 33.46465
#
# Velocity S-wave (km/s) = 3.33560 4.05172 3.71097
# Velocity P-wave (km/s) = 5.65706 6.58620 6.13924
#
# Compressibility (1/GPa) = 0.02397093
#
# Stress axis : x y z
#
# Youngs Moduli (GPa) = 124.56880 73.64902 114.13273
#
# Poissons Ratio (x) = -0.09934 0.33712
# Poissons Ratio (y) = -0.16801 0.18183
# Poissons Ratio (z) = 0.36795 0.11734
#
# Static dielectric constant tensor:
#      x y z
#    x 1.946830 0.000000 -0.049600 
#    y 0.000000 1.984800 0.000000 
#    z -0.049600 0.000000 2.012770 
# 
# From -- ./inp_files/47250.got.cif
#   From: 2010.05.17/outbox.cif.g08.bks.cpg/sg5_24_cif.got.tgz:47250.got - 2010.06.03 18:56:24.
