data_PCOD9125859
_publ_section_title
;
Structure prediction by ZEFSAII (Michael W. Deem and Ramdas Pophale) SiO2 
 PCOD9125859
Probable space group: C 2
;
_chemical_formula_sum "Si O2"
_cell_formula_units_Z 24
_cell_length_a 10.924597
_cell_length_b 11.835837
_cell_length_c 15.944861
_cell_angle_alpha 90.000000
_cell_angle_beta 146.671493
_cell_angle_gamma 90.000000
_cell_volume 1132.776691
_symmetry_space_group_name_H-M "C 2"
_symmetry_group_IT_number 5
_symmetry_cell_setting 'monoclinic'
loop_
_space_group_symop_operation_xyz
x,y,z
-x,y,-z
1/2+x,1/2+y,z
1/2-x,1/2+y,-z
loop_
_atom_site_type_symbol
_atom_site_label
_atom_site_fract_x
_atom_site_fract_y
_atom_site_fract_z
Si Si1 0.561036 0.040090 0.438714
Si Si2 0.635885 0.657492 0.162062
Si Si3 0.632526 0.432832 0.973424
Si Si4 0.469262 0.586766 0.381734
Si Si5 0.214590 0.329048 0.759308
Si Si6 0.583686 0.905170 0.142977
O O1 0.500000 0.072585 0.500000
O O2 0.385796 0.117343 0.287444
O O3 0.804242 0.059423 0.539900
O O4 0.481839 0.910126 0.385601
O O5 0.631234 0.778118 0.204096
O O6 0.500000 0.675761 0.000000
O O7 0.506019 0.548271 0.122314
O O8 0.712281 0.388422 0.111150
O O9 0.866766 0.449937 0.064837
O O10 0.445649 0.341128 0.838576
O O11 0.500000 0.603904 0.500000
O O12 0.364186 0.701299 0.283505
O O13 0.296851 0.483932 0.273444
O O14 0.500000 0.902033 0.000000
#
# Coordination Sequence:
#
# PCOD9125859 Si02
#       6
#     4   4   4   4   4   4
#     4  11  25  44  70  99 138 185 236 278 358 415
#     4  10  22  46  69  95 131 187 228 289 340 426
#     4  10  21  44  73  99 133 179 241 285 355 400
#     4  12  29  45  68 106 149 183 230 294 352 413
#     4  10  23  44  73  95 134 188 231 289 343 422
#     4  11  28  40  70 103 141 177 238 291 347 412
#
# _framework density 21.186876999999999
#
# number of rings (size 3 to 8) (size 9 to 14) (size 15 to 20)
#    0.000    1.333    3.333    1.500   14.000    2.000 
#    0.000    0.000    0.000    0.000    0.000    0.000 
#    0.000    0.000    0.000    0.000    0.000    0.000 
#
# Total GULP energy -66844.133938 kJ/mol
# GULP energy per Si atom -5570.344495 kJ/mol
# Density = 2.113865 g / cm^3
# Si number density = 21.186877 Si / 1000 Ang^3
#
#
#
# Elastic Constant Matrix: (Units=GPa)
#
#
# Indices 1 2 3 4 5 6 
#
# 1 111.4162 27.5290 63.4417 0.0001 37.3936 0.0000
# 2 27.5290 146.8557 69.1555 0.0002 33.7944 0.0000
# 3 63.4417 69.1555 110.5272 0.0009 45.2428 0.0002
# 4 0.0001 0.0002 0.0009 40.5498 0.0003 3.5927
# 5 37.3936 33.7944 45.2428 0.0003 56.9319 0.0000
# 6 0.0000 0.0000 0.0002 3.5927 0.0000 9.7046
#
#
#
# Elastic Compliance Matrix: (Units=1/GPa)
#
#
# Indices 1 2 3 4 5 6 
#
# 1 0.014337 0.001924 -0.007575 0.000000 -0.004539 0.000000
# 2 0.001924 0.009986 -0.006534 0.000000 -0.001999 0.000000
# 3 -0.007575 -0.006534 0.020542 0.000000 -0.007470 0.000000
# 4 0.000000 0.000000 0.000000 0.025497 0.000000 -0.009439
# 5 -0.004539 -0.001999 -0.007470 0.000000 0.027669 0.000000
# 6 0.000000 0.000000 0.000000 -0.009439 0.000000 0.106539
#
#
# Mechanical properties :
#
#
# Convention : Reuss Voigt Hill
#
# Bulk Modulus (GPa) = 48.79565 76.56127 62.67846
# Shear Modulus (GPa) = 21.20707 35.34879 28.27793
#
# Velocity S-wave (km/s) = 3.16722 4.08907 3.65731
# Velocity P-wave (km/s) = 6.03789 7.64909 6.89074
#
# Compressibility (1/GPa) = 0.02049363
#
# Stress axis : x y z
#
# Youngs Moduli (GPa) = 69.75150 100.14362 48.68126
#
# Poissons Ratio (x) = -0.19269 0.36877
# Poissons Ratio (y) = -0.13421 0.31810
# Poissons Ratio (z) = 0.52838 0.65437
#
# Static dielectric constant tensor:
#      x y z
#    x 1.897340 0.000000 -0.057490 
#    y 0.000000 1.813750 0.000000 
#    z -0.057490 0.000000 1.784050 
# 
# From -- ./inp_files/39082.got.cif
#   From: 2010.05.17/outbox.cif.g08.bks.cpg/sg5_20_cif.got.tgz:39082.got - 2010.06.03 18:56:24.
