data_PCOD9125200
_publ_section_title
;
Structure prediction by ZEFSAII (Michael W. Deem and Ramdas Pophale) SiO2 
 PCOD9125200
Probable space group: C 2
;
_chemical_formula_sum "Si O2"
_cell_formula_units_Z 28
_cell_length_a 11.819516
_cell_length_b 7.818137
_cell_length_c 12.116408
_cell_angle_alpha 90.000000
_cell_angle_beta 84.008920
_cell_angle_gamma 90.000000
_cell_volume 1113.520735
_symmetry_space_group_name_H-M "C 2"
_symmetry_group_IT_number 5
_symmetry_cell_setting 'monoclinic'
loop_
_space_group_symop_operation_xyz
x,y,z
-x,y,-z
1/2+x,1/2+y,z
1/2-x,1/2+y,-z
loop_
_atom_site_type_symbol
_atom_site_label
_atom_site_fract_x
_atom_site_fract_y
_atom_site_fract_z
Si Si1 0.552489 0.079680 0.688509
Si Si2 0.712440 0.732000 0.270573
Si Si3 0.326344 0.905467 0.504383
Si Si4 0.279471 0.616589 0.180984
Si Si5 0.411639 0.029891 0.923834
Si Si6 0.140057 0.766619 0.381839
Si Si7 0.963539 0.153076 0.892164
O O1 0.671772 0.129895 0.727009
O O2 0.492542 0.243849 0.634733
O O3 0.578059 0.926230 0.600398
O O4 0.468800 0.034750 0.796572
O O5 0.711687 0.114492 0.071068
O O6 0.625072 0.630568 0.199761
O O7 0.753870 0.920249 0.222427
O O8 0.203515 0.892767 0.457500
O O9 0.336116 0.769266 0.601654
O O10 0.334427 0.086028 0.562916
O O11 0.212617 0.752611 0.262678
O O12 0.411050 0.661913 0.173543
O O13 0.409257 0.828148 0.947881
O O14 0.500000 0.110530 0.000000
O O15 0.000000 0.047304 0.000000
#
# Coordination Sequence:
#
# PCOD9125200 Si02
#       7
#     4   4   4   4   4   4   4
#     4  11  22  39  65  91 136 171 219 270 333 387
#     4  10  23  39  59  97 132 166 218 274 322 399
#     4  11  21  39  62  93 131 172 210 267 330 391
#     4   9  20  39  58  87 128 158 216 270 318 389
#     4   9  20  38  63  91 118 169 219 269 325 385
#     4  10  22  38  63  92 126 172 213 264 330 392
#     4  10  21  40  64  89 123 171 219 271 327 389
#
# _framework density 25.145468999999999
#
# number of rings (size 3 to 8) (size 9 to 14) (size 15 to 20)
#    0.000    2.000    1.429    2.143    2.000    2.286 
#    0.000    2.143    0.000    0.000    0.000    0.000 
#    0.000    0.000    0.000    0.000    0.000    0.000 
#
# Total GULP energy -78040.063426 kJ/mol
# GULP energy per Si atom -5574.290245 kJ/mol
# Density = 2.508824 g / cm^3
# Si number density = 25.145469 Si / 1000 Ang^3
#
#
#
# Elastic Constant Matrix: (Units=GPa)
#
#
# Indices 1 2 3 4 5 6 
#
# 1 214.9477 31.0968 51.7089 0.0000 44.3474 0.0000
# 2 31.0968 55.8063 14.3345 0.0000 6.3370 0.0000
# 3 51.7089 14.3345 94.7611 0.0000 21.9853 0.0000
# 4 0.0000 0.0000 0.0000 7.0966 0.0000 7.1824
# 5 44.3474 6.3370 21.9853 0.0000 53.1405 0.0000
# 6 0.0000 0.0000 0.0000 7.1824 0.0000 34.8766
#
#
#
# Elastic Compliance Matrix: (Units=1/GPa)
#
#
# Indices 1 2 3 4 5 6 
#
# 1 0.006390 -0.002540 -0.002141 0.000000 -0.004144 0.000000
# 2 -0.002540 0.019719 -0.001707 0.000000 0.000474 0.000000
# 3 -0.002141 -0.001707 0.012741 0.000000 -0.003281 0.000000
# 4 0.000000 0.000000 0.000000 0.178016 0.000000 -0.036660
# 5 -0.004144 0.000474 -0.003281 0.000000 0.023577 0.000000
# 6 0.000000 0.000000 0.000000 -0.036660 0.000000 0.036222
#
#
# Mechanical properties :
#
#
# Convention : Reuss Voigt Hill
#
# Bulk Modulus (GPa) = 38.35362 62.19950 50.27656
# Shear Modulus (GPa) = 16.77111 36.91440 26.84276
#
# Velocity S-wave (km/s) = 2.58537 3.83565 3.27080
# Velocity P-wave (km/s) = 4.91914 6.66377 5.85678
#
# Compressibility (1/GPa) = 0.02607316
#
# Stress axis : x y z
#
# Youngs Moduli (GPa) = 156.50009 50.71234 78.48943
#
# Poissons Ratio (x) = 0.12881 0.16806
# Poissons Ratio (y) = 0.39752 0.13398
# Poissons Ratio (z) = 0.33509 0.08656
#
# Static dielectric constant tensor:
#      x y z
#    x 2.006420 0.000000 0.040500 
#    y 0.000000 2.016720 0.000000 
#    z 0.040500 0.000000 2.173930 
# 
# From -- ./inp_files/38844.got.cif
#   From: 2010.05.17/outbox.cif.g08.bks.cpg/sg5_20_cif.got.tgz:38844.got - 2010.06.03 18:56:24.
