data_PCOD9125880
_publ_section_title
;
Structure prediction by ZEFSAII (Michael W. Deem and Ramdas Pophale) SiO2 
 PCOD9125880
Probable space group: C 2
;
_chemical_formula_sum "Si O2"
_cell_formula_units_Z 30
_cell_length_a 7.634307
_cell_length_b 12.105080
_cell_length_c 16.867143
_cell_angle_alpha 90.000000
_cell_angle_beta 114.854249
_cell_angle_gamma 90.000000
_cell_volume 1414.386093
_symmetry_space_group_name_H-M "C 2"
_symmetry_group_IT_number 5
_symmetry_cell_setting 'monoclinic'
loop_
_space_group_symop_operation_xyz
x,y,z
-x,y,-z
1/2+x,1/2+y,z
1/2-x,1/2+y,-z
loop_
_atom_site_type_symbol
_atom_site_label
_atom_site_fract_x
_atom_site_fract_y
_atom_site_fract_z
Si Si1 0.569238 0.308390 0.866534
Si Si2 0.837762 0.562328 0.153619
Si Si3 0.000000 0.942163 0.000000
Si Si4 0.126343 0.497323 0.592890
Si Si5 0.532559 0.568982 0.601747
Si Si6 0.392360 0.198357 0.318282
Si Si7 0.271443 0.787559 0.303917
Si Si8 0.706448 0.908877 0.244821
O O1 0.623408 0.179672 0.881714
O O2 0.607929 0.367200 0.956202
O O3 0.340641 0.300335 0.800614
O O4 0.678125 0.376579 0.815825
O O5 0.821371 0.609167 0.239813
O O6 0.010630 0.472499 0.184048
O O7 0.647330 0.512759 0.079851
O O8 0.338892 0.521644 0.602611
O O9 0.047593 0.617988 0.600009
O O10 0.134854 0.404393 0.660738
O O11 0.000000 0.446435 0.500000
O O12 0.500000 0.570421 0.500000
O O13 0.585732 0.688364 0.648035
O O14 0.695421 0.490342 0.671858
O O15 0.586512 0.259644 0.325980
O O16 0.224251 0.289462 0.291784
#
# Coordination Sequence:
#
# PCOD9125880 Si02
#       8
#     4   4   2   4   4   4   4   4
#     4  10  23  43  68  96 130 170 219 269 328 395
#     4  10  23  44  65  94 135 166 212 276 322 395
#     4  12  26  40  68 104 126 168 226 268 322 402
#     4  12  25  38  61  95 130 169 217 276 322 383
#     4  12  23  42  66  95 130 175 223 269 314 387
#     4  10  22  42  66  93 125 174 217 261 334 390
#     4  10  21  46  64  89 132 172 215 267 333 381
#     4  10  21  45  69  89 132 179 208 268 333 381
#
# _framework density 21.210616000000002
#
# number of rings (size 3 to 8) (size 9 to 14) (size 15 to 20)
#    0.000    1.600    5.333    2.000    0.000    6.400 
#    2.400    0.000    0.000    0.000    0.000    0.000 
#    0.000    0.000    0.000    0.000    0.000    0.000 
#
# Total GULP energy -83579.491357 kJ/mol
# GULP energy per Si atom -5571.966090 kJ/mol
# Density = 2.116234 g / cm^3
# Si number density = 21.210616 Si / 1000 Ang^3
#
#
#
# Elastic Constant Matrix: (Units=GPa)
#
#
# Indices 1 2 3 4 5 6 
#
# 1 36.9011 31.3107 27.0272 0.0000 14.0914 0.0000
# 2 31.3107 154.1565 33.3473 0.0000 4.2929 0.0000
# 3 27.0272 33.3473 -5.5146 0.0000 -0.7916 0.0000
# 4 0.0000 0.0000 0.0000 355.3701 0.0000 124.4663
# 5 14.0914 4.2929 -0.7916 0.0000 34.3739 0.0000
# 6 0.0000 0.0000 0.0000 124.4663 0.0000 37.8063
#
#
#
# Elastic Compliance Matrix: (Units=1/GPa)
#
#
# Indices 1 2 3 4 5 6 
#
# 1 0.016783 -0.009193 0.027395 0.000000 -0.005101 0.000000
# 2 -0.009193 0.007846 0.001984 0.000000 0.002834 0.000000
# 3 0.027395 0.001984 -0.033317 0.000000 -0.012245 0.000000
# 4 0.000000 0.000000 0.000000 -0.018383 0.000000 0.060520
# 5 -0.005101 0.002834 -0.012245 0.000000 0.030547 0.000000
# 6 0.000000 0.000000 0.000000 0.060520 0.000000 -0.172793
#
#
# Mechanical properties :
#
#
# Convention : Reuss Voigt Hill
#
# Bulk Modulus (GPa) = 31.56173 40.99037 36.27605
# Shear Modulus (GPa) = -25.10942 91.76725 33.32891
#
# Velocity S-wave (km/s) = -3.44439 6.58473 3.96830
# Velocity P-wave (km/s) = 0.95184 8.78516 6.17547
#
# Compressibility (1/GPa) = 0.03168395
#
# Stress axis : x y z
#
# Youngs Moduli (GPa) = 59.58523 127.45441 -30.01438
#
# Poissons Ratio (x) = 1.17166 0.82225
# Poissons Ratio (y) = 0.54776 0.05955
# Poissons Ratio (z) = -1.63234 -0.25288
#
# Static dielectric constant tensor:
#      x y z
#    x 1.827520 0.000000 -0.021680 
#    y 0.000000 1.791820 0.000000 
#    z -0.021680 0.000000 1.796150 
# 
# From -- ./inp_files/59582.got.cif
#   From: 2010.05.17/outbox.cif.g08.bks.cpg/sg5_30_cif.got.tgz:59582.got - 2010.06.03 18:56:24.
