data_PCOD9125093
_publ_section_title
;
Structure prediction by ZEFSAII (Michael W. Deem and Ramdas Pophale) SiO2 
 PCOD9125093
Probable space group: C 2
;
_chemical_formula_sum "Si O2"
_cell_formula_units_Z 18
_cell_length_a 7.142575
_cell_length_b 12.998433
_cell_length_c 8.226172
_cell_angle_alpha 90.000000
_cell_angle_beta 106.495590
_cell_angle_gamma 90.000000
_cell_volume 732.302404
_symmetry_space_group_name_H-M "C 2"
_symmetry_group_IT_number 5
_symmetry_cell_setting 'monoclinic'
loop_
_space_group_symop_operation_xyz
x,y,z
-x,y,-z
1/2+x,1/2+y,z
1/2-x,1/2+y,-z
loop_
_atom_site_type_symbol
_atom_site_label
_atom_site_fract_x
_atom_site_fract_y
_atom_site_fract_z
Si Si1 0.191607 0.582750 0.160268
Si Si2 0.722954 0.663246 0.485376
Si Si3 0.500000 0.547865 0.000000
Si Si4 0.223576 0.452990 0.685054
Si Si5 0.213308 0.376318 0.356136
O O1 0.164717 0.653769 0.312800
O O2 0.374153 0.614902 0.094163
O O3 0.257333 0.468321 0.242005
O O4 0.000000 0.577399 0.000000
O O5 0.500000 0.658199 0.500000
O O6 0.789388 0.563936 0.402595
O O7 0.737858 0.754728 0.357403
O O8 0.650651 0.473167 0.127389
O O9 0.315776 0.391915 0.557942
O O10 0.018495 0.400618 0.675387
#
# Coordination Sequence:
#
# PCOD9125093 Si02
#       5
#     4   4   2   4   4
#     4  11  24  44  74 104 148 188 240 310 363 428
#     4  11  21  42  73 103 136 195 242 289 368 440
#     4  12  22  40  68 106 138 190 236 298 368 420
#     4  10  21  39  68  97 142 186 232 298 363 421
#     4  10  22  45  70  96 143 196 235 294 365 440
#
# _framework density 24.580009
#
# number of rings (size 3 to 8) (size 9 to 14) (size 15 to 20)
#    0.000    1.333    6.667    0.000    0.000    0.000 
#    4.000   11.111    4.889    0.000    0.000    0.000 
#    0.000    0.000    0.000    0.000    0.000    0.000 
#
# Total GULP energy -50201.705673 kJ/mol
# GULP energy per Si atom -5577.967297 kJ/mol
# Density = 2.452406 g / cm^3
# Si number density = 24.580009 Si / 1000 Ang^3
#
#
#
# Elastic Constant Matrix: (Units=GPa)
#
#
# Indices 1 2 3 4 5 6 
#
# 1 81.1059 10.3693 16.1887 0.0000 -17.9596 0.0000
# 2 10.3693 101.4572 3.0439 0.0000 -1.5784 0.0000
# 3 16.1887 3.0439 143.3062 0.0000 22.8178 0.0000
# 4 0.0000 0.0000 0.0000 13.1792 0.0000 3.9647
# 5 -17.9596 -1.5784 22.8178 0.0000 38.4922 0.0000
# 6 0.0000 0.0000 0.0000 3.9647 0.0000 17.8533
#
#
#
# Elastic Compliance Matrix: (Units=1/GPa)
#
#
# Indices 1 2 3 4 5 6 
#
# 1 0.015058 -0.001310 -0.003073 0.000000 0.008794 0.000000
# 2 -0.001310 0.009989 -0.000035 0.000000 -0.000181 0.000000
# 3 -0.003073 -0.000035 0.008342 0.000000 -0.006380 0.000000
# 4 0.000000 0.000000 0.000000 0.081309 0.000000 -0.018056
# 5 0.008794 -0.000181 -0.006380 0.000000 0.033857 0.000000
# 6 0.000000 0.000000 0.000000 -0.018056 0.000000 0.060022
#
#
# Mechanical properties :
#
#
# Convention : Reuss Voigt Hill
#
# Bulk Modulus (GPa) = 40.73206 42.78590 41.75898
# Shear Modulus (GPa) = 22.16342 33.65610 27.90976
#
# Velocity S-wave (km/s) = 3.00606 3.70435 3.37332
# Velocity P-wave (km/s) = 5.35311 5.97836 5.67435
#
# Compressibility (1/GPa) = 0.02455069
#
# Stress axis : x y z
#
# Youngs Moduli (GPa) = 66.41110 100.11504 119.87639
#
# Poissons Ratio (x) = 0.13114 0.36842
# Poissons Ratio (y) = 0.08699 0.00425
# Poissons Ratio (z) = 0.20411 0.00355
#
# Static dielectric constant tensor:
#      x y z
#    x 2.086450 0.000000 -0.017580 
#    y 0.000000 1.963950 0.000000 
#    z -0.017580 0.000000 2.004370 
# 
# From -- ./inp_files/14664.got.cif
#   From: 2010.05.17/outbox.cif.g08.bks.cpg/sg5_8_cif.got.tgz:14664.got - 2010.06.03 18:56:24.
