data_PCOD9125653
_publ_section_title
;
Structure prediction by ZEFSAII (Michael W. Deem and Ramdas Pophale) SiO2 
 PCOD9125653
Probable space group: C 2
;
_chemical_formula_sum "Si O2"
_cell_formula_units_Z 28
_cell_length_a 24.793565
_cell_length_b 9.819969
_cell_length_c 7.031280
_cell_angle_alpha 90.000000
_cell_angle_beta 41.869273
_cell_angle_gamma 90.000000
_cell_volume 1142.592461
_symmetry_space_group_name_H-M "C 2"
_symmetry_group_IT_number 5
_symmetry_cell_setting 'monoclinic'
loop_
_space_group_symop_operation_xyz
x,y,z
-x,y,-z
1/2+x,1/2+y,z
1/2-x,1/2+y,-z
loop_
_atom_site_type_symbol
_atom_site_label
_atom_site_fract_x
_atom_site_fract_y
_atom_site_fract_z
Si Si1 0.145165 0.303910 0.965604
Si Si2 0.597951 0.018996 0.348166
Si Si3 0.675519 0.325452 0.462840
Si Si4 0.820110 0.372704 0.538534
Si Si5 0.349508 0.255659 0.055860
Si Si6 0.095767 0.107437 0.785441
Si Si7 0.015512 0.747520 0.734542
O O1 0.232693 0.300843 0.837043
O O2 0.161496 0.395483 0.732957
O O3 0.112885 0.166056 0.953114
O O4 0.087969 0.379526 0.261318
O O5 0.649516 0.985954 0.400035
O O6 0.645221 0.120014 0.082195
O O7 0.520314 0.095908 0.637680
O O8 0.650691 0.476224 0.600409
O O9 0.607222 0.299321 0.483715
O O10 0.667031 0.232042 0.675050
O O11 0.870625 0.231357 0.433884
O O12 0.725383 0.346056 0.810001
O O13 0.440629 0.316856 0.825626
O O14 0.000000 0.082624 0.000000
O O15 0.000000 0.749476 0.000000
#
# Coordination Sequence:
#
# PCOD9125653 Si02
#       7
#     4   4   4   4   4   4   4
#     4   9  24  42  70  99 137 184 226 279 352 406
#     4  12  24  42  67 104 137 178 235 283 339 421
#     4  10  21  44  71 101 138 184 229 284 348 409
#     4   9  24  43  66 100 138 181 226 285 345 409
#     4  10  22  43  64 100 136 180 228 283 343 398
#     4  10  21  42  69  96 135 182 227 278 345 410
#     4  10  24  40  72 103 138 183 231 294 346 399
#
# _framework density 24.505675
#
# number of rings (size 3 to 8) (size 9 to 14) (size 15 to 20)
#    0.857    1.143    0.000    2.571    6.000    4.000 
#    0.000    0.000    0.000    0.000    0.000    0.000 
#    0.000    0.000    0.000    0.000    0.000    0.000 
#
# Total GULP energy -78138.308312 kJ/mol
# GULP energy per Si atom -5581.307737 kJ/mol
# Density = 2.444990 g / cm^3
# Si number density = 24.505675 Si / 1000 Ang^3
#
#
#
# Elastic Constant Matrix: (Units=GPa)
#
#
# Indices 1 2 3 4 5 6 
#
# 1 135.8424 27.8398 38.4458 0.0000 -24.6780 0.0000
# 2 27.8398 62.3056 10.7640 0.0000 -0.2432 0.0000
# 3 38.4458 10.7640 79.4461 0.0000 -24.7032 0.0000
# 4 0.0000 0.0000 0.0000 32.0625 0.0000 0.5556
# 5 -24.6780 -0.2432 -24.7032 0.0000 50.3352 0.0000
# 6 0.0000 0.0000 0.0000 0.5556 0.0000 37.6540
#
#
#
# Elastic Compliance Matrix: (Units=1/GPa)
#
#
# Indices 1 2 3 4 5 6 
#
# 1 0.009589 -0.003726 -0.003162 0.000000 0.003131 0.000000
# 2 -0.003726 0.017944 -0.001380 0.000000 -0.002417 0.000000
# 3 -0.003162 -0.001380 0.016309 0.000000 0.006447 0.000000
# 4 0.000000 0.000000 0.000000 0.031197 0.000000 -0.000460
# 5 0.003131 -0.002417 0.006447 0.000000 0.024555 0.000000
# 6 0.000000 0.000000 0.000000 -0.000460 0.000000 0.026564
#
#
# Mechanical properties :
#
#
# Convention : Reuss Voigt Hill
#
# Bulk Modulus (GPa) = 36.62131 47.96593 42.29362
# Shear Modulus (GPa) = 32.93931 37.37996 35.15964
#
# Velocity S-wave (km/s) = 3.67024 3.90982 3.79193
# Velocity P-wave (km/s) = 5.73911 6.32441 6.03885
#
# Compressibility (1/GPa) = 0.02730651
#
# Stress axis : x y z
#
# Youngs Moduli (GPa) = 104.28834 55.72970 61.31664
#
# Poissons Ratio (x) = 0.20765 0.19386
# Poissons Ratio (y) = 0.38859 0.08459
# Poissons Ratio (z) = 0.32973 0.07689
#
# Static dielectric constant tensor:
#      x y z
#    x 1.995700 0.000000 -0.018050 
#    y 0.000000 1.961360 0.000000 
#    z -0.018050 0.000000 2.001140 
# 
# From -- ./inp_files/32497.got.cif
#   From: 2010.05.17/outbox.cif.g08.bks.cpg/sg5_17_cif.got.tgz:32497.got - 2010.06.03 18:56:24.
