data_PCOD9125018
_publ_section_title
;
Structure prediction by ZEFSAII (Michael W. Deem and Ramdas Pophale) SiO2 
 PCOD9125018
Probable space group: C 2
;
_chemical_formula_sum "Si O2"
_cell_formula_units_Z 26
_cell_length_a 15.651755
_cell_length_b 5.304812
_cell_length_c 12.224486
_cell_angle_alpha 90.000000
_cell_angle_beta 103.551093
_cell_angle_gamma 90.000000
_cell_volume 986.738337
_symmetry_space_group_name_H-M "C 2"
_symmetry_group_IT_number 5
_symmetry_cell_setting 'monoclinic'
loop_
_space_group_symop_operation_xyz
x,y,z
-x,y,-z
1/2+x,1/2+y,z
1/2-x,1/2+y,-z
loop_
_atom_site_type_symbol
_atom_site_label
_atom_site_fract_x
_atom_site_fract_y
_atom_site_fract_z
Si Si1 0.417416 0.905870 0.236773
Si Si2 0.761253 0.743671 0.189618
Si Si3 0.154031 0.252532 0.558739
Si Si4 0.862273 0.758501 0.585166
Si Si5 0.500000 0.465453 0.000000
Si Si6 0.588348 0.657046 0.238806
Si Si7 0.162867 0.052105 0.956326
O O1 0.521902 0.863098 0.267058
O O2 0.386917 0.790371 0.111132
O O3 0.359729 0.154324 0.243516
O O4 0.384960 0.748035 0.332054
O O5 0.689946 0.746362 0.264118
O O6 0.771108 0.992966 0.122590
O O7 0.720334 0.567317 0.082162
O O8 0.124664 0.501343 0.480734
O O9 0.260087 0.255116 0.592324
O O10 0.126800 0.994680 0.493281
O O11 0.914608 0.883695 0.703938
O O12 0.555428 0.620880 0.105199
O O13 0.418056 0.354716 0.044419
#
# Coordination Sequence:
#
# PCOD9125018 Si02
#       7
#     4   4   4   4   2   4   4
#     4  11  23  42  66 100 136 190 244 306 365 455
#     4  11  21  41  65 100 139 193 235 301 377 455
#     4  10  23  42  74 101 140 190 253 304 372 451
#     4  10  22  45  70 104 139 193 243 309 379 442
#     4   8  20  42  64  98 138 176 232 300 360 456
#     4  10  22  44  69  98 146 183 241 307 376 444
#     4  10  21  39  64  95 142 183 238 296 374 446
#
# _framework density 26.349440000000001
#
# number of rings (size 3 to 8) (size 9 to 14) (size 15 to 20)
#    0.000    1.846    3.077    0.000    2.154    1.846 
#    8.308    1.538    0.000    0.000    0.000    0.000 
#    0.000    0.000    0.000    0.000    0.000    0.000 
#
# Total GULP energy -72468.415114 kJ/mol
# GULP energy per Si atom -5574.493470 kJ/mol
# Density = 2.628947 g / cm^3
# Si number density = 26.349440 Si / 1000 Ang^3
#
#
#
# Elastic Constant Matrix: (Units=GPa)
#
#
# Indices 1 2 3 4 5 6 
#
# 1 100.2648 48.5586 34.3272 0.0000 -14.2889 0.0000
# 2 48.5586 114.0536 21.3236 0.0000 3.9283 0.0000
# 3 34.3272 21.3236 100.5882 0.0000 -3.3200 0.0000
# 4 0.0000 0.0000 0.0000 29.0014 0.0000 -3.9358
# 5 -14.2889 3.9283 -3.3200 0.0000 37.0819 0.0000
# 6 0.0000 0.0000 0.0000 -3.9358 0.0000 23.4542
#
#
#
# Elastic Compliance Matrix: (Units=1/GPa)
#
#
# Indices 1 2 3 4 5 6 
#
# 1 0.014936 -0.005885 -0.003650 0.000000 0.006052 0.000000
# 2 -0.005885 0.011497 -0.000546 0.000000 -0.003534 0.000000
# 3 -0.003650 -0.000546 0.011292 0.000000 -0.000338 0.000000
# 4 0.000000 0.000000 0.000000 0.035285 0.000000 0.005921
# 5 0.006052 -0.003534 -0.000338 0.000000 0.029644 0.000000
# 6 0.000000 0.000000 0.000000 0.005921 0.000000 0.043630
#
#
# Mechanical properties :
#
#
# Convention : Reuss Voigt Hill
#
# Bulk Modulus (GPa) = 56.93544 58.14730 57.54137
# Shear Modulus (GPa) = 29.01954 31.95396 30.48675
#
# Velocity S-wave (km/s) = 3.32224 3.48616 3.40519
# Velocity P-wave (km/s) = 6.03084 6.19032 6.11110
#
# Compressibility (1/GPa) = 0.01756375
#
# Stress axis : x y z
#
# Youngs Moduli (GPa) = 66.95356 86.97841 88.56173
#
# Poissons Ratio (x) = 0.51187 0.32323
# Poissons Ratio (y) = 0.39402 0.04832
# Poissons Ratio (z) = 0.24436 0.04745
#
# Static dielectric constant tensor:
#      x y z
#    x 2.162280 0.000000 0.017900 
#    y 0.000000 2.204050 0.000000 
#    z 0.017900 0.000000 2.186160 
# 
# From -- ./inp_files/55210.got.cif
#   From: 2010.05.17/outbox.cif.g08.bks.cpg/sg5_28_cif.got.tgz:55210.got - 2010.06.03 18:56:24.
