data_PCOD9125260
_publ_section_title
;
Structure prediction by ZEFSAII (Michael W. Deem and Ramdas Pophale) SiO2 
 PCOD9125260
Probable space group: C 2
;
_chemical_formula_sum "Si O2"
_cell_formula_units_Z 28
_cell_length_a 10.423408
_cell_length_b 10.419592
_cell_length_c 10.749931
_cell_angle_alpha 90.000000
_cell_angle_beta 71.688789
_cell_angle_gamma 90.000000
_cell_volume 1108.406073
_symmetry_space_group_name_H-M "C 2"
_symmetry_group_IT_number 5
_symmetry_cell_setting 'monoclinic'
loop_
_space_group_symop_operation_xyz
x,y,z
-x,y,-z
1/2+x,1/2+y,z
1/2-x,1/2+y,-z
loop_
_atom_site_type_symbol
_atom_site_label
_atom_site_fract_x
_atom_site_fract_y
_atom_site_fract_z
Si Si1 0.789959 0.013360 0.650299
Si Si2 0.000000 0.632856 0.500000
Si Si3 0.895623 0.753911 0.278674
Si Si4 0.208276 0.990857 0.076885
Si Si5 0.409167 0.794513 0.236374
Si Si6 0.339892 0.770578 0.966918
Si Si7 0.800880 0.027511 0.373869
Si Si8 0.500000 0.129830 0.000000
O O1 0.732371 0.156568 0.683137
O O2 0.850187 0.975458 0.765797
O O3 0.666424 0.911509 0.676339
O O4 0.857331 0.009040 0.496716
O O5 0.970971 0.718517 0.385653
O O6 0.861804 0.552761 0.567629
O O7 0.843767 0.899039 0.290339
O O8 0.980937 0.706732 0.134094
O O9 0.145418 0.118173 0.041148
O O10 0.365697 0.041512 0.032606
O O11 0.208159 0.860990 0.998118
O O12 0.568050 0.814616 0.176087
O O13 0.363017 0.659333 0.303850
O O14 0.371772 0.796620 0.101744
#
# Coordination Sequence:
#
# PCOD9125260 Si02
#       8
#     4   2   4   4   4   4   4   2
#     4   9  19  42  64  89 133 175 216 280 337 396
#     4  10  24  46  76  98 138 198 232 288 370 406
#     4  10  22  42  72 101 136 181 235 285 349 417
#     4  10  21  40  66  93 132 174 222 273 351 412
#     4  10  22  43  66  92 136 172 219 284 345 401
#     4  10  22  40  65  97 129 174 217 278 346 416
#     4  11  23  43  71  99 134 181 235 282 338 426
#     4  10  22  42  64 100 140 176 218 304 346 404
#
# _framework density 25.261500000000002
#
# number of rings (size 3 to 8) (size 9 to 14) (size 15 to 20)
#    0.000    2.000    0.000    4.286    2.000    4.571 
#   15.429    0.000    0.000    0.000    0.000    0.000 
#    0.000    0.000    0.000    0.000    0.000    0.000 
#
# Total GULP energy -78206.725590 kJ/mol
# GULP energy per Si atom -5586.194685 kJ/mol
# Density = 2.520400 g / cm^3
# Si number density = 25.261500 Si / 1000 Ang^3
#
#
#
# Elastic Constant Matrix: (Units=GPa)
#
#
# Indices 1 2 3 4 5 6 
#
# 1 69.3665 10.1728 22.3850 0.0000 1.2955 0.0000
# 2 10.1728 157.0577 66.4942 0.0000 -15.9654 0.0000
# 3 22.3850 66.4942 158.7104 0.0000 6.9753 0.0000
# 4 0.0000 0.0000 0.0000 48.0499 0.0000 -13.1437
# 5 1.2955 -15.9654 6.9753 0.0000 22.0056 0.0000
# 6 0.0000 0.0000 0.0000 -13.1437 0.0000 24.4480
#
#
#
# Elastic Compliance Matrix: (Units=1/GPa)
#
#
# Indices 1 2 3 4 5 6 
#
# 1 0.015107 -0.000143 -0.002056 0.000000 -0.000341 0.000000
# 2 -0.000143 0.008870 -0.004035 0.000000 0.007723 0.000000
# 3 -0.002056 -0.004035 0.008524 0.000000 -0.005509 0.000000
# 4 0.000000 0.000000 0.000000 0.024400 0.000000 0.013118
# 5 -0.000341 0.007723 -0.005509 0.000000 0.052812 0.000000
# 6 0.000000 0.000000 0.000000 0.013118 0.000000 0.047955
#
#
# Mechanical properties :
#
#
# Convention : Reuss Voigt Hill
#
# Bulk Modulus (GPa) = 49.91977 64.80428 57.36203
# Shear Modulus (GPa) = 28.27834 37.97288 33.12561
#
# Velocity S-wave (km/s) = 3.34941 3.88131 3.62513
# Velocity P-wave (km/s) = 5.89595 6.76721 6.34655
#
# Compressibility (1/GPa) = 0.02003214
#
# Stress axis : x y z
#
# Youngs Moduli (GPa) = 66.19466 112.74099 117.32163
#
# Poissons Ratio (x) = 0.01609 0.24120
# Poissons Ratio (y) = 0.00945 0.47345
# Poissons Ratio (z) = 0.13609 0.45496
#
# Static dielectric constant tensor:
#      x y z
#    x 2.348940 0.000000 0.019160 
#    y 0.000000 2.083700 0.000000 
#    z 0.019160 0.000000 1.954890 
# 
# From -- ./inp_files/41659.got.cif
#   From: 2010.05.17/outbox.cif.g08.bks.cpg/sg5_21_cif.got.tgz:41659.got - 2010.06.03 18:56:24.
