data_PCOD9125695
_publ_section_title
;
Structure prediction by ZEFSAII (Michael W. Deem and Ramdas Pophale) SiO2 
 PCOD9125695
Probable space group: C 2
;
_chemical_formula_sum "Si O2"
_cell_formula_units_Z 20
_cell_length_a 9.285860
_cell_length_b 16.087314
_cell_length_c 5.223520
_cell_angle_alpha 90.000000
_cell_angle_beta 86.087803
_cell_angle_gamma 90.000000
_cell_volume 778.494858
_symmetry_space_group_name_H-M "C 2"
_symmetry_group_IT_number 5
_symmetry_cell_setting 'monoclinic'
loop_
_space_group_symop_operation_xyz
x,y,z
-x,y,-z
1/2+x,1/2+y,z
1/2-x,1/2+y,-z
loop_
_atom_site_type_symbol
_atom_site_label
_atom_site_fract_x
_atom_site_fract_y
_atom_site_fract_z
Si Si1 0.842583 0.315910 0.578504
Si Si2 0.715038 0.172598 0.339888
Si Si3 0.000000 0.755279 0.000000
Si Si4 0.863565 0.038206 0.641482
Si Si5 0.248542 0.891922 0.068176
Si Si6 0.000000 0.165767 0.000000
O O1 0.732583 0.238653 0.569968
O O2 0.795434 0.373202 0.350722
O O3 0.000000 0.281560 0.500000
O O4 0.858058 0.371752 0.828589
O O5 0.752060 0.081977 0.456635
O O6 0.846841 0.199965 0.128186
O O7 0.567367 0.191747 0.206875
O O8 0.873918 0.826312 0.999724
O O9 0.000000 0.988144 0.500000
O O10 0.800191 0.986139 0.886321
O O11 0.946402 0.112508 0.769104
#
# Coordination Sequence:
#
# PCOD9125695 Si02
#       6
#     4   4   2   4   4   2
#     4  11  25  45  73 106 148 200 261 320 383 463
#     4  10  24  43  74 112 152 200 261 323 395 461
#     4  10  25  44  72 118 161 190 258 322 399 450
#     4  10  23  43  74 110 152 204 261 318 388 473
#     4  11  26  43  75 106 157 201 256 318 390 458
#     4  10  21  42  74 104 151 200 260 318 381 464
#
# _framework density 25.690598999999999
#
# number of rings (size 3 to 8) (size 9 to 14) (size 15 to 20)
#    0.000    1.600    0.000    3.000   19.600    2.400 
#    0.000    2.000    0.000    0.000    0.000    1.400 
#    0.000    0.000    0.000    0.000    0.000    0.000 
#
# Total GULP energy -55710.263979 kJ/mol
# GULP energy per Si atom -5571.026398 kJ/mol
# Density = 2.563213 g / cm^3
# Si number density = 25.690599 Si / 1000 Ang^3
#
#
#
# Elastic Constant Matrix: (Units=GPa)
#
#
# Indices 1 2 3 4 5 6 
#
# 1 107.7004 42.3033 34.4137 0.0000 28.0925 0.0000
# 2 42.3033 92.4379 58.4425 0.0000 4.7760 0.0000
# 3 34.4137 58.4425 122.1013 0.0000 3.3997 0.0000
# 4 0.0000 0.0000 0.0000 7.3826 0.0000 2.2597
# 5 28.0925 4.7760 3.3997 0.0000 30.4534 0.0000
# 6 0.0000 0.0000 0.0000 2.2597 0.0000 19.8764
#
#
#
# Elastic Compliance Matrix: (Units=1/GPa)
#
#
# Indices 1 2 3 4 5 6 
#
# 1 0.015270 -0.005480 -0.001317 0.000000 -0.013080 0.000000
# 2 -0.005480 0.017558 -0.006945 0.000000 0.003077 0.000000
# 3 -0.001317 -0.006945 0.011858 0.000000 0.000980 0.000000
# 4 0.000000 0.000000 0.000000 0.140338 0.000000 -0.015955
# 5 -0.013080 0.003077 0.000980 0.000000 0.044311 0.000000
# 6 0.000000 0.000000 0.000000 -0.015955 0.000000 0.052125
#
#
# Mechanical properties :
#
#
# Convention : Reuss Voigt Hill
#
# Bulk Modulus (GPa) = 58.13147 65.83984 61.98565
# Shear Modulus (GPa) = 15.88934 24.01448 19.95191
#
# Velocity S-wave (km/s) = 2.48964 3.06070 2.78982
# Velocity P-wave (km/s) = 5.56247 6.17852 5.87857
#
# Compressibility (1/GPa) = 0.01720239
#
# Stress axis : x y z
#
# Youngs Moduli (GPa) = 65.48862 56.95471 84.33192
#
# Poissons Ratio (x) = 0.31210 0.11104
# Poissons Ratio (y) = 0.35887 0.58569
# Poissons Ratio (z) = 0.08623 0.39555
#
# Static dielectric constant tensor:
#      x y z
#    x 2.154490 0.000000 -0.185780 
#    y 0.000000 2.050270 0.000000 
#    z -0.185780 0.000000 2.243260 
# 
# From -- ./inp_files/2429.got.cif
#   From: 2010.05.17/outbox.cif.g08.bks.cpg/sg5_2_cif.got.tgz:2429.got - 2010.06.03 18:56:24.
