data_PCOD9125927
_publ_section_title
;
Structure prediction by ZEFSAII (Michael W. Deem and Ramdas Pophale) SiO2 
 PCOD9125927
Probable space group: C 2
;
_chemical_formula_sum "Si O2"
_cell_formula_units_Z 28
_cell_length_a 20.411724
_cell_length_b 8.524669
_cell_length_c 14.727398
_cell_angle_alpha 90.000000
_cell_angle_beta 151.319547
_cell_angle_gamma 90.000000
_cell_volume 1229.860649
_symmetry_space_group_name_H-M "C 2"
_symmetry_group_IT_number 5
_symmetry_cell_setting 'monoclinic'
loop_
_space_group_symop_operation_xyz
x,y,z
-x,y,-z
1/2+x,1/2+y,z
1/2-x,1/2+y,-z
loop_
_atom_site_type_symbol
_atom_site_label
_atom_site_fract_x
_atom_site_fract_y
_atom_site_fract_z
Si Si1 0.921522 0.593180 0.531326
Si Si2 0.355216 0.431313 0.870064
Si Si3 0.889952 0.413190 0.674801
Si Si4 0.303538 0.857213 0.949550
Si Si5 0.106712 0.950078 0.556209
Si Si6 0.747686 0.164797 0.381106
Si Si7 0.219224 0.503776 0.881783
O O1 0.774307 0.540563 0.313923
O O2 0.912488 0.544213 0.624787
O O3 0.935308 0.778491 0.531468
O O4 0.055614 0.496798 0.660350
O O5 0.325028 0.266832 0.784044
O O6 0.327028 0.418770 0.944494
O O7 0.500000 0.484434 0.000000
O O8 0.786727 0.283616 0.509398
O O9 0.835305 0.512005 0.691490
O O10 0.035527 0.338934 0.868446
O O11 0.241165 0.925900 0.781398
O O12 0.247412 0.686270 0.902499
O O13 0.269236 0.955708 0.998826
O O14 0.000000 0.004285 0.500000
O O15 0.117293 0.084820 0.494779
#
# Coordination Sequence:
#
# PCOD9125927 Si02
#       7
#     4   4   4   4   4   4   4
#     4  10  21  48  72  97 138 184 218 284 340 414
#     4  11  25  43  69 102 137 183 229 281 341 409
#     4  10  25  47  69 100 135 183 229 279 347 400
#     4  11  26  41  74 101 135 177 232 287 329 414
#     4  12  24  43  69 104 136 177 227 280 345 405
#     4  11  27  44  70  96 143 181 226 286 343 413
#     4  11  24  45  71 102 141 178 228 281 347 397
#
# _framework density 22.766807
#
# number of rings (size 3 to 8) (size 9 to 14) (size 15 to 20)
#    0.000    1.143    2.857    1.286    6.000    6.857 
#    0.000    0.000    0.000    0.000    0.000    0.000 
#    0.000    0.000    0.000    0.000    0.000    0.000 
#
# Total GULP energy -78155.870195 kJ/mol
# GULP energy per Si atom -5582.562157 kJ/mol
# Density = 2.271499 g / cm^3
# Si number density = 22.766807 Si / 1000 Ang^3
#
#
#
# Elastic Constant Matrix: (Units=GPa)
#
#
# Indices 1 2 3 4 5 6 
#
# 1 81.1680 39.5755 18.4026 0.0000 30.4951 0.0000
# 2 39.5755 83.1846 15.5203 0.0000 0.2293 0.0000
# 3 18.4026 15.5203 58.6530 0.0000 9.3609 0.0000
# 4 0.0000 0.0000 0.0000 22.1001 0.0000 -2.7291
# 5 30.4951 0.2293 9.3609 0.0000 35.7397 0.0000
# 6 0.0000 0.0000 0.0000 -2.7291 0.0000 45.6505
#
#
#
# Elastic Compliance Matrix: (Units=1/GPa)
#
#
# Indices 1 2 3 4 5 6 
#
# 1 0.027529 -0.012735 -0.001598 0.000000 -0.022989 0.000000
# 2 -0.012735 0.018561 -0.002746 0.000000 0.011467 0.000000
# 3 -0.001598 -0.002746 0.018845 0.000000 -0.003554 0.000000
# 4 0.000000 0.000000 0.000000 0.045585 0.000000 0.002725
# 5 -0.022989 0.011467 -0.003554 0.000000 0.048453 0.000000
# 6 0.000000 0.000000 0.000000 0.002725 0.000000 0.022068
#
#
# Mechanical properties :
#
#
# Convention : Reuss Voigt Hill
#
# Bulk Modulus (GPa) = 32.49317 41.11136 36.80226
# Shear Modulus (GPa) = 22.17694 30.66520 26.42107
#
# Velocity S-wave (km/s) = 3.12443 3.67403 3.41032
# Velocity P-wave (km/s) = 5.22678 6.00789 5.63090
#
# Compressibility (1/GPa) = 0.03077570
#
# Stress axis : x y z
#
# Youngs Moduli (GPa) = 36.32524 53.87610 53.06514
#
# Poissons Ratio (x) = 0.68614 0.08482
# Poissons Ratio (y) = 0.46262 0.14570
# Poissons Ratio (z) = 0.05806 0.14793
#
# Static dielectric constant tensor:
#      x y z
#    x 1.932300 0.000000 0.000890 
#    y 0.000000 1.790550 0.000000 
#    z 0.000890 0.000000 1.921610 
# 
# From -- ./inp_files/56925.got.cif
#   From: 2010.05.17/outbox.cif.g08.bks.cpg/sg5_29_cif.got.tgz:56925.got - 2010.06.03 18:56:24.
