data_PCOD9125078
_publ_section_title
;
Structure prediction by ZEFSAII (Michael W. Deem and Ramdas Pophale) SiO2 
 PCOD9125078
Probable space group: C 2
;
_chemical_formula_sum "Si O2"
_cell_formula_units_Z 24
_cell_length_a 13.419650
_cell_length_b 14.156190
_cell_length_c 9.429318
_cell_angle_alpha 90.000000
_cell_angle_beta 149.816239
_cell_angle_gamma 90.000000
_cell_volume 900.619826
_symmetry_space_group_name_H-M "C 2"
_symmetry_group_IT_number 5
_symmetry_cell_setting 'monoclinic'
loop_
_space_group_symop_operation_xyz
x,y,z
-x,y,-z
1/2+x,1/2+y,z
1/2-x,1/2+y,-z
loop_
_atom_site_type_symbol
_atom_site_label
_atom_site_fract_x
_atom_site_fract_y
_atom_site_fract_z
Si Si1 0.230692 0.186550 0.253868
Si Si2 0.263197 0.479914 0.722004
Si Si3 0.894413 0.779370 0.191690
Si Si4 0.769619 0.569350 0.715587
Si Si5 0.799534 0.275590 0.341437
Si Si6 0.358971 0.488975 0.154562
O O1 0.274392 0.203076 0.139028
O O2 0.375539 0.261832 0.500126
O O3 0.299630 0.084524 0.400167
O O4 0.000000 0.197548 0.000000
O O5 0.186166 0.379445 0.571279
O O6 0.500000 0.475744 0.000000
O O7 0.235001 0.488008 0.857720
O O8 0.836916 0.881891 0.179510
O O9 0.860011 0.781606 0.981817
O O10 0.743315 0.677828 0.633492
O O11 0.594535 0.510529 0.422817
O O12 0.711828 0.559043 0.810703
O O13 0.000000 0.540615 0.000000
O O14 0.000000 0.262619 0.500000
#
# Coordination Sequence:
#
# PCOD9125078 Si02
#       6
#     4   4   4   4   4   4
#     4  10  21  39  67  93 122 161 212 255 315 374
#     4  10  23  43  62  93 128 165 214 261 315 382
#     4  10  23  41  63  90 129 163 205 262 312 370
#     4  11  22  39  68  93 123 167 216 256 324 372
#     4  11  23  43  63  91 130 169 209 263 316 372
#     4  10  22  43  61  91 134 159 208 272 306 378
#
# _framework density 26.648313999999999
#
# number of rings (size 3 to 8) (size 9 to 14) (size 15 to 20)
#    0.000    1.667    1.667    3.500    2.333    5.333 
#   12.000    0.000    0.000    0.000    0.000    0.000 
#    0.000    0.000    0.000    0.000    0.000    0.000 
#
# Total GULP energy -67150.730756 kJ/mol
# GULP energy per Si atom -5595.894230 kJ/mol
# Density = 2.658766 g / cm^3
# Si number density = 26.648314 Si / 1000 Ang^3
#
#
#
# Elastic Constant Matrix: (Units=GPa)
#
#
# Indices 1 2 3 4 5 6 
#
# 1 73.4728 31.9581 14.2263 0.0000 9.7971 0.0000
# 2 31.9581 157.5443 7.0442 0.0000 6.5315 0.0000
# 3 14.2263 7.0442 98.2256 0.0000 21.2207 0.0000
# 4 0.0000 0.0000 0.0000 33.7998 0.0000 5.4280
# 5 9.7971 6.5315 21.2207 0.0000 49.2589 0.0000
# 6 0.0000 0.0000 0.0000 5.4280 0.0000 33.3364
#
#
#
# Elastic Compliance Matrix: (Units=1/GPa)
#
#
# Indices 1 2 3 4 5 6 
#
# 1 0.015485 -0.002987 -0.001597 0.000000 -0.001996 0.000000
# 2 -0.002987 0.006967 0.000005 0.000000 -0.000332 0.000000
# 3 -0.001597 0.000005 0.011405 0.000000 -0.004596 0.000000
# 4 0.000000 0.000000 0.000000 0.030380 0.000000 -0.004947
# 5 -0.001996 -0.000332 -0.004596 0.000000 0.022722 0.000000
# 6 0.000000 0.000000 0.000000 -0.004947 0.000000 0.030803
#
#
# Mechanical properties :
#
#
# Convention : Reuss Voigt Hill
#
# Bulk Modulus (GPa) = 40.49067 48.41111 44.45089
# Shear Modulus (GPa) = 36.99500 41.67995 39.33748
#
# Velocity S-wave (km/s) = 3.72999 3.95913 3.84627
# Velocity P-wave (km/s) = 5.81187 6.25346 6.03670
#
# Compressibility (1/GPa) = 0.02469705
#
# Stress axis : x y z
#
# Youngs Moduli (GPa) = 64.57813 143.53623 87.68393
#
# Poissons Ratio (x) = 0.42874 0.14007
# Poissons Ratio (y) = 0.19290 -0.00041
# Poissons Ratio (z) = 0.10316 -0.00067
#
# Static dielectric constant tensor:
#      x y z
#    x 2.148950 0.000000 -0.019250 
#    y 0.000000 2.044590 0.000000 
#    z -0.019250 0.000000 2.137060 
# 
# From -- ./inp_files/43118.got.cif
#   From: 2010.05.17/outbox.cif.g08.bks.cpg/sg5_22_cif.got.tgz:43118.got - 2010.06.03 18:56:24.
