data_PCOD9125504
_publ_section_title
;
Structure prediction by ZEFSAII (Michael W. Deem and Ramdas Pophale) SiO2 
 PCOD9125504
Probable space group: C 2
;
_chemical_formula_sum "Si O2"
_cell_formula_units_Z 28
_cell_length_a 15.497961
_cell_length_b 18.186411
_cell_length_c 5.511776
_cell_angle_alpha 90.000000
_cell_angle_beta 112.834645
_cell_angle_gamma 90.000000
_cell_volume 1431.756285
_symmetry_space_group_name_H-M "C 2"
_symmetry_group_IT_number 5
_symmetry_cell_setting 'monoclinic'
loop_
_space_group_symop_operation_xyz
x,y,z
-x,y,-z
1/2+x,1/2+y,z
1/2-x,1/2+y,-z
loop_
_atom_site_type_symbol
_atom_site_label
_atom_site_fract_x
_atom_site_fract_y
_atom_site_fract_z
Si Si1 0.733569 0.514000 0.935073
Si Si2 0.103414 0.139381 0.715163
Si Si3 0.337696 0.014099 0.535607
Si Si4 0.787576 0.371512 0.222471
Si Si5 0.747591 0.233656 0.431335
Si Si6 0.897699 0.279055 0.977420
Si Si7 0.946803 0.651993 0.689533
O O1 0.638494 0.558747 0.817929
O O2 0.785138 0.524020 0.734417
O O3 0.788399 0.544456 0.233606
O O4 0.730210 0.427786 0.990924
O O5 0.181607 0.177163 0.626133
O O6 0.000000 0.138018 0.500000
O O7 0.097936 0.194846 0.931956
O O8 0.334132 0.926868 0.471583
O O9 0.429704 0.063453 0.661093
O O10 0.724102 0.303417 0.235857
O O11 0.870189 0.332588 0.165385
O O12 0.811797 0.275049 0.698683
O O13 0.655168 0.191182 0.413117
O O14 0.000000 0.300399 0.000000
O O15 0.000000 0.673201 0.500000
O O16 0.000000 0.668888 0.000000
#
# Coordination Sequence:
#
# PCOD9125504 Si02
#       7
#     4   4   4   4   4   4   4
#     4  10  21  41  69  99 137 181 218 272 353 397
#     4  11  22  38  69 105 133 180 228 285 341 415
#     4  10  21  45  65 100 133 178 222 278 344 397
#     4   9  24  40  72  96 141 184 218 279 355 403
#     4  11  23  45  70  94 145 175 231 289 340 402
#     4  11  22  41  68 105 137 179 225 283 355 415
#     4  12  27  45  72 104 131 184 241 283 338 403
#
# _framework density 19.5564
#
# number of rings (size 3 to 8) (size 9 to 14) (size 15 to 20)
#    0.857    0.571    2.857    2.571    4.000    0.000 
#    5.143    0.000    6.286    0.000    0.000    0.000 
#    0.000    0.000    0.000    0.000    0.000    0.000 
#
# Total GULP energy -77952.206350 kJ/mol
# GULP energy per Si atom -5568.014739 kJ/mol
# Density = 1.951189 g / cm^3
# Si number density = 19.556400 Si / 1000 Ang^3
#
#
#
# Elastic Constant Matrix: (Units=GPa)
#
#
# Indices 1 2 3 4 5 6 
#
# 1 98.1344 68.1303 63.7140 0.0000 8.4195 0.0000
# 2 68.1303 100.2130 30.7391 0.0000 -2.5829 0.0000
# 3 63.7140 30.7391 171.0320 0.0000 13.9324 0.0000
# 4 0.0000 0.0000 0.0000 10.2479 0.0000 0.0175
# 5 8.4195 -2.5829 13.9324 0.0000 31.3501 0.0000
# 6 0.0000 0.0000 0.0000 0.0175 0.0000 1.5915
#
#
#
# Elastic Compliance Matrix: (Units=1/GPa)
#
#
# Indices 1 2 3 4 5 6 
#
# 1 0.025538 -0.015574 -0.006279 0.000000 -0.005351 0.000000
# 2 -0.015574 0.020155 0.001767 0.000000 0.005058 0.000000
# 3 -0.006279 0.001767 0.008009 0.000000 -0.001727 0.000000
# 4 0.000000 0.000000 0.000000 0.097582 0.000000 -0.001075
# 5 -0.005351 0.005058 -0.001727 0.000000 0.034519 0.000000
# 6 0.000000 0.000000 0.000000 -0.001075 0.000000 0.628338
#
#
# Mechanical properties :
#
#
# Convention : Reuss Voigt Hill
#
# Bulk Modulus (GPa) = 73.90282 77.17178 75.53730
# Shear Modulus (GPa) = 5.82192 22.42432 14.12312
#
# Velocity S-wave (km/s) = 1.72727 3.38989 2.69024
# Velocity P-wave (km/s) = 6.46912 7.40734 6.95407
#
# Compressibility (1/GPa) = 0.01353128
#
# Stress axis : x y z
#
# Youngs Moduli (GPa) = 39.15713 49.61491 124.86151
#
# Poissons Ratio (x) = 0.77272 0.78395
# Poissons Ratio (y) = 0.60984 -0.22068
# Poissons Ratio (z) = 0.24585 -0.08769
#
# Static dielectric constant tensor:
#      x y z
#    x 1.671830 0.000000 -0.020830 
#    y 0.000000 1.679260 0.000000 
#    z -0.020830 0.000000 1.908180 
# 
# From -- ./inp_files/7246.got.cif
#   From: 2010.05.17/outbox.cif.g08.bks.cpg/sg5_4_cif.got.tgz:7246.got - 2010.06.03 18:56:24.
