data_PCOD9125807
_publ_section_title
;
Structure prediction by ZEFSAII (Michael W. Deem and Ramdas Pophale) SiO2 
 PCOD9125807
Probable space group: C 2
;
_chemical_formula_sum "Si O2"
_cell_formula_units_Z 24
_cell_length_a 20.991616
_cell_length_b 5.155901
_cell_length_c 12.163739
_cell_angle_alpha 90.000000
_cell_angle_beta 56.713434
_cell_angle_gamma 90.000000
_cell_volume 1100.501399
_symmetry_space_group_name_H-M "C 2"
_symmetry_group_IT_number 5
_symmetry_cell_setting 'monoclinic'
loop_
_space_group_symop_operation_xyz
x,y,z
-x,y,-z
1/2+x,1/2+y,z
1/2-x,1/2+y,-z
loop_
_atom_site_type_symbol
_atom_site_label
_atom_site_fract_x
_atom_site_fract_y
_atom_site_fract_z
Si Si1 0.224910 0.982520 0.883482
Si Si2 0.574287 0.355062 0.564291
Si Si3 0.795930 0.170243 0.622663
Si Si4 0.996000 0.358258 0.286271
Si Si5 0.346338 0.000049 0.361806
Si Si6 0.343503 0.984173 0.972771
O O1 0.274438 0.874712 0.736156
O O2 0.282268 0.990180 0.932121
O O3 0.160975 0.764691 0.967540
O O4 0.185283 0.260736 0.917633
O O5 0.633004 0.477156 0.420599
O O6 0.529382 0.082504 0.601717
O O7 0.631600 0.285429 0.611962
O O8 0.514403 0.577971 0.650325
O O9 0.719969 0.015417 0.662271
O O10 0.818840 0.334695 0.493069
O O11 0.929139 0.383138 0.257149
O O12 0.076258 0.415224 0.157107
#
# Coordination Sequence:
#
# PCOD9125807 Si02
#       6
#     4   4   4   4   4   4
#     4  10  24  36  66  82 112 156 201 242 286 333
#     4   9  19  31  57  85 108 154 173 233 294 338
#     4  11  19  36  59  90 121 146 198 232 292 362
#     4   9  18  35  60  75 116 150 186 231 296 332
#     4   9  19  32  58  85 114 151 175 238 295 340
#     4  10  21  44  57  84 112 158 201 244 279 336
#
# _framework density 21.808240000000001
#
# number of rings (size 3 to 8) (size 9 to 14) (size 15 to 20)
#    1.000    1.333    1.667    1.000    2.333    0.000 
#    0.000    4.167    3.667    0.000    0.000    0.000 
#    0.000    0.000    0.000    0.000    0.000    0.000 
#
# Total GULP energy -66863.116509 kJ/mol
# GULP energy per Si atom -5571.926376 kJ/mol
# Density = 2.175860 g / cm^3
# Si number density = 21.808240 Si / 1000 Ang^3
#
#
#
# Elastic Constant Matrix: (Units=GPa)
#
#
# Indices 1 2 3 4 5 6 
#
# 1 34.7057 20.4907 14.3324 -0.0002 -19.3101 0.0006
# 2 20.4907 109.2584 32.3645 -0.0003 -1.8947 0.0023
# 3 14.3324 32.3645 95.8879 0.0000 -25.2957 0.0007
# 4 -0.0002 -0.0003 0.0000 34.1739 -0.0001 -4.4652
# 5 -19.3101 -1.8947 -25.2957 -0.0001 33.6703 -0.0003
# 6 0.0006 0.0023 0.0007 -4.4652 -0.0003 14.0448
#
#
#
# Elastic Compliance Matrix: (Units=1/GPa)
#
#
# Indices 1 2 3 4 5 6 
#
# 1 0.050739 -0.010218 0.004228 0.000000 0.031700 0.000000
# 2 -0.010218 0.012399 -0.005013 0.000000 -0.008929 -0.000002
# 3 0.004228 -0.005013 0.015034 0.000000 0.013437 0.000000
# 4 0.000000 0.000000 0.000000 0.030530 0.000000 0.009706
# 5 0.031700 -0.008929 0.013437 0.000000 0.057473 0.000001
# 6 0.000000 -0.000002 0.000000 0.009706 0.000001 0.074287
#
#
# Mechanical properties :
#
#
# Convention : Reuss Voigt Hill
#
# Bulk Modulus (GPa) = 17.80498 41.58080 29.69289
# Shear Modulus (GPa) = 17.78156 27.88875 22.83515
#
# Velocity S-wave (km/s) = 2.85855 3.57993 3.23938
# Velocity P-wave (km/s) = 4.36774 6.01630 5.25704
#
# Compressibility (1/GPa) = 0.05616405
#
# Stress axis : x y z
#
# Youngs Moduli (GPa) = 19.70880 80.65062 66.51703
#
# Poissons Ratio (x) = 0.82412 -0.28121
# Poissons Ratio (y) = 0.20139 0.33346
# Poissons Ratio (z) = -0.08332 0.40431
#
# Static dielectric constant tensor:
#      x y z
#    x 1.826760 0.000000 -0.000960 
#    y 0.000000 1.854880 0.000000 
#    z -0.000960 0.000000 1.790600 
# 
# From -- ./inp_files/46906.got.cif
#   From: 2010.05.17/outbox.cif.g08.bks.cpg/sg5_24_cif.got.tgz:46906.got - 2010.06.03 18:56:24.
