data_PCOD9125922
_publ_section_title
;
Structure prediction by ZEFSAII (Michael W. Deem and Ramdas Pophale) SiO2 
 PCOD9125922
Probable space group: C 2
;
_chemical_formula_sum "Si O2"
_cell_formula_units_Z 28
_cell_length_a 22.270382
_cell_length_b 5.051693
_cell_length_c 10.680574
_cell_angle_alpha 90.000000
_cell_angle_beta 99.378326
_cell_angle_gamma 90.000000
_cell_volume 1185.537325
_symmetry_space_group_name_H-M "C 2"
_symmetry_group_IT_number 5
_symmetry_cell_setting 'monoclinic'
loop_
_space_group_symop_operation_xyz
x,y,z
-x,y,-z
1/2+x,1/2+y,z
1/2-x,1/2+y,-z
loop_
_atom_site_type_symbol
_atom_site_label
_atom_site_fract_x
_atom_site_fract_y
_atom_site_fract_z
Si Si1 0.500000 0.661650 0.500000
Si Si2 0.170043 0.045498 0.547896
Si Si3 0.894041 0.695021 0.863639
Si Si4 0.500000 0.570568 0.000000
Si Si5 0.982201 0.663097 0.676568
Si Si6 0.348230 0.036245 0.328820
Si Si7 0.925196 0.457289 0.125159
Si Si8 0.220301 0.847459 0.310009
O O1 0.504168 0.899072 0.609376
O O2 0.363235 0.825110 0.443754
O O3 0.025600 0.925565 0.411633
O O4 0.135664 0.826837 0.618785
O O5 0.181058 0.956859 0.411819
O O6 0.238389 0.104369 0.624187
O O7 0.942119 0.908934 0.931307
O O8 0.922531 0.606355 0.740467
O O9 0.826103 0.787370 0.814505
O O10 0.893986 0.498303 0.980525
O O11 0.522951 0.752262 0.894076
O O12 0.036997 0.697192 0.797239
O O13 0.374811 0.912052 0.212738
O O14 0.275146 0.041358 0.292689
#
# Coordination Sequence:
#
# PCOD9125922 Si02
#       8
#     2   4   4   2   4   4   4   4
#     4  10  26  44  70 106 144 180 252 302 368 440
#     4  10  21  47  72 109 147 187 240 309 386 434
#     4  12  26  45  79 103 150 205 252 307 374 466
#     4  12  24  50  70 110 148 208 256 306 380 450
#     4  11  23  48  69 109 144 191 241 309 370 449
#     4  10  24  44  73 105 143 192 242 306 374 444
#     4  12  26  47  73 103 155 201 248 311 380 445
#     4  10  23  47  73 110 144 194 250 307 382 452
#
# _framework density 23.617979999999999
#
# number of rings (size 3 to 8) (size 9 to 14) (size 15 to 20)
#    0.857    0.286    4.286    0.857    2.000    4.571 
#    5.143    0.000    0.000    0.000    0.000    0.000 
#    0.000    0.000    0.000    0.000    0.000    0.000 
#
# Total GULP energy -77942.822098 kJ/mol
# GULP energy per Si atom -5567.344436 kJ/mol
# Density = 2.356422 g / cm^3
# Si number density = 23.617980 Si / 1000 Ang^3
#
#
#
# Elastic Constant Matrix: (Units=GPa)
#
#
# Indices 1 2 3 4 5 6 
#
# 1 53.4562 21.8401 30.6626 0.0000 -19.6238 0.0000
# 2 21.8401 52.0029 5.0582 0.0000 1.8772 0.0000
# 3 30.6626 5.0582 97.7857 0.0000 0.2097 0.0000
# 4 0.0000 0.0000 0.0000 33.5055 0.0000 -3.1431
# 5 -19.6238 1.8772 0.2097 0.0000 57.8982 0.0000
# 6 0.0000 0.0000 0.0000 -3.1431 0.0000 10.0766
#
#
#
# Elastic Compliance Matrix: (Units=1/GPa)
#
#
# Indices 1 2 3 4 5 6 
#
# 1 0.034840 -0.014082 -0.010223 0.000000 0.012302 0.000000
# 2 -0.014082 0.025041 0.003132 0.000000 -0.005596 0.000000
# 3 -0.010223 0.003132 0.013278 0.000000 -0.003615 0.000000
# 4 0.000000 0.000000 0.000000 0.030745 0.000000 0.009590
# 5 0.012302 -0.005596 -0.003615 0.000000 0.021636 0.000000
# 6 0.000000 0.000000 0.000000 0.009590 0.000000 0.102231
#
#
# Mechanical properties :
#
#
# Convention : Reuss Voigt Hill
#
# Bulk Modulus (GPa) = 32.45236 35.37405 33.91320
# Shear Modulus (GPa) = 17.83249 30.00833 23.92041
#
# Velocity S-wave (km/s) = 2.75078 3.56837 3.18591
# Velocity P-wave (km/s) = 4.88461 5.65578 5.28428
#
# Compressibility (1/GPa) = 0.03081440
#
# Stress axis : x y z
#
# Youngs Moduli (GPa) = 28.70256 39.93436 75.31408
#
# Poissons Ratio (x) = 0.56235 0.76992
# Poissons Ratio (y) = 0.40418 -0.23591
# Poissons Ratio (z) = 0.29342 -0.12509
#
# Static dielectric constant tensor:
#      x y z
#    x 1.993490 0.000000 0.005530 
#    y 0.000000 1.969840 0.000000 
#    z 0.005530 0.000000 1.927320 
# 
# From -- ./inp_files/45522.got.cif
#   From: 2010.05.17/outbox.cif.g08.bks.cpg/sg5_23_cif.got.tgz:45522.got - 2010.06.03 18:56:24.
