data_PCOD9125103
_publ_section_title
;
Structure prediction by ZEFSAII (Michael W. Deem and Ramdas Pophale) SiO2 
 PCOD9125103
Probable space group: C 2
;
_chemical_formula_sum "Si O2"
_cell_formula_units_Z 30
_cell_length_a 18.747141
_cell_length_b 5.135589
_cell_length_c 14.254455
_cell_angle_alpha 90.000000
_cell_angle_beta 106.616873
_cell_angle_gamma 90.000000
_cell_volume 1315.071888
_symmetry_space_group_name_H-M "C 2"
_symmetry_group_IT_number 5
_symmetry_cell_setting 'monoclinic'
loop_
_space_group_symop_operation_xyz
x,y,z
-x,y,-z
1/2+x,1/2+y,z
1/2-x,1/2+y,-z
loop_
_atom_site_type_symbol
_atom_site_label
_atom_site_fract_x
_atom_site_fract_y
_atom_site_fract_z
Si Si1 0.500000 0.339700 0.000000
Si Si2 0.149442 0.686815 0.148569
Si Si3 0.525644 0.625048 0.814984
Si Si4 0.872238 0.007781 0.685384
Si Si5 0.385707 0.137289 0.205244
Si Si6 0.792250 0.078889 0.484255
Si Si7 0.249866 0.995602 0.048624
Si Si8 0.237189 0.827629 0.715170
O O1 0.570977 0.168205 0.062877
O O2 0.477176 0.526005 0.078332
O O3 0.127945 0.755132 0.247927
O O4 0.193489 0.917303 0.110431
O O5 0.213562 0.469432 0.185222
O O6 0.441979 0.667506 0.748451
O O7 0.558877 0.376865 0.773562
O O8 0.571924 0.875099 0.803005
O O9 0.865059 0.992131 0.570850
O O10 0.796574 0.148327 0.686332
O O11 0.331579 0.158345 0.273816
O O12 0.323884 0.162998 0.100862
O O13 0.730292 0.874423 0.500661
O O14 0.793116 0.030880 0.373428
O O15 0.284455 0.718302 0.029823
#
# Coordination Sequence:
#
# PCOD9125103 Si02
#       8
#     2   4   4   4   4   4   4   4
#     4  10  24  44  66 100 144 190 238 280 352 408
#     4  11  21  41  65 100 130 187 223 291 330 414
#     4  11  27  44  68  98 143 184 229 283 345 410
#     4  10  23  43  69 100 138 181 230 284 345 415
#     4  12  25  44  66 101 134 185 224 286 349 408
#     4  10  21  39  70 108 132 170 231 287 341 406
#     4  12  24  40  63  92 134 175 232 278 330 396
#     4  11  23  42  75  99 140 176 234 289 346 411
#
# _framework density 22.812441
#
# number of rings (size 3 to 8) (size 9 to 14) (size 15 to 20)
#    0.000    1.067    2.667    4.000    3.733    0.533 
#    2.400    0.667    0.000    3.200    0.000    0.000 
#    0.000    0.000    0.000    0.000    0.000    0.000 
#
# Total GULP energy -83687.512927 kJ/mol
# GULP energy per Si atom -5579.167528 kJ/mol
# Density = 2.276052 g / cm^3
# Si number density = 22.812441 Si / 1000 Ang^3
#
#
#
# Elastic Constant Matrix: (Units=GPa)
#
#
# Indices 1 2 3 4 5 6 
#
# 1 108.1705 20.8840 36.5306 0.0000 -4.6471 0.0000
# 2 20.8840 86.5249 28.6424 0.0000 -8.0564 0.0000
# 3 36.5306 28.6424 115.2208 0.0000 18.0176 0.0000
# 4 0.0000 0.0000 0.0000 33.1102 0.0000 -2.5079
# 5 -4.6471 -8.0564 18.0176 0.0000 16.4055 0.0000
# 6 0.0000 0.0000 0.0000 -2.5079 0.0000 43.0225
#
#
#
# Elastic Compliance Matrix: (Units=1/GPa)
#
#
# Indices 1 2 3 4 5 6 
#
# 1 0.011285 -0.000374 -0.004776 0.000000 0.008259 0.000000
# 2 -0.000374 0.014753 -0.005633 0.000000 0.013325 0.000000
# 3 -0.004776 -0.005633 0.014775 0.000000 -0.020346 0.000000
# 4 0.000000 0.000000 0.000000 0.030336 0.000000 0.001768
# 5 0.008259 0.013325 -0.020346 0.000000 0.092183 0.000000
# 6 0.000000 0.000000 0.000000 0.001768 0.000000 0.023347
#
#
# Mechanical properties :
#
#
# Convention : Reuss Voigt Hill
#
# Bulk Modulus (GPa) = 51.95502 53.55891 52.75696
# Shear Modulus (GPa) = 23.29267 33.43159 28.36213
#
# Velocity S-wave (km/s) = 3.19886 3.83234 3.52984
# Velocity P-wave (km/s) = 6.03886 6.56592 6.30790
#
# Compressibility (1/GPa) = 0.01924742
#
# Stress axis : x y z
#
# Youngs Moduli (GPa) = 88.61605 67.78370 67.68127
#
# Poissons Ratio (x) = 0.02532 0.32327
# Poissons Ratio (y) = 0.03311 0.38122
# Poissons Ratio (z) = 0.42326 0.38180
#
# Static dielectric constant tensor:
#      x y z
#    x 1.769250 0.000000 -0.056140 
#    y 0.000000 1.882940 0.000000 
#    z -0.056140 0.000000 1.969850 
# 
# From -- ./inp_files/55339.got.cif
#   From: 2010.05.17/outbox.cif.g08.bks.cpg/sg5_28_cif.got.tgz:55339.got - 2010.06.03 18:56:24.
