data_PCOD9125547
_publ_section_title
;
Structure prediction by ZEFSAII (Michael W. Deem and Ramdas Pophale) SiO2 
 PCOD9125547
Probable space group: C 2
;
_chemical_formula_sum "Si O2"
_cell_formula_units_Z 32
_cell_length_a 7.906586
_cell_length_b 11.619719
_cell_length_c 15.891144
_cell_angle_alpha 90.000000
_cell_angle_beta 123.552672
_cell_angle_gamma 90.000000
_cell_volume 1216.695377
_symmetry_space_group_name_H-M "C 2"
_symmetry_group_IT_number 5
_symmetry_cell_setting 'monoclinic'
loop_
_space_group_symop_operation_xyz
x,y,z
-x,y,-z
1/2+x,1/2+y,z
1/2-x,1/2+y,-z
loop_
_atom_site_type_symbol
_atom_site_label
_atom_site_fract_x
_atom_site_fract_y
_atom_site_fract_z
Si Si1 0.955225 0.958370 0.709008
Si Si2 0.752973 0.752576 0.857692
Si Si3 0.663649 0.682535 0.219583
Si Si4 0.790470 0.498399 0.927106
Si Si5 0.265985 0.291483 0.420130
Si Si6 0.793611 0.513720 0.672069
Si Si7 0.159752 0.252900 0.634103
Si Si8 0.218025 0.507429 0.882828
O O1 0.781508 0.866978 0.641220
O O2 0.859758 0.067971 0.728870
O O3 0.131737 0.928266 0.826560
O O4 0.083175 0.997201 0.664166
O O5 0.551963 0.739672 0.858071
O O6 0.842689 0.623837 0.898479
O O7 0.695164 0.750356 0.744620
O O8 0.824526 0.883870 0.889877
O O9 0.754486 0.765252 0.315645
O O10 0.741046 0.626087 0.155822
O O11 0.726050 0.524419 0.004646
O O12 0.000000 0.433127 0.000000
O O13 0.500000 0.265447 0.500000
O O14 0.209715 0.426188 0.405503
O O15 0.087116 0.243844 0.433033
O O16 0.786379 0.643510 0.638100
O O17 0.984188 0.489503 0.786043
#
# Coordination Sequence:
#
# PCOD9125547 Si02
#       8
#     4   4   4   4   4   4   4   4
#     4  11  22  42  72  99 141 190 235 282 349 426
#     4  10  21  42  62  92 143 181 233 294 344 407
#     4  10  21  45  69  97 133 187 225 287 371 414
#     4  11  23  41  60 103 147 190 246 294 333 406
#     4  11  25  51  74 104 145 174 234 311 359 440
#     4  12  23  44  70 101 139 188 232 281 370 427
#     4  11  22  46  71  98 141 190 226 288 371 418
#     4  12  23  41  68 101 141 195 242 286 353 415
#
# _framework density 26.300749
#
# number of rings (size 3 to 8) (size 9 to 14) (size 15 to 20)
#    0.000    1.000    8.750    0.000    1.750    4.000 
#    6.750    0.625    0.000    0.000    0.000    0.000 
#    0.000    0.000    0.000    0.000    0.000    0.000 
#
# Total GULP energy -89247.068372 kJ/mol
# GULP energy per Si atom -5577.941773 kJ/mol
# Density = 2.624089 g / cm^3
# Si number density = 26.300749 Si / 1000 Ang^3
#
#
#
# Elastic Constant Matrix: (Units=GPa)
#
#
# Indices 1 2 3 4 5 6 
#
# 1 45.1403 3.9025 0.1688 0.0000 18.1644 0.0000
# 2 3.9025 93.8782 7.7092 0.0000 6.8356 0.0000
# 3 0.1688 7.7092 97.9316 0.0000 27.5667 0.0000
# 4 0.0000 0.0000 0.0000 20.7684 0.0000 -7.8299
# 5 18.1644 6.8356 27.5667 0.0000 35.8502 0.0000
# 6 0.0000 0.0000 0.0000 -7.8299 0.0000 34.2227
#
#
#
# Elastic Compliance Matrix: (Units=1/GPa)
#
#
# Indices 1 2 3 4 5 6 
#
# 1 0.029898 -0.000284 0.005385 0.000000 -0.019235 0.000000
# 2 -0.000284 0.010814 -0.000397 0.000000 -0.001613 0.000000
# 3 0.005385 -0.000397 0.014013 0.000000 -0.013428 0.000000
# 4 0.000000 0.000000 0.000000 0.052696 0.000000 0.012056
# 5 -0.019235 -0.001613 -0.013428 0.000000 0.048273 0.000000
# 6 0.000000 0.000000 0.000000 0.012056 0.000000 0.031979
#
#
# Mechanical properties :
#
#
# Convention : Reuss Voigt Hill
#
# Bulk Modulus (GPa) = 15.59262 28.94567 22.26915
# Shear Modulus (GPa) = 25.04488 33.17956 29.11222
#
# Velocity S-wave (km/s) = 3.08920 3.55568 3.33062
# Velocity P-wave (km/s) = 4.32038 5.28078 4.82454
#
# Compressibility (1/GPa) = 0.06413290
#
# Stress axis : x y z
#
# Youngs Moduli (GPa) = 33.44725 92.47326 71.36201
#
# Poissons Ratio (x) = 0.02631 -0.38431
# Poissons Ratio (y) = 0.00952 0.02832
# Poissons Ratio (z) = -0.18013 0.03670
#
# Static dielectric constant tensor:
#      x y z
#    x 2.192740 0.000000 0.056700 
#    y 0.000000 2.126840 0.000000 
#    z 0.056700 0.000000 2.099050 
# 
# From -- ./inp_files/64558.got.cif
#   From: 2010.05.17/outbox.cif.g08.bks.cpg/sg5_33_cif.got.tgz:64558.got - 2010.06.03 18:56:24.
