data_PCOD9125671
_publ_section_title
;
Structure prediction by ZEFSAII (Michael W. Deem and Ramdas Pophale) SiO2 
 PCOD9125671
Probable space group: C 2
;
_chemical_formula_sum "Si O2"
_cell_formula_units_Z 30
_cell_length_a 10.148721
_cell_length_b 10.582358
_cell_length_c 14.040378
_cell_angle_alpha 90.000000
_cell_angle_beta 56.375498
_cell_angle_gamma 90.000000
_cell_volume 1255.605039
_symmetry_space_group_name_H-M "C 2"
_symmetry_group_IT_number 5
_symmetry_cell_setting 'monoclinic'
loop_
_space_group_symop_operation_xyz
x,y,z
-x,y,-z
1/2+x,1/2+y,z
1/2-x,1/2+y,-z
loop_
_atom_site_type_symbol
_atom_site_label
_atom_site_fract_x
_atom_site_fract_y
_atom_site_fract_z
Si Si1 0.347129 0.864430 0.622713
Si Si2 0.679836 0.143758 0.413681
Si Si3 0.967752 0.488240 0.160080
Si Si4 0.736578 0.757008 0.799116
Si Si5 0.000000 0.869601 0.000000
Si Si6 0.797553 0.085996 0.999717
Si Si7 0.391651 0.180021 0.351886
Si Si8 0.669679 0.771379 0.176976
O O1 0.500000 0.861489 0.500000
O O2 0.198505 0.809516 0.629234
O O3 0.380368 0.769472 0.695318
O O4 0.322948 0.014011 0.647158
O O5 0.500000 0.197099 0.500000
O O6 0.792812 0.228595 0.302900
O O7 0.698896 0.120086 0.519042
O O8 0.844663 0.395227 0.154803
O O9 0.882601 0.579473 0.269431
O O10 0.110217 0.566146 0.052878
O O11 0.084441 0.395731 0.171966
O O12 0.683950 0.666630 0.908617
O O13 0.924816 0.726983 0.722375
O O14 0.099082 0.959728 0.031222
O O15 0.140238 0.793476 0.894547
O O16 0.862979 0.163719 0.884985
#
# Coordination Sequence:
#
# PCOD9125671 Si02
#       8
#     4   4   4   4   2   4   4   4
#     4  11  24  45  67  98 141 180 235 286 353 423
#     4   9  19  39  70  90 129 185 225 282 341 411
#     4  10  22  43  68 100 141 174 234 289 348 422
#     4  10  21  42  70  98 134 185 229 282 355 419
#     4  10  22  42  66 102 136 176 234 276 340 428
#     4  10  22  44  66 102 141 180 230 283 353 416
#     4  10  23  42  66 103 141 178 229 293 351 415
#     4  11  24  42  72  96 134 187 221 289 346 412
#
# _framework density 23.892865
#
# number of rings (size 3 to 8) (size 9 to 14) (size 15 to 20)
#    0.000    1.867    0.000    4.800    7.467    0.000 
#    9.600    0.000    0.000    0.000    0.000    0.000 
#    0.000    0.000    0.000    0.000    0.000    0.000 
#
# Total GULP energy -83566.595123 kJ/mol
# GULP energy per Si atom -5571.106342 kJ/mol
# Density = 2.383848 g / cm^3
# Si number density = 23.892865 Si / 1000 Ang^3
#
#
#
# Elastic Constant Matrix: (Units=GPa)
#
#
# Indices 1 2 3 4 5 6 
#
# 1 52.3668 29.2829 -21.2350 0.0000 -9.6702 0.0000
# 2 29.2829 39.0479 58.0669 0.0000 -9.9473 0.0000
# 3 -21.2350 58.0669 -42.3912 0.0000 19.6463 0.0000
# 4 0.0000 0.0000 0.0000 46.7315 0.0000 -28.8295
# 5 -9.6702 -9.9473 19.6463 0.0000 26.0224 0.0000
# 6 0.0000 0.0000 0.0000 -28.8295 0.0000 45.0561
#
#
#
# Elastic Compliance Matrix: (Units=1/GPa)
#
#
# Indices 1 2 3 4 5 6 
#
# 1 0.019482 -0.001697 -0.006689 0.000000 0.011641 0.000000
# 2 -0.001697 0.009206 0.010963 0.000000 -0.005389 0.000000
# 3 -0.006689 0.010963 -0.003283 0.000000 0.004183 0.000000
# 4 0.000000 0.000000 0.000000 0.035355 0.000000 0.022622
# 5 0.011641 -0.005389 0.004183 0.000000 0.037536 0.000000
# 6 0.000000 0.000000 0.000000 0.022622 0.000000 0.036669
#
#
# Mechanical properties :
#
#
# Convention : Reuss Voigt Hill
#
# Bulk Modulus (GPa) = 32.72269 20.13922 26.43095
# Shear Modulus (GPa) = 35.71439 22.42257 29.06848
#
# Velocity S-wave (km/s) = 3.87042 3.06676 3.49179
# Velocity P-wave (km/s) = 5.80507 4.58119 5.22906
#
# Compressibility (1/GPa) = 0.03055984
#
# Stress axis : x y z
#
# Youngs Moduli (GPa) = 51.32826 108.62150 -304.63969
#
# Poissons Ratio (x) = 0.18437 -2.03781
# Poissons Ratio (y) = 0.08712 3.33991
# Poissons Ratio (z) = 0.34335 -1.19087
#
# Static dielectric constant tensor:
#      x y z
#    x 2.053390 0.000000 0.074710 
#    y 0.000000 1.966890 0.000000 
#    z 0.074710 0.000000 1.960990 
# 
# From -- ./inp_files/52879.got.cif
#   From: 2010.05.17/outbox.cif.g08.bks.cpg/sg5_27_cif.got.tgz:52879.got - 2010.06.03 18:56:24.
