data_PCOD9125376
_publ_section_title
;
Structure prediction by ZEFSAII (Michael W. Deem and Ramdas Pophale) SiO2 
 PCOD9125376
Probable space group: C 2
;
_chemical_formula_sum "Si O2"
_cell_formula_units_Z 30
_cell_length_a 8.469523
_cell_length_b 11.835137
_cell_length_c 12.543077
_cell_angle_alpha 90.000000
_cell_angle_beta 103.445791
_cell_angle_gamma 90.000000
_cell_volume 1222.830571
_symmetry_space_group_name_H-M "C 2"
_symmetry_group_IT_number 5
_symmetry_cell_setting 'monoclinic'
loop_
_space_group_symop_operation_xyz
x,y,z
-x,y,-z
1/2+x,1/2+y,z
1/2-x,1/2+y,-z
loop_
_atom_site_type_symbol
_atom_site_label
_atom_site_fract_x
_atom_site_fract_y
_atom_site_fract_z
Si Si1 0.533420 0.286380 0.767518
Si Si2 0.718148 0.752902 0.603920
Si Si3 0.349726 0.112155 0.038184
Si Si4 0.000000 0.068260 0.500000
Si Si5 0.243165 0.949637 0.694819
Si Si6 0.347101 0.511006 0.819219
Si Si7 0.349465 0.653484 0.182279
Si Si8 0.566090 0.985427 0.611185
O O1 0.407974 0.243852 0.657756
O O2 0.575853 0.193618 0.860653
O O3 0.695669 0.331785 0.738334
O O4 0.439134 0.393482 0.807181
O O5 0.646576 0.660125 0.511737
O O6 0.644578 0.730691 0.712047
O O7 0.657876 0.877939 0.569913
O O8 0.232921 0.022427 0.077336
O O9 0.500000 0.057836 0.000000
O O10 0.248470 0.187568 0.937698
O O11 0.917158 0.988584 0.398966
O O12 0.409801 0.954161 0.657679
O O13 0.245430 0.043649 0.787061
O O14 0.476170 0.610202 0.824975
O O15 0.204432 0.529485 0.710952
O O16 0.500000 0.054392 0.500000
#
# Coordination Sequence:
#
# PCOD9125376 Si02
#       8
#     4   4   4   2   4   4   4   4
#     4  10  24  45  68  99 146 178 239 305 348 434
#     4  10  21  41  63  96 135 173 225 293 342 418
#     4  12  23  43  74 101 137 186 238 289 363 435
#     4  10  22  38  72  88 140 178 224 282 362 420
#     4  10  24  42  68 100 137 185 230 293 358 428
#     4  10  25  45  68 101 144 181 234 299 355 430
#     4  10  22  44  68  95 136 179 227 283 360 424
#     4  11  24  42  67 100 139 181 237 286 352 426
#
# _framework density 24.533242000000001
#
# number of rings (size 3 to 8) (size 9 to 14) (size 15 to 20)
#    0.000    1.600    2.000    1.200   11.200    2.133 
#    0.000    0.000    1.467    0.000    0.000    0.000 
#    0.000    0.000    0.000    0.000    0.000    0.000 
#
# Total GULP energy -83846.833321 kJ/mol
# GULP energy per Si atom -5589.788888 kJ/mol
# Density = 2.447740 g / cm^3
# Si number density = 24.533242 Si / 1000 Ang^3
#
#
#
# Elastic Constant Matrix: (Units=GPa)
#
#
# Indices 1 2 3 4 5 6 
#
# 1 140.8329 13.8582 32.8861 0.0000 -5.2722 0.0000
# 2 13.8582 43.6254 8.6241 0.0000 3.6663 0.0000
# 3 32.8861 8.6241 82.0789 0.0000 26.7253 0.0000
# 4 0.0000 0.0000 0.0000 27.1704 0.0000 0.0359
# 5 -5.2722 3.6663 26.7253 0.0000 44.9079 0.0000
# 6 0.0000 0.0000 0.0000 0.0359 0.0000 28.1216
#
#
#
# Elastic Compliance Matrix: (Units=1/GPa)
#
#
# Indices 1 2 3 4 5 6 
#
# 1 0.008483 -0.002142 -0.004409 0.000000 0.003795 0.000000
# 2 -0.002142 0.023961 -0.001167 0.000000 -0.001513 0.000000
# 3 -0.004409 -0.001167 0.017626 0.000000 -0.010912 0.000000
# 4 0.000000 0.000000 0.000000 0.036805 0.000000 -0.000047
# 5 0.003795 -0.001513 -0.010912 0.000000 0.029330 0.000000
# 6 0.000000 0.000000 0.000000 -0.000047 0.000000 0.035560
#
#
# Mechanical properties :
#
#
# Convention : Reuss Voigt Hill
#
# Bulk Modulus (GPa) = 28.87399 41.91933 35.39666
# Shear Modulus (GPa) = 27.97280 34.11791 31.04535
#
# Velocity S-wave (km/s) = 3.38035 3.73323 3.56116
# Velocity P-wave (km/s) = 5.19909 5.97549 5.60076
#
# Compressibility (1/GPa) = 0.03463325
#
# Stress axis : x y z
#
# Youngs Moduli (GPa) = 117.88117 41.73508 56.73579
#
# Poissons Ratio (x) = 0.08940 0.25017
# Poissons Ratio (y) = 0.25250 0.06619
# Poissons Ratio (z) = 0.51979 0.04869
#
# Static dielectric constant tensor:
#      x y z
#    x 1.961890 0.000000 -0.008450 
#    y 0.000000 1.969220 0.000000 
#    z -0.008450 0.000000 1.985780 
# 
# From -- ./inp_files/36466.got.cif
#   From: 2010.05.17/outbox.cif.g08.bks.cpg/sg5_19_cif.got.tgz:36466.got - 2010.06.03 18:56:24.
