data_PCOD9125223
_publ_section_title
;
Structure prediction by ZEFSAII (Michael W. Deem and Ramdas Pophale) SiO2 
 PCOD9125223
Probable space group: C 2
;
_chemical_formula_sum "Si O2"
_cell_formula_units_Z 20
_cell_length_a 9.416262
_cell_length_b 5.544699
_cell_length_c 23.612197
_cell_angle_alpha 90.000000
_cell_angle_beta 39.558395
_cell_angle_gamma 90.000000
_cell_volume 785.126839
_symmetry_space_group_name_H-M "C 2"
_symmetry_group_IT_number 5
_symmetry_cell_setting 'monoclinic'
loop_
_space_group_symop_operation_xyz
x,y,z
-x,y,-z
1/2+x,1/2+y,z
1/2-x,1/2+y,-z
loop_
_atom_site_type_symbol
_atom_site_label
_atom_site_fract_x
_atom_site_fract_y
_atom_site_fract_z
Si Si1 0.965003 0.225790 0.735093
Si Si2 0.777470 0.157526 0.528459
Si Si3 0.834266 0.851288 0.694894
Si Si4 0.294283 0.963118 0.086346
Si Si5 0.086623 0.102042 0.864756
O O1 0.806943 0.445818 0.797375
O O2 0.220169 0.291163 0.670060
O O3 0.913848 0.116192 0.688982
O O4 0.868671 0.032860 0.810689
O O5 0.751603 0.405449 0.497821
O O6 0.552701 0.187906 0.634823
O O7 0.000000 0.163492 0.500000
O O8 0.632225 0.790378 0.799744
O O9 0.500000 0.128092 0.000000
O O10 0.572691 0.745606 0.926136
O O11 0.121506 0.940590 0.088509
#
# Coordination Sequence:
#
# PCOD9125223 Si02
#       5
#     4   4   4   4   4
#     4  10  21  40  65  89 124 172 223 266 342 394
#     4  12  28  47  74 111 147 188 237 294 366 421
#     4  10  23  40  65  93 129 172 224 278 328 421
#     4  10  23  38  57  94 125 164 219 273 331 397
#     4  10  22  39  63  89 122 172 220 265 342 395
#
# _framework density 25.473590999999999
#
# number of rings (size 3 to 8) (size 9 to 14) (size 15 to 20)
#    0.000    1.600    0.000    3.000    8.400    0.800 
#    0.000    0.000    0.000    0.000    0.000    0.000 
#    0.000    0.000    0.000    0.000    0.000    0.000 
#
# Total GULP energy -55740.939868 kJ/mol
# GULP energy per Si atom -5574.093987 kJ/mol
# Density = 2.541561 g / cm^3
# Si number density = 25.473591 Si / 1000 Ang^3
#
#
#
# Elastic Constant Matrix: (Units=GPa)
#
#
# Indices 1 2 3 4 5 6 
#
# 1 137.2622 45.7692 25.5005 0.0021 -40.4285 0.0094
# 2 45.7692 83.9848 9.0724 0.0035 10.4614 0.0158
# 3 25.5005 9.0724 97.2983 -0.0007 -17.4512 0.0005
# 4 0.0021 0.0035 -0.0007 17.4406 -0.0006 1.7712
# 5 -40.4285 10.4614 -17.4512 -0.0006 42.6391 0.0016
# 6 0.0094 0.0158 0.0005 1.7712 0.0016 31.6569
#
#
#
# Elastic Compliance Matrix: (Units=1/GPa)
#
#
# Indices 1 2 3 4 5 6 
#
# 1 0.016437 -0.011248 0.000034 0.000001 0.018358 0.000000
# 2 -0.011248 0.020285 -0.001888 -0.000003 -0.016414 -0.000006
# 3 0.000034 -0.001888 0.011368 0.000001 0.005148 0.000000
# 4 0.000001 -0.000003 0.000001 0.057665 0.000003 -0.003226
# 5 0.018358 -0.016414 0.005148 0.000003 0.046993 0.000000
# 6 0.000000 -0.000006 0.000000 -0.003226 0.000000 0.031769
#
#
# Mechanical properties :
#
#
# Convention : Reuss Voigt Hill
#
# Bulk Modulus (GPa) = 45.69055 53.24772 49.46914
# Shear Modulus (GPa) = 22.93413 34.22755 28.58084
#
# Velocity S-wave (km/s) = 3.00377 3.66956 3.35323
# Velocity P-wave (km/s) = 5.47773 6.23720 5.86976
#
# Compressibility (1/GPa) = 0.02188636
#
# Stress axis : x y z
#
# Youngs Moduli (GPa) = 60.83978 49.29721 87.96516
#
# Poissons Ratio (x) = 0.55448 -0.00295
# Poissons Ratio (y) = 0.68431 0.16604
# Poissons Ratio (z) = -0.00204 0.09305
#
# Static dielectric constant tensor:
#      x y z
#    x 2.060230 0.000000 0.094850 
#    y 0.000000 2.102560 0.000000 
#    z 0.094850 0.000000 2.211620 
# 
# From -- ./inp_files/70266.got.cif
#   From: 2010.05.17/outbox.cif.g08.bks.cpg/sg5_36_cif.got.tgz:70266.got - 2010.06.03 18:56:24.
