data_PCOD9125707
_publ_section_title
;
Structure prediction by ZEFSAII (Michael W. Deem and Ramdas Pophale) SiO2 
 PCOD9125707
Probable space group: C 2
;
_chemical_formula_sum "Si O2"
_cell_formula_units_Z 18
_cell_length_a 12.382279
_cell_length_b 9.310380
_cell_length_c 9.205886
_cell_angle_alpha 90.000000
_cell_angle_beta 122.142073
_cell_angle_gamma 90.000000
_cell_volume 898.626645
_symmetry_space_group_name_H-M "C 2"
_symmetry_group_IT_number 5
_symmetry_cell_setting 'monoclinic'
loop_
_space_group_symop_operation_xyz
x,y,z
-x,y,-z
1/2+x,1/2+y,z
1/2-x,1/2+y,-z
loop_
_atom_site_type_symbol
_atom_site_label
_atom_site_fract_x
_atom_site_fract_y
_atom_site_fract_z
Si Si1 0.779092 0.322050 0.178858
Si Si2 0.657776 0.562790 0.269462
Si Si3 0.000000 0.851832 0.000000
Si Si4 0.141923 0.365963 0.095126
Si Si5 0.142494 0.053340 0.595838
O O1 0.764573 0.469570 0.260123
O O2 0.630602 0.269864 0.065906
O O3 0.859530 0.204614 0.321208
O O4 0.826111 0.344658 0.050793
O O5 0.533084 0.461357 0.155388
O O6 0.638474 0.713381 0.176650
O O7 0.681328 0.577433 0.456271
O O8 0.252172 0.457046 0.250351
O O9 0.000000 0.430110 0.000000
O O10 0.000000 0.990082 0.500000
#
# Coordination Sequence:
#
# PCOD9125707 Si02
#       5
#     4   4   2   4   4
#     4  10  22  41  67  89 128 166 213 252 317 376
#     4  10  21  43  63  93 127 166 211 263 311 373
#     4   8  20  42  68  86 128 168 208 258 314 380
#     4  12  23  41  68  94 127 171 211 256 321 379
#     4  12  25  40  65  97 131 165 212 265 314 371
#
# _framework density 20.030564999999999
#
# number of rings (size 3 to 8) (size 9 to 14) (size 15 to 20)
#    1.333    0.000    1.111    5.333    1.556    0.000 
#    0.000    1.111    0.000    0.000    0.000    0.000 
#    0.000    0.000    0.000    0.000    0.000    0.000 
#
# Total GULP energy -50205.015017 kJ/mol
# GULP energy per Si atom -5578.335002 kJ/mol
# Density = 1.998497 g / cm^3
# Si number density = 20.030565 Si / 1000 Ang^3
#
#
#
# Elastic Constant Matrix: (Units=GPa)
#
#
# Indices 1 2 3 4 5 6 
#
# 1 123.7815 20.8892 72.2964 0.0000 -4.1013 0.0000
# 2 20.8892 56.2891 45.1009 0.0000 5.0397 0.0000
# 3 72.2964 45.1009 160.9622 0.0000 -24.9693 0.0000
# 4 0.0000 0.0000 0.0000 40.2382 0.0000 -0.2746
# 5 -4.1013 5.0397 -24.9693 0.0000 55.7983 0.0000
# 6 0.0000 0.0000 0.0000 -0.2746 0.0000 18.2021
#
#
#
# Elastic Compliance Matrix: (Units=1/GPa)
#
#
# Indices 1 2 3 4 5 6 
#
# 1 0.011073 0.000276 -0.005296 0.000000 -0.001581 0.000000
# 2 0.000276 0.024479 -0.007869 0.000000 -0.005712 0.000000
# 3 -0.005296 -0.007869 0.011655 0.000000 0.005537 0.000000
# 4 0.000000 0.000000 0.000000 0.024855 0.000000 0.000375
# 5 -0.001581 -0.005712 0.005537 0.000000 0.020799 0.000000
# 6 0.000000 0.000000 0.000000 0.000375 0.000000 0.054944
#
#
# Mechanical properties :
#
#
# Convention : Reuss Voigt Hill
#
# Bulk Modulus (GPa) = 46.66561 68.62288 57.64425
# Shear Modulus (GPa) = 27.66602 36.36414 32.01508
#
# Velocity S-wave (km/s) = 3.72047 4.26541 4.00223
# Velocity P-wave (km/s) = 6.46557 7.65453 7.08503
#
# Compressibility (1/GPa) = 0.02142906
#
# Stress axis : x y z
#
# Youngs Moduli (GPa) = 90.30954 40.85064 85.79963
#
# Poissons Ratio (x) = -0.01126 0.45439
# Poissons Ratio (y) = -0.02489 0.67515
# Poissons Ratio (z) = 0.47827 0.32145
#
# Static dielectric constant tensor:
#      x y z
#    x 1.716890 0.000000 0.026830 
#    y 0.000000 1.701100 0.000000 
#    z 0.026830 0.000000 1.693840 
# 
# From -- ./inp_files/19141.got.cif
#   From: 2010.05.17/outbox.cif.g08.bks.cpg/sg5_10_cif.got.tgz:19141.got - 2010.06.03 18:56:24.
