data_PCOD9125703
_publ_section_title
;
Structure prediction by ZEFSAII (Michael W. Deem and Ramdas Pophale) SiO2 
 PCOD9125703
Probable space group: C 2
;
_chemical_formula_sum "Si O2"
_cell_formula_units_Z 32
_cell_length_a 11.975179
_cell_length_b 6.920602
_cell_length_c 18.486357
_cell_angle_alpha 90.000000
_cell_angle_beta 86.783533
_cell_angle_gamma 90.000000
_cell_volume 1529.651620
_symmetry_space_group_name_H-M "C 2"
_symmetry_group_IT_number 5
_symmetry_cell_setting 'monoclinic'
loop_
_space_group_symop_operation_xyz
x,y,z
-x,y,-z
1/2+x,1/2+y,z
1/2-x,1/2+y,-z
loop_
_atom_site_type_symbol
_atom_site_label
_atom_site_fract_x
_atom_site_fract_y
_atom_site_fract_z
Si Si1 0.161244 0.129020 0.291069
Si Si2 0.073642 0.030245 0.652248
Si Si3 0.877333 0.272735 0.476975
Si Si4 0.672753 0.164323 0.588190
Si Si5 0.899430 0.575638 0.948706
Si Si6 0.250403 0.719742 0.920460
Si Si7 0.670796 0.337925 0.162707
Si Si8 0.792673 0.958274 0.207897
O O1 0.265546 0.093987 0.340577
O O2 0.193279 0.326789 0.247550
O O3 0.045566 0.134355 0.338321
O O4 0.142466 0.951874 0.236686
O O5 0.149320 0.158821 0.596312
O O6 0.121397 0.997190 0.730731
O O7 0.081071 0.822399 0.613593
O O8 0.776490 0.245075 0.536901
O O9 0.882489 0.494362 0.454238
O O10 0.000000 0.206761 0.500000
O O11 0.853823 0.367579 0.925443
O O12 0.919753 0.716420 0.879948
O O13 0.805011 0.682200 0.000332
O O14 0.000000 0.551106 0.000000
O O15 0.282076 0.511313 0.888032
O O16 0.174882 0.829929 0.863137
O O17 0.755997 0.166895 0.180102
#
# Coordination Sequence:
#
# PCOD9125703 Si02
#       8
#     4   4   4   4   4   4   4   4
#     4  10  22  41  64  93 130 163 216 260 312 382
#     4  11  23  42  67  95 126 169 209 262 318 374
#     4  12  24  40  64  95 127 168 215 261 314 379
#     4  11  24  42  64  93 130 166 212 262 316 373
#     4  11  23  39  64  94 126 172 215 259 320 371
#     4  10  21  43  61  93 133 162 216 266 305 380
#     4  10  21  43  64  90 131 167 208 267 313 372
#     4   9  22  41  63  92 126 167 209 263 314 373
#
# _framework density 20.919795000000001
#
# number of rings (size 3 to 8) (size 9 to 14) (size 15 to 20)
#    0.000    1.500    3.750    0.750    1.750    3.000 
#    6.750    0.000    0.000    0.000    0.000    0.000 
#    0.000    0.000    0.000    0.000    0.000    0.000 
#
# Total GULP energy -89218.678658 kJ/mol
# GULP energy per Si atom -5576.167416 kJ/mol
# Density = 2.087218 g / cm^3
# Si number density = 20.919795 Si / 1000 Ang^3
#
#
#
# Elastic Constant Matrix: (Units=GPa)
#
#
# Indices 1 2 3 4 5 6 
#
# 1 34.8710 18.1750 -7.3779 0.0000 4.2568 0.0000
# 2 18.1750 122.1125 30.1804 0.0000 8.8972 0.0000
# 3 -7.3779 30.1804 56.5503 0.0000 5.4998 0.0000
# 4 0.0000 0.0000 0.0000 41.3800 0.0000 2.4094
# 5 4.2568 8.8972 5.4998 0.0000 23.7462 0.0000
# 6 0.0000 0.0000 0.0000 2.4094 0.0000 15.4679
#
#
#
# Elastic Compliance Matrix: (Units=1/GPa)
#
#
# Indices 1 2 3 4 5 6 
#
# 1 0.034859 -0.006952 0.008811 0.000000 -0.005685 0.000000
# 2 -0.006952 0.010958 -0.006626 0.000000 -0.001325 0.000000
# 3 0.008811 -0.006626 0.022795 0.000000 -0.004376 0.000000
# 4 0.000000 0.000000 0.000000 0.024387 0.000000 -0.003799
# 5 -0.005685 -0.001325 -0.004376 0.000000 0.044641 0.000000
# 6 0.000000 0.000000 0.000000 -0.003799 0.000000 0.065242
#
#
# Mechanical properties :
#
#
# Convention : Reuss Voigt Hill
#
# Bulk Modulus (GPa) = 16.92706 32.83209 24.87958
# Shear Modulus (GPa) = 21.54163 27.62257 24.58210
#
# Velocity S-wave (km/s) = 3.21241 3.63768 3.43164
# Velocity P-wave (km/s) = 4.67637 5.77685 5.25549
#
# Compressibility (1/GPa) = 0.05907700
#
# Stress axis : x y z
#
# Youngs Moduli (GPa) = 28.68739 91.25674 43.86943
#
# Poissons Ratio (x) = 0.63439 -0.38652
# Poissons Ratio (y) = 0.19943 0.29069
# Poissons Ratio (z) = -0.25276 0.60470
#
# Static dielectric constant tensor:
#      x y z
#    x 1.763710 0.000000 0.004940 
#    y 0.000000 1.729660 0.000000 
#    z 0.004940 0.000000 1.803070 
# 
# From -- ./inp_files/64983.got.cif
#   From: 2010.05.17/outbox.cif.g08.bks.cpg/sg5_33_cif.got.tgz:64983.got - 2010.06.03 18:56:24.
