data_PCOD9125623
_publ_section_title
;
Structure prediction by ZEFSAII (Michael W. Deem and Ramdas Pophale) SiO2 
 PCOD9125623
Probable space group: C 2
;
_chemical_formula_sum "Si O2"
_cell_formula_units_Z 22
_cell_length_a 11.731974
_cell_length_b 11.522416
_cell_length_c 7.019280
_cell_angle_alpha 90.000000
_cell_angle_beta 111.840236
_cell_angle_gamma 90.000000
_cell_volume 880.765671
_symmetry_space_group_name_H-M "C 2"
_symmetry_group_IT_number 5
_symmetry_cell_setting 'monoclinic'
loop_
_space_group_symop_operation_xyz
x,y,z
-x,y,-z
1/2+x,1/2+y,z
1/2-x,1/2+y,-z
loop_
_atom_site_type_symbol
_atom_site_label
_atom_site_fract_x
_atom_site_fract_y
_atom_site_fract_z
Si Si1 0.306631 0.407070 0.548333
Si Si2 0.928274 0.698010 0.762964
Si Si3 0.000000 0.088659 0.500000
Si Si4 0.271292 0.891023 0.052297
Si Si5 0.467744 0.942320 0.694557
Si Si6 0.295724 0.643540 0.127302
O O1 0.394783 0.295380 0.590893
O O2 0.395180 0.510900 0.537139
O O3 0.268009 0.402982 0.748337
O O4 0.174255 0.406713 0.361096
O O5 0.986140 0.581851 0.718397
O O6 0.797836 0.653356 0.757220
O O7 0.000000 0.738765 0.000000
O O8 0.931441 0.161580 0.294909
O O9 0.416761 0.902131 0.111640
O O10 0.250516 0.755977 0.976867
O O11 0.209718 0.009520 0.939291
O O12 0.500000 0.906979 0.500000
#
# Coordination Sequence:
#
# PCOD9125623 Si02
#       6
#     4   4   2   4   4   4
#     4  10  25  41  66  97 139 176 222 275 342 393
#     4  11  22  42  67  95 134 183 224 278 333 403
#     4  12  26  42  66 100 138 176 228 278 336 396
#     4  10  24  46  72  97 138 177 227 276 341 400
#     4  10  21  42  67  97 127 175 232 278 331 395
#     4  11  25  44  69 100 138 179 222 279 339 401
#
# _framework density 24.978266000000001
#
# number of rings (size 3 to 8) (size 9 to 14) (size 15 to 20)
#    0.000    1.455    3.636    0.000   12.727    0.000 
#    3.273    3.636    0.000    0.000    0.000    0.000 
#    0.000    0.000    0.000    0.000    0.000    0.000 
#
# Total GULP energy -61309.713370 kJ/mol
# GULP energy per Si atom -5573.610306 kJ/mol
# Density = 2.492141 g / cm^3
# Si number density = 24.978266 Si / 1000 Ang^3
#
#
#
# Elastic Constant Matrix: (Units=GPa)
#
#
# Indices 1 2 3 4 5 6 
#
# 1 112.3560 7.4738 18.3571 0.0000 15.7325 0.0000
# 2 7.4738 166.2970 40.3392 0.0000 16.3554 0.0000
# 3 18.3571 40.3392 80.5770 0.0000 25.1720 0.0000
# 4 0.0000 0.0000 0.0000 40.9178 0.0000 3.6049
# 5 15.7325 16.3554 25.1720 0.0000 42.1485 0.0000
# 6 0.0000 0.0000 0.0000 3.6049 0.0000 30.4661
#
#
#
# Elastic Compliance Matrix: (Units=1/GPa)
#
#
# Indices 1 2 3 4 5 6 
#
# 1 0.009505 0.000183 -0.001385 0.000000 -0.002792 0.000000
# 2 0.000183 0.006867 -0.003228 0.000000 -0.000805 0.000000
# 3 -0.001385 -0.003228 0.016952 0.000000 -0.008354 0.000000
# 4 0.000000 0.000000 0.000000 0.024697 0.000000 -0.002922
# 5 -0.002792 -0.000805 -0.008354 0.000000 0.030070 0.000000
# 6 0.000000 0.000000 0.000000 -0.002922 0.000000 0.033169
#
#
# Mechanical properties :
#
#
# Convention : Reuss Voigt Hill
#
# Bulk Modulus (GPa) = 40.87490 54.61890 47.74690
# Shear Modulus (GPa) = 36.15977 42.24380 39.20178
#
# Velocity S-wave (km/s) = 3.80893 4.11691 3.96591
# Velocity P-wave (km/s) = 5.97860 6.67178 6.33468
#
# Compressibility (1/GPa) = 0.02446489
#
# Stress axis : x y z
#
# Youngs Moduli (GPa) = 105.20412 145.61598 58.98979
#
# Poissons Ratio (x) = -0.02670 0.08171
# Poissons Ratio (y) = -0.01929 0.19043
# Poissons Ratio (z) = 0.14572 0.47008
#
# Static dielectric constant tensor:
#      x y z
#    x 1.951670 0.000000 0.026960 
#    y 0.000000 2.096570 0.000000 
#    z 0.026960 0.000000 2.067020 
# 
# From -- ./inp_files/19420.got.cif
#   From: 2010.05.17/outbox.cif.g08.bks.cpg/sg5_10_cif.got.tgz:19420.got - 2010.06.03 18:56:24.
