data_PCOD9125236
_publ_section_title
;
Structure prediction by ZEFSAII (Michael W. Deem and Ramdas Pophale) SiO2 
 PCOD9125236
Probable space group: C 2
;
_chemical_formula_sum "Si O2"
_cell_formula_units_Z 26
_cell_length_a 17.860400
_cell_length_b 9.797554
_cell_length_c 9.160145
_cell_angle_alpha 90.000000
_cell_angle_beta 46.069932
_cell_angle_gamma 90.000000
_cell_volume 1154.400612
_symmetry_space_group_name_H-M "C 2"
_symmetry_group_IT_number 5
_symmetry_cell_setting 'monoclinic'
loop_
_space_group_symop_operation_xyz
x,y,z
-x,y,-z
1/2+x,1/2+y,z
1/2-x,1/2+y,-z
loop_
_atom_site_type_symbol
_atom_site_label
_atom_site_fract_x
_atom_site_fract_y
_atom_site_fract_z
Si Si1 0.000000 0.956940 0.000000
Si Si2 0.562417 0.680864 0.708603
Si Si3 0.287756 0.343815 0.167890
Si Si4 0.672687 0.378230 0.223409
Si Si5 0.500000 0.143493 0.500000
Si Si6 0.000000 0.106627 0.500000
Si Si7 0.271800 0.058390 0.308193
Si Si8 0.402579 0.969003 0.381517
O O1 0.105320 0.875603 0.888562
O O2 0.996978 0.064961 0.872649
O O3 0.515679 0.702228 0.613423
O O4 0.672014 0.605174 0.538905
O O5 0.565632 0.834581 0.754705
O O6 0.280450 0.180307 0.181640
O O7 0.193879 0.414926 0.385456
O O8 0.287264 0.382080 0.997240
O O9 0.601366 0.243152 0.345266
O O10 0.594842 0.505504 0.346761
O O11 0.753382 0.416345 0.245053
O O12 0.479837 0.049357 0.384690
O O13 0.361785 0.063123 0.306085
#
# Coordination Sequence:
#
# PCOD9125236 Si02
#       8
#     2   4   4   4   2   2   4   4
#     4  12  22  42  72 104 130 190 230 290 350 432
#     4  10  21  40  65  96 133 178 224 286 348 410
#     4  11  25  42  72 100 141 177 247 291 349 418
#     4  10  23  42  68  99 130 186 226 293 339 423
#     4  11  27  44  76  96 147 189 240 276 366 417
#     4   9  17  38  64  90 127 165 224 268 356 399
#     4  10  24  43  67  99 140 182 229 292 353 412
#     4  11  25  46  66 101 139 190 230 299 346 422
#
# _framework density 22.52251
#
# number of rings (size 3 to 8) (size 9 to 14) (size 15 to 20)
#    0.000    1.538    3.077    0.462    8.615    0.000 
#    2.769    0.000    0.000    0.000    0.000    0.000 
#    0.000    0.000    0.000    0.000    0.000    0.000 
#
# Total GULP energy -72436.352050 kJ/mol
# GULP energy per Si atom -5572.027081 kJ/mol
# Density = 2.247125 g / cm^3
# Si number density = 22.522510 Si / 1000 Ang^3
#
#
#
# Elastic Constant Matrix: (Units=GPa)
#
#
# Indices 1 2 3 4 5 6 
#
# 1 106.6369 31.6902 2.6537 0.0000 21.2598 0.0000
# 2 31.6902 97.5411 20.3228 0.0000 -1.8958 0.0000
# 3 2.6537 20.3228 42.5936 0.0000 9.0951 0.0000
# 4 0.0000 0.0000 0.0000 20.2402 0.0000 2.7552
# 5 21.2598 -1.8958 9.0951 0.0000 24.6900 0.0000
# 6 0.0000 0.0000 0.0000 2.7552 0.0000 30.7137
#
#
#
# Elastic Compliance Matrix: (Units=1/GPa)
#
#
# Indices 1 2 3 4 5 6 
#
# 1 0.013789 -0.005779 0.004915 0.000000 -0.014128 0.000000
# 2 -0.005779 0.014031 -0.008278 0.000000 0.009103 0.000000
# 3 0.004915 -0.008278 0.030565 0.000000 -0.016127 0.000000
# 4 0.000000 0.000000 0.000000 0.050017 0.000000 -0.004487
# 5 -0.014128 0.009103 -0.016127 0.000000 0.059307 0.000000
# 6 0.000000 0.000000 0.000000 -0.004487 0.000000 0.032961
#
#
# Mechanical properties :
#
#
# Convention : Reuss Voigt Hill
#
# Bulk Modulus (GPa) = 24.93714 39.56724 32.25219
# Shear Modulus (GPa) = 21.52183 27.93576 24.72880
#
# Velocity S-wave (km/s) = 3.09458 3.52568 3.31714
# Velocity P-wave (km/s) = 4.88515 5.84636 5.38724
#
# Compressibility (1/GPa) = 0.04010083
#
# Stress axis : x y z
#
# Youngs Moduli (GPa) = 72.52089 71.26963 32.71713
#
# Poissons Ratio (x) = 0.41183 -0.16079
# Poissons Ratio (y) = 0.41906 0.27085
# Poissons Ratio (z) = -0.35642 0.59000
#
# Static dielectric constant tensor:
#      x y z
#    x 1.859660 0.000000 -0.071250 
#    y 0.000000 1.785490 0.000000 
#    z -0.071250 0.000000 1.850830 
# 
# From -- ./inp_files/29041.got.cif
#   From: 2010.05.17/outbox.cif.g08.bks.cpg/sg5_15_cif.got.tgz:29041.got - 2010.06.03 18:56:24.
