data_PCOD9125008
_publ_section_title
;
Structure prediction by ZEFSAII (Michael W. Deem and Ramdas Pophale) SiO2 
 PCOD9125008
Probable space group: C 2
;
_chemical_formula_sum "Si O2"
_cell_formula_units_Z 24
_cell_length_a 21.192968
_cell_length_b 7.582931
_cell_length_c 8.837107
_cell_angle_alpha 90.000000
_cell_angle_beta 41.063028
_cell_angle_gamma 90.000000
_cell_volume 932.890968
_symmetry_space_group_name_H-M "C 2"
_symmetry_group_IT_number 5
_symmetry_cell_setting 'monoclinic'
loop_
_space_group_symop_operation_xyz
x,y,z
-x,y,-z
1/2+x,1/2+y,z
1/2-x,1/2+y,-z
loop_
_atom_site_type_symbol
_atom_site_label
_atom_site_fract_x
_atom_site_fract_y
_atom_site_fract_z
Si Si1 0.500000 0.486711 0.500000
Si Si2 0.698850 0.105103 0.649461
Si Si3 0.672826 0.678252 0.322963
Si Si4 0.500000 0.449019 0.000000
Si Si5 0.163089 0.217125 0.818419
Si Si6 0.654269 0.942447 0.118262
Si Si7 0.552353 0.235901 0.154413
O O1 0.569712 0.600862 0.474202
O O2 0.563316 0.366678 0.274306
O O3 0.799876 0.136363 0.554774
O O4 0.732413 0.145270 0.420559
O O5 0.657294 0.909732 0.746820
O O6 0.632857 0.225213 0.877024
O O7 0.666479 0.873816 0.265591
O O8 0.757370 0.570666 0.083280
O O9 0.580015 0.580730 0.924988
O O10 0.529943 0.319086 0.804294
O O11 0.159651 0.270913 0.000430
O O12 0.560473 0.047916 0.225084
#
# Coordination Sequence:
#
# PCOD9125008 Si02
#       7
#     2   4   4   2   4   4   4
#     4  12  22  40  66  98 126 166 216 272 320 366
#     4  10  22  42  63  94 129 174 214 253 314 393
#     4  10  21  39  64  92 127 166 212 261 316 378
#     4  12  22  42  66  98 132 164 206 274 316 366
#     4  10  22  39  67  97 130 168 213 259 317 379
#     4  10  23  44  64  93 128 171 212 256 317 394
#     4  10  24  40  62  90 129 167 212 260 316 371
#
# _framework density 25.726478
#
# number of rings (size 3 to 8) (size 9 to 14) (size 15 to 20)
#    0.000    2.000    0.000    5.000    0.000    6.000 
#    0.000    5.000    0.000    2.000    0.000    0.000 
#    0.000    0.000    0.000    0.000    0.000    0.000 
#
# Total GULP energy -66942.496799 kJ/mol
# GULP energy per Si atom -5578.541400 kJ/mol
# Density = 2.566792 g / cm^3
# Si number density = 25.726478 Si / 1000 Ang^3
#
#
#
# Elastic Constant Matrix: (Units=GPa)
#
#
# Indices 1 2 3 4 5 6 
#
# 1 100.1767 48.8945 14.3432 0.0000 0.5482 0.0000
# 2 48.8945 121.5949 35.2758 0.0000 8.9208 0.0000
# 3 14.3432 35.2758 63.5500 0.0000 -2.7687 0.0000
# 4 0.0000 0.0000 0.0000 29.5505 0.0000 9.8717
# 5 0.5482 8.9208 -2.7687 0.0000 23.0407 0.0000
# 6 0.0000 0.0000 0.0000 9.8717 0.0000 61.7167
#
#
#
# Elastic Compliance Matrix: (Units=1/GPa)
#
#
# Indices 1 2 3 4 5 6 
#
# 1 0.012485 -0.005187 0.000136 0.000000 0.001727 0.000000
# 2 -0.005187 0.012438 -0.005969 0.000000 -0.005410 0.000000
# 3 0.000136 -0.005969 0.019220 0.000000 0.004618 0.000000
# 4 0.000000 0.000000 0.000000 0.035751 0.000000 -0.005718
# 5 0.001727 -0.005410 0.004618 0.000000 0.046010 0.000000
# 6 0.000000 0.000000 0.000000 -0.005718 0.000000 0.017118
#
#
# Mechanical properties :
#
#
# Convention : Reuss Voigt Hill
#
# Bulk Modulus (GPa) = 45.24151 53.59427 49.41789
# Shear Modulus (GPa) = 28.99764 35.31546 32.15655
#
# Velocity S-wave (km/s) = 3.36095 3.70905 3.53928
# Velocity P-wave (km/s) = 5.71709 6.26261 5.99606
#
# Compressibility (1/GPa) = 0.02210359
#
# Stress axis : x y z
#
# Youngs Moduli (GPa) = 80.09702 80.39694 52.03032
#
# Poissons Ratio (x) = 0.41699 -0.00710
# Poissons Ratio (y) = 0.41543 0.31059
# Poissons Ratio (z) = -0.01093 0.47992
#
# Static dielectric constant tensor:
#      x y z
#    x 2.105360 0.000000 0.012610 
#    y 0.000000 2.069720 0.000000 
#    z 0.012610 0.000000 2.071320 
# 
# From -- ./inp_files/28891.got.cif
#   From: 2010.05.17/outbox.cif.g08.bks.cpg/sg5_15_cif.got.tgz:28891.got - 2010.06.03 18:56:24.
