data_PCOD9125688
_publ_section_title
;
Structure prediction by ZEFSAII (Michael W. Deem and Ramdas Pophale) SiO2 
 PCOD9125688
Probable space group: C 2
;
_chemical_formula_sum "Si O2"
_cell_formula_units_Z 18
_cell_length_a 8.852342
_cell_length_b 12.419090
_cell_length_c 6.951457
_cell_angle_alpha 90.000000
_cell_angle_beta 106.491218
_cell_angle_gamma 90.000000
_cell_volume 732.791589
_symmetry_space_group_name_H-M "C 2"
_symmetry_group_IT_number 5
_symmetry_cell_setting 'monoclinic'
loop_
_space_group_symop_operation_xyz
x,y,z
-x,y,-z
1/2+x,1/2+y,z
1/2-x,1/2+y,-z
loop_
_atom_site_type_symbol
_atom_site_label
_atom_site_fract_x
_atom_site_fract_y
_atom_site_fract_z
Si Si1 0.827812 0.748110 0.909401
Si Si2 0.500000 0.905127 0.500000
Si Si3 0.686759 0.489044 0.230675
Si Si4 0.850345 0.361278 0.817415
Si Si5 0.634026 0.556652 0.770011
O O1 0.854702 0.862233 0.813253
O O2 0.715866 0.668459 0.752718
O O3 0.742798 0.778148 0.081151
O O4 0.000000 0.698189 0.000000
O O5 0.364354 0.982345 0.366357
O O6 0.428489 0.832449 0.643897
O O7 0.553444 0.544554 0.312155
O O8 0.670873 0.540537 0.013725
O O9 0.729140 0.455782 0.722217
O O10 0.000000 0.398352 0.000000
#
# Coordination Sequence:
#
# PCOD9125688 Si02
#       5
#     4   2   4   4   4
#     4  11  21  42  75 101 134 188 235 284 349 410
#     4  12  24  40  70 100 146 182 222 292 352 408
#     4  10  22  42  64 106 136 177 233 275 348 417
#     4  11  22  42  68 101 138 182 231 282 346 416
#     4  10  21  42  72  95 137 186 227 286 346 408
#
# _framework density 24.563600999999998
#
# number of rings (size 3 to 8) (size 9 to 14) (size 15 to 20)
#    0.000    1.333    8.889    0.667    3.111    0.889 
#    0.000    4.444    0.000    0.000    0.000    0.000 
#    0.000    0.000    0.000    0.000    0.000    0.000 
#
# Total GULP energy -50335.644557 kJ/mol
# GULP energy per Si atom -5592.849395 kJ/mol
# Density = 2.450769 g / cm^3
# Si number density = 24.563601 Si / 1000 Ang^3
#
#
#
# Elastic Constant Matrix: (Units=GPa)
#
#
# Indices 1 2 3 4 5 6 
#
# 1 184.1376 28.9436 43.2896 0.0000 15.7705 0.0000
# 2 28.9436 101.0304 -9.5361 0.0000 4.2207 0.0000
# 3 43.2896 -9.5361 68.1721 0.0000 6.7936 0.0000
# 4 0.0000 0.0000 0.0000 11.8983 0.0000 17.9455
# 5 15.7705 4.2207 6.7936 0.0000 66.2677 0.0000
# 6 0.0000 0.0000 0.0000 17.9455 0.0000 20.6778
#
#
#
# Elastic Compliance Matrix: (Units=1/GPa)
#
#
# Indices 1 2 3 4 5 6 
#
# 1 0.006996 -0.002402 -0.004676 0.000000 -0.001033 0.000000
# 2 -0.002402 0.010897 0.003094 0.000000 -0.000439 0.000000
# 3 -0.004676 0.003094 0.018165 0.000000 -0.000947 0.000000
# 4 0.000000 0.000000 0.000000 -0.272041 0.000000 0.236094
# 5 -0.001033 -0.000439 -0.000947 0.000000 0.015461 0.000000
# 6 0.000000 0.000000 0.000000 0.236094 0.000000 -0.156536
#
#
# Mechanical properties :
#
#
# Convention : Reuss Voigt Hill
#
# Bulk Modulus (GPa) = 35.60168 53.19270 44.39719
# Shear Modulus (GPa) = -13.89942 39.14497 12.62277
#
# Velocity S-wave (km/s) = -2.38135 3.99634 2.26935
# Velocity P-wave (km/s) = 2.63895 6.55717 4.99802
#
# Compressibility (1/GPa) = 0.02808856
#
# Stress axis : x y z
#
# Youngs Moduli (GPa) = 142.93877 91.77147 55.05122
#
# Poissons Ratio (x) = 0.22048 0.25740
# Poissons Ratio (y) = 0.34340 -0.17031
# Poissons Ratio (z) = 0.66833 -0.28391
#
# Static dielectric constant tensor:
#      x y z
#    x 1.972380 0.000000 -0.025520 
#    y 0.000000 1.902720 0.000000 
#    z -0.025520 0.000000 2.039010 
# 
# From -- ./inp_files/14060.got.cif
#   From: 2010.05.17/outbox.cif.g08.bks.cpg/sg5_8_cif.got.tgz:14060.got - 2010.06.03 18:56:24.
