data_PCOD9125716
_publ_section_title
;
Structure prediction by ZEFSAII (Michael W. Deem and Ramdas Pophale) SiO2 
 PCOD9125716
Probable space group: C 2
;
_chemical_formula_sum "Si O2"
_cell_formula_units_Z 26
_cell_length_a 14.127488
_cell_length_b 7.907418
_cell_length_c 19.657253
_cell_angle_alpha 90.000000
_cell_angle_beta 25.859376
_cell_angle_gamma 90.000000
_cell_volume 957.794107
_symmetry_space_group_name_H-M "C 2"
_symmetry_group_IT_number 5
_symmetry_cell_setting 'monoclinic'
loop_
_space_group_symop_operation_xyz
x,y,z
-x,y,-z
1/2+x,1/2+y,z
1/2-x,1/2+y,-z
loop_
_atom_site_type_symbol
_atom_site_label
_atom_site_fract_x
_atom_site_fract_y
_atom_site_fract_z
Si Si1 0.500000 0.537210 0.500000
Si Si2 0.500000 0.873556 0.000000
Si Si3 0.243435 0.636480 0.760332
Si Si4 0.573732 0.827886 0.740250
Si Si5 0.824402 0.092069 0.449594
Si Si6 0.968371 0.774697 0.753177
Si Si7 0.500000 0.391169 0.000000
Si Si8 0.359696 0.499012 0.947653
O O1 0.301491 0.684082 0.646714
O O2 0.300311 0.391826 0.624288
O O3 0.565064 0.997444 0.895050
O O4 0.729559 0.789307 0.870651
O O5 0.493699 0.568370 0.607377
O O6 0.197971 0.770087 0.848871
O O7 0.626957 0.750282 0.631356
O O8 0.457629 0.664977 0.850228
O O9 0.392270 0.974332 0.869241
O O10 0.598229 0.122007 0.632944
O O11 0.873983 0.929520 0.372685
O O12 0.911782 0.839656 0.865689
O O13 0.466912 0.486246 0.952058
#
# Coordination Sequence:
#
# PCOD9125716 Si02
#       8
#     2   2   4   4   4   4   2   4
#     4  12  26  44  74 114 146 188 252 312 384 446
#     4   9  18  40  67 102 133 182 235 290 363 438
#     4  10  22  40  73  99 141 188 244 301 360 441
#     4  11  25  48  73 110 150 194 250 309 381 454
#     4  10  21  43  65 105 141 182 232 307 362 440
#     4  10  22  40  73 105 146 186 241 300 375 437
#     4  11  24  50  69 108 153 206 259 304 365 446
#     4  11  26  47  77 107 154 203 252 308 371 455
#
# _framework density 27.145707999999999
#
# number of rings (size 3 to 8) (size 9 to 14) (size 15 to 20)
#    0.000    1.538    1.538    2.769    6.462    1.231 
#    5.538    6.923    0.000    0.923    0.000    0.000 
#    0.000    0.000    0.000    0.000    0.000    0.000 
#
# Total GULP energy -72385.407266 kJ/mol
# GULP energy per Si atom -5568.108251 kJ/mol
# Density = 2.708392 g / cm^3
# Si number density = 27.145708 Si / 1000 Ang^3
#
#
#
# Elastic Constant Matrix: (Units=GPa)
#
#
# Indices 1 2 3 4 5 6 
#
# 1 90.3530 14.8300 76.8933 -0.0005 1.9906 0.0015
# 2 14.8300 77.5718 78.1666 -0.0033 8.3089 0.0044
# 3 76.8933 78.1666 312.5170 -0.0064 22.6584 0.0038
# 4 -0.0005 -0.0033 -0.0064 60.0019 0.0001 18.9428
# 5 1.9906 8.3089 22.6584 0.0001 65.5665 0.0000
# 6 0.0015 0.0044 0.0038 18.9428 0.0000 -2.5219
#
#
#
# Elastic Compliance Matrix: (Units=1/GPa)
#
#
# Indices 1 2 3 4 5 6 
#
# 1 0.014100 0.001036 -0.003783 0.000000 0.000748 0.000001
# 2 0.001036 0.017344 -0.004545 -0.000002 -0.000659 0.000008
# 3 -0.003783 -0.004545 0.005351 0.000000 -0.001158 0.000000
# 4 0.000000 -0.000002 0.000000 0.004943 0.000000 0.037132
# 5 0.000748 -0.000659 -0.001158 0.000000 0.015713 -0.000001
# 6 0.000001 0.000008 0.000000 0.037132 -0.000001 -0.117617
#
#
# Mechanical properties :
#
#
# Convention : Reuss Voigt Hill
#
# Bulk Modulus (GPa) = 45.02142 91.13576 68.07859
# Shear Modulus (GPa) = -130.96567 45.31276 -42.82645
#
# Velocity S-wave (km/s) = -6.95343 4.09007 -3.97627
# Velocity P-wave (km/s) = 6.91707 7.48001 2.01305
#
# Compressibility (1/GPa) = 0.02221165
#
# Stress axis : x y z
#
# Youngs Moduli (GPa) = 70.92026 57.65755 186.86894
#
# Poissons Ratio (x) = -0.05972 0.70686
# Poissons Ratio (y) = -0.07346 0.84934
# Poissons Ratio (z) = 0.26827 0.26206
#
# Static dielectric constant tensor:
#      x y z
#    x 5.444990 0.000000 1.549120 
#    y 0.000000 2.324650 0.000000 
#    z 1.549120 0.000000 2.814000 
# 
# From -- ./inp_files/69158.got.cif
#   From: 2010.05.17/outbox.cif.g08.bks.cpg/sg5_35_cif.got.tgz:69158.got - 2010.06.03 18:56:24.
