data_PCOD9125515
_publ_section_title
;
Structure prediction by ZEFSAII (Michael W. Deem and Ramdas Pophale) SiO2 
 PCOD9125515
Probable space group: C 2
;
_chemical_formula_sum "Si O2"
_cell_formula_units_Z 24
_cell_length_a 11.169298
_cell_length_b 7.688133
_cell_length_c 19.338860
_cell_angle_alpha 90.000000
_cell_angle_beta 145.657178
_cell_angle_gamma 90.000000
_cell_volume 936.843556
_symmetry_space_group_name_H-M "C 2"
_symmetry_group_IT_number 5
_symmetry_cell_setting 'monoclinic'
loop_
_space_group_symop_operation_xyz
x,y,z
-x,y,-z
1/2+x,1/2+y,z
1/2-x,1/2+y,-z
loop_
_atom_site_type_symbol
_atom_site_label
_atom_site_fract_x
_atom_site_fract_y
_atom_site_fract_z
Si Si1 0.755350 0.365230 0.909245
Si Si2 0.645021 0.298438 0.455813
Si Si3 0.308947 0.186425 0.855253
Si Si4 0.769045 0.258433 0.674171
Si Si5 0.444361 0.969623 0.347302
Si Si6 0.606366 0.010416 0.887181
O O1 0.737031 0.433956 0.979470
O O2 0.692125 0.163422 0.879546
O O3 0.672202 0.525176 0.822501
O O4 0.000000 0.362435 0.000000
O O5 0.733076 0.255009 0.575179
O O6 0.416321 0.371083 0.373092
O O7 0.572372 0.133774 0.375990
O O8 0.852630 0.378517 0.520138
O O9 0.570128 0.107321 0.152119
O O10 0.500000 0.236868 0.000000
O O11 0.718461 0.067921 0.680094
O O12 0.989980 0.344721 0.799236
O O13 0.319700 0.846022 0.237161
#
# Coordination Sequence:
#
# PCOD9125515 Si02
#       6
#     4   4   4   4   4   4
#     4   9  22  44  66 105 143 186 246 291 367 444
#     4   9  22  42  65  99 138 187 242 299 354 425
#     4   9  22  42  67 106 142 186 245 294 367 438
#     4   9  22  42  64 102 137 183 246 296 354 436
#     4  10  21  41  71  95 147 188 236 304 355 423
#     4  10  21  41  71  95 146 189 236 309 361 427
#
# _framework density 25.617939
#
# number of rings (size 3 to 8) (size 9 to 14) (size 15 to 20)
#    1.000    2.000    0.000    0.000    2.333    8.000 
#    0.000   10.000    0.000    0.000    0.000    0.000 
#    0.000    0.000    0.000    0.000    0.000    0.000 
#
# Total GULP energy -66862.702597 kJ/mol
# GULP energy per Si atom -5571.891883 kJ/mol
# Density = 2.555963 g / cm^3
# Si number density = 25.617939 Si / 1000 Ang^3
#
#
#
# Elastic Constant Matrix: (Units=GPa)
#
#
# Indices 1 2 3 4 5 6 
#
# 1 72.2043 44.2776 12.2891 0.0000 4.6560 0.0000
# 2 44.2776 126.5563 28.7608 0.0000 2.5678 0.0000
# 3 12.2891 28.7608 58.2362 0.0000 -4.3653 0.0000
# 4 0.0000 0.0000 0.0000 63.7722 0.0000 11.2438
# 5 4.6560 2.5678 -4.3653 0.0000 25.4662 0.0000
# 6 0.0000 0.0000 0.0000 11.2438 0.0000 50.8980
#
#
#
# Elastic Compliance Matrix: (Units=1/GPa)
#
#
# Indices 1 2 3 4 5 6 
#
# 1 0.017862 -0.005955 -0.001042 0.000000 -0.002844 0.000000
# 2 -0.005955 0.010957 -0.004210 0.000000 -0.000738 0.000000
# 3 -0.001042 -0.004210 0.019770 0.000000 0.004004 0.000000
# 4 0.000000 0.000000 0.000000 0.016316 0.000000 -0.003604
# 5 -0.002844 -0.000738 0.004004 0.000000 0.040548 0.000000
# 6 0.000000 0.000000 0.000000 -0.003604 0.000000 0.020443
#
#
# Mechanical properties :
#
#
# Convention : Reuss Voigt Hill
#
# Bulk Modulus (GPa) = 38.20198 47.51687 42.85943
# Shear Modulus (GPa) = 31.84001 39.47189 35.65595
#
# Velocity S-wave (km/s) = 3.52927 3.92955 3.73478
# Velocity P-wave (km/s) = 5.61714 6.25916 5.94682
#
# Compressibility (1/GPa) = 0.02617665
#
# Stress axis : x y z
#
# Youngs Moduli (GPa) = 55.98502 91.26836 50.58057
#
# Poissons Ratio (x) = 0.54349 0.05268
# Poissons Ratio (y) = 0.33338 0.21293
# Poissons Ratio (z) = 0.05831 0.38422
#
# Static dielectric constant tensor:
#      x y z
#    x 2.055700 0.000000 0.068010 
#    y 0.000000 2.167920 0.000000 
#    z 0.068010 0.000000 2.068270 
# 
# From -- ./inp_files/65075.got.cif
#   From: 2010.05.17/outbox.cif.g08.bks.cpg/sg5_33_cif.got.tgz:65075.got - 2010.06.03 18:56:24.
