data_PCOD9125124
_publ_section_title
;
Structure prediction by ZEFSAII (Michael W. Deem and Ramdas Pophale) SiO2 
 PCOD9125124
Probable space group: C 2
;
_chemical_formula_sum "Si O2"
_cell_formula_units_Z 32
_cell_length_a 24.597303
_cell_length_b 8.803945
_cell_length_c 24.487766
_cell_angle_alpha 90.000000
_cell_angle_beta 17.389491
_cell_angle_gamma 90.000000
_cell_volume 1584.857232
_symmetry_space_group_name_H-M "C 2"
_symmetry_group_IT_number 5
_symmetry_cell_setting 'monoclinic'
loop_
_space_group_symop_operation_xyz
x,y,z
-x,y,-z
1/2+x,1/2+y,z
1/2-x,1/2+y,-z
loop_
_atom_site_type_symbol
_atom_site_label
_atom_site_fract_x
_atom_site_fract_y
_atom_site_fract_z
Si Si1 0.584361 0.081370 0.859070
Si Si2 0.286119 0.245299 0.537333
Si Si3 0.159459 0.414955 0.557406
Si Si4 0.564530 0.375179 0.494071
Si Si5 0.734836 0.437245 0.143972
Si Si6 0.683035 0.682934 0.106596
Si Si7 0.119085 0.144229 0.045182
Si Si8 0.967990 0.833252 0.174783
O O1 0.595180 0.240964 0.817387
O O2 0.770944 0.988106 0.677401
O O3 0.500000 0.096284 0.000000
O O4 0.436818 0.989535 0.964881
O O5 0.265720 0.380081 0.512348
O O6 0.381121 0.281494 0.503813
O O7 0.078947 0.213746 0.753312
O O8 0.363457 0.094685 0.432705
O O9 0.294780 0.362672 0.379300
O O10 0.975798 0.311379 0.734861
O O11 0.500000 0.294082 0.500000
O O12 0.388210 0.462285 0.685355
O O13 0.651224 0.539627 0.176385
O O14 0.755844 0.263318 0.105697
O O15 0.692989 0.622499 0.035481
O O16 0.878199 0.746035 0.937906
O O17 0.072990 0.988567 0.059256
#
# Coordination Sequence:
#
# PCOD9125124 Si02
#       8
#     4   4   4   4   4   4   4   4
#     4  11  23  46  64  93 122 166 227 278 328 389
#     4  10  24  39  66  95 135 179 216 274 340 385
#     4  10  23  41  61 100 136 170 217 272 333 414
#     4  12  25  42  68  94 124 180 231 270 326 392
#     4  11  23  39  67  91 127 169 218 268 317 403
#     4  10  22  37  61  97 132 168 208 259 330 398
#     4  10  21  40  59  99 133 167 209 263 329 408
#     4  10  23  38  64  91 133 168 207 272 336 387
#
# _framework density 20.191094
#
# number of rings (size 3 to 8) (size 9 to 14) (size 15 to 20)
#    0.000    1.500    2.500    1.500   10.500    1.000 
#    0.000    3.125    0.000    0.000    0.000    0.000 
#    0.000    0.000    0.000    0.000    0.000    0.000 
#
# Total GULP energy -89281.619927 kJ/mol
# GULP energy per Si atom -5580.101245 kJ/mol
# Density = 2.014514 g / cm^3
# Si number density = 20.191094 Si / 1000 Ang^3
#
#
#
# Elastic Constant Matrix: (Units=GPa)
#
#
# Indices 1 2 3 4 5 6 
#
# 1 138.2071 66.0151 18.5914 -0.0005 5.7168 0.0000
# 2 66.0151 85.9269 21.0485 -0.0039 2.7767 0.0014
# 3 18.5914 21.0485 86.7013 -0.0016 3.0857 0.0008
# 4 -0.0005 -0.0039 -0.0016 22.4041 -0.0007 5.7184
# 5 5.7168 2.7767 3.0857 -0.0007 24.3265 0.0006
# 6 0.0000 0.0014 0.0008 5.7184 0.0006 24.1058
#
#
#
# Elastic Compliance Matrix: (Units=1/GPa)
#
#
# Indices 1 2 3 4 5 6 
#
# 1 0.011506 -0.008714 -0.000292 -0.000002 -0.001672 0.000001
# 2 -0.008714 0.019000 -0.002752 0.000003 0.000228 -0.000002
# 3 -0.000292 -0.002752 0.012307 0.000000 -0.001178 0.000000
# 4 -0.000002 0.000003 0.000000 0.047512 0.000002 -0.011271
# 5 -0.001672 0.000228 -0.001178 0.000002 0.041624 -0.000001
# 6 0.000001 -0.000002 0.000000 -0.011271 -0.000001 0.044157
#
#
# Mechanical properties :
#
#
# Convention : Reuss Voigt Hill
#
# Bulk Modulus (GPa) = 51.82622 58.01615 54.92118
# Shear Modulus (GPa) = 24.26540 27.84595 26.05567
#
# Velocity S-wave (km/s) = 3.47044 3.71768 3.59619
# Velocity P-wave (km/s) = 6.46391 6.87198 6.67107
#
# Compressibility (1/GPa) = 0.01929525
#
# Stress axis : x y z
#
# Youngs Moduli (GPa) = 86.90742 52.63260 81.25749
#
# Poissons Ratio (x) = 0.45867 0.02374
# Poissons Ratio (y) = 0.75735 0.22362
# Poissons Ratio (z) = 0.02540 0.14485
#
# Static dielectric constant tensor:
#      x y z
#    x 1.725320 0.000000 -0.028510 
#    y 0.000000 1.774030 0.000000 
#    z -0.028510 0.000000 1.736860 
# 
# From -- ./inp_files/69654.got.cif
#   From: 2010.05.17/outbox.cif.g08.bks.cpg/sg5_35_cif.got.tgz:69654.got - 2010.06.03 18:56:24.
