data_PCOD9125509
_publ_section_title
;
Structure prediction by ZEFSAII (Michael W. Deem and Ramdas Pophale) SiO2 
 PCOD9125509
Probable space group: C 2
;
_chemical_formula_sum "Si O2"
_cell_formula_units_Z 32
_cell_length_a 12.070142
_cell_length_b 7.727815
_cell_length_c 32.906231
_cell_angle_alpha 90.000000
_cell_angle_beta 155.342153
_cell_angle_gamma 90.000000
_cell_volume 1280.530841
_symmetry_space_group_name_H-M "C 2"
_symmetry_group_IT_number 5
_symmetry_cell_setting 'monoclinic'
loop_
_space_group_symop_operation_xyz
x,y,z
-x,y,-z
1/2+x,1/2+y,z
1/2-x,1/2+y,-z
loop_
_atom_site_type_symbol
_atom_site_label
_atom_site_fract_x
_atom_site_fract_y
_atom_site_fract_z
Si Si1 0.860817 0.535640 0.777618
Si Si2 0.144372 0.834405 0.373314
Si Si3 0.099003 0.706305 0.786523
Si Si4 0.463708 0.578081 0.770869
Si Si5 0.322087 0.053460 0.553390
Si Si6 0.559951 0.202108 0.116186
Si Si7 0.164203 0.177090 0.413066
Si Si8 0.395530 0.583829 0.089723
O O1 0.656199 0.378200 0.711652
O O2 0.648985 0.693591 0.700730
O O3 0.039685 0.552090 0.797952
O O4 0.993109 0.567377 0.864706
O O5 0.110376 0.730206 0.320342
O O6 0.268948 0.713956 0.449074
O O7 0.246490 0.034093 0.406169
O O8 0.079987 0.886546 0.802924
O O9 0.386031 0.684240 0.863641
O O10 0.551102 0.622085 0.845574
O O11 0.629730 0.689890 0.793158
O O12 0.144870 0.566004 0.658605
O O13 0.238741 0.871328 0.546369
O O14 0.205488 0.078016 0.469613
O O15 0.460738 0.384611 0.100437
O O16 0.389672 0.143406 0.020845
#
# Coordination Sequence:
#
# PCOD9125509 Si02
#       8
#     4   4   4   4   4   4   4   4
#     4  10  23  45  69 102 145 184 242 295 357 434
#     4  10  23  41  72 101 143 193 241 289 365 430
#     4  12  23  45  76 100 142 192 234 302 367 423
#     4  12  24  48  72 101 142 189 239 302 364 428
#     4  12  21  42  75 105 152 191 238 305 359 430
#     4  12  26  47  71 102 142 188 241 301 368 432
#     4  10  21  41  70 108 146 190 239 301 355 434
#     4  12  28  45  72 105 141 186 244 303 363 441
#
# _framework density 24.989635
#
# number of rings (size 3 to 8) (size 9 to 14) (size 15 to 20)
#    0.750    0.000    6.250    1.125    1.750    0.500 
#    2.250    4.375    0.000    3.000    0.000    0.000 
#    0.000    0.000    0.000    0.000    0.000    0.000 
#
# Total GULP energy -89421.133074 kJ/mol
# GULP energy per Si atom -5588.820817 kJ/mol
# Density = 2.493276 g / cm^3
# Si number density = 24.989635 Si / 1000 Ang^3
#
#
#
# Elastic Constant Matrix: (Units=GPa)
#
#
# Indices 1 2 3 4 5 6 
#
# 1 115.2749 4.3336 23.5822 0.0004 -6.2265 0.0000
# 2 4.3336 97.7105 -5.5916 0.0010 -6.4644 0.0008
# 3 23.5822 -5.5916 101.0514 0.0002 -13.1090 0.0006
# 4 0.0004 0.0010 0.0002 30.7023 -0.0004 -8.4953
# 5 -6.2265 -6.4644 -13.1090 -0.0004 45.1315 -0.0002
# 6 0.0000 0.0008 0.0006 -8.4953 -0.0002 17.5988
#
#
#
# Elastic Compliance Matrix: (Units=1/GPa)
#
#
# Indices 1 2 3 4 5 6 
#
# 1 0.009152 -0.000486 -0.002087 0.000000 0.000587 0.000000
# 2 -0.000486 0.010420 0.000909 -0.000001 0.001689 -0.000001
# 3 -0.002087 0.000909 0.010820 0.000000 0.002985 0.000000
# 4 0.000000 -0.000001 0.000000 0.037592 0.000000 0.018146
# 5 0.000587 0.001689 0.002985 0.000000 0.023348 0.000000
# 6 0.000000 -0.000001 0.000000 0.018146 0.000000 0.065582
#
#
# Mechanical properties :
#
#
# Convention : Reuss Voigt Hill
#
# Bulk Modulus (GPa) = 36.94882 39.85390 38.40136
# Shear Modulus (GPa) = 29.54001 38.13403 33.83702
#
# Velocity S-wave (km/s) = 3.44188 3.91064 3.68372
# Velocity P-wave (km/s) = 5.53292 6.03105 5.78735
#
# Compressibility (1/GPa) = 0.02706446
#
# Stress axis : x y z
#
# Youngs Moduli (GPa) = 109.26874 95.97214 92.41747
#
# Poissons Ratio (x) = 0.04669 0.19283
# Poissons Ratio (y) = 0.05316 -0.08403
# Poissons Ratio (z) = 0.22799 -0.08726
#
# Static dielectric constant tensor:
#      x y z
#    x 2.045920 0.000000 0.049590 
#    y 0.000000 2.028180 0.000000 
#    z 0.049590 0.000000 1.940540 
# 
# From -- ./inp_files/71780.got.cif
#   From: 2010.05.17/outbox.cif.g08.bks.cpg/sg5_36_cif.got.tgz:71780.got - 2010.06.03 18:56:24.
