data_PCOD9125980
_publ_section_title
;
Structure prediction by ZEFSAII (Michael W. Deem and Ramdas Pophale) SiO2 
 PCOD9125980
Probable space group: C 2
;
_chemical_formula_sum "Si O2"
_cell_formula_units_Z 22
_cell_length_a 16.495523
_cell_length_b 14.728360
_cell_length_c 8.712353
_cell_angle_alpha 90.000000
_cell_angle_beta 149.354556
_cell_angle_gamma 90.000000
_cell_volume 1078.924325
_symmetry_space_group_name_H-M "C 2"
_symmetry_group_IT_number 5
_symmetry_cell_setting 'monoclinic'
loop_
_space_group_symop_operation_xyz
x,y,z
-x,y,-z
1/2+x,1/2+y,z
1/2-x,1/2+y,-z
loop_
_atom_site_type_symbol
_atom_site_label
_atom_site_fract_x
_atom_site_fract_y
_atom_site_fract_z
Si Si1 0.992188 0.007580 0.167161
Si Si2 0.598891 0.706527 0.429904
Si Si3 0.751948 0.238516 0.015006
Si Si4 0.000000 0.329379 0.000000
Si Si5 0.779329 0.907165 0.249196
Si Si6 0.826806 0.539594 0.179757
O O1 0.088333 0.100591 0.365961
O O2 0.073818 0.929749 0.401627
O O3 0.000000 0.990262 0.000000
O O4 0.808490 0.020853 0.914945
O O5 0.428722 0.724672 0.232915
O O6 0.726371 0.737929 0.765211
O O7 0.600748 0.765857 0.279355
O O8 0.692412 0.326252 0.826757
O O9 0.661026 0.146905 0.824898
O O10 0.125477 0.384793 0.102694
O O11 0.740142 0.994641 0.083054
O O12 0.000000 0.500228 0.500000
#
# Coordination Sequence:
#
# PCOD9125980 Si02
#       6
#     4   4   4   2   4   4
#     4  11  23  42  69  98 135 177 223 276 336 394
#     4   9  17  38  65  93 128 179 219 268 335 394
#     4   9  20  39  65  92 130 174 223 271 326 393
#     4  10  22  36  62 104 134 174 226 272 334 394
#     4  11  24  40  68  98 136 176 227 272 333 397
#     4  11  25  42  65  98 132 176 225 275 331 397
#
# _framework density 20.39068
#
# number of rings (size 3 to 8) (size 9 to 14) (size 15 to 20)
#    0.000    1.818    2.727    0.545    7.636    1.455 
#    0.000    0.000    0.000    0.000    0.000    0.000 
#    0.000    0.000    0.000    0.000    0.000    0.000 
#
# Total GULP energy -61415.621761 kJ/mol
# GULP energy per Si atom -5583.238342 kJ/mol
# Density = 2.034427 g / cm^3
# Si number density = 20.390680 Si / 1000 Ang^3
#
#
#
# Elastic Constant Matrix: (Units=GPa)
#
#
# Indices 1 2 3 4 5 6 
#
# 1 104.8778 31.2993 60.4312 0.0000 -21.3701 0.0000
# 2 31.2993 89.8407 43.3538 0.0000 -9.5597 0.0000
# 3 60.4312 43.3538 133.5881 0.0000 -26.8488 0.0000
# 4 0.0000 0.0000 0.0000 22.4919 0.0000 0.4738
# 5 -21.3701 -9.5597 -26.8488 0.0000 32.2218 0.0000
# 6 0.0000 0.0000 0.0000 0.4738 0.0000 13.2992
#
#
#
# Elastic Compliance Matrix: (Units=1/GPa)
#
#
# Indices 1 2 3 4 5 6 
#
# 1 0.013764 -0.002071 -0.004616 0.000000 0.004668 0.000000
# 2 -0.002071 0.013514 -0.003506 0.000000 -0.000286 0.000000
# 3 -0.004616 -0.003506 0.011876 0.000000 0.005794 0.000000
# 4 0.000000 0.000000 0.000000 0.044494 0.000000 -0.001585
# 5 0.004668 -0.000286 0.005794 0.000000 0.038874 0.000000
# 6 0.000000 0.000000 0.000000 -0.001585 0.000000 0.075249
#
#
# Mechanical properties :
#
#
# Convention : Reuss Voigt Hill
#
# Bulk Modulus (GPa) = 53.28402 66.49724 59.89063
# Shear Modulus (GPa) = 22.28031 26.48407 24.38219
#
# Velocity S-wave (km/s) = 3.30914 3.60784 3.46172
# Velocity P-wave (km/s) = 6.38662 7.07374 6.73894
#
# Compressibility (1/GPa) = 0.01876735
#
# Stress axis : x y z
#
# Youngs Moduli (GPa) = 72.65387 73.99788 84.20081
#
# Poissons Ratio (x) = 0.15324 0.38869
# Poissons Ratio (y) = 0.15046 0.29524
# Poissons Ratio (z) = 0.33538 0.25946
#
# Static dielectric constant tensor:
#      x y z
#    x 1.696410 0.000000 0.001600 
#    y 0.000000 1.746440 0.000000 
#    z 0.001600 0.000000 1.743620 
# 
# From -- ./inp_files/14874.got.cif
#   From: 2010.05.17/outbox.cif.g08.bks.cpg/sg5_8_cif.got.tgz:14874.got - 2010.06.03 18:56:24.
