data_PCOD9125992
_publ_section_title
;
Structure prediction by ZEFSAII (Michael W. Deem and Ramdas Pophale) SiO2 
 PCOD9125992
Probable space group: C 2
;
_chemical_formula_sum "Si O2"
_cell_formula_units_Z 18
_cell_length_a 4.917531
_cell_length_b 16.141956
_cell_length_c 10.960832
_cell_angle_alpha 90.000000
_cell_angle_beta 122.044076
_cell_angle_gamma 90.000000
_cell_volume 737.493724
_symmetry_space_group_name_H-M "C 2"
_symmetry_group_IT_number 5
_symmetry_cell_setting 'monoclinic'
loop_
_space_group_symop_operation_xyz
x,y,z
-x,y,-z
1/2+x,1/2+y,z
1/2-x,1/2+y,-z
loop_
_atom_site_type_symbol
_atom_site_label
_atom_site_fract_x
_atom_site_fract_y
_atom_site_fract_z
Si Si1 0.822344 0.681720 0.633491
Si Si2 0.212231 0.838130 0.671375
Si Si3 0.833600 0.930225 0.765515
Si Si4 0.347627 0.080128 0.093060
Si Si5 0.500000 0.039477 0.500000
O O1 0.500000 0.722623 0.500000
O O2 0.110488 0.743778 0.670301
O O3 0.894854 0.642415 0.783085
O O4 0.843462 0.599307 0.558954
O O5 0.576610 0.857466 0.724940
O O6 0.000000 0.863772 0.500000
O O7 0.144527 0.884378 0.785373
O O8 0.754432 0.998353 0.851523
O O9 0.751011 0.983363 0.626939
O O10 0.500000 0.055373 0.000000
O O11 0.000000 0.124007 0.000000
#
# Coordination Sequence:
#
# PCOD9125992 Si02
#       5
#     4   4   4   4   2
#     4  11  26  42  73 107 146 183 240 294 361 428
#     4  12  22  41  65 108 145 176 227 297 360 416
#     4  11  24  40  68  96 140 185 232 285 350 415
#     4  11  27  49  71 101 144 192 245 293 354 426
#     4  10  22  36  66 100 136 174 232 284 350 400
#
# _framework density 24.406988999999999
#
# number of rings (size 3 to 8) (size 9 to 14) (size 15 to 20)
#    0.000    0.889    3.333    2.667   12.444    0.000 
#    0.000    6.667    0.000    0.000    0.000    0.000 
#    0.000    0.000    0.000    0.000    0.000    0.000 
#
# Total GULP energy -50168.469590 kJ/mol
# GULP energy per Si atom -5574.274399 kJ/mol
# Density = 2.435144 g / cm^3
# Si number density = 24.406989 Si / 1000 Ang^3
#
#
#
# Elastic Constant Matrix: (Units=GPa)
#
#
# Indices 1 2 3 4 5 6 
#
# 1 94.3624 24.3598 18.1588 0.0000 -16.5588 0.0000
# 2 24.3598 97.9507 32.6909 0.0000 -12.8473 0.0000
# 3 18.1588 32.6909 87.0285 0.0000 -20.6971 0.0000
# 4 0.0000 0.0000 0.0000 6.5539 0.0000 -3.9640
# 5 -16.5588 -12.8473 -20.6971 0.0000 44.9676 0.0000
# 6 0.0000 0.0000 0.0000 -3.9640 0.0000 35.8725
#
#
#
# Elastic Compliance Matrix: (Units=1/GPa)
#
#
# Indices 1 2 3 4 5 6 
#
# 1 0.011929 -0.002243 -0.000847 0.000000 0.003362 0.000000
# 2 -0.002243 0.012183 -0.003904 0.000000 0.000858 0.000000
# 3 -0.000847 -0.003904 0.014367 0.000000 0.005185 0.000000
# 4 0.000000 0.000000 0.000000 0.163509 0.000000 0.018068
# 5 0.003362 0.000858 0.005185 0.000000 0.026108 0.000000
# 6 0.000000 0.000000 0.000000 0.018068 0.000000 0.029873
#
#
# Mechanical properties :
#
#
# Convention : Reuss Voigt Hill
#
# Bulk Modulus (GPa) = 40.83222 47.75118 44.29170
# Shear Modulus (GPa) = 17.84944 31.08760 24.46852
#
# Velocity S-wave (km/s) = 2.70724 3.57279 3.16970
# Velocity P-wave (km/s) = 5.15152 6.05201 5.61983
#
# Compressibility (1/GPa) = 0.02449047
#
# Stress axis : x y z
#
# Youngs Moduli (GPa) = 83.82585 82.08446 69.60429
#
# Poissons Ratio (x) = 0.18413 0.05895
# Poissons Ratio (y) = 0.18803 0.27175
# Poissons Ratio (z) = 0.07099 0.32047
#
# Static dielectric constant tensor:
#      x y z
#    x 2.020420 0.000000 0.028650 
#    y 0.000000 1.927980 0.000000 
#    z 0.028650 0.000000 2.084170 
# 
# From -- ./inp_files/11810.got.cif
#   From: 2010.05.17/outbox.cif.g08.bks.cpg/sg5_6_cif.got.tgz:11810.got - 2010.06.03 18:56:24.
