data_PCOD9125872
_publ_section_title
;
Structure prediction by ZEFSAII (Michael W. Deem and Ramdas Pophale) SiO2 
 PCOD9125872
Probable space group: C 2
;
_chemical_formula_sum "Si O2"
_cell_formula_units_Z 22
_cell_length_a 13.412870
_cell_length_b 12.410532
_cell_length_c 5.633679
_cell_angle_alpha 90.000000
_cell_angle_beta 90.836567
_cell_angle_gamma 90.000000
_cell_volume 937.687049
_symmetry_space_group_name_H-M "C 2"
_symmetry_group_IT_number 5
_symmetry_cell_setting 'monoclinic'
loop_
_space_group_symop_operation_xyz
x,y,z
-x,y,-z
1/2+x,1/2+y,z
1/2-x,1/2+y,-z
loop_
_atom_site_type_symbol
_atom_site_label
_atom_site_fract_x
_atom_site_fract_y
_atom_site_fract_z
Si Si1 0.805713 0.745910 0.232759
Si Si2 0.500000 0.713864 0.000000
Si Si3 0.000000 0.082330 0.500000
Si Si4 0.000000 0.707245 0.500000
Si Si5 0.278978 0.528986 0.550763
Si Si6 0.379049 0.094000 0.852887
Si Si7 0.325379 0.885097 0.069691
O O1 0.737554 0.643896 0.309006
O O2 0.897616 0.763791 0.416348
O O3 0.848528 0.701286 0.987576
O O4 0.745822 0.850304 0.151216
O O5 0.511119 0.646236 0.246841
O O6 0.404851 0.788027 0.071298
O O7 0.105358 0.019943 0.514711
O O8 0.025390 0.627532 0.288060
O O9 0.207362 0.557414 0.329854
O O10 0.238785 0.427271 0.705499
O O11 0.387445 0.991607 0.017693
#
# Coordination Sequence:
#
# PCOD9125872 Si02
#       7
#     4   2   2   2   4   4   4
#     4  10  21  45  64 101 142 188 237 306 365 442
#     4  12  28  44  82 110 150 198 260 298 392 436
#     4  12  26  51  75 110 148 212 236 317 373 462
#     4  10  22  39  71  94 136 194 230 297 373 436
#     4  10  24  43  71 101 152 188 249 305 379 431
#     4  10  23  41  68  98 142 180 241 304 366 430
#     4  11  25  42  71 107 143 191 247 315 353 459
#
# _framework density 23.461984000000001
#
# number of rings (size 3 to 8) (size 9 to 14) (size 15 to 20)
#    0.000    1.455    1.818    1.636   12.727    2.909 
#    0.000    5.455    0.000    0.000    0.000    0.000 
#    0.000    0.000    0.000    0.000    0.000    0.000 
#
# Total GULP energy -61330.381689 kJ/mol
# GULP energy per Si atom -5575.489244 kJ/mol
# Density = 2.340858 g / cm^3
# Si number density = 23.461984 Si / 1000 Ang^3
#
#
#
# Elastic Constant Matrix: (Units=GPa)
#
#
# Indices 1 2 3 4 5 6 
#
# 1 168.3860 39.2474 42.5949 0.0000 11.8798 0.0000
# 2 39.2474 94.3680 40.9254 0.0000 0.2492 0.0000
# 3 42.5949 40.9254 99.3155 0.0000 2.7887 0.0000
# 4 0.0000 0.0000 0.0000 18.7988 0.0000 -4.3489
# 5 11.8798 0.2492 2.7887 0.0000 53.7424 0.0000
# 6 0.0000 0.0000 0.0000 -4.3489 0.0000 39.1770
#
#
#
# Elastic Compliance Matrix: (Units=1/GPa)
#
#
# Indices 1 2 3 4 5 6 
#
# 1 0.007051 -0.001991 -0.002164 0.000000 -0.001437 0.000000
# 2 -0.001991 0.013467 -0.004713 0.000000 0.000622 0.000000
# 3 -0.002164 -0.004713 0.012944 0.000000 -0.000172 0.000000
# 4 0.000000 0.000000 0.000000 0.054597 0.000000 0.006061
# 5 -0.001437 0.000622 -0.000172 0.000000 0.018931 0.000000
# 6 0.000000 0.000000 0.000000 0.006061 0.000000 0.026198
#
#
# Mechanical properties :
#
#
# Convention : Reuss Voigt Hill
#
# Bulk Modulus (GPa) = 63.58248 67.51166 65.54707
# Shear Modulus (GPa) = 32.01731 38.29710 35.15720
#
# Velocity S-wave (km/s) = 3.69812 4.04456 3.87521
# Velocity P-wave (km/s) = 6.73749 7.11679 6.92974
#
# Compressibility (1/GPa) = 0.01572760
#
# Stress axis : x y z
#
# Youngs Moduli (GPa) = 141.81580 74.25535 77.25665
#
# Poissons Ratio (x) = 0.14781 0.16715
# Poissons Ratio (y) = 0.28229 0.36412
# Poissons Ratio (z) = 0.30684 0.34998
#
# Static dielectric constant tensor:
#      x y z
#    x 1.926940 0.000000 0.023610 
#    y 0.000000 1.840510 0.000000 
#    z 0.023610 0.000000 1.986410 
# 
# From -- ./inp_files/4785.got.cif
#   From: 2010.05.17/outbox.cif.g08.bks.cpg/sg5_3_cif.got.tgz:4785.got - 2010.06.03 18:56:24.
