data_PCOD9125158
_publ_section_title
;
Structure prediction by ZEFSAII (Michael W. Deem and Ramdas Pophale) SiO2 
 PCOD9125158
Probable space group: C 2
;
_chemical_formula_sum "Si O2"
_cell_formula_units_Z 32
_cell_length_a 19.327059
_cell_length_b 12.007976
_cell_length_c 8.759885
_cell_angle_alpha 90.000000
_cell_angle_beta 131.425284
_cell_angle_gamma 90.000000
_cell_volume 1524.370467
_symmetry_space_group_name_H-M "C 2"
_symmetry_group_IT_number 5
_symmetry_cell_setting 'monoclinic'
loop_
_space_group_symop_operation_xyz
x,y,z
-x,y,-z
1/2+x,1/2+y,z
1/2-x,1/2+y,-z
loop_
_atom_site_type_symbol
_atom_site_label
_atom_site_fract_x
_atom_site_fract_y
_atom_site_fract_z
Si Si1 0.081396 0.140390 0.992501
Si Si2 0.474883 0.842686 0.281496
Si Si3 0.967038 0.712510 0.625098
Si Si4 0.229202 0.722317 0.210226
Si Si5 0.765272 0.637394 0.438509
Si Si6 0.439872 0.392210 0.062540
Si Si7 0.370636 0.048170 0.127033
Si Si8 0.842066 0.434893 0.409700
O O1 0.176697 0.175948 0.212746
O O2 0.047625 0.222024 0.811266
O O3 0.000000 0.141269 0.000000
O O4 0.094859 0.014990 0.949732
O O5 0.500000 0.845955 0.500000
O O6 0.569089 0.900238 0.361875
O O7 0.391710 0.922757 0.105468
O O8 0.862692 0.687979 0.522160
O O9 0.000000 0.709721 0.500000
O O10 0.994121 0.834804 0.719583
O O11 0.037521 0.617063 0.788102
O O12 0.245093 0.668331 0.399214
O O13 0.305551 0.817068 0.291429
O O14 0.139579 0.801946 0.081479
O O15 0.210898 0.623939 0.060649
O O16 0.774217 0.504423 0.419884
O O17 0.500000 0.402632 0.000000
O O18 0.360669 0.020273 0.294310
#
# Coordination Sequence:
#
# PCOD9125158 Si02
#       8
#     4   4   4   4   4   4   4   4
#     4  11  25  44  62  94 139 186 221 281 356 412
#     4  10  22  44  67  91 134 176 229 288 344 408
#     4  11  20  40  69 100 128 170 233 283 340 401
#     4  11  24  40  67 103 134 181 231 287 346 409
#     4  12  23  41  70  98 134 182 232 286 340 417
#     4  10  21  40  62  90 137 174 215 284 348 400
#     4  10  22  41  69 100 133 178 226 290 348 401
#     4  11  22  44  67  98 141 178 229 296 341 413
#
# _framework density 20.992273999999998
#
# number of rings (size 3 to 8) (size 9 to 14) (size 15 to 20)
#    0.000    1.250    5.000    1.125    0.000    4.500 
#    0.000    1.250    0.000    0.000    0.000    0.000 
#    0.000    0.000    0.000    0.000    0.000    0.000 
#
# Total GULP energy -89102.790243 kJ/mol
# GULP energy per Si atom -5568.924390 kJ/mol
# Density = 2.094449 g / cm^3
# Si number density = 20.992274 Si / 1000 Ang^3
#
#
#
# Elastic Constant Matrix: (Units=GPa)
#
#
# Indices 1 2 3 4 5 6 
#
# 1 48.9429 19.6784 18.5652 0.0000 8.8411 0.0000
# 2 19.6784 148.7576 67.5044 0.0000 -10.8529 0.0000
# 3 18.5652 67.5044 82.2542 0.0000 7.4594 0.0000
# 4 0.0000 0.0000 0.0000 41.4611 0.0000 2.9418
# 5 8.8411 -10.8529 7.4594 0.0000 22.6782 0.0000
# 6 0.0000 0.0000 0.0000 2.9418 0.0000 36.5629
#
#
#
# Elastic Compliance Matrix: (Units=1/GPa)
#
#
# Indices 1 2 3 4 5 6 
#
# 1 0.024279 -0.003014 -0.002079 0.000000 -0.010224 0.000000
# 2 -0.003014 0.012833 -0.010839 0.000000 0.010882 0.000000
# 3 -0.002079 -0.010839 0.022593 0.000000 -0.011808 0.000000
# 4 0.000000 0.000000 0.000000 0.024257 0.000000 -0.001952
# 5 -0.010224 0.010882 -0.011808 0.000000 0.057172 0.000000
# 6 0.000000 0.000000 0.000000 -0.001952 0.000000 0.027507
#
#
# Mechanical properties :
#
#
# Convention : Reuss Voigt Hill
#
# Bulk Modulus (GPa) = 35.91766 54.60565 45.26165
# Shear Modulus (GPa) = 23.83369 31.75422 27.79395
#
# Velocity S-wave (km/s) = 3.37316 3.89352 3.64264
# Velocity P-wave (km/s) = 5.68489 6.80304 6.26895
#
# Compressibility (1/GPa) = 0.02784146
#
# Stress axis : x y z
#
# Youngs Moduli (GPa) = 41.18715 77.92129 44.26223
#
# Poissons Ratio (x) = 0.23487 0.09202
# Poissons Ratio (y) = 0.12415 0.47974
# Poissons Ratio (z) = 0.08563 0.84457
#
# Static dielectric constant tensor:
#      x y z
#    x 1.825240 0.000000 0.020430 
#    y 0.000000 1.770300 0.000000 
#    z 0.020430 0.000000 1.783920 
# 
# From -- ./inp_files/29620.got.cif
#   From: 2010.05.17/outbox.cif.g08.bks.cpg/sg5_15_cif.got.tgz:29620.got - 2010.06.03 18:56:24.
