data_PCOD9125863
_publ_section_title
;
Structure prediction by ZEFSAII (Michael W. Deem and Ramdas Pophale) SiO2 
 PCOD9125863
Probable space group: C 2
;
_chemical_formula_sum "Si O2"
_cell_formula_units_Z 30
_cell_length_a 25.546172
_cell_length_b 11.239770
_cell_length_c 14.211611
_cell_angle_alpha 90.000000
_cell_angle_beta 159.656443
_cell_angle_gamma 90.000000
_cell_volume 1418.622965
_symmetry_space_group_name_H-M "C 2"
_symmetry_group_IT_number 5
_symmetry_cell_setting 'monoclinic'
loop_
_space_group_symop_operation_xyz
x,y,z
-x,y,-z
1/2+x,1/2+y,z
1/2-x,1/2+y,-z
loop_
_atom_site_type_symbol
_atom_site_label
_atom_site_fract_x
_atom_site_fract_y
_atom_site_fract_z
Si Si1 0.735456 0.246350 0.832966
Si Si2 0.494855 0.367990 0.181440
Si Si3 0.258925 0.543331 0.718980
Si Si4 0.000000 0.326210 0.000000
Si Si5 0.262619 0.196697 0.504900
Si Si6 0.107662 0.724044 0.814224
Si Si7 0.776382 0.519478 0.699404
Si Si8 0.087517 0.491463 0.882460
O O1 0.781770 0.130069 0.848925
O O2 0.725607 0.245758 0.929841
O O3 0.560879 0.254096 0.506634
O O4 0.833619 0.363564 0.978884
O O5 0.601609 0.282834 0.298306
O O6 0.398564 0.299165 0.099279
O O7 0.608805 0.464953 0.420510
O O8 0.381245 0.441104 0.926239
O O9 0.269933 0.621737 0.644252
O O10 0.092434 0.486895 0.429811
O O11 0.100768 0.258668 0.246329
O O12 0.120722 0.407732 0.153452
O O13 0.294591 0.115085 0.647719
O O14 0.125990 0.583350 0.864393
O O15 0.848531 0.560322 0.918209
#
# Coordination Sequence:
#
# PCOD9125863 Si02
#       8
#     4   4   4   2   4   4   4   4
#     4  10  21  44  74  94 137 182 212 282 341 398
#     4  11  23  46  67  98 137 175 224 279 333 403
#     4  11  24  44  67  99 136 175 222 272 337 399
#     4  10  22  38  64  90 128 172 224 266 328 390
#     4  11  22  45  62  97 134 176 224 271 332 391
#     4  10  22  43  70  99 132 174 221 278 343 389
#     4  11  23  43  68  93 132 178 221 276 328 389
#     4  11  22  45  68 100 136 174 225 276 332 406
#
# _framework density 21.147268
#
# number of rings (size 3 to 8) (size 9 to 14) (size 15 to 20)
#    0.000    1.333    4.000    2.400    1.867    0.000 
#   12.000    0.000    0.000    0.000    0.000    0.000 
#    0.000    0.000    0.000    0.000    0.000    0.000 
#
# Total GULP energy -83665.621816 kJ/mol
# GULP energy per Si atom -5577.708121 kJ/mol
# Density = 2.109914 g / cm^3
# Si number density = 21.147268 Si / 1000 Ang^3
#
#
#
# Elastic Constant Matrix: (Units=GPa)
#
#
# Indices 1 2 3 4 5 6 
#
# 1 82.0752 57.1975 57.6473 0.0000 7.4215 0.0000
# 2 57.1975 123.8639 82.1948 0.0000 6.2766 0.0000
# 3 57.6473 82.1948 110.2198 0.0000 2.7389 0.0000
# 4 0.0000 0.0000 0.0000 83.9233 0.0000 -8.7133
# 5 7.4215 6.2766 2.7389 0.0000 23.0329 0.0000
# 6 0.0000 0.0000 0.0000 -8.7133 0.0000 19.5655
#
#
#
# Elastic Compliance Matrix: (Units=1/GPa)
#
#
# Indices 1 2 3 4 5 6 
#
# 1 0.021016 -0.004457 -0.007552 0.000000 -0.004659 0.000000
# 2 -0.004457 0.017130 -0.010394 0.000000 -0.001996 0.000000
# 3 -0.007552 -0.010394 0.020704 0.000000 0.002804 0.000000
# 4 0.000000 0.000000 0.000000 0.012493 0.000000 0.005564
# 5 -0.004659 -0.001996 0.002804 0.000000 0.045128 0.000000
# 6 0.000000 0.000000 0.000000 0.005564 0.000000 0.053588
#
#
# Mechanical properties :
#
#
# Convention : Reuss Voigt Hill
#
# Bulk Modulus (GPa) = 71.20510 78.91534 75.06022
# Shear Modulus (GPa) = 22.77435 33.24561 28.00998
#
# Velocity S-wave (km/s) = 3.28524 3.96927 3.64334
# Velocity P-wave (km/s) = 6.93791 7.64231 7.29861
#
# Compressibility (1/GPa) = 0.01404394
#
# Stress axis : x y z
#
# Youngs Moduli (GPa) = 47.58356 58.37827 48.30003
#
# Poissons Ratio (x) = 0.26019 0.36477
# Poissons Ratio (y) = 0.21207 0.50201
# Poissons Ratio (z) = 0.35936 0.60676
#
# Static dielectric constant tensor:
#      x y z
#    x 1.760580 0.000000 0.016540 
#    y 0.000000 1.796800 0.000000 
#    z 0.016540 0.000000 1.812490 
# 
# From -- ./inp_files/58210.got.cif
#   From: 2010.05.17/outbox.cif.g08.bks.cpg/sg5_30_cif.got.tgz:58210.got - 2010.06.03 18:56:24.
