data_PCOD9125505
_publ_section_title
;
Structure prediction by ZEFSAII (Michael W. Deem and Ramdas Pophale) SiO2 
 PCOD9125505
Probable space group: C 2
;
_chemical_formula_sum "Si O2"
_cell_formula_units_Z 24
_cell_length_a 5.161785
_cell_length_b 26.141168
_cell_length_c 9.093399
_cell_angle_alpha 90.000000
_cell_angle_beta 59.033423
_cell_angle_gamma 90.000000
_cell_volume 1052.128693
_symmetry_space_group_name_H-M "C 2"
_symmetry_group_IT_number 5
_symmetry_cell_setting 'monoclinic'
loop_
_space_group_symop_operation_xyz
x,y,z
-x,y,-z
1/2+x,1/2+y,z
1/2-x,1/2+y,-z
loop_
_atom_site_type_symbol
_atom_site_label
_atom_site_fract_x
_atom_site_fract_y
_atom_site_fract_z
Si Si1 0.500000 0.367610 0.000000
Si Si2 0.807701 0.779931 0.829793
Si Si3 0.500000 0.332907 0.500000
Si Si4 0.638622 0.169596 0.119023
Si Si5 0.206377 0.008476 0.188548
Si Si6 0.778550 0.916319 0.337414
Si Si7 0.090209 0.566246 0.306649
O O1 0.598175 0.328747 0.099631
O O2 0.263397 0.401053 0.167284
O O3 0.793356 0.798064 0.665738
O O4 0.978897 0.725736 0.793335
O O5 0.500000 0.767425 0.000000
O O6 0.324986 0.368847 0.436329
O O7 0.566882 0.122441 0.244285
O O8 0.500000 0.160231 0.000000
O O9 0.000000 0.168274 0.000000
O O10 0.067818 0.952737 0.256691
O O11 0.342432 0.032438 0.295392
O O12 0.500000 0.006367 0.000000
O O13 0.928484 0.041643 0.201848
O O14 0.500000 0.944029 0.500000
O O15 0.000000 0.569472 0.500000
#
# Coordination Sequence:
#
# PCOD9125505 Si02
#       7
#     2   4   2   4   4   4   4
#     4  10  22  44  66 104 138 194 240 292 362 424
#     4  10  21  41  70 100 140 187 235 292 355 426
#     4  10  24  42  68 100 146 186 238 300 348 428
#     4  11  23  44  75 104 141 186 235 288 358 431
#     4  12  28  48  74 104 143 192 243 293 364 435
#     4  11  26  43  71 104 146 190 243 299 359 428
#     4  12  27  47  73 108 146 184 237 303 363 430
#
# _framework density 22.810896
#
# number of rings (size 3 to 8) (size 9 to 14) (size 15 to 20)
#    0.000    1.000    0.833    5.000    8.167    2.667 
#    0.000    0.000    0.000    0.000    0.000    0.000 
#    0.000    0.000    0.000    0.000    0.000    0.000 
#
# Total GULP energy -67004.392723 kJ/mol
# GULP energy per Si atom -5583.699394 kJ/mol
# Density = 2.275898 g / cm^3
# Si number density = 22.810896 Si / 1000 Ang^3
#
#
#
# Elastic Constant Matrix: (Units=GPa)
#
#
# Indices 1 2 3 4 5 6 
#
# 1 101.0988 38.5045 41.6349 0.0000 10.2959 0.0000
# 2 38.5045 122.3917 81.1532 0.0000 8.4414 0.0000
# 3 41.6349 81.1532 187.6858 0.0000 20.2485 0.0000
# 4 0.0000 0.0000 0.0000 29.9406 0.0000 15.8017
# 5 10.2959 8.4414 20.2485 0.0000 35.0789 0.0000
# 6 0.0000 0.0000 0.0000 15.8017 0.0000 33.3676
#
#
#
# Elastic Compliance Matrix: (Units=1/GPa)
#
#
# Indices 1 2 3 4 5 6 
#
# 1 0.011628 -0.002738 -0.001171 0.000000 -0.002078 0.000000
# 2 -0.002738 0.012100 -0.004689 0.000000 0.000599 0.000000
# 3 -0.001171 -0.004689 0.007952 0.000000 -0.003118 0.000000
# 4 0.000000 0.000000 0.000000 0.044529 0.000000 -0.021087
# 5 -0.002078 0.000599 -0.003118 0.000000 0.030773 0.000000
# 6 0.000000 0.000000 0.000000 -0.021087 0.000000 0.039955
#
#
# Mechanical properties :
#
#
# Convention : Reuss Voigt Hill
#
# Bulk Modulus (GPa) = 69.04855 81.52903 75.28879
# Shear Modulus (GPa) = 29.59267 36.33633 32.96450
#
# Velocity S-wave (km/s) = 3.60572 3.99549 3.80560
# Velocity P-wave (km/s) = 6.90439 7.55673 7.23791
#
# Compressibility (1/GPa) = 0.01448256
#
# Stress axis : x y z
#
# Youngs Moduli (GPa) = 85.99779 82.64669 125.75934
#
# Poissons Ratio (x) = 0.22631 0.14731
# Poissons Ratio (y) = 0.23548 0.58967
# Poissons Ratio (z) = 0.10073 0.38752
#
# Static dielectric constant tensor:
#      x y z
#    x 1.868180 0.000000 -0.017850 
#    y 0.000000 1.976710 0.000000 
#    z -0.017850 0.000000 1.865610 
# 
# From -- ./inp_files/12969.got.cif
#   From: 2010.05.17/outbox.cif.g08.bks.cpg/sg5_7_cif.got.tgz:12969.got - 2010.06.03 18:56:24.
