data_PCOD9125409
_publ_section_title
;
Structure prediction by ZEFSAII (Michael W. Deem and Ramdas Pophale) SiO2 
 PCOD9125409
Probable space group: C 2
;
_chemical_formula_sum "Si O2"
_cell_formula_units_Z 26
_cell_length_a 21.071396
_cell_length_b 9.649249
_cell_length_c 7.893684
_cell_angle_alpha 90.000000
_cell_angle_beta 44.038363
_cell_angle_gamma 90.000000
_cell_volume 1115.677691
_symmetry_space_group_name_H-M "C 2"
_symmetry_group_IT_number 5
_symmetry_cell_setting 'monoclinic'
loop_
_space_group_symop_operation_xyz
x,y,z
-x,y,-z
1/2+x,1/2+y,z
1/2-x,1/2+y,-z
loop_
_atom_site_type_symbol
_atom_site_label
_atom_site_fract_x
_atom_site_fract_y
_atom_site_fract_z
Si Si1 0.404344 0.745750 0.453496
Si Si2 0.000000 0.092463 0.000000
Si Si3 0.617703 0.417458 0.962405
Si Si4 0.682384 0.529537 0.161400
Si Si5 0.715486 0.130498 0.737854
Si Si6 0.056354 0.793667 0.544353
Si Si7 0.089264 0.532661 0.709055
O O1 0.489332 0.687076 0.185421
O O2 0.383637 0.660539 0.665097
O O3 0.314307 0.698982 0.520012
O O4 0.407991 0.910317 0.434425
O O5 0.088968 0.996286 0.849619
O O6 0.684996 0.501021 0.957146
O O7 0.519307 0.401203 0.242105
O O8 0.649628 0.262046 0.875150
O O9 0.772098 0.560812 0.100282
O O10 0.638947 0.387945 0.319513
O O11 0.676126 0.032060 0.668813
O O12 0.084663 0.680320 0.625201
O O13 0.000000 0.722446 0.500000
O O14 0.000000 0.517310 0.000000
#
# Coordination Sequence:
#
# PCOD9125409 Si02
#       7
#     4   2   4   4   4   4   4
#     4  10  25  42  59 101 132 167 221 269 338 380
#     4  12  22  40  72  94 128 178 220 268 328 398
#     4  11  20  42  69  94 125 178 222 265 327 397
#     4   9  23  43  64  92 133 169 222 268 325 404
#     4  10  24  41  65  97 129 171 222 271 328 390
#     4  10  21  41  65  92 123 176 222 262 327 394
#     4  12  23  42  64  96 133 170 218 282 323 389
#
# _framework density 23.304220999999998
#
# number of rings (size 3 to 8) (size 9 to 14) (size 15 to 20)
#    0.923    0.615    3.846    0.923    4.308    0.000 
#   11.077    0.000    0.000    0.000    0.000    0.000 
#    0.000    0.000    0.000    0.000    0.000    0.000 
#
# Total GULP energy -72531.129048 kJ/mol
# GULP energy per Si atom -5579.317619 kJ/mol
# Density = 2.325118 g / cm^3
# Si number density = 23.304221 Si / 1000 Ang^3
#
#
#
# Elastic Constant Matrix: (Units=GPa)
#
#
# Indices 1 2 3 4 5 6 
#
# 1 107.3245 40.4763 -3.1203 0.0000 15.1761 0.0000
# 2 40.4763 108.9002 3.2460 0.0000 13.1205 0.0000
# 3 -3.1203 3.2460 22.1994 0.0000 0.2105 0.0000
# 4 0.0000 0.0000 0.0000 19.1938 0.0000 2.6248
# 5 15.1761 13.1205 0.2105 0.0000 30.3291 0.0000
# 6 0.0000 0.0000 0.0000 2.6248 0.0000 37.1318
#
#
#
# Elastic Compliance Matrix: (Units=1/GPa)
#
#
# Indices 1 2 3 4 5 6 
#
# 1 0.011394 -0.003810 0.002197 0.000000 -0.004068 0.000000
# 2 -0.003810 0.011004 -0.002118 0.000000 -0.002839 0.000000
# 3 0.002197 -0.002118 0.045670 0.000000 -0.000500 0.000000
# 4 0.000000 0.000000 0.000000 0.052609 0.000000 -0.003719
# 5 -0.004068 -0.002839 -0.000500 0.000000 0.036239 0.000000
# 6 0.000000 0.000000 0.000000 -0.003719 0.000000 0.027194
#
#
# Mechanical properties :
#
#
# Convention : Reuss Voigt Hill
#
# Bulk Modulus (GPa) = 16.50003 35.51425 26.00714
# Shear Modulus (GPa) = 23.61029 30.51907 27.06468
#
# Velocity S-wave (km/s) = 3.18643 3.62276 3.41158
# Velocity P-wave (km/s) = 4.54240 5.72465 5.16745
#
# Compressibility (1/GPa) = 0.06060594
#
# Stress axis : x y z
#
# Youngs Moduli (GPa) = 87.76836 90.87537 21.89644
#
# Poissons Ratio (x) = 0.34625 -0.04811
# Poissons Ratio (y) = 0.33441 0.04637
# Poissons Ratio (z) = -0.19284 0.19244
#
# Static dielectric constant tensor:
#      x y z
#    x 1.922940 0.000000 0.013890 
#    y 0.000000 1.851740 0.000000 
#    z 0.013890 0.000000 1.988810 
# 
# From -- ./inp_files/29101.got.cif
#   From: 2010.05.17/outbox.cif.g08.bks.cpg/sg5_15_cif.got.tgz:29101.got - 2010.06.03 18:56:24.
