data_PCOD9125295
_publ_section_title
;
Structure prediction by ZEFSAII (Michael W. Deem and Ramdas Pophale) SiO2 
 PCOD9125295
Probable space group: C 2
;
_chemical_formula_sum "Si O2"
_cell_formula_units_Z 18
_cell_length_a 13.161754
_cell_length_b 4.803610
_cell_length_c 15.251921
_cell_angle_alpha 90.000000
_cell_angle_beta 134.345976
_cell_angle_gamma 90.000000
_cell_volume 689.592155
_symmetry_space_group_name_H-M "C 2"
_symmetry_group_IT_number 5
_symmetry_cell_setting 'monoclinic'
loop_
_space_group_symop_operation_xyz
x,y,z
-x,y,-z
1/2+x,1/2+y,z
1/2-x,1/2+y,-z
loop_
_atom_site_type_symbol
_atom_site_label
_atom_site_fract_x
_atom_site_fract_y
_atom_site_fract_z
Si Si1 0.689391 0.887840 0.259133
Si Si2 0.000000 0.384573 0.000000
Si Si3 0.680643 0.101304 0.500585
Si Si4 0.275541 0.687534 0.146295
Si Si5 0.454972 0.195230 0.232797
O O1 0.777795 0.695646 0.377449
O O2 0.778118 0.096434 0.250433
O O3 0.578875 0.071562 0.248083
O O4 0.589658 0.727276 0.127895
O O5 0.880866 0.582076 0.973534
O O6 0.787721 0.281713 0.502833
O O7 0.525791 0.179148 0.372262
O O8 0.399273 0.499814 0.178201
O O9 0.317635 0.998331 0.150842
#
# Coordination Sequence:
#
# PCOD9125295 Si02
#       5
#     4   2   4   4   4
#     4   9  22  45  64  98 139 166 217 281 313 397
#     4   8  22  48  62 102 130 178 214 280 324 382
#     4  10  21  40  68  98 133 175 215 270 334 387
#     4  10  24  42  65 102 125 174 223 262 333 388
#     4  11  22  41  69  94 129 178 216 264 334 386
#
# _framework density 26.102384000000001
#
# number of rings (size 3 to 8) (size 9 to 14) (size 15 to 20)
#    1.333    0.889    0.000    2.667    0.000    8.889 
#    0.000    6.667    0.000    0.000    0.000    0.000 
#    0.000    0.000    0.000    0.000    0.000    0.000 
#
# Total GULP energy -50322.343043 kJ/mol
# GULP energy per Si atom -5591.371449 kJ/mol
# Density = 2.604297 g / cm^3
# Si number density = 26.102384 Si / 1000 Ang^3
#
#
#
# Elastic Constant Matrix: (Units=GPa)
#
#
# Indices 1 2 3 4 5 6 
#
# 1 104.3728 15.3112 -17.1033 0.0000 2.4277 -0.0001
# 2 15.3112 70.0503 12.0990 0.0000 2.4673 0.0004
# 3 -17.1033 12.0990 84.7821 0.0001 -16.5659 0.0000
# 4 0.0000 0.0000 0.0001 36.9446 0.0000 6.2668
# 5 2.4277 2.4673 -16.5659 0.0000 45.8753 0.0000
# 6 -0.0001 0.0004 0.0000 6.2668 0.0000 28.6787
#
#
#
# Elastic Compliance Matrix: (Units=1/GPa)
#
#
# Indices 1 2 3 4 5 6 
#
# 1 0.010395 -0.002739 0.002592 0.000000 0.000533 0.000000
# 2 -0.002739 0.015476 -0.003115 0.000000 -0.001812 0.000000
# 3 0.002592 -0.003115 0.013738 0.000000 0.004991 0.000000
# 4 0.000000 0.000000 0.000000 0.028109 0.000000 -0.006142
# 5 0.000533 -0.001812 0.004991 0.000000 0.023670 0.000000
# 6 0.000000 0.000000 0.000000 -0.006142 0.000000 0.036211
#
#
# Mechanical properties :
#
#
# Convention : Reuss Voigt Hill
#
# Bulk Modulus (GPa) = 30.22483 31.09099 30.65791
# Shear Modulus (GPa) = 34.44689 38.89294 36.66992
#
# Velocity S-wave (km/s) = 3.63669 3.86426 3.75220
# Velocity P-wave (km/s) = 5.40726 5.64332 5.52655
#
# Compressibility (1/GPa) = 0.03308538
#
# Stress axis : x y z
#
# Youngs Moduli (GPa) = 96.19887 64.61653 72.79282
#
# Poissons Ratio (x) = 0.17696 -0.18868
# Poissons Ratio (y) = 0.26345 0.22676
# Poissons Ratio (z) = -0.24935 0.20129
#
# Static dielectric constant tensor:
#      x y z
#    x 2.062250 0.000000 -0.086870 
#    y 0.000000 1.961260 0.000000 
#    z -0.086870 0.000000 2.080450 
# 
# From -- ./inp_files/65514.got.cif
#   From: 2010.05.17/outbox.cif.g08.bks.cpg/sg5_33_cif.got.tgz:65514.got - 2010.06.03 18:56:24.
