data_PCOD9125117
_publ_section_title
;
Structure prediction by ZEFSAII (Michael W. Deem and Ramdas Pophale) SiO2 
 PCOD9125117
Probable space group: C 2
;
_chemical_formula_sum "Si O2"
_cell_formula_units_Z 26
_cell_length_a 23.518480
_cell_length_b 7.759675
_cell_length_c 7.635017
_cell_angle_alpha 90.000000
_cell_angle_beta 90.474177
_cell_angle_gamma 90.000000
_cell_volume 1393.310524
_symmetry_space_group_name_H-M "C 2"
_symmetry_group_IT_number 5
_symmetry_cell_setting 'monoclinic'
loop_
_space_group_symop_operation_xyz
x,y,z
-x,y,-z
1/2+x,1/2+y,z
1/2-x,1/2+y,-z
loop_
_atom_site_type_symbol
_atom_site_label
_atom_site_fract_x
_atom_site_fract_y
_atom_site_fract_z
Si Si1 0.203892 0.261600 0.882599
Si Si2 0.700606 0.976139 0.203175
Si Si3 0.606974 0.504675 0.827981
Si Si4 0.000000 0.878437 0.000000
Si Si5 0.612903 0.246114 0.125344
Si Si6 0.220550 0.538423 0.584931
Si Si7 0.337662 0.393701 0.515058
O O1 0.250590 0.122417 0.820732
O O2 0.207825 0.427614 0.756841
O O3 0.142057 0.175915 0.869029
O O4 0.215848 0.316947 0.081610
O O5 0.642489 0.061235 0.129729
O O6 0.695511 0.946432 0.409343
O O7 0.618676 0.460139 0.627740
O O8 0.540954 0.494483 0.879755
O O9 0.633219 0.357554 0.958094
O O10 0.044858 0.760752 0.106760
O O11 0.633396 0.336142 0.304246
O O12 0.288317 0.529552 0.558018
O O13 0.194095 0.727983 0.571533
#
# Coordination Sequence:
#
# PCOD9125117 Si02
#       7
#     4   4   4   2   4   4   4
#     4  12  23  35  59  89 126 156 194 244 308 359
#     4  11  23  35  59  91 122 159 191 242 310 355
#     4  10  21  40  58  86 113 159 202 246 292 344
#     4   8  22  42  62  84 114 154 218 244 278 358
#     4   9  20  41  58  87 111 156 204 243 289 348
#     4  11  22  35  54  95 124 151 191 239 304 373
#     4  11  20  35  62  86 128 153 190 246 302 356
#
# _framework density 18.660592999999999
#
# number of rings (size 3 to 8) (size 9 to 14) (size 15 to 20)
#    0.923    0.615    4.615    1.846    2.154    1.846 
#    0.000    0.769    0.000    0.000    0.000    0.000 
#    0.000    0.000    0.000    0.000    0.000    0.000 
#
# Total GULP energy -72486.217284 kJ/mol
# GULP energy per Si atom -5575.862868 kJ/mol
# Density = 1.861812 g / cm^3
# Si number density = 18.660593 Si / 1000 Ang^3
#
#
#
# Elastic Constant Matrix: (Units=GPa)
#
#
# Indices 1 2 3 4 5 6 
#
# 1 121.6132 12.8200 7.3374 0.0000 0.2135 0.0000
# 2 12.8200 30.2366 -11.3596 0.0000 2.7709 0.0000
# 3 7.3374 -11.3596 60.1113 0.0000 -5.7002 0.0000
# 4 0.0000 0.0000 0.0000 25.9834 0.0000 3.1920
# 5 0.2135 2.7709 -5.7002 0.0000 30.4592 0.0000
# 6 0.0000 0.0000 0.0000 3.1920 0.0000 27.5906
#
#
#
# Elastic Compliance Matrix: (Units=1/GPa)
#
#
# Indices 1 2 3 4 5 6 
#
# 1 0.008808 -0.004454 -0.001918 0.000000 -0.000016 0.000000
# 2 -0.004454 0.037974 0.007529 0.000000 -0.002014 0.000000
# 3 -0.001918 0.007529 0.018558 0.000000 0.002802 0.000000
# 4 0.000000 0.000000 0.000000 0.039041 0.000000 -0.004517
# 5 -0.000016 -0.002014 0.002802 0.000000 0.033538 0.000000
# 6 0.000000 0.000000 0.000000 -0.004517 0.000000 0.036767
#
#
# Mechanical properties :
#
#
# Convention : Reuss Voigt Hill
#
# Bulk Modulus (GPa) = 14.78110 25.50629 20.14370
# Shear Modulus (GPa) = 25.65097 30.35086 28.00091
#
# Velocity S-wave (km/s) = 3.71159 4.03732 3.87788
# Velocity P-wave (km/s) = 5.12895 5.95244 5.55597
#
# Compressibility (1/GPa) = 0.06765396
#
# Stress axis : x y z
#
# Youngs Moduli (GPa) = 113.53235 26.33380 53.88399
#
# Poissons Ratio (x) = 0.11729 0.10336
# Poissons Ratio (y) = 0.50565 -0.40568
# Poissons Ratio (z) = 0.21779 -0.19826
#
# Static dielectric constant tensor:
#      x y z
#    x 1.638130 0.000000 0.005550 
#    y 0.000000 1.668240 0.000000 
#    z 0.005550 0.000000 1.659200 
# 
# From -- ./inp_files/30470.got.cif
#   From: 2010.05.17/outbox.cif.g08.bks.cpg/sg5_16_cif.got.tgz:30470.got - 2010.06.03 18:56:24.
