data_PCOD9125627
_publ_section_title
;
Structure prediction by ZEFSAII (Michael W. Deem and Ramdas Pophale) SiO2 
 PCOD9125627
Probable space group: C 2
;
_chemical_formula_sum "Si O2"
_cell_formula_units_Z 32
_cell_length_a 13.973860
_cell_length_b 24.216865
_cell_length_c 8.441067
_cell_angle_alpha 90.000000
_cell_angle_beta 149.966391
_cell_angle_gamma 90.000000
_cell_volume 1429.692388
_symmetry_space_group_name_H-M "C 2"
_symmetry_group_IT_number 5
_symmetry_cell_setting 'monoclinic'
loop_
_space_group_symop_operation_xyz
x,y,z
-x,y,-z
1/2+x,1/2+y,z
1/2-x,1/2+y,-z
loop_
_atom_site_type_symbol
_atom_site_label
_atom_site_fract_x
_atom_site_fract_y
_atom_site_fract_z
Si Si1 0.786403 0.201240 0.633491
Si Si2 0.839829 0.021908 0.135675
Si Si3 0.128420 0.904607 0.837024
Si Si4 0.285079 0.586644 0.750791
Si Si5 0.274460 0.267427 0.724484
Si Si6 0.054208 0.490428 0.260270
Si Si7 0.976740 0.367488 0.773750
Si Si8 0.487567 0.292059 0.295331
O O1 0.695756 0.145595 0.573887
O O2 0.783942 0.209822 0.440540
O O3 0.701782 0.264932 0.052213
O O4 0.000000 0.206744 0.000000
O O5 0.000000 0.034112 0.500000
O O6 0.877612 0.964744 0.091421
O O7 0.795080 0.070828 0.949628
O O8 0.644741 0.003218 0.938379
O O9 0.026048 0.855308 0.783305
O O10 0.000000 0.916493 0.500000
O O11 0.326422 0.879254 0.046014
O O12 0.193797 0.536893 0.522882
O O13 0.500000 0.591980 0.000000
O O14 0.138816 0.316791 0.469380
O O15 0.332125 0.254466 0.483767
O O16 0.500000 0.276776 0.000000
O O17 0.121671 0.427617 0.384686
O O18 0.000000 0.495229 0.000000
O O19 0.000000 0.358843 0.000000
O O20 0.500000 0.296873 0.500000
#
# Coordination Sequence:
#
# PCOD9125627 Si02
#       8
#     4   4   4   4   4   4   4   4
#     4  10  24  46  66  89 126 179 231 280 325 395
#     4  10  21  42  67  97 142 177 220 280 346 403
#     4   9  21  37  61  98 139 175 210 272 337 408
#     4  11  24  43  68  96 131 179 233 287 337 398
#     4  10  23  39  64  91 125 175 223 270 331 393
#     4  10  22  40  64 101 133 178 228 271 344 411
#     4  10  22  38  65  94 135 180 216 270 335 410
#     4  10  23  41  60  95 133 169 221 271 339 390
#
# _framework density 22.382438
#
# number of rings (size 3 to 8) (size 9 to 14) (size 15 to 20)
#    0.000    2.000    0.000    1.500   12.250    4.500 
#    0.000    2.500    0.000    0.000    0.000    0.000 
#    0.000    0.000    0.000    0.000    0.000    0.000 
#
# Total GULP energy -89172.586458 kJ/mol
# GULP energy per Si atom -5573.286654 kJ/mol
# Density = 2.233150 g / cm^3
# Si number density = 22.382438 Si / 1000 Ang^3
#
#
#
# Elastic Constant Matrix: (Units=GPa)
#
#
# Indices 1 2 3 4 5 6 
#
# 1 33.6147 35.0907 11.1181 0.0000 -15.9045 0.0000
# 2 35.0907 140.5003 60.7893 0.0000 -12.2988 0.0000
# 3 11.1181 60.7893 97.7959 0.0000 -18.1044 0.0000
# 4 0.0000 0.0000 0.0000 27.7040 0.0000 3.1429
# 5 -15.9045 -12.2988 -18.1044 0.0000 36.1927 0.0000
# 6 0.0000 0.0000 0.0000 3.1429 0.0000 23.0890
#
#
#
# Elastic Compliance Matrix: (Units=1/GPa)
#
#
# Indices 1 2 3 4 5 6 
#
# 1 0.052578 -0.014204 0.006872 0.000000 0.021716 0.000000
# 2 -0.014204 0.013576 -0.007853 0.000000 -0.005556 0.000000
# 3 0.006872 -0.007853 0.015859 0.000000 0.008284 0.000000
# 4 0.000000 0.000000 0.000000 0.036662 0.000000 -0.004991
# 5 0.021716 -0.005556 0.008284 0.000000 0.039428 0.000000
# 6 0.000000 0.000000 0.000000 -0.004991 0.000000 0.043990
#
#
# Mechanical properties :
#
#
# Convention : Reuss Voigt Hill
#
# Bulk Modulus (GPa) = 19.36351 53.98968 36.67659
# Shear Modulus (GPa) = 20.02580 28.39133 24.20856
#
# Velocity S-wave (km/s) = 2.99442 3.56541 3.29232
# Velocity P-wave (km/s) = 4.54151 6.41275 5.55647
#
# Compressibility (1/GPa) = 0.05164354
#
# Stress axis : x y z
#
# Youngs Moduli (GPa) = 19.01927 73.65888 63.05595
#
# Poissons Ratio (x) = 1.04625 -0.43330
# Poissons Ratio (y) = 0.27015 0.49516
# Poissons Ratio (z) = -0.13070 0.57842
#
# Static dielectric constant tensor:
#      x y z
#    x 2.040470 0.000000 -0.045430 
#    y 0.000000 1.929230 0.000000 
#    z -0.045430 0.000000 1.878060 
# 
# From -- ./inp_files/25722.got.cif
#   From: 2010.05.17/outbox.cif.g08.bks.cpg/sg5_13_cif.got.tgz:25722.got - 2010.06.03 18:56:24.
