data_PCOD9125301
_publ_section_title
;
Structure prediction by ZEFSAII (Michael W. Deem and Ramdas Pophale) SiO2 
 PCOD9125301
Probable space group: C 2
;
_chemical_formula_sum "Si O2"
_cell_formula_units_Z 30
_cell_length_a 14.611103
_cell_length_b 9.399437
_cell_length_c 11.601892
_cell_angle_alpha 90.000000
_cell_angle_beta 62.915255
_cell_angle_gamma 90.000000
_cell_volume 1418.621870
_symmetry_space_group_name_H-M "C 2"
_symmetry_group_IT_number 5
_symmetry_cell_setting 'monoclinic'
loop_
_space_group_symop_operation_xyz
x,y,z
-x,y,-z
1/2+x,1/2+y,z
1/2-x,1/2+y,-z
loop_
_atom_site_type_symbol
_atom_site_label
_atom_site_fract_x
_atom_site_fract_y
_atom_site_fract_z
Si Si1 0.377608 0.322160 0.327877
Si Si2 0.196109 0.339645 0.794223
Si Si3 0.373561 0.826977 0.909172
Si Si4 0.376359 0.229270 0.582132
Si Si5 0.963045 0.578263 0.141850
Si Si6 0.948875 0.141195 0.286157
Si Si7 0.000000 0.248223 0.500000
Si Si8 0.687330 0.918360 0.290819
O O1 0.341355 0.275355 0.474876
O O2 0.452137 0.197656 0.242675
O O3 0.431870 0.474102 0.286483
O O4 0.279174 0.342275 0.303931
O O5 0.317042 0.339556 0.698463
O O6 0.144420 0.493936 0.807695
O O7 0.134555 0.233227 0.740957
O O8 0.174136 0.296164 0.938853
O O9 0.441130 0.694445 0.825468
O O10 0.299452 0.887466 0.852485
O O11 0.455566 0.954989 0.877633
O O12 0.500000 0.229265 0.500000
O O13 0.332095 0.079434 0.654911
O O14 0.000000 0.642551 0.000000
O O15 0.944812 0.168618 0.426106
O O16 0.917816 0.343953 0.612126
#
# Coordination Sequence:
#
# PCOD9125301 Si02
#       8
#     4   4   4   4   4   4   2   4
#     4  12  26  40  66 103 138 174 221 290 341 398
#     4  10  21  44  73  96 131 184 229 272 336 414
#     4   9  21  46  74  94 128 183 227 271 340 420
#     4  12  26  43  67  96 136 181 229 280 335 403
#     4   9  21  43  71  97 132 177 224 273 340 407
#     4  10  21  40  69 104 133 173 223 280 339 402
#     4  10  22  40  70  94 142 174 232 270 336 416
#     4  11  23  43  66  99 129 184 223 275 344 405
#
# _framework density 21.147286999999999
#
# number of rings (size 3 to 8) (size 9 to 14) (size 15 to 20)
#    0.000    1.600    2.000    2.800    6.533    1.067 
#    9.600    0.000    0.000    0.000    0.000    0.000 
#    0.000    0.000    0.000    0.000    0.000    0.000 
#
# Total GULP energy -83717.886833 kJ/mol
# GULP energy per Si atom -5581.192456 kJ/mol
# Density = 2.109915 g / cm^3
# Si number density = 21.147287 Si / 1000 Ang^3
#
#
#
# Elastic Constant Matrix: (Units=GPa)
#
#
# Indices 1 2 3 4 5 6 
#
# 1 77.4262 -0.7352 38.0729 0.0000 14.8647 0.0000
# 2 -0.7352 65.0709 44.3623 0.0000 1.9568 0.0000
# 3 38.0729 44.3623 138.5966 0.0000 20.1283 0.0000
# 4 0.0000 0.0000 0.0000 7.8060 0.0000 10.3135
# 5 14.8647 1.9568 20.1283 0.0000 33.3676 0.0000
# 6 0.0000 0.0000 0.0000 10.3135 0.0000 9.4408
#
#
#
# Elastic Compliance Matrix: (Units=1/GPa)
#
#
# Indices 1 2 3 4 5 6 
#
# 1 0.016273 0.003742 -0.005024 0.000000 -0.004439 0.000000
# 2 0.003742 0.020777 -0.007956 0.000000 0.001914 0.000000
# 3 -0.005024 -0.007956 0.011781 0.000000 -0.004402 0.000000
# 4 0.000000 0.000000 0.000000 -0.288940 0.000000 0.315651
# 5 -0.004439 0.001914 -0.004402 0.000000 0.034490 0.000000
# 6 0.000000 0.000000 0.000000 0.315651 0.000000 -0.238908
#
#
# Mechanical properties :
#
#
# Convention : Reuss Voigt Hill
#
# Bulk Modulus (GPa) = 32.94227 49.38820 41.16524
# Shear Modulus (GPa) = -12.02117 23.41579 5.69731
#
# Velocity S-wave (km/s) = -2.38680 3.33118 1.64316
# Velocity P-wave (km/s) = 2.83118 6.18068 4.80710
#
# Compressibility (1/GPa) = 0.03035613
#
# Stress axis : x y z
#
# Youngs Moduli (GPa) = 61.44987 48.13068 84.88144
#
# Poissons Ratio (x) = -0.18011 0.42640
# Poissons Ratio (y) = -0.22995 0.67533
# Poissons Ratio (z) = 0.30870 0.38294
#
# Static dielectric constant tensor:
#      x y z
#    x 1.877150 0.000000 0.025520 
#    y 0.000000 1.762230 0.000000 
#    z 0.025520 0.000000 1.761950 
# 
# From -- ./inp_files/41916.got.cif
#   From: 2010.05.17/outbox.cif.g08.bks.cpg/sg5_21_cif.got.tgz:41916.got - 2010.06.03 18:56:24.
