data_PCOD9125560
_publ_section_title
;
Structure prediction by ZEFSAII (Michael W. Deem and Ramdas Pophale) SiO2 
 PCOD9125560
Probable space group: C 2
;
_chemical_formula_sum "Si O2"
_cell_formula_units_Z 28
_cell_length_a 15.575034
_cell_length_b 7.747960
_cell_length_c 12.208235
_cell_angle_alpha 90.000000
_cell_angle_beta 55.554440
_cell_angle_gamma 90.000000
_cell_volume 1214.916095
_symmetry_space_group_name_H-M "C 2"
_symmetry_group_IT_number 5
_symmetry_cell_setting 'monoclinic'
loop_
_space_group_symop_operation_xyz
x,y,z
-x,y,-z
1/2+x,1/2+y,z
1/2-x,1/2+y,-z
loop_
_atom_site_type_symbol
_atom_site_label
_atom_site_fract_x
_atom_site_fract_y
_atom_site_fract_z
Si Si1 0.248811 0.035470 0.215823
Si Si2 0.721189 0.142397 0.199649
Si Si3 0.105779 0.845604 0.866220
Si Si4 0.310195 0.670063 0.511425
Si Si5 0.642001 0.047793 0.478385
Si Si6 0.476738 0.562907 0.643552
Si Si7 0.016081 0.695996 0.260949
O O1 0.339859 0.170464 0.129404
O O2 0.221154 0.042142 0.366846
O O3 0.266117 0.837463 0.169865
O O4 0.140794 0.108481 0.241127
O O5 0.640097 0.119610 0.359077
O O6 0.637538 0.138615 0.158497
O O7 0.810082 0.999161 0.164435
O O8 0.056340 0.772513 0.785499
O O9 0.000000 0.902121 0.000000
O O10 0.224414 0.663538 0.482077
O O11 0.420784 0.636152 0.374378
O O12 0.314006 0.856287 0.561994
O O13 0.544780 0.047378 0.629799
O O14 0.500000 0.609269 0.500000
O O15 0.481861 0.360362 0.659661
#
# Coordination Sequence:
#
# PCOD9125560 Si02
#       7
#     4   4   4   4   4   4   4
#     4  10  21  42  63  96 133 175 231 277 342 412
#     4  11  24  43  72 100 137 181 227 287 358 419
#     4  12  27  50  70  95 140 183 241 296 336 411
#     4  11  20  31  59 101 144 183 210 271 359 422
#     4  12  20  33  64 100 145 173 220 279 357 432
#     4   9  19  35  61  94 137 169 212 278 343 421
#     4  11  23  42  64 104 133 180 227 278 351 419
#
# _framework density 23.046856999999999
#
# number of rings (size 3 to 8) (size 9 to 14) (size 15 to 20)
#    0.000    1.143    2.857    5.571    2.000    1.714 
#    5.143    0.000    0.000    0.000    0.000    0.000 
#    0.000    0.000    0.000    0.000    0.000    0.000 
#
# Total GULP energy -77939.057787 kJ/mol
# GULP energy per Si atom -5567.075556 kJ/mol
# Density = 2.299440 g / cm^3
# Si number density = 23.046857 Si / 1000 Ang^3
#
#
#
# Elastic Constant Matrix: (Units=GPa)
#
#
# Indices 1 2 3 4 5 6 
#
# 1 140.7990 45.2004 40.8465 0.0000 -35.1958 0.0000
# 2 45.2004 113.2890 20.9193 0.0000 -26.7249 0.0000
# 3 40.8465 20.9193 44.8726 0.0000 -23.6928 0.0000
# 4 0.0000 0.0000 0.0000 10.4110 0.0000 -9.0888
# 5 -35.1958 -26.7249 -23.6928 0.0000 28.7453 0.0000
# 6 0.0000 0.0000 0.0000 -9.0888 0.0000 41.9037
#
#
#
# Elastic Compliance Matrix: (Units=1/GPa)
#
#
# Indices 1 2 3 4 5 6 
#
# 1 0.011078 -0.001629 -0.005245 0.000000 0.007727 0.000000
# 2 -0.001629 0.011552 0.001266 0.000000 0.009790 0.000000
# 3 -0.005245 0.001266 0.041962 0.000000 0.029341 0.000000
# 4 0.000000 0.000000 0.000000 0.118489 0.000000 0.025700
# 5 0.007727 0.009790 0.029341 0.000000 0.077534 0.000000
# 6 0.000000 0.000000 0.000000 0.025700 0.000000 0.029438
#
#
# Mechanical properties :
#
#
# Convention : Reuss Voigt Hill
#
# Bulk Modulus (GPa) = 18.73495 56.98807 37.86151
# Shear Modulus (GPa) = 15.67094 29.01163 22.34128
#
# Velocity S-wave (km/s) = 2.61043 3.55182 3.11687
# Velocity P-wave (km/s) = 4.15121 6.44991 5.42374
#
# Compressibility (1/GPa) = 0.05337616
#
# Stress axis : x y z
#
# Youngs Moduli (GPa) = 90.26601 86.56170 23.83117
#
# Poissons Ratio (x) = 0.14099 0.12500
# Poissons Ratio (y) = 0.14702 -0.03017
# Poissons Ratio (z) = 0.47348 -0.10958
#
# Static dielectric constant tensor:
#      x y z
#    x 2.021030 0.000000 -0.018410 
#    y 0.000000 1.831640 0.000000 
#    z -0.018410 0.000000 1.860930 
# 
# From -- ./inp_files/54127.got.cif
#   From: 2010.05.17/outbox.cif.g08.bks.cpg/sg5_28_cif.got.tgz:54127.got - 2010.06.03 18:56:24.
