data_PCOD9125052
_publ_section_title
;
Structure prediction by ZEFSAII (Michael W. Deem and Ramdas Pophale) SiO2 
 PCOD9125052
Probable space group: C 2
;
_chemical_formula_sum "Si O2"
_cell_formula_units_Z 32
_cell_length_a 17.638394
_cell_length_b 11.234637
_cell_length_c 14.167437
_cell_angle_alpha 90.000000
_cell_angle_beta 149.215378
_cell_angle_gamma 90.000000
_cell_volume 1436.878666
_symmetry_space_group_name_H-M "C 2"
_symmetry_group_IT_number 5
_symmetry_cell_setting 'monoclinic'
loop_
_space_group_symop_operation_xyz
x,y,z
-x,y,-z
1/2+x,1/2+y,z
1/2-x,1/2+y,-z
loop_
_atom_site_type_symbol
_atom_site_label
_atom_site_fract_x
_atom_site_fract_y
_atom_site_fract_z
Si Si1 0.637846 0.395390 0.582063
Si Si2 0.341995 0.200381 0.551376
Si Si3 0.427633 0.989037 0.177389
Si Si4 0.612847 0.528904 0.203597
Si Si5 0.392418 0.805851 0.975371
Si Si6 0.105724 0.380408 0.535777
Si Si7 0.399474 0.574459 0.119881
Si Si8 0.845385 0.142392 0.469948
O O1 0.500000 0.431333 0.500000
O O2 0.612323 0.315093 0.461133
O O3 0.716206 0.516962 0.631795
O O4 0.734002 0.319337 0.757624
O O5 0.478412 0.110883 0.714595
O O6 0.215215 0.134963 0.352765
O O7 0.257751 0.206596 0.561565
O O8 0.426494 0.920747 0.076715
O O9 0.515737 0.901682 0.342960
O O10 0.259228 0.018700 0.027630
O O11 0.734335 0.438113 0.297429
O O12 0.508663 0.487296 0.177992
O O13 0.500000 0.557056 0.000000
O O14 0.390392 0.691407 0.042621
O O15 0.500000 0.803260 0.000000
O O16 0.131503 0.242124 0.583023
O O17 0.000000 0.438800 0.500000
O O18 0.496054 0.610228 0.313811
#
# Coordination Sequence:
#
# PCOD9125052 Si02
#       8
#     4   4   4   4   4   4   4   4
#     4  12  25  42  69 102 134 176 235 286 338 409
#     4  10  24  40  71  96 137 175 230 283 347 411
#     4  11  24  44  68 106 137 179 229 300 350 414
#     4  10  21  39  65  99 127 174 225 285 341 416
#     4  12  24  43  72 102 138 181 233 284 350 418
#     4  11  24  43  67  96 140 185 229 283 356 423
#     4  11  22  41  70  98 137 176 234 286 353 414
#     4  11  24  44  66  95 137 185 225 277 355 419
#
# _framework density 22.270496000000001
#
# number of rings (size 3 to 8) (size 9 to 14) (size 15 to 20)
#    0.000    1.000    1.250    6.000    5.250    3.000 
#    0.000    1.875    0.000    0.000    0.000    0.000 
#    0.000    0.000    0.000    0.000    0.000    0.000 
#
# Total GULP energy -89365.590159 kJ/mol
# GULP energy per Si atom -5585.349385 kJ/mol
# Density = 2.221981 g / cm^3
# Si number density = 22.270496 Si / 1000 Ang^3
#
#
#
# Elastic Constant Matrix: (Units=GPa)
#
#
# Indices 1 2 3 4 5 6 
#
# 1 123.4433 51.1151 40.9392 0.0000 19.2606 0.0000
# 2 51.1151 80.4422 1.3993 0.0000 9.8727 0.0000
# 3 40.9392 1.3993 71.4830 0.0000 17.3885 0.0000
# 4 0.0000 0.0000 0.0000 6.3533 0.0000 -5.4120
# 5 19.2606 9.8727 17.3885 0.0000 40.1060 0.0000
# 6 0.0000 0.0000 0.0000 -5.4120 0.0000 30.6182
#
#
#
# Elastic Compliance Matrix: (Units=1/GPa)
#
#
# Indices 1 2 3 4 5 6 
#
# 1 0.014664 -0.009008 -0.007879 0.000000 -0.001409 0.000000
# 2 -0.009008 0.018373 0.005419 0.000000 -0.002546 0.000000
# 3 -0.007879 0.005419 0.019898 0.000000 -0.006177 0.000000
# 4 0.000000 0.000000 0.000000 0.185298 0.000000 0.032753
# 5 -0.001409 -0.002546 -0.006177 0.000000 0.028915 0.000000
# 6 0.000000 0.000000 0.000000 0.032753 0.000000 0.038450
#
#
# Mechanical properties :
#
#
# Convention : Reuss Voigt Hill
#
# Bulk Modulus (GPa) = 33.33464 51.36396 42.34930
# Shear Modulus (GPa) = 14.76954 27.54317 21.15635
#
# Velocity S-wave (km/s) = 2.57804 3.52057 3.08551
# Velocity P-wave (km/s) = 4.88490 6.29600 5.63480
#
# Compressibility (1/GPa) = 0.02999882
#
# Stress axis : x y z
#
# Youngs Moduli (GPa) = 68.19612 54.42690 50.25548
#
# Poissons Ratio (x) = 0.49026 0.39597
# Poissons Ratio (y) = 0.61429 -0.27231
# Poissons Ratio (z) = 0.53732 -0.29492
#
# Static dielectric constant tensor:
#      x y z
#    x 1.898100 0.000000 0.035570 
#    y 0.000000 1.841600 0.000000 
#    z 0.035570 0.000000 1.830240 
# 
# From -- ./inp_files/56026.got.cif
#   From: 2010.05.17/outbox.cif.g08.bks.cpg/sg5_29_cif.got.tgz:56026.got - 2010.06.03 18:56:24.
