data_PCOD9125668
_publ_section_title
;
Structure prediction by ZEFSAII (Michael W. Deem and Ramdas Pophale) SiO2 
 PCOD9125668
Probable space group: C 2
;
_chemical_formula_sum "Si O2"
_cell_formula_units_Z 22
_cell_length_a 11.016877
_cell_length_b 11.448285
_cell_length_c 10.587010
_cell_angle_alpha 90.000000
_cell_angle_beta 48.725534
_cell_angle_gamma 90.000000
_cell_volume 1003.540418
_symmetry_space_group_name_H-M "C 2"
_symmetry_group_IT_number 5
_symmetry_cell_setting 'monoclinic'
loop_
_space_group_symop_operation_xyz
x,y,z
-x,y,-z
1/2+x,1/2+y,z
1/2-x,1/2+y,-z
loop_
_atom_site_type_symbol
_atom_site_label
_atom_site_fract_x
_atom_site_fract_y
_atom_site_fract_z
Si Si1 0.780448 0.012200 0.241279
Si Si2 0.877201 0.891296 0.938369
Si Si3 0.591576 0.760665 0.811314
Si Si4 0.326238 0.450988 0.687356
Si Si5 0.686292 0.703932 0.193092
Si Si6 0.000000 0.382445 0.500000
O O1 0.796995 0.150272 0.234826
O O2 0.643521 0.972174 0.432795
O O3 0.944582 0.944037 0.166144
O O4 0.762896 0.974905 0.104790
O O5 0.839946 0.892435 0.816609
O O6 0.840246 0.764185 0.021760
O O7 0.697410 0.872483 0.698362
O O8 0.456162 0.703475 0.813636
O O9 0.500000 0.799017 0.000000
O O10 0.500000 0.452113 0.500000
O O11 0.281842 0.584081 0.755531
O O12 0.604690 0.795307 0.344316
#
# Coordination Sequence:
#
# PCOD9125668 Si02
#       6
#     4   4   4   4   4   2
#     4  10  21  43  70  94 128 187 241 282 351 423
#     4  10  21  42  70  92 136 186 228 285 355 411
#     4  12  23  42  69  97 136 186 235 287 349 423
#     4  12  26  43  67 107 143 181 234 300 351 415
#     4  11  23  46  66  99 145 180 232 295 349 425
#     4  10  24  42  68  98 130 190 230 292 362 408
#
# _framework density 21.922385999999999
#
# number of rings (size 3 to 8) (size 9 to 14) (size 15 to 20)
#    0.000    1.091    6.364    0.000    3.818    0.000 
#    6.545    0.000    0.000    0.000    0.000    0.000 
#    0.000    0.000    0.000    0.000    0.000    0.000 
#
# Total GULP energy -61268.221055 kJ/mol
# GULP energy per Si atom -5569.838278 kJ/mol
# Density = 2.187249 g / cm^3
# Si number density = 21.922386 Si / 1000 Ang^3
#
#
#
# Elastic Constant Matrix: (Units=GPa)
#
#
# Indices 1 2 3 4 5 6 
#
# 1 33.0824 22.6200 5.7393 0.0000 -1.3432 0.0000
# 2 22.6200 143.7047 71.2368 0.0000 -23.7840 0.0000
# 3 5.7393 71.2368 72.7958 0.0000 -16.7592 0.0000
# 4 0.0000 0.0000 0.0000 25.7635 0.0000 -26.3221
# 5 -1.3432 -23.7840 -16.7592 0.0000 27.7927 0.0000
# 6 0.0000 0.0000 0.0000 -26.3221 0.0000 -5.8536
#
#
#
# Elastic Compliance Matrix: (Units=1/GPa)
#
#
# Indices 1 2 3 4 5 6 
#
# 1 0.034963 -0.008286 0.004771 0.000000 -0.002524 0.000000
# 2 -0.008286 0.015908 -0.013786 0.000000 0.004900 0.000000
# 3 0.004771 -0.013786 0.028088 0.000000 0.005370 0.000000
# 4 0.000000 0.000000 0.000000 0.006938 0.000000 -0.031200
# 5 -0.002524 0.004900 0.005370 0.000000 0.043290 0.000000
# 6 0.000000 0.000000 0.000000 -0.031200 0.000000 -0.030538
#
#
# Mechanical properties :
#
#
# Convention : Reuss Voigt Hill
#
# Bulk Modulus (GPa) = 22.54442 49.86391 36.20417
# Shear Modulus (GPa) = 33.77533 19.53966 26.65749
#
# Velocity S-wave (km/s) = 3.92940 2.98872 3.49089
# Velocity P-wave (km/s) = 5.55815 5.89109 5.72704
#
# Compressibility (1/GPa) = 0.04435688
#
# Stress axis : x y z
#
# Youngs Moduli (GPa) = 28.60160 62.86203 35.60261
#
# Poissons Ratio (x) = 0.52090 -0.16987
# Poissons Ratio (y) = 0.23700 0.49081
# Poissons Ratio (z) = -0.13646 0.86660
#
# Static dielectric constant tensor:
#      x y z
#    x 2.056170 0.000000 -0.069920 
#    y 0.000000 1.842690 0.000000 
#    z -0.069920 0.000000 1.911560 
# 
# From -- ./inp_files/19257.got.cif
#   From: 2010.05.17/outbox.cif.g08.bks.cpg/sg5_10_cif.got.tgz:19257.got - 2010.06.03 18:56:24.
