data_PCOD9125497
_publ_section_title
;
Structure prediction by ZEFSAII (Michael W. Deem and Ramdas Pophale) SiO2 
 PCOD9125497
Probable space group: C 2
;
_chemical_formula_sum "Si O2"
_cell_formula_units_Z 30
_cell_length_a 20.957214
_cell_length_b 11.764942
_cell_length_c 11.436396
_cell_angle_alpha 90.000000
_cell_angle_beta 29.917371
_cell_angle_gamma 90.000000
_cell_volume 1406.358057
_symmetry_space_group_name_H-M "C 2"
_symmetry_group_IT_number 5
_symmetry_cell_setting 'monoclinic'
loop_
_space_group_symop_operation_xyz
x,y,z
-x,y,-z
1/2+x,1/2+y,z
1/2-x,1/2+y,-z
loop_
_atom_site_type_symbol
_atom_site_label
_atom_site_fract_x
_atom_site_fract_y
_atom_site_fract_z
Si Si1 0.897024 0.756210 0.836965
Si Si2 0.177675 0.756340 0.455815
Si Si3 0.500000 0.130280 0.000000
Si Si4 0.254484 0.277693 0.387693
Si Si5 0.322584 0.420598 0.760012
Si Si6 0.933586 0.495996 0.722407
Si Si7 0.126854 0.183529 0.375002
Si Si8 0.352913 0.011172 0.447703
O O1 0.904069 0.852735 0.727510
O O2 0.919298 0.632321 0.745288
O O3 0.023642 0.774406 0.715480
O O4 0.755522 0.742523 0.116773
O O5 0.251192 0.767843 0.461836
O O6 0.211028 0.839230 0.296419
O O7 0.191314 0.622054 0.409959
O O8 0.383620 0.211830 0.144163
O O9 0.419274 0.054171 0.221379
O O10 0.142174 0.221709 0.486707
O O11 0.252619 0.413931 0.379367
O O12 0.363070 0.545535 0.650103
O O13 0.200113 0.445423 0.033747
O O14 0.000000 0.459165 0.500000
O O15 0.026682 0.460769 0.677475
O O16 0.000000 0.211423 0.500000
#
# Coordination Sequence:
#
# PCOD9125497 Si02
#       8
#     4   4   2   4   4   4   4   4
#     4  10  21  41  69  96 134 184 233 287 352 427
#     4  10  22  42  67 101 130 183 244 283 358 428
#     4  10  22  48  70 104 140 194 240 292 374 412
#     4  11  24  41  73 100 141 188 239 293 351 436
#     4  11  23  41  73  99 139 185 231 304 357 428
#     4  10  22  39  64  98 134 175 230 286 354 429
#     4  11  25  42  64 105 143 182 235 294 363 423
#     4  10  23  40  71  97 135 187 235 293 350 432
#
# _framework density 21.331693999999999
#
# number of rings (size 3 to 8) (size 9 to 14) (size 15 to 20)
#    0.000    1.600    0.000    6.000    9.333    0.000 
#    0.000    0.000    5.867    0.000    0.000    0.000 
#    0.000    0.000    0.000    0.000    0.000    0.000 
#
# Total GULP energy -83514.633216 kJ/mol
# GULP energy per Si atom -5567.642214 kJ/mol
# Density = 2.128314 g / cm^3
# Si number density = 21.331694 Si / 1000 Ang^3
#
#
#
# Elastic Constant Matrix: (Units=GPa)
#
#
# Indices 1 2 3 4 5 6 
#
# 1 133.0774 47.7887 30.0629 0.0000 -6.6880 0.0000
# 2 47.7887 107.4165 20.9750 0.0000 0.2202 0.0000
# 3 30.0629 20.9750 70.8269 0.0000 5.6588 0.0000
# 4 0.0000 0.0000 0.0000 10.2998 0.0000 -18.3971
# 5 -6.6880 0.2202 5.6588 0.0000 32.8987 0.0000
# 6 0.0000 0.0000 0.0000 -18.3971 0.0000 67.8052
#
#
#
# Elastic Compliance Matrix: (Units=1/GPa)
#
#
# Indices 1 2 3 4 5 6 
#
# 1 0.009696 -0.003689 -0.003227 0.000000 0.002551 0.000000
# 2 -0.003689 0.011291 -0.001736 0.000000 -0.000527 0.000000
# 3 -0.003227 -0.001736 0.016278 0.000000 -0.003444 0.000000
# 4 0.000000 0.000000 0.000000 0.188386 0.000000 0.051113
# 5 0.002551 -0.000527 -0.003444 0.000000 0.031511 0.000000
# 6 0.000000 0.000000 0.000000 0.051113 0.000000 0.028616
#
#
# Mechanical properties :
#
#
# Convention : Reuss Voigt Hill
#
# Bulk Modulus (GPa) = 50.09647 56.55265 53.32456
# Shear Modulus (GPa) = 16.14281 36.36702 26.25492
#
# Velocity S-wave (km/s) = 2.75390 4.13344 3.51207
# Velocity P-wave (km/s) = 5.80064 7.02489 6.44192
#
# Compressibility (1/GPa) = 0.01996149
#
# Stress axis : x y z
#
# Youngs Moduli (GPa) = 103.13173 88.56806 61.43301
#
# Poissons Ratio (x) = 0.32672 0.19825
# Poissons Ratio (y) = 0.38044 0.10664
# Poissons Ratio (z) = 0.33281 0.15374
#
# Static dielectric constant tensor:
#      x y z
#    x 1.845140 0.000000 -0.025720 
#    y 0.000000 1.831550 0.000000 
#    z -0.025720 0.000000 1.732420 
# 
# From -- ./inp_files/46461.got.cif
#   From: 2010.05.17/outbox.cif.g08.bks.cpg/sg5_24_cif.got.tgz:46461.got - 2010.06.03 18:56:24.
