data_PCOD9125484
_publ_section_title
;
Structure prediction by ZEFSAII (Michael W. Deem and Ramdas Pophale) SiO2 
 PCOD9125484
Probable space group: C 2
;
_chemical_formula_sum "Si O2"
_cell_formula_units_Z 32
_cell_length_a 11.528996
_cell_length_b 14.577125
_cell_length_c 8.775328
_cell_angle_alpha 90.000000
_cell_angle_beta 89.420596
_cell_angle_gamma 90.000000
_cell_volume 1474.702846
_symmetry_space_group_name_H-M "C 2"
_symmetry_group_IT_number 5
_symmetry_cell_setting 'monoclinic'
loop_
_space_group_symop_operation_xyz
x,y,z
-x,y,-z
1/2+x,1/2+y,z
1/2-x,1/2+y,-z
loop_
_atom_site_type_symbol
_atom_site_label
_atom_site_fract_x
_atom_site_fract_y
_atom_site_fract_z
Si Si1 0.370563 0.944770 0.033839
Si Si2 0.781204 0.310873 0.288798
Si Si3 0.222581 0.486245 0.549380
Si Si4 0.554412 0.099259 0.749628
Si Si5 0.518949 0.292463 0.183775
Si Si6 0.076229 0.157947 0.850776
Si Si7 0.465041 0.489905 0.676948
Si Si8 0.785749 0.544451 0.785469
O O1 0.309811 0.879187 0.150998
O O2 0.388614 0.045974 0.107501
O O3 0.500000 0.910785 0.000000
O O4 0.297436 0.952447 0.882694
O O5 0.794209 0.375891 0.437243
O O6 0.650326 0.276736 0.252553
O O7 0.881824 0.235674 0.268400
O O8 0.114026 0.546334 0.608432
O O9 0.326810 0.500678 0.666252
O O10 0.257295 0.521603 0.382790
O O11 0.560424 0.209280 0.750860
O O12 0.417825 0.077684 0.764318
O O13 0.496129 0.395908 0.241459
O O14 0.500000 0.288358 0.000000
O O15 0.201515 0.111013 0.880637
O O16 0.009265 0.077385 0.766080
O O17 0.000000 0.184902 0.000000
O O18 0.500000 0.484544 0.500000
#
# Coordination Sequence:
#
# PCOD9125484 Si02
#       8
#     4   4   4   4   4   4   4   4
#     4   9  20  38  66  94 129 167 217 279 326 386
#     4  10  23  43  65  96 134 172 223 272 332 393
#     4  10  23  43  72  93 133 181 220 273 335 397
#     4  10  21  41  68  99 130 166 225 283 331 383
#     4  11  23  39  66  99 130 167 223 282 329 392
#     4  12  26  42  69  97 138 181 220 271 336 399
#     4  11  25  45  63  94 139 179 217 269 333 406
#     4  11  21  40  69 100 128 173 224 274 336 390
#
# _framework density 21.699287999999999
#
# number of rings (size 3 to 8) (size 9 to 14) (size 15 to 20)
#    0.000    1.500    2.500    2.250    7.000    1.000 
#    0.000    5.000    2.750    0.000    0.000    0.000 
#    0.000    0.000    0.000    0.000    0.000    0.000 
#
# Total GULP energy -89188.041696 kJ/mol
# GULP energy per Si atom -5574.252606 kJ/mol
# Density = 2.164990 g / cm^3
# Si number density = 21.699288 Si / 1000 Ang^3
#
#
#
# Elastic Constant Matrix: (Units=GPa)
#
#
# Indices 1 2 3 4 5 6 
#
# 1 80.4727 23.7941 0.0263 0.0000 -9.1141 0.0000
# 2 23.7941 121.5405 9.0062 0.0000 6.5872 0.0000
# 3 0.0263 9.0062 38.9892 0.0000 -1.7885 0.0000
# 4 0.0000 0.0000 0.0000 -3.4207 0.0000 -21.2987
# 5 -9.1141 6.5872 -1.7885 0.0000 29.4405 0.0000
# 6 0.0000 0.0000 0.0000 -21.2987 0.0000 27.2113
#
#
#
# Elastic Compliance Matrix: (Units=1/GPa)
#
#
# Indices 1 2 3 4 5 6 
#
# 1 0.013904 -0.003064 0.000930 0.000000 0.005046 0.000000
# 2 -0.003064 0.009165 -0.002259 0.000000 -0.003137 0.000000
# 3 0.000930 -0.002259 0.026279 0.000000 0.002390 0.000000
# 4 0.000000 0.000000 0.000000 -0.049772 0.000000 -0.038957
# 5 0.005046 -0.003137 0.002390 0.000000 0.036376 0.000000
# 6 0.000000 0.000000 0.000000 -0.038957 0.000000 0.006257
#
#
# Mechanical properties :
#
#
# Convention : Reuss Voigt Hill
#
# Bulk Modulus (GPa) = 24.65410 34.07287 29.36348
# Shear Modulus (GPa) = 77.50063 24.52460 51.01261
#
# Velocity S-wave (km/s) = 5.98275 3.36550 4.85386
# Velocity P-wave (km/s) = 7.68835 5.55324 6.70631
#
# Compressibility (1/GPa) = 0.04056120
#
# Stress axis : x y z
#
# Youngs Moduli (GPa) = 71.92225 109.11069 38.05335
#
# Poissons Ratio (x) = 0.33436 -0.03539
# Poissons Ratio (y) = 0.22040 0.08596
# Poissons Ratio (z) = -0.06688 0.24647
#
# Static dielectric constant tensor:
#      x y z
#    x 1.872200 0.000000 -0.026440 
#    y 0.000000 1.853730 0.000000 
#    z -0.026440 0.000000 1.802690 
# 
# From -- ./inp_files/20637.got.cif
#   From: 2010.05.17/outbox.cif.g08.bks.cpg/sg5_11_cif.got.tgz:20637.got - 2010.06.03 18:56:24.
