data_PCOD9125573
_publ_section_title
;
Structure prediction by ZEFSAII (Michael W. Deem and Ramdas Pophale) SiO2 
 PCOD9125573
Probable space group: C 2
;
_chemical_formula_sum "Si O2"
_cell_formula_units_Z 20
_cell_length_a 29.758654
_cell_length_b 5.030432
_cell_length_c 18.605924
_cell_angle_alpha 90.000000
_cell_angle_beta 162.318007
_cell_angle_gamma 90.000000
_cell_volume 845.985087
_symmetry_space_group_name_H-M "C 2"
_symmetry_group_IT_number 5
_symmetry_cell_setting 'monoclinic'
loop_
_space_group_symop_operation_xyz
x,y,z
-x,y,-z
1/2+x,1/2+y,z
1/2-x,1/2+y,-z
loop_
_atom_site_type_symbol
_atom_site_label
_atom_site_fract_x
_atom_site_fract_y
_atom_site_fract_z
Si Si1 0.309645 0.169850 0.550581
Si Si2 0.419550 0.819810 0.056480
Si Si3 0.075572 0.216165 0.443405
Si Si4 0.575649 0.245145 0.539069
Si Si5 0.866832 0.923692 0.846853
O O1 0.265630 0.461366 0.508750
O O2 0.236400 0.103918 0.362626
O O3 0.018404 0.581964 0.190139
O O4 0.498039 0.712825 0.248281
O O5 0.246315 0.831608 0.810930
O O6 0.424758 0.617589 0.997341
O O7 0.252763 0.199313 0.699367
O O8 0.063526 0.487671 0.470178
O O9 0.010820 0.986053 0.394056
O O10 0.500000 0.202615 0.500000
O O11 0.000000 0.822132 0.000000
#
# Coordination Sequence:
#
# PCOD9125573 Si02
#       5
#     4   4   4   4   4
#     4  11  24  41  63  94 130 178 225 264 325 390
#     4  10  24  44  67  96 141 173 223 282 323 393
#     4  10  25  44  67 103 133 173 228 273 336 405
#     4  11  25  46  72 100 131 174 226 280 342 400
#     4  10  21  42  64  98 134 185 221 266 324 395
#
# _framework density 23.641079000000001
#
# number of rings (size 3 to 8) (size 9 to 14) (size 15 to 20)
#    0.000    1.600    2.000    0.600    2.800   14.400 
#    0.000    0.000    0.000    0.000    0.000    0.000 
#    0.000    0.000    0.000    0.000    0.000    0.000 
#
# Total GULP energy -56013.631988 kJ/mol
# GULP energy per Si atom -5601.363199 kJ/mol
# Density = 2.358727 g / cm^3
# Si number density = 23.641079 Si / 1000 Ang^3
#
#
#
# Elastic Constant Matrix: (Units=GPa)
#
#
# Indices 1 2 3 4 5 6 
#
# 1 162.1726 30.6478 49.4090 0.0000 -13.2876 0.0000
# 2 30.6478 77.9093 11.4109 -0.0001 -10.9119 0.0001
# 3 49.4090 11.4109 120.8625 0.0000 -20.8383 0.0000
# 4 0.0000 -0.0001 0.0000 13.1165 0.0000 -11.2410
# 5 -13.2876 -10.9119 -20.8383 0.0000 40.8249 0.0000
# 6 0.0000 0.0001 0.0000 -11.2410 0.0000 36.5662
#
#
#
# Elastic Compliance Matrix: (Units=1/GPa)
#
#
# Indices 1 2 3 4 5 6 
#
# 1 0.007513 -0.002499 -0.002773 0.000000 0.000362 0.000000
# 2 -0.002499 0.014221 0.000213 0.000000 0.003096 0.000000
# 3 -0.002773 0.000213 0.010133 0.000000 0.004327 0.000000
# 4 0.000000 0.000000 0.000000 0.103511 0.000000 0.031821
# 5 0.000362 0.003096 0.004327 0.000000 0.027649 0.000000
# 6 0.000000 0.000000 0.000000 0.031821 0.000000 0.037130
#
#
# Mechanical properties :
#
#
# Convention : Reuss Voigt Hill
#
# Bulk Modulus (GPa) = 45.97847 60.43111 53.20479
# Shear Modulus (GPa) = 22.98594 36.06665 29.52630
#
# Velocity S-wave (km/s) = 3.12154 3.91012 3.53787
# Velocity P-wave (km/s) = 5.69936 6.78254 6.26441
#
# Compressibility (1/GPa) = 0.02174931
#
# Stress axis : x y z
#
# Youngs Moduli (GPa) = 133.10307 70.31934 98.68378
#
# Poissons Ratio (x) = 0.17570 0.27365
# Poissons Ratio (y) = 0.33257 -0.02099
# Poissons Ratio (z) = 0.36910 -0.01495
#
# Static dielectric constant tensor:
#      x y z
#    x 1.871480 0.000000 -0.012140 
#    y 0.000000 1.890590 0.000000 
#    z -0.012140 0.000000 1.961030 
# 
# From -- ./inp_files/51820.got.cif
#   From: 2010.05.17/outbox.cif.g08.bks.cpg/sg5_26_cif.got.tgz:51820.got - 2010.06.03 18:56:24.
