data_PCOD9125711
_publ_section_title
;
Structure prediction by ZEFSAII (Michael W. Deem and Ramdas Pophale) SiO2 
 PCOD9125711
Probable space group: C 2
;
_chemical_formula_sum "Si O2"
_cell_formula_units_Z 28
_cell_length_a 10.978394
_cell_length_b 13.253430
_cell_length_c 11.215303
_cell_angle_alpha 90.000000
_cell_angle_beta 53.991544
_cell_angle_gamma 90.000000
_cell_volume 1320.046355
_symmetry_space_group_name_H-M "C 2"
_symmetry_group_IT_number 5
_symmetry_cell_setting 'monoclinic'
loop_
_space_group_symop_operation_xyz
x,y,z
-x,y,-z
1/2+x,1/2+y,z
1/2-x,1/2+y,-z
loop_
_atom_site_type_symbol
_atom_site_label
_atom_site_fract_x
_atom_site_fract_y
_atom_site_fract_z
Si Si1 0.175862 0.181770 0.719874
Si Si2 0.580227 0.840618 0.204276
Si Si3 0.774440 0.700242 0.411364
Si Si4 0.775588 0.966096 0.937504
Si Si5 0.500000 0.535035 0.000000
Si Si6 0.500000 0.847350 0.500000
Si Si7 0.675214 0.170005 0.876997
Si Si8 0.438901 0.320012 0.661687
O O1 0.230202 0.142370 0.558404
O O2 0.094751 0.103225 0.852701
O O3 0.318374 0.232720 0.701215
O O4 0.057761 0.270514 0.756681
O O5 0.543902 0.898801 0.349544
O O6 0.719535 0.765330 0.152595
O O7 0.626685 0.911262 0.069611
O O8 0.637469 0.774824 0.457761
O O9 0.803820 0.639864 0.273784
O O10 0.920173 0.768578 0.353927
O O11 0.858000 0.904008 0.786857
O O12 0.734780 0.078067 0.921272
O O13 0.886548 0.970766 0.986346
O O14 0.500000 0.191200 0.000000
O O15 0.500000 0.360508 0.500000
#
# Coordination Sequence:
#
# PCOD9125711 Si02
#       8
#     4   4   4   4   2   2   4   4
#     4  10  21  44  66  88 126 172 209 261 321 375
#     4  10  21  43  64  89 126 166 210 265 317 379
#     4   9  20  40  70  90 118 167 213 259 316 373
#     4  12  27  39  63  97 129 169 211 266 315 377
#     4  12  26  40  60  96 128 166 218 256 320 374
#     4   8  18  36  68  88 114 162 212 252 312 368
#     4  11  24  41  64  96 124 168 216 260 322 376
#     4  10  23  42  67  94 127 170 212 260 320 375
#
# _framework density 21.211376999999999
#
# number of rings (size 3 to 8) (size 9 to 14) (size 15 to 20)
#    0.000    1.714    1.429    1.714    9.000    1.143 
#    1.286    1.429    0.000    0.000    0.000    0.000 
#    0.000    0.000    0.000    0.000    0.000    0.000 
#
# Total GULP energy -78236.546219 kJ/mol
# GULP energy per Si atom -5588.324730 kJ/mol
# Density = 2.116310 g / cm^3
# Si number density = 21.211377 Si / 1000 Ang^3
#
#
#
# Elastic Constant Matrix: (Units=GPa)
#
#
# Indices 1 2 3 4 5 6 
#
# 1 109.7794 -3.3603 4.0146 0.0000 -13.8665 0.0000
# 2 -3.3603 27.0331 26.0582 0.0000 9.0893 0.0000
# 3 4.0146 26.0582 117.1040 0.0000 3.0460 0.0000
# 4 0.0000 0.0000 0.0000 -0.9433 0.0000 6.9101
# 5 -13.8665 9.0893 3.0460 0.0000 34.6655 0.0000
# 6 0.0000 0.0000 0.0000 6.9101 0.0000 10.1574
#
#
#
# Elastic Compliance Matrix: (Units=1/GPa)
#
#
# Indices 1 2 3 4 5 6 
#
# 1 0.009619 0.000429 -0.000524 0.000000 0.003781 0.000000
# 2 0.000429 0.052133 -0.011290 0.000000 -0.012506 0.000000
# 3 -0.000524 -0.011290 0.011023 0.000000 0.001782 0.000000
# 4 0.000000 0.000000 0.000000 -0.177170 0.000000 0.120530
# 5 0.003781 -0.012506 0.001782 0.000000 0.033482 0.000000
# 6 0.000000 0.000000 0.000000 0.120530 0.000000 0.016453
#
#
# Mechanical properties :
#
#
# Convention : Reuss Voigt Hill
#
# Bulk Modulus (GPa) = 19.99769 34.14904 27.07337
# Shear Modulus (GPa) = -332.84095 23.92286 -154.45904
#
# Velocity S-wave (km/s) = -12.54021 3.36196 -8.54266
# Velocity P-wave (km/s) = 14.15018 5.58612 9.19301
#
# Compressibility (1/GPa) = 0.05000578
#
# Stress axis : x y z
#
# Youngs Moduli (GPa) = 103.96012 19.18183 90.71691
#
# Poissons Ratio (x) = -0.00823 0.04750
# Poissons Ratio (y) = -0.04460 1.02420
# Poissons Ratio (z) = 0.05443 0.21656
#
# Static dielectric constant tensor:
#      x y z
#    x 1.750510 0.000000 0.013870 
#    y 0.000000 1.699430 0.000000 
#    z 0.013870 0.000000 1.821910 
# 
# From -- ./inp_files/39838.got.cif
#   From: 2010.05.17/outbox.cif.g08.bks.cpg/sg5_20_cif.got.tgz:39838.got - 2010.06.03 18:56:24.
