data_PCOD9125745
_publ_section_title
;
Structure prediction by ZEFSAII (Michael W. Deem and Ramdas Pophale) SiO2 
 PCOD9125745
Probable space group: C 2
;
_chemical_formula_sum "Si O2"
_cell_formula_units_Z 22
_cell_length_a 5.397020
_cell_length_b 31.661531
_cell_length_c 5.305842
_cell_angle_alpha 90.000000
_cell_angle_beta 87.265550
_cell_angle_gamma 90.000000
_cell_volume 905.618884
_symmetry_space_group_name_H-M "C 2"
_symmetry_group_IT_number 5
_symmetry_cell_setting 'monoclinic'
loop_
_space_group_symop_operation_xyz
x,y,z
-x,y,-z
1/2+x,1/2+y,z
1/2-x,1/2+y,-z
loop_
_atom_site_type_symbol
_atom_site_label
_atom_site_fract_x
_atom_site_fract_y
_atom_site_fract_z
Si Si1 0.000000 0.747591 0.500000
Si Si2 0.172973 0.311115 0.241382
Si Si3 0.834028 0.403144 0.762028
Si Si4 0.242330 0.589569 0.155700
Si Si5 0.741522 0.494072 0.653299
Si Si6 0.255583 0.180190 0.829384
O O1 0.120108 0.776326 0.711933
O O2 0.207623 0.717240 0.371249
O O3 0.300319 0.357864 0.234280
O O4 0.000000 0.310037 0.500000
O O5 0.000000 0.305416 0.000000
O O6 0.706572 0.448949 0.791821
O O7 0.000000 0.403274 0.500000
O O8 0.000000 0.400626 0.000000
O O9 0.233717 0.541064 0.240017
O O10 0.243544 0.633813 0.307755
O O11 0.500000 0.592128 0.000000
O O12 0.000000 0.593620 0.000000
O O13 0.500000 0.497357 0.500000
O O14 0.000000 0.488724 0.500000
O O15 0.500000 0.182204 0.000000
O O16 0.000000 0.184558 0.000000
#
# Coordination Sequence:
#
# PCOD9125745 Si02
#       6
#     2   4   4   4   4   4
#     4  12  28  42  80 106 148 208 260 324 392 462
#     4  10  25  46  73 107 153 199 256 319 389 460
#     4   9  20  43  68 104 145 192 243 306 370 449
#     4  10  21  43  67  98 142 191 242 308 370 446
#     4  11  23  38  68 104 143 189 242 297 369 449
#     4  10  26  47  71 108 150 193 259 318 386 458
#
# _framework density 24.29278
#
# number of rings (size 3 to 8) (size 9 to 14) (size 15 to 20)
#    0.000    1.818    0.000    1.636    7.636    1.455 
#    0.000    0.000    0.000    0.000    0.000    0.000 
#    0.000    0.000    0.000    0.000    0.000    0.000 
#
# Total GULP energy -61389.982267 kJ/mol
# GULP energy per Si atom -5580.907479 kJ/mol
# Density = 2.423749 g / cm^3
# Si number density = 24.292780 Si / 1000 Ang^3
#
#
#
# Elastic Constant Matrix: (Units=GPa)
#
#
# Indices 1 2 3 4 5 6 
#
# 1 141.9998 49.0137 41.8099 0.0000 -5.2557 0.0000
# 2 49.0137 299.9988 56.4889 0.0000 8.7341 0.0000
# 3 41.8099 56.4889 105.2218 0.0000 0.4233 0.0000
# 4 0.0000 0.0000 0.0000 13.7302 0.0000 10.3095
# 5 -5.2557 8.7341 0.4233 0.0000 45.6470 0.0000
# 6 0.0000 0.0000 0.0000 10.3095 0.0000 199.5456
#
#
#
# Elastic Compliance Matrix: (Units=1/GPa)
#
#
# Indices 1 2 3 4 5 6 
#
# 1 0.008203 -0.000844 -0.002811 0.000000 0.001132 0.000000
# 2 -0.000844 0.003817 -0.001711 0.000000 -0.000812 0.000000
# 3 -0.002811 -0.001711 0.011539 0.000000 -0.000103 0.000000
# 4 0.000000 0.000000 0.000000 0.075771 0.000000 -0.003915
# 5 0.001132 -0.000812 -0.000103 0.000000 0.022194 0.000000
# 6 0.000000 0.000000 0.000000 -0.003915 0.000000 0.005214
#
#
# Mechanical properties :
#
#
# Convention : Reuss Voigt Hill
#
# Bulk Modulus (GPa) = 77.95107 93.53838 85.74473
# Shear Modulus (GPa) = 35.27449 78.44510 56.85980
#
# Velocity S-wave (km/s) = 3.81472 5.68873 4.84323
# Velocity P-wave (km/s) = 7.18057 9.04085 8.16387
#
# Compressibility (1/GPa) = 0.01282856
#
# Stress axis : x y z
#
# Youngs Moduli (GPa) = 121.90498 261.98982 86.65930
#
# Poissons Ratio (x) = 0.22109 0.24360
# Poissons Ratio (y) = 0.10287 0.14824
# Poissons Ratio (z) = 0.34268 0.44815
#
# Static dielectric constant tensor:
#      x y z
#    x 1.886390 0.000000 -0.040220 
#    y 0.000000 2.327220 0.000000 
#    z -0.040220 0.000000 1.972820 
# 
# From -- ./inp_files/1286.got.cif
#   From: 2010.05.17/outbox.cif.g08.bks.cpg/sg5_1_cif.got.tgz:1286.got - 2010.06.03 18:56:24.
