data_PCOD9125049
_publ_section_title
;
Structure prediction by ZEFSAII (Michael W. Deem and Ramdas Pophale) SiO2 
 PCOD9125049
Probable space group: C 2
;
_chemical_formula_sum "Si O2"
_cell_formula_units_Z 32
_cell_length_a 9.401577
_cell_length_b 27.292734
_cell_length_c 13.065126
_cell_angle_alpha 90.000000
_cell_angle_beta 29.575724
_cell_angle_gamma 90.000000
_cell_volume 1654.676568
_symmetry_space_group_name_H-M "C 2"
_symmetry_group_IT_number 5
_symmetry_cell_setting 'monoclinic'
loop_
_space_group_symop_operation_xyz
x,y,z
-x,y,-z
1/2+x,1/2+y,z
1/2-x,1/2+y,-z
loop_
_atom_site_type_symbol
_atom_site_label
_atom_site_fract_x
_atom_site_fract_y
_atom_site_fract_z
Si Si1 0.239186 0.527260 0.941638
Si Si2 0.289807 0.797410 0.878013
Si Si3 0.371630 0.882609 0.975336
Si Si4 0.261627 0.217711 0.912383
Si Si5 0.389375 0.717412 0.452390
Si Si6 0.793860 0.139683 0.881285
Si Si7 0.676448 0.971628 0.678651
Si Si8 0.299359 0.441233 0.374437
O O1 0.349754 0.582578 0.863619
O O2 0.506882 0.489960 0.767720
O O3 0.000000 0.520615 0.000000
O O4 0.054926 0.514767 0.159252
O O5 0.486080 0.766564 0.677382
O O6 0.407860 0.845317 0.859447
O O7 0.221565 0.759626 0.012138
O O8 0.000000 0.810574 0.000000
O O9 0.037127 0.898833 0.201584
O O10 0.500000 0.861608 0.000000
O O11 0.561849 0.930455 0.829344
O O12 0.549699 0.219293 0.667686
O O13 0.238696 0.167564 0.990993
O O14 0.000000 0.224619 0.000000
O O15 0.500000 0.712950 0.500000
O O16 0.485901 0.670968 0.324732
O O17 0.500000 0.143589 0.000000
O O18 0.699637 0.946529 0.554089
O O19 0.000000 0.988848 0.500000
O O20 0.000000 0.436959 0.500000
#
# Coordination Sequence:
#
# PCOD9125049 Si02
#       8
#     4   4   4   4   4   4   4   4
#     4  10  21  40  64  95 129 163 219 260 303 391
#     4  11  24  41  65  96 126 165 215 262 317 378
#     4  11  24  43  64  94 130 162 215 265 309 386
#     4  11  23  43  64  94 130 165 207 268 320 372
#     4  11  20  43  69  88 129 173 209 261 316 376
#     4  10  21  39  65  97 125 168 218 257 312 383
#     4  11  20  42  68  89 124 173 207 258 317 373
#     4  11  24  42  64  94 130 168 209 264 323 370
#
# _framework density 19.339127000000001
#
# number of rings (size 3 to 8) (size 9 to 14) (size 15 to 20)
#    0.000    1.250    5.000    1.875    1.750    5.500 
#    6.750    0.000    0.000    0.000    0.000    0.000 
#    0.000    0.000    0.000    0.000    0.000    0.000 
#
# Total GULP energy -89308.838437 kJ/mol
# GULP energy per Si atom -5581.802402 kJ/mol
# Density = 1.929511 g / cm^3
# Si number density = 19.339127 Si / 1000 Ang^3
#
#
#
# Elastic Constant Matrix: (Units=GPa)
#
#
# Indices 1 2 3 4 5 6 
#
# 1 75.6931 15.9544 26.3250 0.0000 -8.1145 0.0000
# 2 15.9544 96.5348 27.5528 0.0000 2.0134 0.0000
# 3 26.3250 27.5528 127.6346 0.0000 -2.2661 0.0000
# 4 0.0000 0.0000 0.0000 4.8064 0.0000 -0.8085
# 5 -8.1145 2.0134 -2.2661 0.0000 36.9035 0.0000
# 6 0.0000 0.0000 0.0000 -0.8085 0.0000 21.9675
#
#
#
# Elastic Compliance Matrix: (Units=1/GPa)
#
#
# Indices 1 2 3 4 5 6 
#
# 1 0.014839 -0.001771 -0.002622 0.000000 0.003199 0.000000
# 2 -0.001771 0.011271 -0.002088 0.000000 -0.001133 0.000000
# 3 -0.002622 -0.002088 0.008828 0.000000 0.000080 0.000000
# 4 0.000000 0.000000 0.000000 0.209350 0.000000 0.007705
# 5 0.003199 -0.001133 0.000080 0.000000 0.027868 0.000000
# 6 0.000000 0.000000 0.000000 0.007705 0.000000 0.045805
#
#
# Mechanical properties :
#
#
# Convention : Reuss Voigt Hill
#
# Bulk Modulus (GPa) = 45.50185 48.83632 47.16909
# Shear Modulus (GPa) = 14.78206 28.07085 21.42645
#
# Velocity S-wave (km/s) = 2.76771 3.81400 3.33217
# Velocity P-wave (km/s) = 5.81318 6.68602 6.26482
#
# Compressibility (1/GPa) = 0.02197713
#
# Stress axis : x y z
#
# Youngs Moduli (GPa) = 67.38936 88.72157 113.27961
#
# Poissons Ratio (x) = 0.15712 0.29697
# Poissons Ratio (y) = 0.11934 0.23653
# Poissons Ratio (z) = 0.17666 0.18525
#
# Static dielectric constant tensor:
#      x y z
#    x 1.671090 0.000000 0.016150 
#    y 0.000000 1.702020 0.000000 
#    z 0.016150 0.000000 1.665800 
# 
# From -- ./inp_files/37609.got.cif
#   From: 2010.05.17/outbox.cif.g08.bks.cpg/sg5_19_cif.got.tgz:37609.got - 2010.06.03 18:56:24.
