data_PCOD9125023
_publ_section_title
;
Structure prediction by ZEFSAII (Michael W. Deem and Ramdas Pophale) SiO2 
 PCOD9125023
Probable space group: C 2
;
_chemical_formula_sum "Si O2"
_cell_formula_units_Z 28
_cell_length_a 28.402421
_cell_length_b 9.285583
_cell_length_c 9.176796
_cell_angle_alpha 90.000000
_cell_angle_beta 146.081225
_cell_angle_gamma 90.000000
_cell_volume 1350.526445
_symmetry_space_group_name_H-M "C 2"
_symmetry_group_IT_number 5
_symmetry_cell_setting 'monoclinic'
loop_
_space_group_symop_operation_xyz
x,y,z
-x,y,-z
1/2+x,1/2+y,z
1/2-x,1/2+y,-z
loop_
_atom_site_type_symbol
_atom_site_label
_atom_site_fract_x
_atom_site_fract_y
_atom_site_fract_z
Si Si1 0.940208 0.850190 0.614486
Si Si2 0.812773 0.314445 0.198865
Si Si3 0.245539 0.841051 0.325060
Si Si4 0.967678 0.529739 0.579868
Si Si5 0.111592 0.793066 0.219474
Si Si6 0.334047 0.513022 0.128399
Si Si7 0.580485 0.969672 0.128228
O O1 0.932648 0.688284 0.530169
O O2 0.882530 0.874020 0.610943
O O3 0.917869 0.957303 0.425334
O O4 0.034206 0.855474 0.924725
O O5 0.687020 0.459330 0.089469
O O6 0.896717 0.409940 0.428218
O O7 0.824457 0.182462 0.121353
O O8 0.739478 0.427543 0.972276
O O9 0.330619 0.898736 0.616345
O O10 0.189639 0.778955 0.310783
O O11 0.280433 0.754167 0.273544
O O12 0.000000 0.530700 0.500000
O O13 0.049703 0.492955 0.886086
O O14 0.089068 0.631327 0.211769
O O15 0.500000 0.897438 0.000000
#
# Coordination Sequence:
#
# PCOD9125023 Si02
#       7
#     4   4   4   4   4   4   4
#     4  10  21  40  66  94 132 170 227 274 325 404
#     4  10  22  42  58  98 131 172 225 272 334 384
#     4  10  24  39  66  99 128 173 222 274 333 388
#     4  11  23  40  69  96 125 181 227 268 332 404
#     4  10  21  39  64  98 126 177 218 271 337 394
#     4  10  23  39  67  88 132 172 214 283 326 394
#     4  11  19  43  67  90 134 171 220 276 325 400
#
# _framework density 20.732657
#
# number of rings (size 3 to 8) (size 9 to 14) (size 15 to 20)
#    0.857    0.857    4.286    0.857    6.000    2.286 
#    2.571    2.857    0.000    0.000    0.000    0.000 
#    0.000    0.000    0.000    0.000    0.000    0.000 
#
# Total GULP energy -77949.866123 kJ/mol
# GULP energy per Si atom -5567.847580 kJ/mol
# Density = 2.068547 g / cm^3
# Si number density = 20.732657 Si / 1000 Ang^3
#
#
#
# Elastic Constant Matrix: (Units=GPa)
#
#
# Indices 1 2 3 4 5 6 
#
# 1 106.6705 -5.4484 -5.4852 0.0000 0.8928 0.0000
# 2 -5.4484 43.8593 -4.9307 0.0000 5.6767 0.0000
# 3 -5.4852 -4.9307 51.2564 0.0000 0.7916 0.0000
# 4 0.0000 0.0000 0.0000 17.0889 0.0000 -1.9010
# 5 0.8928 5.6767 0.7916 0.0000 27.7513 0.0000
# 6 0.0000 0.0000 0.0000 -1.9010 0.0000 12.3760
#
#
#
# Elastic Compliance Matrix: (Units=1/GPa)
#
#
# Indices 1 2 3 4 5 6 
#
# 1 0.009511 0.001393 0.001161 0.000000 -0.000624 0.000000
# 2 0.001393 0.023905 0.002526 0.000000 -0.005007 0.000000
# 3 0.001161 0.002526 0.019894 0.000000 -0.001122 0.000000
# 4 0.000000 0.000000 0.000000 0.059535 0.000000 0.009145
# 5 -0.000624 -0.005007 -0.001122 0.000000 0.037111 0.000000
# 6 0.000000 0.000000 0.000000 0.009145 0.000000 0.082206
#
#
# Mechanical properties :
#
#
# Convention : Reuss Voigt Hill
#
# Bulk Modulus (GPa) = 15.75531 18.89530 17.32530
# Shear Modulus (GPa) = 20.56273 25.95328 23.25801
#
# Velocity S-wave (km/s) = 3.15271 3.54193 3.35297
# Velocity P-wave (km/s) = 4.56821 5.08533 4.83369
#
# Compressibility (1/GPa) = 0.06347066
#
# Stress axis : x y z
#
# Youngs Moduli (GPa) = 105.14421 41.83189 50.26550
#
# Poissons Ratio (x) = -0.05826 -0.05838
# Poissons Ratio (y) = -0.14645 -0.12697
# Poissons Ratio (z) = -0.12212 -0.10567
#
# Static dielectric constant tensor:
#      x y z
#    x 1.745530 0.000000 -0.002430 
#    y 0.000000 1.725560 0.000000 
#    z -0.002430 0.000000 1.783460 
# 
# From -- ./inp_files/31767.got.cif
#   From: 2010.05.17/outbox.cif.g08.bks.cpg/sg5_16_cif.got.tgz:31767.got - 2010.06.03 18:56:24.
