data_PCOD9125521
_publ_section_title
;
Structure prediction by ZEFSAII (Michael W. Deem and Ramdas Pophale) SiO2 
 PCOD9125521
Probable space group: C 2
;
_chemical_formula_sum "Si O2"
_cell_formula_units_Z 32
_cell_length_a 22.014513
_cell_length_b 8.146857
_cell_length_c 15.526307
_cell_angle_alpha 90.000000
_cell_angle_beta 32.529161
_cell_angle_gamma 90.000000
_cell_volume 1497.375187
_symmetry_space_group_name_H-M "C 2"
_symmetry_group_IT_number 5
_symmetry_cell_setting 'monoclinic'
loop_
_space_group_symop_operation_xyz
x,y,z
-x,y,-z
1/2+x,1/2+y,z
1/2-x,1/2+y,-z
loop_
_atom_site_type_symbol
_atom_site_label
_atom_site_fract_x
_atom_site_fract_y
_atom_site_fract_z
Si Si1 0.250678 0.056120 0.135814
Si Si2 0.902931 0.903223 0.552727
Si Si3 0.864822 0.648087 0.164838
Si Si4 0.019849 0.247539 0.383431
Si Si5 0.520553 0.956550 0.212880
Si Si6 0.845199 0.327405 0.299531
Si Si7 0.906181 0.977279 0.186555
Si Si8 0.604727 0.302283 0.635268
O O1 0.319092 0.162194 0.123527
O O2 0.143622 0.158725 0.228711
O O3 0.201516 0.912033 0.256244
O O4 0.346001 0.990789 0.957635
O O5 0.903912 0.825791 0.457601
O O6 0.000000 0.837469 0.500000
O O7 0.933404 0.094014 0.493781
O O8 0.827085 0.484915 0.260291
O O9 0.834999 0.815560 0.248037
O O10 0.000000 0.633710 0.000000
O O11 0.000336 0.366633 0.327300
O O12 0.000000 0.332348 0.500000
O O13 0.465279 0.846717 0.203473
O O14 0.451959 0.126407 0.282232
O O15 0.739008 0.319491 0.489888
O O16 0.844871 0.150534 0.255753
O O17 0.947348 0.934164 0.235146
O O18 0.000000 0.983793 0.000000
#
# Coordination Sequence:
#
# PCOD9125521 Si02
#       8
#     4   4   4   4   4   4   4   4
#     4  10  21  41  72  91 134 185 229 290 352 404
#     4   9  21  42  65  89 128 180 233 284 345 413
#     4  11  20  42  66  98 138 176 222 285 349 418
#     4   9  23  44  65  94 132 187 233 286 347 413
#     4  12  24  42  69 102 138 180 238 293 353 418
#     4  12  24  40  69 102 137 179 223 292 354 420
#     4  11  25  40  61  98 135 175 224 272 345 417
#     4  12  24  42  64  99 139 178 230 292 347 425
#
# _framework density 21.370730999999999
#
# number of rings (size 3 to 8) (size 9 to 14) (size 15 to 20)
#    0.000    1.500    3.750    2.625    0.000    6.500 
#    0.000    2.500    0.000    0.000    0.000    0.000 
#    0.000    0.000    0.000    0.000    0.000    0.000 
#
# Total GULP energy -89185.921298 kJ/mol
# GULP energy per Si atom -5574.120081 kJ/mol
# Density = 2.132209 g / cm^3
# Si number density = 21.370731 Si / 1000 Ang^3
#
#
#
# Elastic Constant Matrix: (Units=GPa)
#
#
# Indices 1 2 3 4 5 6 
#
# 1 35.7292 5.5449 -6.5901 0.0000 8.8122 -0.0001
# 2 5.5449 114.9991 28.6211 0.0002 12.8388 -0.0003
# 3 -6.5901 28.6211 92.7271 0.0001 1.0637 0.0000
# 4 0.0000 0.0002 0.0001 25.0297 -0.0001 10.9927
# 5 8.8122 12.8388 1.0637 -0.0001 32.7085 0.0001
# 6 -0.0001 -0.0003 0.0000 10.9927 0.0001 -20.9296
#
#
#
# Elastic Compliance Matrix: (Units=1/GPa)
#
#
# Indices 1 2 3 4 5 6 
#
# 1 0.030607 -0.001261 0.002654 0.000000 -0.007837 0.000000
# 2 -0.001261 0.009916 -0.003111 0.000000 -0.003451 0.000000
# 3 0.002654 -0.003111 0.011932 0.000000 0.000118 0.000000
# 4 0.000000 0.000000 0.000000 0.032464 0.000000 0.017051
# 5 -0.007837 -0.003451 0.000118 0.000000 0.034035 0.000000
# 6 0.000000 0.000000 0.000000 0.017051 0.000000 -0.038824
#
#
# Mechanical properties :
#
#
# Convention : Reuss Voigt Hill
#
# Bulk Modulus (GPa) = 20.40025 33.17858 26.78941
# Shear Modulus (GPa) = 50.04736 21.75367 35.90052
#
# Velocity S-wave (km/s) = 4.84453 3.19395 4.10309
# Velocity P-wave (km/s) = 6.39212 5.40006 5.91692
#
# Compressibility (1/GPa) = 0.04901902
#
# Stress axis : x y z
#
# Youngs Moduli (GPa) = 32.67269 100.84652 83.80963
#
# Poissons Ratio (x) = 0.12721 -0.22247
# Poissons Ratio (y) = 0.04121 0.26071
# Poissons Ratio (z) = -0.08673 0.31371
#
# Static dielectric constant tensor:
#      x y z
#    x 1.889470 0.000000 -0.022500 
#    y 0.000000 1.786420 0.000000 
#    z -0.022500 0.000000 1.834200 
# 
# From -- ./inp_files/57687.got.cif
#   From: 2010.05.17/outbox.cif.g08.bks.cpg/sg5_29_cif.got.tgz:57687.got - 2010.06.03 18:56:24.
