data_PCOD9125019
_publ_section_title
;
Structure prediction by ZEFSAII (Michael W. Deem and Ramdas Pophale) SiO2 
 PCOD9125019
Probable space group: C 2
;
_chemical_formula_sum "Si O2"
_cell_formula_units_Z 32
_cell_length_a 17.000005
_cell_length_b 15.950625
_cell_length_c 13.487048
_cell_angle_alpha 90.000000
_cell_angle_beta 24.006629
_cell_angle_gamma 90.000000
_cell_volume 1487.886475
_symmetry_space_group_name_H-M "C 2"
_symmetry_group_IT_number 5
_symmetry_cell_setting 'monoclinic'
loop_
_space_group_symop_operation_xyz
x,y,z
-x,y,-z
1/2+x,1/2+y,z
1/2-x,1/2+y,-z
loop_
_atom_site_type_symbol
_atom_site_label
_atom_site_fract_x
_atom_site_fract_y
_atom_site_fract_z
Si Si1 0.054001 0.781600 0.342284
Si Si2 0.276797 0.420741 0.955322
Si Si3 0.230749 0.017709 0.233871
Si Si4 0.276435 0.462963 0.536840
Si Si5 0.021992 0.619224 0.781222
Si Si6 0.745767 0.772825 0.534332
Si Si7 0.599265 0.671718 0.992536
Si Si8 0.128827 0.550614 0.253223
O O1 0.185922 0.823924 0.106234
O O2 0.189581 0.714503 0.239825
O O3 0.000000 0.839520 0.500000
O O4 0.855948 0.766431 0.513318
O O5 0.216845 0.456391 0.917478
O O6 0.491691 0.456903 0.727304
O O7 0.139414 0.457027 0.196765
O O8 0.000000 0.037304 0.500000
O O9 0.280800 0.975473 0.281210
O O10 0.361830 0.096940 0.048904
O O11 0.186721 0.546578 0.593034
O O12 0.218132 0.373143 0.554844
O O13 0.116238 0.710882 0.688160
O O14 0.933910 0.606927 0.770860
O O15 0.544660 0.724729 0.774148
O O16 0.656687 0.579916 0.962440
O O17 0.500000 0.669521 0.000000
O O18 0.000000 0.554457 0.500000
#
# Coordination Sequence:
#
# PCOD9125019 Si02
#       8
#     4   4   4   4   4   4   4   4
#     4  11  20  39  59  96 131 158 208 283 335 392
#     4   9  20  36  62  88 128 169 213 270 334 387
#     4   9  19  37  63  94 132 171 213 274 342 396
#     4  10  21  39  64  97 129 170 223 276 340 404
#     4  11  22  39  63  95 137 174 219 283 337 402
#     4  11  23  37  61  96 134 168 214 269 335 406
#     4  12  23  34  62  91 129 169 213 261 338 398
#     4  11  23  41  58  88 129 176 222 268 325 393
#
# _framework density 21.507016
#
# number of rings (size 3 to 8) (size 9 to 14) (size 15 to 20)
#    0.000    1.500    2.500    4.125    3.500    0.000 
#    0.000    0.000    0.000    9.000    0.000    0.000 
#    0.000    0.000    0.000    0.000    0.000    0.000 
#
# Total GULP energy -89079.271845 kJ/mol
# GULP energy per Si atom -5567.454490 kJ/mol
# Density = 2.145807 g / cm^3
# Si number density = 21.507016 Si / 1000 Ang^3
#
#
#
# Elastic Constant Matrix: (Units=GPa)
#
#
# Indices 1 2 3 4 5 6 
#
# 1 70.7191 24.7703 19.2029 -0.0022 -10.8023 0.0027
# 2 24.7703 90.5022 29.2147 -0.0095 9.7323 0.0109
# 3 19.2029 29.2147 79.3605 -0.0081 5.8910 0.0117
# 4 -0.0022 -0.0095 -0.0081 34.2425 0.0055 -5.2568
# 5 -10.8023 9.7323 5.8910 0.0055 30.4631 -0.0041
# 6 0.0027 0.0109 0.0117 -5.2568 -0.0041 31.2440
#
#
#
# Elastic Compliance Matrix: (Units=1/GPa)
#
#
# Indices 1 2 3 4 5 6 
#
# 1 0.018003 -0.004806 -0.003221 -0.000002 0.008543 0.000002
# 2 -0.004806 0.014130 -0.003629 0.000003 -0.005517 -0.000003
# 3 -0.003221 -0.003629 0.014929 0.000002 -0.002870 -0.000004
# 4 -0.000002 0.000003 0.000002 0.029978 -0.000007 0.005044
# 5 0.008543 -0.005517 -0.002870 -0.000007 0.038173 0.000006
# 6 0.000002 -0.000003 -0.000004 0.005044 0.000006 0.032855
#
#
# Mechanical properties :
#
#
# Convention : Reuss Voigt Hill
#
# Bulk Modulus (GPa) = 42.10643 42.99528 42.55086
# Shear Modulus (GPa) = 27.88664 30.34951 29.11807
#
# Velocity S-wave (km/s) = 3.60478 3.76060 3.68351
# Velocity P-wave (km/s) = 6.07836 6.23625 6.15781
#
# Compressibility (1/GPa) = 0.02374934
#
# Stress axis : x y z
#
# Youngs Moduli (GPa) = 55.54489 70.77311 66.98336
#
# Poissons Ratio (x) = 0.34016 0.21576
# Poissons Ratio (y) = 0.26697 0.24308
# Poissons Ratio (z) = 0.17891 0.25683
#
# Static dielectric constant tensor:
#      x y z
#    x 1.802130 -0.000010 -0.015750 
#    y -0.000010 1.945600 0.000010 
#    z -0.015750 0.000010 1.848330 
# 
# From -- ./inp_files/43364.got.cif
#   From: 2010.05.17/outbox.cif.g08.bks.cpg/sg5_22_cif.got.tgz:43364.got - 2010.06.03 18:56:24.
