data_PCOD9125029
_publ_section_title
;
Structure prediction by ZEFSAII (Michael W. Deem and Ramdas Pophale) SiO2 
 PCOD9125029
Probable space group: C 2
;
_chemical_formula_sum "Si O2"
_cell_formula_units_Z 30
_cell_length_a 13.832518
_cell_length_b 5.089231
_cell_length_c 16.067372
_cell_angle_alpha 90.000000
_cell_angle_beta 97.707183
_cell_angle_gamma 90.000000
_cell_volume 1120.875003
_symmetry_space_group_name_H-M "C 2"
_symmetry_group_IT_number 5
_symmetry_cell_setting 'monoclinic'
loop_
_space_group_symop_operation_xyz
x,y,z
-x,y,-z
1/2+x,1/2+y,z
1/2-x,1/2+y,-z
loop_
_atom_site_type_symbol
_atom_site_label
_atom_site_fract_x
_atom_site_fract_y
_atom_site_fract_z
Si Si1 0.257325 0.100540 0.315995
Si Si2 0.446313 0.731489 0.718510
Si Si3 0.549963 0.204293 0.174841
Si Si4 0.901318 0.989485 0.374581
Si Si5 0.723110 0.704157 0.797975
Si Si6 0.303425 0.383561 0.528022
Si Si7 0.312780 0.653646 0.026054
Si Si8 0.000000 0.461867 0.000000
O O1 0.363551 0.191034 0.356983
O O2 0.204611 0.895861 0.373267
O O3 0.166732 0.299982 0.312110
O O4 0.267924 0.013118 0.222385
O O5 0.453020 0.495375 0.787011
O O6 0.497351 0.608859 0.643087
O O7 0.490403 0.994781 0.762565
O O8 0.664287 0.130363 0.175584
O O9 0.499101 0.144711 0.081607
O O10 0.832204 0.110843 0.292319
O O11 0.880299 0.007578 0.470827
O O12 0.665632 0.629829 0.873251
O O13 0.285892 0.081439 0.504257
O O14 0.405635 0.773173 0.990221
O O15 0.271374 0.377709 0.989742
#
# Coordination Sequence:
#
# PCOD9125029 Si02
#       8
#     4   4   4   4   4   4   4   2
#     4  10  23  42  69  97 144 177 226 287 334 409
#     4  11  26  42  69 102 133 178 233 275 346 414
#     4  11  26  47  67  98 135 179 228 289 347 413
#     4  11  23  41  72  99 137 186 228 281 345 419
#     4  11  23  47  72  95 141 181 233 277 356 408
#     4  10  21  39  65 101 133 179 224 273 342 398
#     4  12  30  48  74 107 141 184 239 294 354 426
#     4  12  28  50  72 100 144 182 228 306 352 416
#
# _framework density 26.764803000000001
#
# number of rings (size 3 to 8) (size 9 to 14) (size 15 to 20)
#    0.000    1.067    4.000    0.800    9.333    2.667 
#    0.000    0.000    0.000    3.200    0.000    0.000 
#    0.000    0.000    0.000    0.000    0.000    0.000 
#
# Total GULP energy -83665.964630 kJ/mol
# GULP energy per Si atom -5577.730975 kJ/mol
# Density = 2.670388 g / cm^3
# Si number density = 26.764803 Si / 1000 Ang^3
#
#
#
# Elastic Constant Matrix: (Units=GPa)
#
#
# Indices 1 2 3 4 5 6 
#
# 1 89.1853 15.4019 11.3000 0.0000 -19.4764 0.0000
# 2 15.4019 90.6920 26.2543 0.0000 3.1113 0.0000
# 3 11.3000 26.2543 123.7644 0.0000 -19.6550 0.0000
# 4 0.0000 0.0000 0.0000 38.1080 0.0000 -1.1850
# 5 -19.4764 3.1113 -19.6550 0.0000 39.1179 0.0000
# 6 0.0000 0.0000 0.0000 -1.1850 0.0000 25.7012
#
#
#
# Elastic Compliance Matrix: (Units=1/GPa)
#
#
# Indices 1 2 3 4 5 6 
#
# 1 0.013127 -0.002602 0.000461 0.000000 0.006974 0.000000
# 2 -0.002602 0.012470 -0.003011 0.000000 -0.003800 0.000000
# 3 0.000461 -0.003011 0.009510 0.000000 0.005247 0.000000
# 4 0.000000 0.000000 0.000000 0.026279 0.000000 0.001212
# 5 0.006974 -0.003800 0.005247 0.000000 0.031975 0.000000
# 6 0.000000 0.000000 0.000000 0.001212 0.000000 0.038965
#
#
# Mechanical properties :
#
#
# Convention : Reuss Voigt Hill
#
# Bulk Modulus (GPa) = 40.31880 45.50601 42.91240
# Shear Modulus (GPa) = 33.13514 37.29778 35.21646
#
# Velocity S-wave (km/s) = 3.52236 3.73706 3.63130
# Velocity P-wave (km/s) = 5.62490 5.97159 5.80084
#
# Compressibility (1/GPa) = 0.02480233
#
# Stress axis : x y z
#
# Youngs Moduli (GPa) = 76.18131 80.19030 105.15351
#
# Poissons Ratio (x) = 0.20865 -0.04848
# Poissons Ratio (y) = 0.19822 0.31665
# Poissons Ratio (z) = -0.03512 0.24148
#
# Static dielectric constant tensor:
#      x y z
#    x 2.138530 0.000000 0.053670 
#    y 0.000000 2.429600 0.000000 
#    z 0.053670 0.000000 2.137130 
# 
# From -- ./inp_files/61101.got.cif
#   From: 2010.05.17/outbox.cif.g08.bks.cpg/sg5_31_cif.got.tgz:61101.got - 2010.06.03 18:56:24.
