data_PCOD9125036
_publ_section_title
;
Structure prediction by ZEFSAII (Michael W. Deem and Ramdas Pophale) SiO2 
 PCOD9125036
Probable space group: C 2
;
_chemical_formula_sum "Si O2"
_cell_formula_units_Z 24
_cell_length_a 18.189397
_cell_length_b 8.500739
_cell_length_c 13.873569
_cell_angle_alpha 90.000000
_cell_angle_beta 25.127683
_cell_angle_gamma 90.000000
_cell_volume 910.921433
_symmetry_space_group_name_H-M "C 2"
_symmetry_group_IT_number 5
_symmetry_cell_setting 'monoclinic'
loop_
_space_group_symop_operation_xyz
x,y,z
-x,y,-z
1/2+x,1/2+y,z
1/2-x,1/2+y,-z
loop_
_atom_site_type_symbol
_atom_site_label
_atom_site_fract_x
_atom_site_fract_y
_atom_site_fract_z
Si Si1 0.152802 0.015030 0.979198
Si Si2 0.693825 0.807081 0.054091
Si Si3 0.271497 0.525675 0.432668
Si Si4 0.787901 0.983892 0.751981
Si Si5 0.347710 0.161281 0.602704
Si Si6 0.195327 0.208065 0.426534
O O1 0.241288 0.149781 0.940277
O O2 0.964966 0.084535 0.181937
O O3 0.244146 0.011395 0.768354
O O4 0.176194 0.863604 0.017326
O O5 0.508756 0.762799 0.323957
O O6 0.707776 0.939377 0.951490
O O7 0.135154 0.619310 0.528895
O O8 0.278431 0.347546 0.389251
O O9 0.263505 0.556595 0.554862
O O10 0.741819 0.145138 0.751579
O O11 0.000000 0.993675 0.500000
O O12 0.751608 0.826393 0.732345
O O13 0.500000 0.168632 0.500000
#
# Coordination Sequence:
#
# PCOD9125036 Si02
#       6
#     4   4   4   4   4   4
#     4  10  22  40  63  94 133 177 227 281 340 408
#     4  10  22  41  68  97 131 180 227 277 343 413
#     4  11  23  40  62  94 133 176 227 284 341 405
#     4  10  21  41  67  96 131 175 229 283 336 407
#     4  10  21  39  65  91 125 174 225 279 344 409
#     4  11  24  41  65  96 135 176 226 286 342 408
#
# _framework density 26.346948000000001
#
# number of rings (size 3 to 8) (size 9 to 14) (size 15 to 20)
#    0.000    1.667    0.000    4.500    0.000    7.333 
#    0.000    4.167    0.000    6.000    0.000    0.000 
#    0.000    0.000    0.000    0.000    0.000    0.000 
#
# Total GULP energy -66888.085957 kJ/mol
# GULP energy per Si atom -5574.007163 kJ/mol
# Density = 2.628698 g / cm^3
# Si number density = 26.346948 Si / 1000 Ang^3
#
#
#
# Elastic Constant Matrix: (Units=GPa)
#
#
# Indices 1 2 3 4 5 6 
#
# 1 113.6190 47.7110 43.0566 0.0000 5.5191 0.0000
# 2 47.7110 112.2123 9.3174 0.0000 12.6706 0.0000
# 3 43.0566 9.3174 49.6052 0.0000 11.9953 0.0000
# 4 0.0000 0.0000 0.0000 24.8047 0.0000 14.4738
# 5 5.5191 12.6706 11.9953 0.0000 38.3019 0.0000
# 6 0.0000 0.0000 0.0000 14.4738 0.0000 63.7502
#
#
#
# Elastic Compliance Matrix: (Units=1/GPa)
#
#
# Indices 1 2 3 4 5 6 
#
# 1 0.016703 -0.006386 -0.014311 0.000000 0.004188 0.000000
# 2 -0.006386 0.011753 0.004385 0.000000 -0.004341 0.000000
# 3 -0.014311 0.004385 0.034199 0.000000 -0.010099 0.000000
# 4 0.000000 0.000000 0.000000 0.046471 0.000000 -0.010551
# 5 0.004188 -0.004341 -0.010099 0.000000 0.030104 0.000000
# 6 0.000000 0.000000 0.000000 -0.010551 0.000000 0.018082
#
#
# Mechanical properties :
#
#
# Convention : Reuss Voigt Hill
#
# Bulk Modulus (GPa) = 33.29837 52.84515 43.07176
# Shear Modulus (GPa) = 25.00665 37.06146 31.03405
#
# Velocity S-wave (km/s) = 3.08414 3.75463 3.43578
# Velocity P-wave (km/s) = 5.03472 6.23677 5.66770
#
# Compressibility (1/GPa) = 0.03003150
#
# Stress axis : x y z
#
# Youngs Moduli (GPa) = 59.86961 85.08371 29.24034
#
# Poissons Ratio (x) = 0.54338 0.41846
# Poissons Ratio (y) = 0.38235 -0.12823
# Poissons Ratio (z) = 0.85680 -0.37313
#
# Static dielectric constant tensor:
#      x y z
#    x 2.110410 0.000000 -0.145180 
#    y 0.000000 2.134160 0.000000 
#    z -0.145180 0.000000 2.285130 
# 
# From -- ./inp_files/28997.got.cif
#   From: 2010.05.17/outbox.cif.g08.bks.cpg/sg5_15_cif.got.tgz:28997.got - 2010.06.03 18:56:24.
