data_PCOD9125817
_publ_section_title
;
Structure prediction by ZEFSAII (Michael W. Deem and Ramdas Pophale) SiO2 
 PCOD9125817
Probable space group: C 2
;
_chemical_formula_sum "Si O2"
_cell_formula_units_Z 26
_cell_length_a 12.192334
_cell_length_b 7.108536
_cell_length_c 25.934293
_cell_angle_alpha 90.000000
_cell_angle_beta 150.879937
_cell_angle_gamma 90.000000
_cell_volume 1093.831457
_symmetry_space_group_name_H-M "C 2"
_symmetry_group_IT_number 5
_symmetry_cell_setting 'monoclinic'
loop_
_space_group_symop_operation_xyz
x,y,z
-x,y,-z
1/2+x,1/2+y,z
1/2-x,1/2+y,-z
loop_
_atom_site_type_symbol
_atom_site_label
_atom_site_fract_x
_atom_site_fract_y
_atom_site_fract_z
Si Si1 0.913888 0.888240 0.572955
Si Si2 0.124926 0.883832 0.333900
Si Si3 0.000000 0.697665 0.500000
Si Si4 0.910280 0.294886 0.361613
Si Si5 0.518929 0.286368 0.134375
Si Si6 0.273849 0.091847 0.880421
Si Si7 0.219550 0.967055 0.054769
O O1 0.997345 0.807988 0.553054
O O2 0.642887 0.906246 0.457158
O O3 0.943268 0.787341 0.640471
O O4 0.030816 0.086317 0.631641
O O5 0.274796 0.070612 0.406313
O O6 0.915302 0.944769 0.212781
O O7 0.301520 0.767880 0.372948
O O8 0.718142 0.385341 0.247536
O O9 0.642228 0.176205 0.139008
O O10 0.392829 0.137317 0.119462
O O11 0.354000 0.421140 0.034499
O O12 0.196701 0.270688 0.884281
O O13 0.500000 0.012428 0.000000
O O14 0.000000 0.014632 0.000000
#
# Coordination Sequence:
#
# PCOD9125817 Si02
#       7
#     4   4   2   4   4   4   4
#     4  12  25  47  66 102 138 180 230 290 347 422
#     4  12  24  46  66 103 140 182 236 287 348 425
#     4  12  26  42  76  94 140 182 228 292 354 402
#     4  12  25  44  70  99 143 181 234 285 356 418
#     4  10  21  44  66 100 137 180 230 280 341 407
#     4   9  21  41  68  93 140 183 222 284 338 400
#     4   9  22  43  66  98 139 178 229 280 335 409
#
# _framework density 23.769658
#
# number of rings (size 3 to 8) (size 9 to 14) (size 15 to 20)
#    0.000    1.538    4.615    0.000    8.615    0.000 
#    2.769    0.000    0.000    0.000    0.000    0.000 
#    0.000    0.000    0.000    0.000    0.000    0.000 
#
# Total GULP energy -72618.825362 kJ/mol
# GULP energy per Si atom -5586.063489 kJ/mol
# Density = 2.371556 g / cm^3
# Si number density = 23.769658 Si / 1000 Ang^3
#
#
#
# Elastic Constant Matrix: (Units=GPa)
#
#
# Indices 1 2 3 4 5 6 
#
# 1 149.8635 26.6172 29.6826 0.0000 -12.4912 0.0000
# 2 26.6172 33.7972 24.8598 0.0000 -1.3023 0.0000
# 3 29.6826 24.8598 119.6286 0.0004 -24.0345 -0.0004
# 4 0.0000 0.0000 0.0004 32.9657 0.0000 1.8295
# 5 -12.4912 -1.3023 -24.0345 0.0000 29.5908 0.0001
# 6 0.0000 0.0000 -0.0004 1.8295 0.0001 35.8245
#
#
#
# Elastic Compliance Matrix: (Units=1/GPa)
#
#
# Indices 1 2 3 4 5 6 
#
# 1 0.008036 -0.006131 -0.000111 0.000000 0.003033 0.000000
# 2 -0.006131 0.040289 -0.008383 0.000000 -0.007624 0.000000
# 3 -0.000111 -0.008383 0.012004 0.000000 0.009334 0.000000
# 4 0.000000 0.000000 0.000000 0.030421 0.000000 -0.001554
# 5 0.003033 -0.007624 0.009334 0.000000 0.042321 0.000000
# 6 0.000000 0.000000 0.000000 -0.001554 0.000000 0.027993
#
#
# Mechanical properties :
#
#
# Convention : Reuss Voigt Hill
#
# Bulk Modulus (GPa) = 32.17435 51.73428 41.95432
# Shear Modulus (GPa) = 24.91618 34.48483 29.70051
#
# Velocity S-wave (km/s) = 3.24116 3.81306 3.53868
# Velocity P-wave (km/s) = 5.25091 6.41857 5.86388
#
# Compressibility (1/GPa) = 0.03108066
#
# Stress axis : x y z
#
# Youngs Moduli (GPa) = 124.43498 24.82073 83.30520
#
# Poissons Ratio (x) = 0.15217 0.00922
# Poissons Ratio (y) = 0.76289 0.69833
# Poissons Ratio (z) = 0.01377 0.20807
#
# Static dielectric constant tensor:
#      x y z
#    x 1.933280 0.000000 -0.029470 
#    y 0.000000 1.896910 0.000000 
#    z -0.029470 0.000000 1.912950 
# 
# From -- ./inp_files/70331.got.cif
#   From: 2010.05.17/outbox.cif.g08.bks.cpg/sg5_36_cif.got.tgz:70331.got - 2010.06.03 18:56:24.
