data_PCOD9125993
_publ_section_title
;
Structure prediction by ZEFSAII (Michael W. Deem and Ramdas Pophale) SiO2 
 PCOD9125993
Probable space group: C 2
;
_chemical_formula_sum "Si O2"
_cell_formula_units_Z 20
_cell_length_a 11.154638
_cell_length_b 18.399365
_cell_length_c 5.201197
_cell_angle_alpha 90.000000
_cell_angle_beta 105.879779
_cell_angle_gamma 90.000000
_cell_volume 1026.747186
_symmetry_space_group_name_H-M "C 2"
_symmetry_group_IT_number 5
_symmetry_cell_setting 'monoclinic'
loop_
_space_group_symop_operation_xyz
x,y,z
-x,y,-z
1/2+x,1/2+y,z
1/2-x,1/2+y,-z
loop_
_atom_site_type_symbol
_atom_site_label
_atom_site_fract_x
_atom_site_fract_y
_atom_site_fract_z
Si Si1 0.000000 0.817631 0.500000
Si Si2 0.914929 0.254968 0.700493
Si Si3 0.000000 0.592501 0.000000
Si Si4 0.685378 0.214510 0.294313
Si Si5 0.767168 0.842063 0.078720
Si Si6 0.923307 0.451369 0.202341
O O1 0.912070 0.764768 0.611054
O O2 0.903828 0.860573 0.264693
O O3 0.809537 0.199148 0.533651
O O4 0.825368 0.320426 0.742408
O O5 0.000000 0.270703 0.500000
O O6 0.000000 0.235966 0.000000
O O7 0.107817 0.643723 0.174283
O O8 0.930383 0.538137 0.158564
O O9 0.723227 0.267188 0.079077
O O10 0.705460 0.907754 0.885288
O O11 0.000000 0.435620 0.500000
O O12 0.000000 0.424462 0.000000
#
# Coordination Sequence:
#
# PCOD9125993 Si02
#       6
#     2   4   2   4   4   4
#     4  10  22  36  66 102 130 166 228 272 326 372
#     4  11  23  36  60  98 133 165 214 277 324 374
#     4  10  24  44  62  96 136 172 214 266 332 392
#     4  11  22  38  66  97 134 171 218 273 323 386
#     4  11  22  38  66  96 134 169 222 273 319 385
#     4  10  26  40  66  92 132 169 218 261 326 387
#
# _framework density 19.478992999999999
#
# number of rings (size 3 to 8) (size 9 to 14) (size 15 to 20)
#    0.600    0.800    4.000    0.600    9.800    0.000 
#    0.000    0.000    2.200    0.000    5.200    0.000 
#    0.000    0.000    0.000    0.000    0.000    0.000 
#
# Total GULP energy -55697.543700 kJ/mol
# GULP energy per Si atom -5569.754370 kJ/mol
# Density = 1.943466 g / cm^3
# Si number density = 19.478993 Si / 1000 Ang^3
#
#
#
# Elastic Constant Matrix: (Units=GPa)
#
#
# Indices 1 2 3 4 5 6 
#
# 1 117.7625 42.5735 74.4537 0.0000 24.5401 0.0000
# 2 42.5735 103.6068 53.8575 0.0000 32.8465 0.0000
# 3 74.4537 53.8575 166.5080 0.0000 42.4992 0.0000
# 4 0.0000 0.0000 0.0000 20.4506 0.0000 16.5145
# 5 24.5401 32.8465 42.4992 0.0000 67.3007 0.0000
# 6 0.0000 0.0000 0.0000 16.5145 0.0000 10.7299
#
#
#
# Elastic Compliance Matrix: (Units=1/GPa)
#
#
# Indices 1 2 3 4 5 6 
#
# 1 0.012428 -0.002591 -0.004632 0.000000 -0.000342 0.000000
# 2 -0.002591 0.013083 -0.002008 0.000000 -0.004172 0.000000
# 3 -0.004632 -0.002008 0.009591 0.000000 -0.003387 0.000000
# 4 0.000000 0.000000 0.000000 -0.201333 0.000000 0.309873
# 5 -0.000342 -0.004172 -0.003387 0.000000 0.019159 0.000000
# 6 0.000000 0.000000 0.000000 0.309873 0.000000 -0.383730
#
#
# Mechanical properties :
#
#
# Convention : Reuss Voigt Hill
#
# Bulk Modulus (GPa) = 60.09416 81.07186 70.58301
# Shear Modulus (GPa) = -9.86596 34.16243 12.14823
#
# Velocity S-wave (km/s) = -2.25298 4.19239 2.50002
# Velocity P-wave (km/s) = 4.91425 8.07127 6.68189
#
# Compressibility (1/GPa) = 0.01664055
#
# Stress axis : x y z
#
# Youngs Moduli (GPa) = 80.46378 76.43387 104.26358
#
# Poissons Ratio (x) = 0.19800 0.48293
# Poissons Ratio (y) = 0.20844 0.20941
# Poissons Ratio (z) = 0.37269 0.15352
#
# Static dielectric constant tensor:
#      x y z
#    x 1.865720 0.000000 -0.031570 
#    y 0.000000 1.706790 0.000000 
#    z -0.031570 0.000000 1.796030 
# 
# From -- ./inp_files/5059.got.cif
#   From: 2010.05.17/outbox.cif.g08.bks.cpg/sg5_3_cif.got.tgz:5059.got - 2010.06.03 18:56:24.
