data_PCOD9125418
_publ_section_title
;
Structure prediction by ZEFSAII (Michael W. Deem and Ramdas Pophale) SiO2 
 PCOD9125418
Probable space group: C 2
;
_chemical_formula_sum "Si O2"
_cell_formula_units_Z 28
_cell_length_a 28.193703
_cell_length_b 9.446208
_cell_length_c 8.616417
_cell_angle_alpha 90.000000
_cell_angle_beta 36.571743
_cell_angle_gamma 90.000000
_cell_volume 1367.281308
_symmetry_space_group_name_H-M "C 2"
_symmetry_group_IT_number 5
_symmetry_cell_setting 'monoclinic'
loop_
_space_group_symop_operation_xyz
x,y,z
-x,y,-z
1/2+x,1/2+y,z
1/2-x,1/2+y,-z
loop_
_atom_site_type_symbol
_atom_site_label
_atom_site_fract_x
_atom_site_fract_y
_atom_site_fract_z
Si Si1 0.280711 0.392740 0.266940
Si Si2 0.968268 0.826295 0.754525
Si Si3 0.181664 0.409708 0.819167
Si Si4 0.114650 0.856880 0.592277
Si Si5 0.436141 0.096260 0.049694
Si Si6 0.784566 0.116849 0.719274
Si Si7 0.767623 0.176695 0.118182
O O1 0.256714 0.377219 0.509740
O O2 0.231655 0.269865 0.309314
O O3 0.254181 0.540850 0.261590
O O4 0.376395 0.378007 0.000838
O O5 0.000000 0.850159 0.500000
O O6 0.034706 0.881136 0.701506
O O7 0.968070 0.661516 0.805506
O O8 0.121430 0.473747 0.854558
O O9 0.205212 0.531521 0.878308
O O10 0.168184 0.271779 0.957557
O O11 0.094760 0.738359 0.777039
O O12 0.188365 0.775783 0.311319
O O13 0.146477 0.017245 0.533799
O O14 0.500000 0.035986 0.000000
O O15 0.793516 0.128754 0.880019
#
# Coordination Sequence:
#
# PCOD9125418 Si02
#       7
#     4   4   4   4   4   4   4
#     4  12  22  39  66  96 130 177 224 268 330 403
#     4  11  21  37  64  95 128 172 216 271 335 396
#     4  11  22  41  64  95 131 175 226 273 328 394
#     4  10  22  41  63  92 132 167 221 271 324 399
#     4  10  21  41  65  95 129 174 227 276 328 403
#     4  11  22  37  61  97 129 170 219 273 332 389
#     4  11  22  38  61  96 132 171 217 277 327 394
#
# _framework density 20.478594999999999
#
# number of rings (size 3 to 8) (size 9 to 14) (size 15 to 20)
#    0.000    1.143    2.857    6.000    0.000    0.000 
#    0.000    1.429    0.000    0.857    0.000    0.000 
#    0.000    0.000    0.000    0.000    0.000    0.000 
#
# Total GULP energy -77968.575772 kJ/mol
# GULP energy per Si atom -5569.183984 kJ/mol
# Density = 2.043198 g / cm^3
# Si number density = 20.478595 Si / 1000 Ang^3
#
#
#
# Elastic Constant Matrix: (Units=GPa)
#
#
# Indices 1 2 3 4 5 6 
#
# 1 140.8160 56.4057 36.2582 0.0000 -5.4401 0.0000
# 2 56.4057 110.1184 -1.1522 0.0000 -2.3055 0.0000
# 3 36.2582 -1.1522 40.9281 0.0000 -0.3730 0.0000
# 4 0.0000 0.0000 0.0000 23.0968 0.0000 -0.3228
# 5 -5.4401 -2.3055 -0.3730 0.0000 44.8085 0.0000
# 6 0.0000 0.0000 0.0000 -0.3228 0.0000 42.0787
#
#
#
# Elastic Compliance Matrix: (Units=1/GPa)
#
#
# Indices 1 2 3 4 5 6 
#
# 1 0.012755 -0.006630 -0.011477 0.000000 0.001112 0.000000
# 2 -0.006630 0.012540 0.006226 0.000000 -0.000108 0.000000
# 3 -0.011477 0.006226 0.034768 0.000000 -0.000784 0.000000
# 4 0.000000 0.000000 0.000000 0.043301 0.000000 0.000332
# 5 0.001112 -0.000108 -0.000784 0.000000 0.022440 0.000000
# 6 0.000000 0.000000 0.000000 0.000332 0.000000 0.023768
#
#
# Mechanical properties :
#
#
# Convention : Reuss Voigt Hill
#
# Bulk Modulus (GPa) = 27.54669 52.76510 40.15589
# Shear Modulus (GPa) = 26.96361 35.35351 31.15856
#
# Velocity S-wave (km/s) = 3.63254 4.15946 3.90490
# Velocity P-wave (km/s) = 5.57444 6.99214 6.32315
#
# Compressibility (1/GPa) = 0.03630201
#
# Stress axis : x y z
#
# Youngs Moduli (GPa) = 78.39821 79.74274 28.76180
#
# Poissons Ratio (x) = 0.52873 0.33009
# Poissons Ratio (y) = 0.51982 -0.17907
# Poissons Ratio (z) = 0.89974 -0.49648
#
# Static dielectric constant tensor:
#      x y z
#    x 1.812980 0.000000 -0.040550 
#    y 0.000000 1.723780 0.000000 
#    z -0.040550 0.000000 1.803680 
# 
# From -- ./inp_files/32485.got.cif
#   From: 2010.05.17/outbox.cif.g08.bks.cpg/sg5_17_cif.got.tgz:32485.got - 2010.06.03 18:56:24.
