data_PCOD9125026
_publ_section_title
;
Structure prediction by ZEFSAII (Michael W. Deem and Ramdas Pophale) SiO2 
 PCOD9125026
Probable space group: C 2
;
_chemical_formula_sum "Si O2"
_cell_formula_units_Z 28
_cell_length_a 24.666344
_cell_length_b 9.190927
_cell_length_c 10.687276
_cell_angle_alpha 90.000000
_cell_angle_beta 149.561177
_cell_angle_gamma 90.000000
_cell_volume 1227.472606
_symmetry_space_group_name_H-M "C 2"
_symmetry_group_IT_number 5
_symmetry_cell_setting 'monoclinic'
loop_
_space_group_symop_operation_xyz
x,y,z
-x,y,-z
1/2+x,1/2+y,z
1/2-x,1/2+y,-z
loop_
_atom_site_type_symbol
_atom_site_label
_atom_site_fract_x
_atom_site_fract_y
_atom_site_fract_z
Si Si1 0.345540 0.493390 0.013591
Si Si2 0.993415 0.633645 0.857572
Si Si3 0.777817 0.700348 0.760665
Si Si4 0.950365 0.799777 0.521495
Si Si5 0.738311 0.982442 0.053828
Si Si6 0.547788 0.776091 0.730925
Si Si7 0.923056 0.315137 0.733899
O O1 0.459098 0.425224 0.285761
O O2 0.256524 0.509654 0.944071
O O3 0.377901 0.656998 0.051396
O O4 0.308496 0.369129 0.845522
O O5 0.950200 0.711050 0.648869
O O6 0.923494 0.490871 0.747729
O O7 0.119000 0.609777 0.077093
O O8 0.000000 0.723710 0.000000
O O9 0.746562 0.624583 0.830050
O O10 0.681999 0.715447 0.472842
O O11 0.834704 0.869913 0.273924
O O12 0.000000 0.714936 0.500000
O O13 0.624450 0.911089 0.853691
O O14 0.500000 0.729411 0.500000
O O15 0.460987 0.804324 0.664601
O O16 0.000000 0.266484 0.000000
#
# Coordination Sequence:
#
# PCOD9125026 Si02
#       7
#     4   4   4   4   4   4   4
#     4  10  21  39  64  98 134 175 222 284 340 403
#     4  10  23  45  65  98 136 175 224 282 341 407
#     4  11  23  45  68  98 136 180 228 279 344 410
#     4   9  20  38  64  95 132 170 225 282 331 411
#     4  11  21  39  65  99 136 176 224 278 348 404
#     4  12  24  42  66 100 136 176 231 281 343 410
#     4  11  25  46  67  98 139 178 227 286 341 409
#
# _framework density 22.811098999999999
#
# number of rings (size 3 to 8) (size 9 to 14) (size 15 to 20)
#    0.000    1.429    1.429    4.714    2.000    1.714 
#    5.143    5.714    0.000    0.000    0.000    0.000 
#    0.000    0.000    0.000    0.000    0.000    0.000 
#
# Total GULP energy -78087.503923 kJ/mol
# GULP energy per Si atom -5577.678852 kJ/mol
# Density = 2.275918 g / cm^3
# Si number density = 22.811099 Si / 1000 Ang^3
#
#
#
# Elastic Constant Matrix: (Units=GPa)
#
#
# Indices 1 2 3 4 5 6 
#
# 1 72.4151 -7.8680 -5.0036 0.0000 -11.9022 0.0000
# 2 -7.8680 57.3395 1.3637 0.0000 -1.8172 0.0000
# 3 -5.0036 1.3637 66.3710 0.0000 -0.3965 0.0000
# 4 0.0000 0.0000 0.0000 11.4538 0.0000 13.9218
# 5 -11.9022 -1.8172 -0.3965 0.0000 33.0110 0.0000
# 6 0.0000 0.0000 0.0000 13.9218 0.0000 -19.2373
#
#
#
# Elastic Compliance Matrix: (Units=1/GPa)
#
#
# Indices 1 2 3 4 5 6 
#
# 1 0.015041 0.002213 0.001122 0.000000 0.005558 0.000000
# 2 0.002213 0.017804 -0.000188 0.000000 0.001776 0.000000
# 3 0.001122 -0.000188 0.015159 0.000000 0.000576 0.000000
# 4 0.000000 0.000000 0.000000 0.046449 0.000000 0.033615
# 5 0.005558 0.001776 0.000576 0.000000 0.032402 0.000000
# 6 0.000000 0.000000 0.000000 0.033615 0.000000 -0.027656
#
#
# Mechanical properties :
#
#
# Convention : Reuss Voigt Hill
#
# Bulk Modulus (GPa) = 18.41714 19.23441 18.82577
# Shear Modulus (GPa) = 45.04300 18.88773 31.96537
#
# Velocity S-wave (km/s) = 4.44848 2.88063 3.74747
# Velocity P-wave (km/s) = 5.87167 4.41751 5.19572
#
# Compressibility (1/GPa) = 0.05429726
#
# Stress axis : x y z
#
# Youngs Moduli (GPa) = 66.48563 56.16572 65.96876
#
# Poissons Ratio (x) = -0.12431 -0.07399
# Poissons Ratio (y) = -0.14716 0.01243
# Poissons Ratio (z) = -0.07457 0.01058
#
# Static dielectric constant tensor:
#      x y z
#    x 1.907340 0.000000 0.000940 
#    y 0.000000 1.857060 0.000000 
#    z 0.000940 0.000000 1.907240 
# 
# From -- ./inp_files/47947.got.cif
#   From: 2010.05.17/outbox.cif.g08.bks.cpg/sg5_24_cif.got.tgz:47947.got - 2010.06.03 18:56:24.
