data_PCOD9125147
_publ_section_title
;
Structure prediction by ZEFSAII (Michael W. Deem and Ramdas Pophale) SiO2 
 PCOD9125147
Probable space group: C 2
;
_chemical_formula_sum "Si O2"
_cell_formula_units_Z 32
_cell_length_a 19.793101
_cell_length_b 12.829167
_cell_length_c 9.791192
_cell_angle_alpha 90.000000
_cell_angle_beta 33.580186
_cell_angle_gamma 90.000000
_cell_volume 1375.163238
_symmetry_space_group_name_H-M "C 2"
_symmetry_group_IT_number 5
_symmetry_cell_setting 'monoclinic'
loop_
_space_group_symop_operation_xyz
x,y,z
-x,y,-z
1/2+x,1/2+y,z
1/2-x,1/2+y,-z
loop_
_atom_site_type_symbol
_atom_site_label
_atom_site_fract_x
_atom_site_fract_y
_atom_site_fract_z
Si Si1 0.517050 0.788280 0.807576
Si Si2 0.089847 0.054557 0.714775
Si Si3 0.158064 0.641496 0.381467
Si Si4 0.917280 0.852813 0.450062
Si Si5 0.625645 0.097802 0.135376
Si Si6 0.732048 0.948560 0.405625
Si Si7 0.297892 0.861306 0.986638
Si Si8 0.680363 0.285765 0.926696
O O1 0.575988 0.673048 0.685803
O O2 0.605100 0.886631 0.628298
O O3 0.500000 0.792948 0.000000
O O4 0.394555 0.800248 0.921672
O O5 0.060815 0.963364 0.657476
O O6 0.222395 0.010442 0.538900
O O7 0.000000 0.047793 0.000000
O O8 0.161260 0.748098 0.465374
O O9 0.173696 0.655359 0.192626
O O10 0.238205 0.543802 0.288926
O O11 0.019697 0.602243 0.627546
O O12 0.836678 0.871363 0.719276
O O13 0.052511 0.806393 0.219066
O O14 0.682780 0.161327 0.913264
O O15 0.658393 0.979265 0.090130
O O16 0.819270 0.854604 0.209414
O O17 0.287346 0.822872 0.848196
#
# Coordination Sequence:
#
# PCOD9125147 Si02
#       8
#     4   4   4   4   4   4   4   4
#     4  11  28  48  68 101 135 186 237 281 351 406
#     4  11  26  46  69  95 139 183 233 285 343 409
#     4  10  21  40  69  92 138 175 224 277 351 412
#     4  11  24  43  66 103 137 186 227 280 345 411
#     4  10  21  40  62 103 134 178 222 279 348 414
#     4  12  24  45  70 100 134 184 231 291 335 420
#     4  12  23  42  72 100 144 178 230 284 344 418
#     4  11  24  41  69 104 140 178 234 279 353 410
#
# _framework density 23.269963000000001
#
# number of rings (size 3 to 8) (size 9 to 14) (size 15 to 20)
#    0.000    1.000    5.000    1.125    7.000    1.500 
#    0.000    0.625    0.000    0.000    0.000    0.000 
#    0.000    0.000    0.000    0.000    0.000    0.000 
#
# Total GULP energy -89102.304632 kJ/mol
# GULP energy per Si atom -5568.894039 kJ/mol
# Density = 2.321700 g / cm^3
# Si number density = 23.269963 Si / 1000 Ang^3
#
#
#
# Elastic Constant Matrix: (Units=GPa)
#
#
# Indices 1 2 3 4 5 6 
#
# 1 40.4927 10.1196 -7.4763 0.0000 -5.1604 0.0000
# 2 10.1196 139.6262 -11.7190 0.0000 11.9572 0.0000
# 3 -7.4763 -11.7190 47.9508 0.0000 -0.6819 0.0000
# 4 0.0000 0.0000 0.0000 21.3719 0.0000 5.8888
# 5 -5.1604 11.9572 -0.6819 0.0000 20.9283 0.0000
# 6 0.0000 0.0000 0.0000 5.8888 0.0000 35.3174
#
#
#
# Elastic Compliance Matrix: (Units=1/GPa)
#
#
# Indices 1 2 3 4 5 6 
#
# 1 0.027008 -0.002337 0.003755 0.000000 0.008117 0.000000
# 2 -0.002337 0.007888 0.001492 0.000000 -0.005034 0.000000
# 3 0.003755 0.001492 0.021816 0.000000 0.000785 0.000000
# 4 0.000000 0.000000 0.000000 0.049044 0.000000 -0.008177
# 5 0.008117 -0.005034 0.000785 0.000000 0.052685 0.000000
# 6 0.000000 0.000000 0.000000 -0.008177 0.000000 0.029678
#
#
# Mechanical properties :
#
#
# Convention : Reuss Voigt Hill
#
# Bulk Modulus (GPa) = 15.99226 23.32424 19.65825
# Shear Modulus (GPa) = 24.61318 31.33322 27.97320
#
# Velocity S-wave (km/s) = 3.25579 3.67346 3.47092
# Velocity P-wave (km/s) = 4.58487 5.29505 4.95270
#
# Compressibility (1/GPa) = 0.06253025
#
# Stress axis : x y z
#
# Youngs Moduli (GPa) = 37.02644 126.77952 45.83805
#
# Poissons Ratio (x) = 0.29633 -0.17213
# Poissons Ratio (y) = 0.08655 -0.06838
# Poissons Ratio (z) = -0.13904 -0.18912
#
# Static dielectric constant tensor:
#      x y z
#    x 1.963830 0.000000 0.001230 
#    y 0.000000 1.975970 0.000000 
#    z 0.001230 0.000000 1.893160 
# 
# From -- ./inp_files/47494.got.cif
#   From: 2010.05.17/outbox.cif.g08.bks.cpg/sg5_24_cif.got.tgz:47494.got - 2010.06.03 18:56:24.
