data_PCOD9125669
_publ_section_title
;
Structure prediction by ZEFSAII (Michael W. Deem and Ramdas Pophale) SiO2 
 PCOD9125669
Probable space group: C 2
;
_chemical_formula_sum "Si O2"
_cell_formula_units_Z 28
_cell_length_a 15.331901
_cell_length_b 8.225633
_cell_length_c 11.656282
_cell_angle_alpha 90.000000
_cell_angle_beta 116.156646
_cell_angle_gamma 90.000000
_cell_volume 1319.484961
_symmetry_space_group_name_H-M "C 2"
_symmetry_group_IT_number 5
_symmetry_cell_setting 'monoclinic'
loop_
_space_group_symop_operation_xyz
x,y,z
-x,y,-z
1/2+x,1/2+y,z
1/2-x,1/2+y,-z
loop_
_atom_site_type_symbol
_atom_site_label
_atom_site_fract_x
_atom_site_fract_y
_atom_site_fract_z
Si Si1 0.606809 0.136490 0.182131
Si Si2 0.779081 0.172249 0.649291
Si Si3 0.705745 0.537619 0.593393
Si Si4 0.521423 0.847725 0.264909
Si Si5 0.000000 0.914617 0.000000
Si Si6 0.796090 0.082647 0.897457
Si Si7 0.846819 0.419459 0.006353
Si Si8 0.500000 0.706149 0.500000
O O1 0.719844 0.139324 0.283270
O O2 0.545236 0.298138 0.125158
O O3 0.559683 0.026668 0.254168
O O4 0.608097 0.040636 0.061162
O O5 0.722004 0.344228 0.618061
O O6 0.767014 0.082653 0.521744
O O7 0.892769 0.225681 0.722951
O O8 0.759686 0.056871 0.746342
O O9 0.596669 0.595859 0.553916
O O10 0.427490 0.833735 0.131603
O O11 0.501567 0.814202 0.385906
O O12 0.094636 0.017318 0.021302
O O13 0.726654 0.008367 0.952030
O O14 0.794539 0.276428 0.908555
#
# Coordination Sequence:
#
# PCOD9125669 Si02
#       8
#     4   4   4   4   2   4   4   2
#     4  11  23  46  70  97 140 186 228 292 356 423
#     4  10  23  46  71  96 137 192 226 290 351 424
#     4  10  23  45  69 102 139 180 235 284 355 419
#     4  10  21  42  70  92 141 177 230 276 363 402
#     4  12  26  42  70 104 134 186 240 280 364 418
#     4  12  27  42  67 105 140 184 238 291 353 422
#     4  12  24  43  67 101 142 182 228 296 351 418
#     4  10  24  40  74 110 132 188 232 298 344 426
#
# _framework density 21.220402
#
# number of rings (size 3 to 8) (size 9 to 14) (size 15 to 20)
#    0.000    1.143    4.286    1.714    6.000    2.286 
#    0.000    2.857    0.000    0.000    0.000    0.000 
#    0.000    0.000    0.000    0.000    0.000    0.000 
#
# Total GULP energy -78240.939391 kJ/mol
# GULP energy per Si atom -5588.638528 kJ/mol
# Density = 2.117210 g / cm^3
# Si number density = 21.220402 Si / 1000 Ang^3
#
#
#
# Elastic Constant Matrix: (Units=GPa)
#
#
# Indices 1 2 3 4 5 6 
#
# 1 117.2178 47.9780 70.6896 0.0000 -17.6696 0.0000
# 2 47.9780 83.9925 32.0997 0.0000 -9.8799 0.0000
# 3 70.6896 32.0997 127.6448 0.0000 -8.0988 0.0000
# 4 0.0000 0.0000 0.0000 42.7085 0.0000 1.1437
# 5 -17.6696 -9.8799 -8.0988 0.0000 36.1743 0.0000
# 6 0.0000 0.0000 0.0000 1.1437 0.0000 23.7795
#
#
#
# Elastic Compliance Matrix: (Units=1/GPa)
#
#
# Indices 1 2 3 4 5 6 
#
# 1 0.015835 -0.005827 -0.007014 0.000000 0.004573 0.000000
# 2 -0.005827 0.015622 -0.000620 0.000000 0.001282 0.000000
# 3 -0.007014 -0.000620 0.011814 0.000000 -0.000951 0.000000
# 4 0.000000 0.000000 0.000000 0.023445 0.000000 -0.001128
# 5 0.004573 0.001282 -0.000951 0.000000 0.030015 0.000000
# 6 0.000000 0.000000 0.000000 -0.001128 0.000000 0.042107
#
#
# Mechanical properties :
#
#
# Convention : Reuss Voigt Hill
#
# Bulk Modulus (GPa) = 61.16554 70.04328 65.60441
# Shear Modulus (GPa) = 29.20362 32.40497 30.80430
#
# Velocity S-wave (km/s) = 3.71375 3.91201 3.81417
# Velocity P-wave (km/s) = 6.87574 7.31329 7.09789
#
# Compressibility (1/GPa) = 0.01634908
#
# Stress axis : x y z
#
# Youngs Moduli (GPa) = 63.14927 64.01182 84.64266
#
# Poissons Ratio (x) = 0.37299 0.59370
# Poissons Ratio (y) = 0.36797 0.05250
# Poissons Ratio (z) = 0.44294 0.03971
#
# Static dielectric constant tensor:
#      x y z
#    x 1.785560 0.000000 -0.003320 
#    y 0.000000 1.769380 0.000000 
#    z -0.003320 0.000000 1.822630 
# 
# From -- ./inp_files/41796.got.cif
#   From: 2010.05.17/outbox.cif.g08.bks.cpg/sg5_21_cif.got.tgz:41796.got - 2010.06.03 18:56:24.
