data_PCOD9125423
_publ_section_title
;
Structure prediction by ZEFSAII (Michael W. Deem and Ramdas Pophale) SiO2 
 PCOD9125423
Probable space group: C 2
;
_chemical_formula_sum "Si O2"
_cell_formula_units_Z 28
_cell_length_a 5.294007
_cell_length_b 32.086710
_cell_length_c 8.337874
_cell_angle_alpha 90.000000
_cell_angle_beta 116.232073
_cell_angle_gamma 90.000000
_cell_volume 1270.465387
_symmetry_space_group_name_H-M "C 2"
_symmetry_group_IT_number 5
_symmetry_cell_setting 'monoclinic'
loop_
_space_group_symop_operation_xyz
x,y,z
-x,y,-z
1/2+x,1/2+y,z
1/2-x,1/2+y,-z
loop_
_atom_site_type_symbol
_atom_site_label
_atom_site_fract_x
_atom_site_fract_y
_atom_site_fract_z
Si Si1 0.500000 0.780660 0.500000
Si Si2 0.722976 0.709009 0.331652
Si Si3 0.775233 0.328090 0.161150
Si Si4 0.382556 0.077607 0.787928
Si Si5 0.500000 0.756797 0.000000
Si Si6 0.334375 0.990618 0.621469
Si Si7 0.886258 0.120358 0.784560
Si Si8 0.167126 0.397617 0.377352
O O1 0.626135 0.748615 0.407884
O O2 0.275123 0.809819 0.343581
O O3 0.725498 0.727832 0.153921
O O4 0.551279 0.666444 0.265967
O O5 0.000000 0.695322 0.500000
O O6 0.841471 0.287738 0.073886
O O7 0.029029 0.361153 0.233890
O O8 0.500000 0.346981 0.000000
O O9 0.426302 0.029863 0.751614
O O10 0.561639 0.106760 0.717818
O O11 0.055414 0.089091 0.717175
O O12 0.500000 0.084225 0.000000
O O13 0.500000 0.992592 0.500000
O O14 0.000000 0.994088 0.500000
O O15 0.379733 0.944156 0.704114
O O16 0.000000 0.119000 0.000000
O O17 0.500000 0.391628 0.500000
O O18 0.000000 0.396917 0.500000
#
# Coordination Sequence:
#
# PCOD9125423 Si02
#       8
#     2   4   4   4   2   4   4   4
#     4  10  24  42  62  94 134 170 226 282 334 388
#     4  11  23  40  62  92 128 175 224 270 332 388
#     4  11  23  42  68  98 131 179 228 272 342 400
#     4  10  22  41  65  92 132 171 213 267 329 384
#     4  10  24  42  62  92 134 168 226 278 332 386
#     4  10  21  41  65  97 129 173 214 265 327 392
#     4  10  22  41  63  92 130 174 214 273 326 384
#     4  10  23  43  70  96 139 177 217 277 339 396
#
# _framework density 22.039169999999999
#
# number of rings (size 3 to 8) (size 9 to 14) (size 15 to 20)
#    0.000    1.714    1.429    1.714    4.000    4.000 
#    1.286    2.143    0.000    0.000    0.000    0.000 
#    0.000    0.000    0.000    0.000    0.000    0.000 
#
# Total GULP energy -78094.793780 kJ/mol
# GULP energy per Si atom -5578.199556 kJ/mol
# Density = 2.198901 g / cm^3
# Si number density = 22.039170 Si / 1000 Ang^3
#
#
#
# Elastic Constant Matrix: (Units=GPa)
#
#
# Indices 1 2 3 4 5 6 
#
# 1 105.0155 26.0802 29.9392 0.0000 6.2681 0.0000
# 2 26.0802 134.4834 34.5763 0.0000 -2.5238 0.0000
# 3 29.9392 34.5763 82.6633 0.0000 -0.0190 0.0000
# 4 0.0000 0.0000 0.0000 39.9462 0.0000 -9.5189
# 5 6.2681 -2.5238 -0.0190 0.0000 18.2954 0.0000
# 6 0.0000 0.0000 0.0000 -9.5189 0.0000 34.9554
#
#
#
# Elastic Compliance Matrix: (Units=1/GPa)
#
#
# Indices 1 2 3 4 5 6 
#
# 1 0.011076 -0.001335 -0.003454 0.000000 -0.003982 0.000000
# 2 -0.001335 0.008517 -0.003079 0.000000 0.001629 0.000000
# 3 -0.003454 -0.003079 0.014636 0.000000 0.000774 0.000000
# 4 0.000000 0.000000 0.000000 0.026771 0.000000 0.007290
# 5 -0.003982 0.001629 0.000774 0.000000 0.056248 0.000000
# 6 0.000000 0.000000 0.000000 0.007290 0.000000 0.030593
#
#
# Mechanical properties :
#
#
# Convention : Reuss Voigt Hill
#
# Bulk Modulus (GPa) = 54.07097 55.92819 54.99958
# Shear Modulus (GPa) = 29.45651 34.07715 31.76683
#
# Velocity S-wave (km/s) = 3.65986 3.93645 3.80067
# Velocity P-wave (km/s) = 6.51511 6.78916 6.65355
#
# Compressibility (1/GPa) = 0.01849421
#
# Stress axis : x y z
#
# Youngs Moduli (GPa) = 90.28228 117.41516 68.32339
#
# Poissons Ratio (x) = 0.15671 0.23601
# Poissons Ratio (y) = 0.12049 0.21034
# Poissons Ratio (z) = 0.31187 0.36148
#
# Static dielectric constant tensor:
#      x y z
#    x 1.835550 0.000000 0.000750 
#    y 0.000000 1.784540 0.000000 
#    z 0.000750 0.000000 1.863500 
# 
# From -- ./inp_files/13395.got.cif
#   From: 2010.05.17/outbox.cif.g08.bks.cpg/sg5_7_cif.got.tgz:13395.got - 2010.06.03 18:56:24.
