data_PCOD9125137
_publ_section_title
;
Structure prediction by ZEFSAII (Michael W. Deem and Ramdas Pophale) SiO2 
 PCOD9125137
Probable space group: C 2
;
_chemical_formula_sum "Si O2"
_cell_formula_units_Z 30
_cell_length_a 9.148877
_cell_length_b 10.924051
_cell_length_c 16.483282
_cell_angle_alpha 90.000000
_cell_angle_beta 108.452103
_cell_angle_gamma 90.000000
_cell_volume 1562.690916
_symmetry_space_group_name_H-M "C 2"
_symmetry_group_IT_number 5
_symmetry_cell_setting 'monoclinic'
loop_
_space_group_symop_operation_xyz
x,y,z
-x,y,-z
1/2+x,1/2+y,z
1/2-x,1/2+y,-z
loop_
_atom_site_type_symbol
_atom_site_label
_atom_site_fract_x
_atom_site_fract_y
_atom_site_fract_z
Si Si1 0.266885 0.023480 0.867379
Si Si2 0.749342 0.501167 0.675152
Si Si3 0.792292 0.275740 0.967879
Si Si4 0.500000 0.198424 0.000000
Si Si5 0.462186 0.004999 0.396703
Si Si6 0.263480 0.728141 0.677091
Si Si7 0.036710 0.231495 0.600450
Si Si8 0.022989 0.176555 0.130841
O O1 0.295821 0.015304 0.777020
O O2 0.092584 0.069391 0.859020
O O3 0.303986 0.896111 0.916675
O O4 0.386062 0.118296 0.926053
O O5 0.684150 0.362006 0.659504
O O6 0.637828 0.614615 0.639699
O O7 0.886053 0.509107 0.633254
O O8 0.853137 0.163419 0.921438
O O9 0.616319 0.269932 0.963256
O O10 0.901657 0.270343 0.066406
O O11 0.500000 0.017532 0.500000
O O12 0.351707 0.114408 0.348966
O O13 0.394635 0.867533 0.371191
O O14 0.378605 0.722215 0.621737
O O15 0.375251 0.719681 0.775309
O O16 0.000000 0.227564 0.500000
#
# Coordination Sequence:
#
# PCOD9125137 Si02
#       8
#     4   4   4   2   4   4   4   4
#     4  11  22  40  62  89 124 163 212 258 314 368
#     4  11  23  38  66  96 125 165 215 263 312 380
#     4  10  22  41  61  85 124 160 207 259 307 371
#     4  10  24  38  62  88 114 166 208 254 310 372
#     4  10  24  43  64  94 131 169 211 261 320 377
#     4  11  22  40  64  94 128 166 208 263 315 378
#     4  10  22  43  65  91 126 167 209 261 319 379
#     4  10  21  40  61  87 124 164 205 254 317 362
#
# _framework density 19.197655000000001
#
# number of rings (size 3 to 8) (size 9 to 14) (size 15 to 20)
#    0.000    1.600    2.667    1.600    1.867    3.733 
#    2.400    0.000    0.000    0.000    0.000    0.000 
#    0.000    0.000    0.000    0.000    0.000    0.000 
#
# Total GULP energy -83578.210571 kJ/mol
# GULP energy per Si atom -5571.880705 kJ/mol
# Density = 1.915396 g / cm^3
# Si number density = 19.197655 Si / 1000 Ang^3
#
#
#
# Elastic Constant Matrix: (Units=GPa)
#
#
# Indices 1 2 3 4 5 6 
#
# 1 14.7815 -37.0950 -86.4467 0.0000 2.8413 0.0000
# 2 -37.0950 55.8303 -72.1100 0.0000 25.1255 0.0000
# 3 -86.4467 -72.1100 -82.4278 0.0000 6.4418 0.0000
# 4 0.0000 0.0000 0.0000 33.1142 0.0000 1.7268
# 5 2.8413 25.1255 6.4418 0.0000 22.5896 0.0000
# 6 0.0000 0.0000 0.0000 1.7268 0.0000 31.0361
#
#
#
# Elastic Compliance Matrix: (Units=1/GPa)
#
#
# Indices 1 2 3 4 5 6 
#
# 1 0.011403 -0.004656 -0.007428 0.000000 0.005862 0.000000
# 2 -0.004656 0.011660 -0.006149 0.000000 -0.010630 0.000000
# 3 -0.007428 -0.006149 0.001609 0.000000 0.007315 0.000000
# 4 0.000000 0.000000 0.000000 0.030286 0.000000 -0.001685
# 5 0.005862 -0.010630 0.007315 0.000000 0.053268 0.000000
# 6 0.000000 0.000000 0.000000 -0.001685 0.000000 0.032314
#
#
# Mechanical properties :
#
#
# Convention : Reuss Voigt Hill
#
# Bulk Modulus (GPa) = -84.79955 -44.79103 -64.79529
# Shear Modulus (GPa) = 28.88933 29.60368 29.24651
#
# Velocity S-wave (km/s) = 3.88343 3.93115 3.90736
# Velocity P-wave (km/s) = 4.91525 1.66640 3.66992
#
# Compressibility (1/GPa) = -0.01179252
#
# Stress axis : x y z
#
# Youngs Moduli (GPa) = 87.69906 85.76171 621.53725
#
# Poissons Ratio (x) = 0.39926 4.61660
# Poissons Ratio (y) = 0.40828 3.82179
# Poissons Ratio (z) = 0.65140 0.52734
#
# Static dielectric constant tensor:
#      x y z
#    x 1.688510 0.000000 -0.023010 
#    y 0.000000 1.699430 0.000000 
#    z -0.023010 0.000000 1.673920 
# 
# From -- ./inp_files/50527.got.cif
#   From: 2010.05.17/outbox.cif.g08.bks.cpg/sg5_26_cif.got.tgz:50527.got - 2010.06.03 18:56:24.
