data_PCOD9125901
_publ_section_title
;
Structure prediction by ZEFSAII (Michael W. Deem and Ramdas Pophale) SiO2 
 PCOD9125901
Probable space group: C 2
;
_chemical_formula_sum "Si O2"
_cell_formula_units_Z 26
_cell_length_a 10.209635
_cell_length_b 18.484753
_cell_length_c 8.292578
_cell_angle_alpha 90.000000
_cell_angle_beta 45.227201
_cell_angle_gamma 90.000000
_cell_volume 1110.999281
_symmetry_space_group_name_H-M "C 2"
_symmetry_group_IT_number 5
_symmetry_cell_setting 'monoclinic'
loop_
_space_group_symop_operation_xyz
x,y,z
-x,y,-z
1/2+x,1/2+y,z
1/2-x,1/2+y,-z
loop_
_atom_site_type_symbol
_atom_site_label
_atom_site_fract_x
_atom_site_fract_y
_atom_site_fract_z
Si Si1 0.973718 0.564220 0.850227
Si Si2 0.345177 0.485309 0.506079
Si Si3 0.064890 0.706329 0.614458
Si Si4 0.976569 0.230905 0.332334
Si Si5 0.000000 0.793068 0.000000
Si Si6 0.421220 0.592164 0.889467
Si Si7 0.326157 0.877987 0.579856
O O1 0.131806 0.503754 0.733100
O O2 0.012228 0.622837 0.679966
O O3 0.000000 0.603803 0.000000
O O4 0.761773 0.546080 0.996472
O O5 0.500000 0.461937 0.500000
O O6 0.427304 0.559179 0.362153
O O7 0.316667 0.424404 0.397511
O O8 0.284294 0.706801 0.424882
O O9 0.000000 0.736863 0.500000
O O10 0.003380 0.749785 0.827843
O O11 0.937813 0.317320 0.377881
O O12 0.000000 0.210751 0.500000
O O13 0.115623 0.177454 0.117350
O O14 0.191906 0.837382 0.822603
O O15 0.500000 0.583232 0.000000
O O16 0.500000 0.922412 0.500000
#
# Coordination Sequence:
#
# PCOD9125901 Si02
#       7
#     4   4   4   4   2   4   4
#     4  12  24  42  71 107 142 196 245 301 378 431
#     4  12  27  49  70 102 147 194 249 310 359 441
#     4  11  22  39  72 112 146 183 241 303 366 438
#     4  10  21  46  68 103 144 181 235 304 368 425
#     4  10  24  46  74 104 148 198 236 302 374 440
#     4  12  26  41  73 109 143 186 244 306 368 436
#     4  10  26  45  75 101 144 197 240 299 370 446
#
# _framework density 23.402356000000001
#
# number of rings (size 3 to 8) (size 9 to 14) (size 15 to 20)
#    0.000    0.923    3.846    2.308    7.538    2.462 
#    0.000    0.769    0.000    0.000    0.000    0.000 
#    0.000    0.000    0.000    0.000    0.000    0.000 
#
# Total GULP energy -72453.912900 kJ/mol
# GULP energy per Si atom -5573.377915 kJ/mol
# Density = 2.334909 g / cm^3
# Si number density = 23.402356 Si / 1000 Ang^3
#
#
#
# Elastic Constant Matrix: (Units=GPa)
#
#
# Indices 1 2 3 4 5 6 
#
# 1 175.4931 2.4372 29.5791 0.0000 -8.9307 0.0000
# 2 2.4372 23.1996 -3.4790 0.0000 -7.1379 0.0000
# 3 29.5791 -3.4790 45.8270 0.0000 -17.3390 0.0000
# 4 0.0000 0.0000 0.0000 22.1495 0.0000 -2.0404
# 5 -8.9307 -7.1379 -17.3390 0.0000 50.4862 0.0000
# 6 0.0000 0.0000 0.0000 -2.0404 0.0000 19.2644
#
#
#
# Elastic Compliance Matrix: (Units=1/GPa)
#
#
# Indices 1 2 3 4 5 6 
#
# 1 0.006449 -0.001549 -0.004519 0.000000 -0.000630 0.000000
# 2 -0.001549 0.047302 0.008066 0.000000 0.009184 0.000000
# 3 -0.004519 0.008066 0.029284 0.000000 0.010398 0.000000
# 4 0.000000 0.000000 0.000000 0.045593 0.000000 0.004829
# 5 -0.000630 0.009184 0.010398 0.000000 0.024566 0.000000
# 6 0.000000 0.000000 0.000000 0.004829 0.000000 0.052421
#
#
# Mechanical properties :
#
#
# Convention : Reuss Voigt Hill
#
# Bulk Modulus (GPa) = 11.49011 33.51047 22.50029
# Shear Modulus (GPa) = 21.67982 32.77885 27.22934
#
# Velocity S-wave (km/s) = 3.04698 3.74661 3.41476
# Velocity P-wave (km/s) = 4.15923 5.75034 5.01825
#
# Compressibility (1/GPa) = 0.08703137
#
# Stress axis : x y z
#
# Youngs Moduli (GPa) = 155.05569 21.14079 34.14782
#
# Poissons Ratio (x) = 0.03275 0.15430
# Poissons Ratio (y) = 0.24018 -0.27542
# Poissons Ratio (z) = 0.70065 -0.17051
#
# Static dielectric constant tensor:
#      x y z
#    x 1.881330 0.000000 0.010070 
#    y 0.000000 1.961060 0.000000 
#    z 0.010070 0.000000 1.976950 
# 
# From -- ./inp_files/17010.got.cif
#   From: 2010.05.17/outbox.cif.g08.bks.cpg/sg5_9_cif.got.tgz:17010.got - 2010.06.03 18:56:24.
