data_PCOD9125297
_publ_section_title
;
Structure prediction by ZEFSAII (Michael W. Deem and Ramdas Pophale) SiO2 
 PCOD9125297
Probable space group: C 2
;
_chemical_formula_sum "Si O2"
_cell_formula_units_Z 24
_cell_length_a 18.137995
_cell_length_b 5.165231
_cell_length_c 13.570734
_cell_angle_alpha 90.000000
_cell_angle_beta 50.995275
_cell_angle_gamma 90.000000
_cell_volume 987.997747
_symmetry_space_group_name_H-M "C 2"
_symmetry_group_IT_number 5
_symmetry_cell_setting 'monoclinic'
loop_
_space_group_symop_operation_xyz
x,y,z
-x,y,-z
1/2+x,1/2+y,z
1/2-x,1/2+y,-z
loop_
_atom_site_type_symbol
_atom_site_label
_atom_site_fract_x
_atom_site_fract_y
_atom_site_fract_z
Si Si1 0.617304 0.824870 0.018730
Si Si2 0.688306 0.782432 0.298019
Si Si3 0.988400 0.636674 0.260879
Si Si4 0.166785 0.977073 0.120898
Si Si5 0.900806 0.788986 0.537436
Si Si6 0.094640 0.753464 0.875439
O O1 0.721408 0.922898 0.967466
O O2 0.600510 0.976117 0.931055
O O3 0.637967 0.530185 0.031192
O O4 0.531166 0.887084 0.166706
O O5 0.656824 0.687183 0.216444
O O6 0.668514 0.534650 0.386683
O O7 0.799045 0.854935 0.206473
O O8 0.633618 0.037490 0.375199
O O9 0.087233 0.767303 0.211379
O O10 0.921457 0.675648 0.411271
O O11 0.929623 0.751298 0.219148
O O12 0.000000 0.882966 0.500000
O O13 0.000000 0.887538 0.000000
#
# Coordination Sequence:
#
# PCOD9125297 Si02
#       6
#     4   4   4   4   4   4
#     4  10  21  40  68  99 135 178 244 300 364 418
#     4  11  26  46  72 107 146 188 245 302 360 428
#     4  11  23  42  67  98 144 187 240 291 369 430
#     4  11  21  39  71 102 133 187 242 307 357 427
#     4  12  25  45  73 106 145 189 249 300 352 431
#     4   9  23  49  64 104 143 190 238 299 370 439
#
# _framework density 24.291550999999998
#
# number of rings (size 3 to 8) (size 9 to 14) (size 15 to 20)
#    0.000    1.333    3.333    1.500    2.333    1.333 
#    6.000    1.667    0.000    0.000    0.000    0.000 
#    0.000    0.000    0.000    0.000    0.000    0.000 
#
# Total GULP energy -66851.294420 kJ/mol
# GULP energy per Si atom -5570.941202 kJ/mol
# Density = 2.423626 g / cm^3
# Si number density = 24.291551 Si / 1000 Ang^3
#
#
#
# Elastic Constant Matrix: (Units=GPa)
#
#
# Indices 1 2 3 4 5 6 
#
# 1 113.9749 -1.4357 43.8887 0.0022 12.6177 0.0012
# 2 -1.4357 61.0340 31.0626 0.0023 -4.2432 0.0117
# 3 43.8887 31.0626 158.2343 -0.0046 13.7130 0.0076
# 4 0.0022 0.0023 -0.0046 36.2387 0.0043 -2.1523
# 5 12.6177 -4.2432 13.7130 0.0043 39.1736 -0.0002
# 6 0.0012 0.0117 0.0076 -2.1523 -0.0002 20.3122
#
#
#
# Elastic Compliance Matrix: (Units=1/GPa)
#
#
# Indices 1 2 3 4 5 6 
#
# 1 0.010160 0.001598 -0.002953 -0.000001 -0.002066 -0.000001
# 2 0.001598 0.018884 -0.004417 -0.000003 0.003077 -0.000010
# 3 -0.002953 -0.004417 0.008214 0.000002 -0.002403 0.000000
# 4 -0.000001 -0.000003 0.000002 0.027770 -0.000004 0.002943
# 5 -0.002066 0.003077 -0.002403 -0.000004 0.027367 -0.000001
# 6 -0.000001 -0.000010 0.000000 0.002943 -0.000001 0.049543
#
#
# Mechanical properties :
#
#
# Convention : Reuss Voigt Hill
#
# Bulk Modulus (GPa) = 38.88862 53.36383 46.12623
# Shear Modulus (GPa) = 30.85431 36.46006 33.65718
#
# Velocity S-wave (km/s) = 3.56781 3.87839 3.72634
# Velocity P-wave (km/s) = 5.74597 6.48627 6.12731
#
# Compressibility (1/GPa) = 0.02571446
#
# Stress axis : x y z
#
# Youngs Moduli (GPa) = 98.42847 52.95556 121.74318
#
# Poissons Ratio (x) = -0.08463 0.35946
# Poissons Ratio (y) = -0.15730 0.53773
# Poissons Ratio (z) = 0.29062 0.23390
#
# Static dielectric constant tensor:
#      x y z
#    x 1.909050 0.000000 0.035570 
#    y 0.000000 2.211350 0.000000 
#    z 0.035570 0.000000 1.973370 
# 
# From -- ./inp_files/56363.got.cif
#   From: 2010.05.17/outbox.cif.g08.bks.cpg/sg5_29_cif.got.tgz:56363.got - 2010.06.03 18:56:24.
