data_PCOD9125163
_publ_section_title
;
Structure prediction by ZEFSAII (Michael W. Deem and Ramdas Pophale) SiO2 
 PCOD9125163
Probable space group: C 2
;
_chemical_formula_sum "Si O2"
_cell_formula_units_Z 20
_cell_length_a 24.635986
_cell_length_b 7.349874
_cell_length_c 5.363412
_cell_angle_alpha 90.000000
_cell_angle_beta 114.611574
_cell_angle_gamma 90.000000
_cell_volume 882.932494
_symmetry_space_group_name_H-M "C 2"
_symmetry_group_IT_number 5
_symmetry_cell_setting 'monoclinic'
loop_
_space_group_symop_operation_xyz
x,y,z
-x,y,-z
1/2+x,1/2+y,z
1/2-x,1/2+y,-z
loop_
_atom_site_type_symbol
_atom_site_label
_atom_site_fract_x
_atom_site_fract_y
_atom_site_fract_z
Si Si1 0.329911 0.808560 0.857100
Si Si2 0.168113 0.666564 0.940973
Si Si3 0.533499 0.239744 0.813035
Si Si4 0.534811 0.679410 0.818457
Si Si5 0.211752 0.639056 0.525583
O O1 0.280521 0.653124 0.738431
O O2 0.314073 0.952906 0.044818
O O3 0.319600 0.947637 0.604941
O O4 0.396661 0.741353 0.027023
O O5 0.206480 0.737652 0.245990
O O6 0.100942 0.675346 0.911015
O O7 0.176637 0.740917 0.680994
O O8 0.500000 0.179612 0.500000
O O9 0.534786 0.459426 0.817654
O O10 0.500000 0.180010 0.000000
O O11 0.500000 0.737255 0.500000
O O12 0.500000 0.739816 0.000000
#
# Coordination Sequence:
#
# PCOD9125163 Si02
#       5
#     4   4   4   4   4
#     4  10  26  41  68  90 136 160 220 257 319 378
#     4  10  24  39  63  93 125 166 211 261 316 369
#     4  10  21  40  62  93 125 169 210 256 314 376
#     4  10  24  41  66  94 127 168 210 261 318 374
#     4  10  25  41  61  98 119 175 203 265 319 363
#
# _framework density 22.651786000000001
#
# number of rings (size 3 to 8) (size 9 to 14) (size 15 to 20)
#    1.200    0.800    0.000    1.200    8.400    1.600 
#    0.000    0.000    0.000    0.000    0.000    0.000 
#    0.000    0.000    0.000    0.000    0.000    0.000 
#
# Total GULP energy -55708.578676 kJ/mol
# GULP energy per Si atom -5570.857868 kJ/mol
# Density = 2.260023 g / cm^3
# Si number density = 22.651786 Si / 1000 Ang^3
#
#
#
# Elastic Constant Matrix: (Units=GPa)
#
#
# Indices 1 2 3 4 5 6 
#
# 1 128.3185 16.9737 95.3370 0.0000 6.2576 0.0000
# 2 16.9737 75.4797 31.0401 0.0000 2.2038 0.0000
# 3 95.3370 31.0401 176.8748 0.0000 1.8658 0.0000
# 4 0.0000 0.0000 0.0000 -45.1340 0.0000 11.5752
# 5 6.2576 2.2038 1.8658 0.0000 61.0648 0.0000
# 6 0.0000 0.0000 0.0000 11.5752 0.0000 20.2760
#
#
#
# Elastic Compliance Matrix: (Units=1/GPa)
#
#
# Indices 1 2 3 4 5 6 
#
# 1 0.013075 -0.000015 -0.007033 0.000000 -0.001124 0.000000
# 2 -0.000015 0.014291 -0.002495 0.000000 -0.000438 0.000000
# 3 -0.007033 -0.002495 0.009877 0.000000 0.000509 0.000000
# 4 0.000000 0.000000 0.000000 -0.019327 0.000000 0.011033
# 5 -0.001124 -0.000438 0.000509 0.000000 0.016492 0.000000
# 6 0.000000 0.000000 0.000000 0.011033 0.000000 0.043021
#
#
# Mechanical properties :
#
#
# Convention : Reuss Voigt Hill
#
# Bulk Modulus (GPa) = 55.07703 74.15273 64.61488
# Shear Modulus (GPa) = 48.74794 23.06285 35.90539
#
# Velocity S-wave (km/s) = 4.64406 3.19430 3.98565
# Velocity P-wave (km/s) = 7.28861 6.81262 7.05463
#
# Compressibility (1/GPa) = 0.01815639
#
# Stress axis : x y z
#
# Youngs Moduli (GPa) = 76.47921 69.97467 101.24333
#
# Poissons Ratio (x) = 0.00106 0.71207
# Poissons Ratio (y) = 0.00116 0.25261
# Poissons Ratio (z) = 0.53790 0.17459
#
# Static dielectric constant tensor:
#      x y z
#    x 1.919420 0.000000 0.005840 
#    y 0.000000 1.888370 0.000000 
#    z 0.005840 0.000000 1.905130 
# 
# From -- ./inp_files/9317.got.cif
#   From: 2010.05.17/outbox.cif.g08.bks.cpg/sg5_5_cif.got.tgz:9317.got - 2010.06.03 18:56:24.
