data_PCOD9125239
_publ_section_title
;
Structure prediction by ZEFSAII (Michael W. Deem and Ramdas Pophale) SiO2 
 PCOD9125239
Probable space group: C 2
;
_chemical_formula_sum "Si O2"
_cell_formula_units_Z 20
_cell_length_a 12.199901
_cell_length_b 9.440303
_cell_length_c 15.563321
_cell_angle_alpha 90.000000
_cell_angle_beta 153.026723
_cell_angle_gamma 90.000000
_cell_volume 813.005551
_symmetry_space_group_name_H-M "C 2"
_symmetry_group_IT_number 5
_symmetry_cell_setting 'monoclinic'
loop_
_space_group_symop_operation_xyz
x,y,z
-x,y,-z
1/2+x,1/2+y,z
1/2-x,1/2+y,-z
loop_
_atom_site_type_symbol
_atom_site_label
_atom_site_fract_x
_atom_site_fract_y
_atom_site_fract_z
Si Si1 0.272100 0.431550 0.691076
Si Si2 0.621455 0.739522 0.176329
Si Si3 0.500000 0.464592 0.500000
Si Si4 0.262545 0.035760 0.514158
Si Si5 0.500000 0.256633 0.000000
Si Si6 0.471975 0.773508 0.254184
O O1 0.256922 0.587823 0.721898
O O2 0.354037 0.454012 0.649890
O O3 0.000000 0.371058 0.500000
O O4 0.440206 0.344249 0.871946
O O5 0.811416 0.864479 0.319359
O O6 0.441125 0.760928 0.130928
O O7 0.500000 0.740963 0.000000
O O8 0.644349 0.541926 0.525712
O O9 0.499347 0.937481 0.696854
O O10 0.227540 0.196073 0.455289
O O11 0.757562 0.192017 0.153847
#
# Coordination Sequence:
#
# PCOD9125239 Si02
#       6
#     4   4   2   4   2   4
#     4  11  21  40  66  96 137 180 230 273 337 406
#     4  10  21  40  65  97 134 181 226 280 328 410
#     4  10  22  40  66  94 140 178 226 270 352 396
#     4  10  23  44  67  98 138 184 221 279 338 411
#     4  12  24  40  68 104 134 178 230 286 336 398
#     4  10  24  45  69 103 137 182 230 275 348 403
#
# _framework density 24.600078
#
# number of rings (size 3 to 8) (size 9 to 14) (size 15 to 20)
#    0.000    1.600    4.000    0.000    2.800    1.600 
#    1.800    4.000    0.000    1.200    0.000    0.000 
#    0.000    0.000    0.000    0.000    0.000    0.000 
#
# Total GULP energy -55784.257160 kJ/mol
# GULP energy per Si atom -5578.425716 kJ/mol
# Density = 2.454409 g / cm^3
# Si number density = 24.600078 Si / 1000 Ang^3
#
#
#
# Elastic Constant Matrix: (Units=GPa)
#
#
# Indices 1 2 3 4 5 6 
#
# 1 151.9437 16.4951 34.8879 0.0012 -25.1210 0.0007
# 2 16.4951 39.0202 23.2876 0.0027 -11.5949 0.0006
# 3 34.8879 23.2876 110.2052 0.0019 -32.4699 0.0016
# 4 0.0012 0.0027 0.0019 18.9466 0.0015 -7.1191
# 5 -25.1210 -11.5949 -32.4699 0.0015 54.9761 0.0006
# 6 0.0007 0.0006 0.0016 -7.1191 0.0006 28.3298
#
#
#
# Elastic Compliance Matrix: (Units=1/GPa)
#
#
# Indices 1 2 3 4 5 6 
#
# 1 0.007444 -0.001678 -0.001337 0.000000 0.002258 0.000000
# 2 -0.001678 0.030135 -0.005073 -0.000004 0.002593 -0.000001
# 3 -0.001337 -0.005073 0.012196 -0.000001 0.005523 -0.000001
# 4 0.000000 -0.000004 -0.000001 0.058283 -0.000004 0.014646
# 5 0.002258 0.002593 0.005523 -0.000004 0.023030 -0.000002
# 6 0.000000 -0.000001 -0.000001 0.014646 -0.000002 0.038979
#
#
# Mechanical properties :
#
#
# Convention : Reuss Voigt Hill
#
# Bulk Modulus (GPa) = 29.76165 50.05670 39.90917
# Shear Modulus (GPa) = 25.32386 35.55039 30.43712
#
# Velocity S-wave (km/s) = 3.21194 3.80561 3.52131
# Velocity P-wave (km/s) = 5.08723 6.30100 5.72637
#
# Compressibility (1/GPa) = 0.03360029
#
# Stress axis : x y z
#
# Youngs Moduli (GPa) = 134.34034 33.18401 81.99290
#
# Poissons Ratio (x) = 0.05568 0.10959
# Poissons Ratio (y) = 0.22543 0.41592
# Poissons Ratio (z) = 0.17956 0.16833
#
# Static dielectric constant tensor:
#      x y z
#    x 2.045660 0.000000 0.140180 
#    y 0.000000 1.963700 0.000000 
#    z 0.140180 0.000000 2.015340 
# 
# From -- ./inp_files/8261.got.cif
#   From: 2010.05.17/outbox.cif.g08.bks.cpg/sg5_5_cif.got.tgz:8261.got - 2010.06.03 18:56:24.
