data_PCOD9125799
_publ_section_title
;
Structure prediction by ZEFSAII (Michael W. Deem and Ramdas Pophale) SiO2 
 PCOD9125799
Probable space group: C 2
;
_chemical_formula_sum "Si O2"
_cell_formula_units_Z 28
_cell_length_a 9.098153
_cell_length_b 9.059923
_cell_length_c 25.242360
_cell_angle_alpha 90.000000
_cell_angle_beta 36.524419
_cell_angle_gamma 90.000000
_cell_volume 1238.355460
_symmetry_space_group_name_H-M "C 2"
_symmetry_group_IT_number 5
_symmetry_cell_setting 'monoclinic'
loop_
_space_group_symop_operation_xyz
x,y,z
-x,y,-z
1/2+x,1/2+y,z
1/2-x,1/2+y,-z
loop_
_atom_site_type_symbol
_atom_site_label
_atom_site_fract_x
_atom_site_fract_y
_atom_site_fract_z
Si Si1 0.568329 0.750000 0.672001
Si Si2 0.918278 0.580112 0.185704
Si Si3 0.205904 0.566508 0.588599
Si Si4 0.112488 0.729115 0.025717
Si Si5 0.153146 0.808675 0.307729
Si Si6 0.280488 0.004654 0.534185
Si Si7 0.561613 0.559330 0.920079
O O1 0.285776 0.704857 0.744363
O O2 0.648096 0.735366 0.710377
O O3 0.718867 0.641179 0.590075
O O4 0.631838 0.914272 0.636789
O O5 0.782450 0.423106 0.231012
O O6 0.010578 0.616443 0.099654
O O7 0.143001 0.575226 0.162844
O O8 0.500000 0.588104 0.500000
O O9 0.134275 0.555718 0.547562
O O10 0.034088 0.692137 0.663452
O O11 0.037578 0.895154 0.065935
O O12 0.402524 0.686542 0.938028
O O13 0.000000 0.710358 0.000000
O O14 0.964684 0.906998 0.398012
O O15 0.500000 0.919169 0.500000
O O16 0.500000 0.574255 0.000000
#
# Coordination Sequence:
#
# PCOD9125799 Si02
#       7
#     4   4   4   4   4   4   4
#     4  11  23  42  63  96 135 178 218 284 340 376
#     4  10  23  44  67  95 145 175 212 274 334 403
#     4  12  23  41  69  93 129 183 238 282 325 393
#     4  10  21  43  76 102 129 172 219 267 325 399
#     4  11  23  41  63  95 135 178 224 279 342 381
#     4  11  21  40  68  89 127 177 229 285 333 387
#     4   9  20  42  70  99 129 171 214 260 324 398
#
# _framework density 22.610633
#
# number of rings (size 3 to 8) (size 9 to 14) (size 15 to 20)
#    0.000    1.429    2.857    2.571    0.000    1.714 
#    0.000   18.571    0.000    0.000    0.000    0.000 
#    0.000    0.000    0.000    0.000    0.000    0.000 
#
# Total GULP energy -78198.492521 kJ/mol
# GULP energy per Si atom -5585.606609 kJ/mol
# Density = 2.255917 g / cm^3
# Si number density = 22.610633 Si / 1000 Ang^3
#
#
#
# Elastic Constant Matrix: (Units=GPa)
#
#
# Indices 1 2 3 4 5 6 
#
# 1 105.6501 52.0028 44.3927 0.0000 -33.5592 0.0000
# 2 52.0028 129.7077 47.1662 0.0000 -34.0308 0.0000
# 3 44.3927 47.1662 87.6486 -0.0004 -31.3042 -0.0003
# 4 0.0000 0.0000 -0.0004 34.4832 -0.0002 -2.5592
# 5 -33.5592 -34.0308 -31.3042 -0.0002 50.0792 0.0000
# 6 0.0000 0.0000 -0.0003 -2.5592 0.0000 29.8477
#
#
#
# Elastic Compliance Matrix: (Units=1/GPa)
#
#
# Indices 1 2 3 4 5 6 
#
# 1 0.014114 -0.002961 -0.003728 0.000000 0.005116 0.000000
# 2 -0.002961 0.010959 -0.003150 0.000000 0.003494 0.000000
# 3 -0.003728 -0.003150 0.017169 0.000000 0.006093 0.000000
# 4 0.000000 0.000000 0.000000 0.029185 0.000000 0.002502
# 5 0.005116 0.003494 0.006093 0.000000 0.029580 0.000000
# 6 0.000000 0.000000 0.000000 0.002502 0.000000 0.033718
#
#
# Mechanical properties :
#
#
# Convention : Reuss Voigt Hill
#
# Bulk Modulus (GPa) = 44.31814 67.79220 56.05517
# Shear Modulus (GPa) = 30.87883 34.84499 32.86191
#
# Velocity S-wave (km/s) = 3.69952 3.92993 3.81646
# Velocity P-wave (km/s) = 6.15562 7.11618 6.65326
#
# Compressibility (1/GPa) = 0.02256412
#
# Stress axis : x y z
#
# Youngs Moduli (GPa) = 70.85128 91.25148 58.24555
#
# Poissons Ratio (x) = 0.27017 0.21715
# Poissons Ratio (y) = 0.20977 0.18346
# Poissons Ratio (z) = 0.26415 0.28742
#
# Static dielectric constant tensor:
#      x y z
#    x 1.862780 0.000000 -0.059500 
#    y 0.000000 1.865010 0.000000 
#    z -0.059500 0.000000 1.889930 
# 
# From -- ./inp_files/70135.got.cif
#   From: 2010.05.17/outbox.cif.g08.bks.cpg/sg5_36_cif.got.tgz:70135.got - 2010.06.03 18:56:24.
