data_PCOD9125855
_publ_section_title
;
Structure prediction by ZEFSAII (Michael W. Deem and Ramdas Pophale) SiO2 
 PCOD9125855
Probable space group: C 2
;
_chemical_formula_sum "Si O2"
_cell_formula_units_Z 22
_cell_length_a 16.676833
_cell_length_b 9.372025
_cell_length_c 8.742585
_cell_angle_alpha 90.000000
_cell_angle_beta 130.810211
_cell_angle_gamma 90.000000
_cell_volume 1034.220410
_symmetry_space_group_name_H-M "C 2"
_symmetry_group_IT_number 5
_symmetry_cell_setting 'monoclinic'
loop_
_space_group_symop_operation_xyz
x,y,z
-x,y,-z
1/2+x,1/2+y,z
1/2-x,1/2+y,-z
loop_
_atom_site_type_symbol
_atom_site_label
_atom_site_fract_x
_atom_site_fract_y
_atom_site_fract_z
Si Si1 0.500000 0.879910 0.000000
Si Si2 0.835928 0.388564 0.564813
Si Si3 0.500000 0.405654 0.000000
Si Si4 0.147112 0.229625 0.944353
Si Si5 0.138156 0.052096 0.427218
Si Si6 0.000000 0.135389 0.500000
Si Si7 0.213115 0.907237 0.105371
O O1 0.439268 0.950782 0.780176
O O2 0.593688 0.794198 0.029591
O O3 0.836981 0.217116 0.572385
O O4 0.738884 0.454891 0.535152
O O5 0.804908 0.419018 0.349808
O O6 0.552148 0.499547 0.198277
O O7 0.606203 0.338842 0.051758
O O8 0.240420 0.318840 0.979038
O O9 0.052927 0.224375 0.700941
O O10 0.183164 0.068086 0.021479
O O11 0.090298 0.042355 0.535547
#
# Coordination Sequence:
#
# PCOD9125855 Si02
#       7
#     2   4   2   4   4   2   4
#     4  12  23  42  71  94 131 180 219 260 335 392
#     4  11  23  41  67  97 126 171 219 268 318 391
#     4  10  21  44  71  92 133 178 215 262 333 394
#     4  12  24  42  69  98 130 175 219 268 324 391
#     4  11  22  41  67  94 127 175 215 268 320 390
#     4  12  22  42  68  94 128 180 214 262 326 406
#     4  11  23  42  67 100 130 172 222 269 319 391
#
# _framework density 21.27206
#
# number of rings (size 3 to 8) (size 9 to 14) (size 15 to 20)
#    0.000    0.727    5.455    3.273    2.545    0.000 
#    0.000    8.182    0.000    6.545    0.000    0.000 
#    0.000    0.000    0.000    0.000    0.000    0.000 
#
# Total GULP energy -61353.391122 kJ/mol
# GULP energy per Si atom -5577.581011 kJ/mol
# Density = 2.122364 g / cm^3
# Si number density = 21.272060 Si / 1000 Ang^3
#
#
#
# Elastic Constant Matrix: (Units=GPa)
#
#
# Indices 1 2 3 4 5 6 
#
# 1 163.4492 39.7222 13.0100 0.0000 -14.4291 0.0000
# 2 39.7222 20.3384 16.7889 0.0000 8.5532 0.0000
# 3 13.0100 16.7889 133.2558 0.0000 9.3447 0.0000
# 4 0.0000 0.0000 0.0000 22.5408 0.0000 -0.4407
# 5 -14.4291 8.5532 9.3447 0.0000 36.1506 0.0000
# 6 0.0000 0.0000 0.0000 -0.4407 0.0000 38.0244
#
#
#
# Elastic Compliance Matrix: (Units=1/GPa)
#
#
# Indices 1 2 3 4 5 6 
#
# 1 0.018693 -0.046223 0.002758 0.000000 0.017684 0.000000
# 2 -0.046223 0.174211 -0.013496 0.000000 -0.056179 0.000000
# 3 0.002758 -0.013496 0.008794 0.000000 0.002021 0.000000
# 4 0.000000 0.000000 0.000000 0.044374 0.000000 0.000514
# 5 0.017684 -0.056179 0.002021 0.000000 0.047490 0.000000
# 6 0.000000 0.000000 0.000000 0.000514 0.000000 0.026305
#
#
# Mechanical properties :
#
#
# Convention : Reuss Voigt Hill
#
# Bulk Modulus (GPa) = 11.39259 50.67619 31.03439
# Shear Modulus (GPa) = 10.79804 35.84466 23.32135
#
# Velocity S-wave (km/s) = 2.25548 4.10940 3.31469
# Velocity P-wave (km/s) = 3.48571 6.81108 5.41022
#
# Compressibility (1/GPa) = 0.08777636
#
# Stress axis : x y z
#
# Youngs Moduli (GPa) = 53.49608 5.74016 113.71742
#
# Poissons Ratio (x) = 0.26533 -0.31368
# Poissons Ratio (y) = 2.47273 1.53478
# Poissons Ratio (z) = -0.14757 0.07747
#
# Static dielectric constant tensor:
#      x y z
#    x 1.856870 0.000000 -0.000460 
#    y 0.000000 1.741910 0.000000 
#    z -0.000460 0.000000 1.830460 
# 
# From -- ./inp_files/23065.got.cif
#   From: 2010.05.17/outbox.cif.g08.bks.cpg/sg5_12_cif.got.tgz:23065.got - 2010.06.03 18:56:24.
