data_PCOD9125229
_publ_section_title
;
Structure prediction by ZEFSAII (Michael W. Deem and Ramdas Pophale) SiO2 
 PCOD9125229
Probable space group: C 2
;
_chemical_formula_sum "Si O2"
_cell_formula_units_Z 24
_cell_length_a 16.934550
_cell_length_b 9.843124
_cell_length_c 12.822255
_cell_angle_alpha 90.000000
_cell_angle_beta 25.663559
_cell_angle_gamma 90.000000
_cell_volume 925.646299
_symmetry_space_group_name_H-M "C 2"
_symmetry_group_IT_number 5
_symmetry_cell_setting 'monoclinic'
loop_
_space_group_symop_operation_xyz
x,y,z
-x,y,-z
1/2+x,1/2+y,z
1/2-x,1/2+y,-z
loop_
_atom_site_type_symbol
_atom_site_label
_atom_site_fract_x
_atom_site_fract_y
_atom_site_fract_z
Si Si1 0.634349 0.332010 0.593292
Si Si2 0.068710 0.098156 0.193116
Si Si3 0.286643 0.408894 0.716789
Si Si4 0.484811 0.873604 0.255298
Si Si5 0.331073 0.978382 0.753716
Si Si6 0.185288 0.692402 0.905063
O O1 0.487446 0.443728 0.730351
O O2 0.728331 0.311350 0.367506
O O3 0.783244 0.426907 0.474802
O O4 0.514388 0.226651 0.805790
O O5 0.192288 0.145749 0.142070
O O6 0.928283 0.217150 0.342993
O O7 0.180962 0.088433 0.952905
O O8 0.500000 0.404734 0.500000
O O9 0.228352 0.571619 0.771215
O O10 0.132013 0.379227 0.987761
O O11 0.586542 0.933107 0.233070
O O12 0.500000 0.046860 0.500000
O O13 0.261528 0.840729 0.780871
#
# Coordination Sequence:
#
# PCOD9125229 Si02
#       6
#     4   4   4   4   4   4
#     4  11  25  42  66 103 143 172 231 298 355 405
#     4  10  21  42  65  90 132 184 225 288 342 416
#     4  12  21  43  72  99 134 189 237 276 344 435
#     4  11  25  41  62 103 138 174 234 298 354 413
#     4  10  21  40  65  94 127 177 236 277 345 422
#     4  10  21  41  67  99 131 179 237 279 327 437
#
# _framework density 25.927831000000001
#
# number of rings (size 3 to 8) (size 9 to 14) (size 15 to 20)
#    0.000    1.333    3.333    3.000    4.667    2.000 
#    0.000    5.000    0.000    0.000    0.000    0.000 
#    0.000    0.000    0.000    0.000    0.000    0.000 
#
# Total GULP energy -66825.420847 kJ/mol
# GULP energy per Si atom -5568.785071 kJ/mol
# Density = 2.586882 g / cm^3
# Si number density = 25.927831 Si / 1000 Ang^3
#
#
#
# Elastic Constant Matrix: (Units=GPa)
#
#
# Indices 1 2 3 4 5 6 
#
# 1 15.9348 -7.9765 15.2914 0.0000 -9.9928 0.0000
# 2 -7.9765 36.8256 -25.4466 0.0000 -8.9270 0.0000
# 3 15.2914 -25.4466 102.4926 0.0000 -6.5958 0.0000
# 4 0.0000 0.0000 0.0000 37.2489 0.0000 7.3684
# 5 -9.9928 -8.9270 -6.5958 0.0000 42.1058 0.0000
# 6 0.0000 0.0000 0.0000 7.3684 0.0000 11.6739
#
#
#
# Elastic Compliance Matrix: (Units=1/GPa)
#
#
# Indices 1 2 3 4 5 6 
#
# 1 0.097989 0.022757 -0.007235 0.000000 0.026947 0.000000
# 2 0.022757 0.041218 0.007827 0.000000 0.015366 0.000000
# 3 -0.007235 0.007827 0.012906 0.000000 0.001964 0.000000
# 4 0.000000 0.000000 0.000000 0.030677 0.000000 -0.019363
# 5 0.026947 0.015366 0.001964 0.000000 0.033710 0.000000
# 6 0.000000 0.000000 0.000000 -0.019363 0.000000 0.097882
#
#
# Mechanical properties :
#
#
# Convention : Reuss Voigt Hill
#
# Bulk Modulus (GPa) = 5.02991 13.22108 9.12549
# Shear Modulus (GPa) = 14.97213 29.76471 22.36842
#
# Velocity S-wave (km/s) = 2.40563 3.39187 2.94039
# Velocity P-wave (km/s) = 3.10810 4.52216 3.88009
#
# Compressibility (1/GPa) = 0.19881089
#
# Stress axis : x y z
#
# Youngs Moduli (GPa) = 10.20522 24.26147 77.48397
#
# Poissons Ratio (x) = -0.55213 0.56061
# Poissons Ratio (y) = -0.23224 -0.60646
# Poissons Ratio (z) = 0.07384 -0.18989
#
# Static dielectric constant tensor:
#      x y z
#    x 2.113700 0.000000 0.105460 
#    y 0.000000 2.129490 0.000000 
#    z 0.105460 0.000000 2.292940 
# 
# From -- ./inp_files/19333.got.cif
#   From: 2010.05.17/outbox.cif.g08.bks.cpg/sg5_10_cif.got.tgz:19333.got - 2010.06.03 18:56:24.
