data_PCOD9125949
_publ_section_title
;
Structure prediction by ZEFSAII (Michael W. Deem and Ramdas Pophale) SiO2 
 PCOD9125949
Probable space group: C 2
;
_chemical_formula_sum "Si O2"
_cell_formula_units_Z 28
_cell_length_a 19.397024
_cell_length_b 5.075311
_cell_length_c 17.826468
_cell_angle_alpha 90.000000
_cell_angle_beta 119.401900
_cell_angle_gamma 90.000000
_cell_volume 1528.902191
_symmetry_space_group_name_H-M "C 2"
_symmetry_group_IT_number 5
_symmetry_cell_setting 'monoclinic'
loop_
_space_group_symop_operation_xyz
x,y,z
-x,y,-z
1/2+x,1/2+y,z
1/2-x,1/2+y,-z
loop_
_atom_site_type_symbol
_atom_site_label
_atom_site_fract_x
_atom_site_fract_y
_atom_site_fract_z
Si Si1 0.217467 0.520200 0.941403
Si Si2 0.072711 0.656917 0.951852
Si Si3 0.875591 0.244681 0.681381
Si Si4 0.179833 0.870375 0.136802
Si Si5 0.967679 0.164159 0.872234
Si Si6 0.219059 0.744228 0.319743
Si Si7 0.701356 0.621639 0.498918
O O1 0.127838 0.603131 0.909222
O O2 0.248462 0.000522 0.123727
O O3 0.230035 0.237397 0.987234
O O4 0.006663 0.433274 0.920054
O O5 0.029139 0.933787 0.921883
O O6 0.131892 0.679660 0.054268
O O7 0.846826 0.538804 0.684913
O O8 0.875110 0.189848 0.592127
O O9 0.949587 0.184782 0.773772
O O10 0.808576 0.039055 0.674583
O O11 0.216601 0.728055 0.228916
O O12 0.114319 0.078484 0.131875
O O13 0.295735 0.672688 0.410469
O O14 0.732901 0.329136 0.498156
#
# Coordination Sequence:
#
# PCOD9125949 Si02
#       7
#     4   4   4   4   4   4   4
#     4  10  22  38  52  68  97 138 172 202 243 289
#     4  11  23  36  49  72 104 136 165 200 247 297
#     4   9  17  29  44  69 101 128 155 196 246 295
#     4  10  22  35  53  74 101 130 168 211 241 285
#     4  11  22  34  51  76 101 131 167 204 245 290
#     4   9  17  28  46  71  95 125 161 201 246 284
#     4   8  14  26  43  64  96 126 151 192 247 292
#
# _framework density 18.313794000000001
#
# number of rings (size 3 to 8) (size 9 to 14) (size 15 to 20)
#    0.000    2.286    0.000    3.857    0.000   13.714 
#    0.000    0.000    0.000    0.000    0.000    1.000 
#    0.000   16.000    0.000    0.000    0.000    0.000 
#
# Total GULP energy -78029.376197 kJ/mol
# GULP energy per Si atom -5573.526871 kJ/mol
# Density = 1.827211 g / cm^3
# Si number density = 18.313794 Si / 1000 Ang^3
#
#
#
# Elastic Constant Matrix: (Units=GPa)
#
#
# Indices 1 2 3 4 5 6 
#
# 1 58.3584 -4.1860 20.6769 0.0001 -7.0472 0.0001
# 2 -4.1860 62.8524 17.2180 0.0002 -3.6232 -0.0003
# 3 20.6769 17.2180 155.6446 0.0001 -27.6551 -0.0001
# 4 0.0001 0.0002 0.0001 18.9088 0.0000 -7.1627
# 5 -7.0472 -3.6232 -27.6551 0.0000 10.6743 0.0000
# 6 0.0001 -0.0003 -0.0001 -7.1627 0.0000 8.6035
#
#
#
# Elastic Compliance Matrix: (Units=1/GPa)
#
#
# Indices 1 2 3 4 5 6 
#
# 1 0.018912 0.002113 -0.000742 0.000000 0.011282 -0.000001
# 2 0.002113 0.016658 -0.001614 0.000000 0.002868 0.000000
# 3 -0.000742 -0.001614 0.012077 0.000000 0.030252 0.000000
# 4 0.000000 0.000000 0.000000 0.077247 -0.000001 0.064311
# 5 0.011282 0.002868 0.030252 -0.000001 0.180482 -0.000002
# 6 -0.000001 0.000000 0.000000 0.064311 -0.000002 0.169773
#
#
# Mechanical properties :
#
#
# Convention : Reuss Voigt Hill
#
# Bulk Modulus (GPa) = 21.20314 38.25257 29.72786
# Shear Modulus (GPa) = 10.17592 23.84709 17.01150
#
# Velocity S-wave (km/s) = 2.35976 3.61243 3.05108
# Velocity P-wave (km/s) = 4.36205 6.19130 5.35535
#
# Compressibility (1/GPa) = 0.04716282
#
# Stress axis : x y z
#
# Youngs Moduli (GPa) = 52.87595 60.02955 82.80067
#
# Poissons Ratio (x) = -0.12685 0.06141
# Poissons Ratio (y) = -0.11173 0.13364
# Poissons Ratio (z) = 0.03921 0.09688
#
# Static dielectric constant tensor:
#      x y z
#    x 1.621110 0.000000 -0.037510 
#    y 0.000000 1.638590 0.000000 
#    z -0.037510 0.000000 1.730010 
# 
# From -- ./inp_files/66861.got.cif
#   From: 2010.05.17/outbox.cif.g08.bks.cpg/sg5_34_cif.got.tgz:66861.got - 2010.06.03 18:56:24.
