data_PCOD9125473
_publ_section_title
;
Structure prediction by ZEFSAII (Michael W. Deem and Ramdas Pophale) SiO2 
 PCOD9125473
Probable space group: C 2
;
_chemical_formula_sum "Si O2"
_cell_formula_units_Z 26
_cell_length_a 12.890251
_cell_length_b 15.731309
_cell_length_c 7.810956
_cell_angle_alpha 90.000000
_cell_angle_beta 134.019749
_cell_angle_gamma 90.000000
_cell_volume 1138.989994
_symmetry_space_group_name_H-M "C 2"
_symmetry_group_IT_number 5
_symmetry_cell_setting 'monoclinic'
loop_
_space_group_symop_operation_xyz
x,y,z
-x,y,-z
1/2+x,1/2+y,z
1/2-x,1/2+y,-z
loop_
_atom_site_type_symbol
_atom_site_label
_atom_site_fract_x
_atom_site_fract_y
_atom_site_fract_z
Si Si1 0.979014 0.819870 0.772351
Si Si2 0.000000 0.093297 0.000000
Si Si3 0.711119 0.742551 0.856034
Si Si4 0.500000 0.453722 0.500000
Si Si5 0.803254 0.061275 0.060878
Si Si6 0.252934 0.675488 0.483139
Si Si7 0.528321 0.046302 0.350191
Si Si8 0.000000 0.384104 0.500000
O O1 0.966940 0.896360 0.626333
O O2 0.844053 0.757698 0.580680
O O3 0.129105 0.770913 0.910221
O O4 0.000000 0.839232 0.000000
O O5 0.888910 0.148100 0.754269
O O6 0.108357 0.035335 0.008196
O O7 0.673825 0.662391 0.927766
O O8 0.703520 0.700230 0.658755
O O9 0.607703 0.823783 0.727519
O O10 0.374375 0.516548 0.302427
O O11 0.636030 0.040806 0.895776
O O12 0.139185 0.597544 0.364068
O O13 0.500000 0.093707 0.500000
O O14 0.577969 0.951377 0.462137
#
# Coordination Sequence:
#
# PCOD9125473 Si02
#       8
#     4   2   4   2   4   4   4   2
#     4  10  25  45  75 102 147 189 247 301 372 441
#     4  12  24  40  76 102 148 184 258 304 360 442
#     4  11  23  46  73 102 146 192 248 304 374 444
#     4  12  27  43  70 114 142 192 246 309 367 440
#     4  12  25  45  71 105 147 198 243 308 374 451
#     4  11  23  45  72 108 136 203 244 301 377 457
#     4  10  22  44  74 101 141 193 249 297 375 443
#     4  10  21  41  68 108 138 188 238 313 361 430
#
# _framework density 22.827241000000001
#
# number of rings (size 3 to 8) (size 9 to 14) (size 15 to 20)
#    0.462    0.615    3.077    3.231    4.308    0.000 
#   11.077    0.000    0.000    0.000    0.000    0.000 
#    0.000    0.000    0.000    0.000    0.000    0.000 
#
# Total GULP energy -72547.493809 kJ/mol
# GULP energy per Si atom -5580.576447 kJ/mol
# Density = 2.277529 g / cm^3
# Si number density = 22.827241 Si / 1000 Ang^3
#
#
#
# Elastic Constant Matrix: (Units=GPa)
#
#
# Indices 1 2 3 4 5 6 
#
# 1 52.8716 17.1194 7.9151 0.0000 9.9027 0.0000
# 2 17.1194 87.7869 0.0896 0.0000 1.1639 0.0000
# 3 7.9151 0.0896 126.7604 0.0000 27.1417 0.0000
# 4 0.0000 0.0000 0.0000 43.6823 0.0000 -16.6665
# 5 9.9027 1.1639 27.1417 0.0000 29.7042 0.0000
# 6 0.0000 0.0000 0.0000 -16.6665 0.0000 23.4257
#
#
#
# Elastic Compliance Matrix: (Units=1/GPa)
#
#
# Indices 1 2 3 4 5 6 
#
# 1 0.021565 -0.004110 0.000200 0.000000 -0.007211 0.000000
# 2 -0.004110 0.012182 0.000071 0.000000 0.000828 0.000000
# 3 0.000200 0.000071 0.009811 0.000000 -0.009034 0.000000
# 4 0.000000 0.000000 0.000000 0.031422 0.000000 0.022356
# 5 -0.007211 0.000828 -0.009034 0.000000 0.044292 0.000000
# 6 0.000000 0.000000 0.000000 0.022356 0.000000 0.058593
#
#
# Mechanical properties :
#
#
# Convention : Reuss Voigt Hill
#
# Bulk Modulus (GPa) = 27.87093 35.29635 31.58364
# Shear Modulus (GPa) = 25.31616 35.51543 30.41580
#
# Velocity S-wave (km/s) = 3.33383 3.94869 3.65421
# Velocity P-wave (km/s) = 5.20146 6.02374 5.62764
#
# Compressibility (1/GPa) = 0.03587968
#
# Stress axis : x y z
#
# Youngs Moduli (GPa) = 46.37092 82.09049 101.93004
#
# Poissons Ratio (x) = 0.33740 -0.02043
# Poissons Ratio (y) = 0.19059 -0.00720
# Poissons Ratio (z) = -0.00929 -0.00580
#
# Static dielectric constant tensor:
#      x y z
#    x 1.942550 0.000000 0.194970 
#    y 0.000000 1.873070 0.000000 
#    z 0.194970 0.000000 1.810180 
# 
# From -- ./inp_files/24842.got.cif
#   From: 2010.05.17/outbox.cif.g08.bks.cpg/sg5_13_cif.got.tgz:24842.got - 2010.06.03 18:56:24.
