data_PCOD9125451
_publ_section_title
;
Structure prediction by ZEFSAII (Michael W. Deem and Ramdas Pophale) SiO2 
 PCOD9125451
Probable space group: C 2
;
_chemical_formula_sum "Si O2"
_cell_formula_units_Z 20
_cell_length_a 11.998220
_cell_length_b 7.066521
_cell_length_c 16.876342
_cell_angle_alpha 90.000000
_cell_angle_beta 150.173734
_cell_angle_gamma 90.000000
_cell_volume 711.675275
_symmetry_space_group_name_H-M "C 2"
_symmetry_group_IT_number 5
_symmetry_cell_setting 'monoclinic'
loop_
_space_group_symop_operation_xyz
x,y,z
-x,y,-z
1/2+x,1/2+y,z
1/2-x,1/2+y,-z
loop_
_atom_site_type_symbol
_atom_site_label
_atom_site_fract_x
_atom_site_fract_y
_atom_site_fract_z
Si Si1 0.782696 0.851500 0.602630
Si Si2 0.270967 0.779963 0.249020
Si Si3 0.060350 0.194809 0.229684
Si Si4 0.584475 0.984288 0.953678
Si Si5 0.217424 0.671749 0.806016
O O1 0.536301 0.780427 0.428625
O O2 0.970124 0.750659 0.667248
O O3 0.810508 0.080085 0.622733
O O4 0.217732 0.191971 0.247554
O O5 0.132574 0.592022 0.143209
O O6 0.171941 0.819534 0.275450
O O7 0.239253 0.945762 0.165322
O O8 0.001218 0.416003 0.186038
O O9 0.811202 0.101901 0.081958
O O10 0.658126 0.794312 0.048188
#
# Coordination Sequence:
#
# PCOD9125451 Si02
#       5
#     4   4   4   4   4
#     4   9  21  44  71 102 146 196 243 308 376 440
#     4  10  22  44  71 106 151 194 247 306 372 448
#     4  10  21  41  67 102 145 189 244 303 369 439
#     4  11  22  42  73 106 146 195 244 309 374 438
#     4  10  21  41  70 107 145 188 247 302 367 447
#
# _framework density 28.102706999999999
#
# number of rings (size 3 to 8) (size 9 to 14) (size 15 to 20)
#    0.000    2.000    0.000    4.200    0.000    1.600 
#    0.000   36.000    0.000    2.400    0.000    0.000 
#    0.000    0.000    0.000    0.000    0.000    0.000 
#
# Total GULP energy -55779.058493 kJ/mol
# GULP energy per Si atom -5577.905849 kJ/mol
# Density = 2.803874 g / cm^3
# Si number density = 28.102707 Si / 1000 Ang^3
#
#
#
# Elastic Constant Matrix: (Units=GPa)
#
#
# Indices 1 2 3 4 5 6 
#
# 1 206.3171 83.5871 68.5000 0.0005 39.3639 -0.0011
# 2 83.5871 191.4255 78.2386 0.0005 -2.0740 -0.0005
# 3 68.5000 78.2386 186.5170 0.0035 31.4891 -0.0041
# 4 0.0005 0.0005 0.0035 31.9948 0.0006 -10.9188
# 5 39.3639 -2.0740 31.4891 0.0006 53.5475 -0.0010
# 6 -0.0011 -0.0005 -0.0041 -10.9188 -0.0010 146.5477
#
#
#
# Elastic Compliance Matrix: (Units=1/GPa)
#
#
# Indices 1 2 3 4 5 6 
#
# 1 0.007206 -0.002983 -0.000534 0.000000 -0.005098 0.000000
# 2 -0.002983 0.007739 -0.002855 0.000000 0.004172 0.000000
# 3 -0.000534 -0.002855 0.007447 -0.000001 -0.004097 0.000000
# 4 0.000000 0.000000 -0.000001 0.032070 0.000000 0.002389
# 5 -0.005098 0.004172 -0.004097 0.000000 0.024994 0.000000
# 6 0.000000 0.000000 0.000000 0.002389 0.000000 0.007002
#
#
# Mechanical properties :
#
#
# Convention : Reuss Voigt Hill
#
# Bulk Modulus (GPa) = 103.66340 116.10122 109.88231
# Shear Modulus (GPa) = 48.81989 70.01360 59.41675
#
# Velocity S-wave (km/s) = 4.17249 4.99675 4.60311
# Velocity P-wave (km/s) = 7.75760 8.64251 8.21198
#
# Compressibility (1/GPa) = 0.00964661
#
# Stress axis : x y z
#
# Youngs Moduli (GPa) = 138.77961 129.22184 134.28575
#
# Poissons Ratio (x) = 0.38551 0.07173
# Poissons Ratio (y) = 0.41402 0.38335
# Poissons Ratio (z) = 0.07413 0.36890
#
# Static dielectric constant tensor:
#      x y z
#    x -2.819610 -0.000020 2.371250 
#    y -0.000020 2.490110 0.000010 
#    z 2.371250 0.000010 1.132860 
# 
# From -- ./inp_files/70819.got.cif
#   From: 2010.05.17/outbox.cif.g08.bks.cpg/sg5_36_cif.got.tgz:70819.got - 2010.06.03 18:56:24.
