data_PCOD9125057
_publ_section_title
;
Structure prediction by ZEFSAII (Michael W. Deem and Ramdas Pophale) SiO2 
 PCOD9125057
Probable space group: C 2
;
_chemical_formula_sum "Si O2"
_cell_formula_units_Z 20
_cell_length_a 29.465458
_cell_length_b 5.099766
_cell_length_c 8.457258
_cell_angle_alpha 90.000000
_cell_angle_beta 53.303937
_cell_angle_gamma 90.000000
_cell_volume 1018.985786
_symmetry_space_group_name_H-M "C 2"
_symmetry_group_IT_number 5
_symmetry_cell_setting 'monoclinic'
loop_
_space_group_symop_operation_xyz
x,y,z
-x,y,-z
1/2+x,1/2+y,z
1/2-x,1/2+y,-z
loop_
_atom_site_type_symbol
_atom_site_label
_atom_site_fract_x
_atom_site_fract_y
_atom_site_fract_z
Si Si1 0.637725 0.933200 0.430481
Si Si2 0.754474 0.639883 0.600704
Si Si3 0.215479 0.163147 0.020825
Si Si4 0.027967 0.699768 0.600536
Si Si5 0.527625 0.708917 0.778421
O O1 0.663265 0.762982 0.234415
O O2 0.594977 0.763762 0.628177
O O3 0.687798 0.052109 0.431032
O O4 0.595387 0.153132 0.449431
O O5 0.739604 0.410954 0.506931
O O6 0.711083 0.664648 0.839510
O O7 0.264071 0.377177 0.964998
O O8 0.004614 0.414086 0.696358
O O9 0.000000 0.795240 0.500000
O O10 0.016323 0.911224 0.758547
O O11 0.500000 0.778767 0.000000
#
# Coordination Sequence:
#
# PCOD9125057 Si02
#       5
#     4   4   4   4   4
#     4   9  24  41  67  83 130 164 202 238 323 351
#     4  11  23  40  61  95 127 156 205 254 293 364
#     4  10  21  39  66  86 124 165 202 246 300 365
#     4  10  22  41  65  88 120 157 211 251 298 366
#     4  10  22  41  65  88 125 160 200 259 309 350
#
# _framework density 19.627357
#
# number of rings (size 3 to 8) (size 9 to 14) (size 15 to 20)
#    1.200    0.800    0.000    3.600    8.400    0.000 
#    3.600    0.000    0.000    0.000    0.000    0.000 
#    0.000    0.000    0.000    0.000    0.000    0.000 
#
# Total GULP energy -55710.210498 kJ/mol
# GULP energy per Si atom -5571.021050 kJ/mol
# Density = 1.958268 g / cm^3
# Si number density = 19.627357 Si / 1000 Ang^3
#
#
#
# Elastic Constant Matrix: (Units=GPa)
#
#
# Indices 1 2 3 4 5 6 
#
# 1 58.0599 1.9340 28.0889 0.0000 8.3396 0.0000
# 2 1.9340 68.8256 15.1775 0.0000 -3.0027 0.0000
# 3 28.0889 15.1775 147.6361 0.0000 13.7535 0.0000
# 4 0.0000 0.0000 0.0000 38.3598 0.0000 10.3837
# 5 8.3396 -3.0027 13.7535 0.0000 13.2739 0.0000
# 6 0.0000 0.0000 0.0000 10.3837 0.0000 23.8233
#
#
#
# Elastic Compliance Matrix: (Units=1/GPa)
#
#
# Indices 1 2 3 4 5 6 
#
# 1 0.020014 -0.000352 -0.002870 0.000000 -0.009680 0.000000
# 2 -0.000352 0.015241 -0.002038 0.000000 0.005781 0.000000
# 3 -0.002870 -0.002038 0.008195 0.000000 -0.007149 0.000000
# 4 0.000000 0.000000 0.000000 0.029556 0.000000 -0.012882
# 5 -0.009680 0.005781 -0.007149 0.000000 0.090133 0.000000
# 6 0.000000 0.000000 0.000000 -0.012882 0.000000 0.047591
#
#
# Mechanical properties :
#
#
# Convention : Reuss Voigt Hill
#
# Bulk Modulus (GPa) = 30.36749 40.54692 35.45721
# Shear Modulus (GPa) = 21.53065 30.37947 25.95506
#
# Velocity S-wave (km/s) = 3.31565 3.93849 3.64042
# Velocity P-wave (km/s) = 5.49214 6.43316 5.98119
#
# Compressibility (1/GPa) = 0.03292995
#
# Stress axis : x y z
#
# Youngs Moduli (GPa) = 49.96453 65.61210 122.02585
#
# Poissons Ratio (x) = 0.02309 0.35020
# Poissons Ratio (y) = 0.01758 0.24874
# Poissons Ratio (z) = 0.14339 0.13375
#
# Static dielectric constant tensor:
#      x y z
#    x 1.648820 0.000000 -0.033280 
#    y 0.000000 1.683040 0.000000 
#    z -0.033280 0.000000 1.688250 
# 
# From -- ./inp_files/31988.got.cif
#   From: 2010.05.17/outbox.cif.g08.bks.cpg/sg5_16_cif.got.tgz:31988.got - 2010.06.03 18:56:24.
