data_PCOD9125947
_publ_section_title
;
Structure prediction by ZEFSAII (Michael W. Deem and Ramdas Pophale) SiO2 
 PCOD9125947
Probable space group: C 2
;
_chemical_formula_sum "Si O2"
_cell_formula_units_Z 28
_cell_length_a 16.662538
_cell_length_b 10.289398
_cell_length_c 17.091541
_cell_angle_alpha 90.000000
_cell_angle_beta 30.806977
_cell_angle_gamma 90.000000
_cell_volume 1500.746578
_symmetry_space_group_name_H-M "C 2"
_symmetry_group_IT_number 5
_symmetry_cell_setting 'monoclinic'
loop_
_space_group_symop_operation_xyz
x,y,z
-x,y,-z
1/2+x,1/2+y,z
1/2-x,1/2+y,-z
loop_
_atom_site_type_symbol
_atom_site_label
_atom_site_fract_x
_atom_site_fract_y
_atom_site_fract_z
Si Si1 0.796614 0.594950 0.536092
Si Si2 0.500000 0.045374 0.500000
Si Si3 0.037661 0.283856 0.802815
Si Si4 0.123265 0.844553 0.738276
Si Si5 0.293797 0.266416 0.004584
Si Si6 0.446505 0.078115 0.245956
Si Si7 0.500000 0.649774 0.000000
Si Si8 0.727597 0.418951 0.818969
O O1 0.652485 0.694789 0.653814
O O2 0.728430 0.450737 0.608350
O O3 0.914114 0.589116 0.365368
O O4 0.889406 0.628817 0.537389
O O5 0.396505 0.955587 0.643158
O O6 0.085253 0.434327 0.756467
O O7 0.860753 0.274863 0.917395
O O8 0.044704 0.231724 0.885889
O O9 0.163987 0.693460 0.693935
O O10 0.130631 0.869251 0.824700
O O11 0.945361 0.855143 0.854812
O O12 0.379006 0.125953 0.925131
O O13 0.260762 0.318285 0.119866
O O14 0.358998 0.554939 0.089743
#
# Coordination Sequence:
#
# PCOD9125947 Si02
#       8
#     4   2   4   4   4   4   2   4
#     4  11  21  42  64  92 129 169 218 266 319 391
#     4  10  22  34  70  94 116 166 228 264 308 372
#     4  12  25  38  66  98 129 169 216 270 329 376
#     4   9  20  38  66  88 122 175 213 262 317 369
#     4  10  23  37  65  93 129 166 219 258 318 379
#     4  10  24  37  60  92 133 164 205 268 329 375
#     4  12  22  40  64  90 132 164 220 262 318 376
#     4  11  19  42  68  90 124 173 225 260 307 395
#
# _framework density 18.657381000000001
#
# number of rings (size 3 to 8) (size 9 to 14) (size 15 to 20)
#    0.857    0.571    4.286    1.714    6.000    2.286 
#    0.000    0.000    0.000    3.429    0.000    0.000 
#    0.000    0.000    0.000    0.000    0.000    0.000 
#
# Total GULP energy -77948.251057 kJ/mol
# GULP energy per Si atom -5567.732218 kJ/mol
# Density = 1.861492 g / cm^3
# Si number density = 18.657381 Si / 1000 Ang^3
#
#
#
# Elastic Constant Matrix: (Units=GPa)
#
#
# Indices 1 2 3 4 5 6 
#
# 1 75.5643 30.5058 28.4425 0.0000 1.6893 0.0000
# 2 30.5058 124.0757 38.0280 0.0000 14.8699 0.0000
# 3 28.4425 38.0280 92.0264 -0.0001 12.4529 0.0000
# 4 0.0000 0.0000 -0.0001 22.0411 0.0000 8.0644
# 5 1.6893 14.8699 12.4529 0.0000 37.4630 0.0000
# 6 0.0000 0.0000 0.0000 8.0644 0.0000 22.1815
#
#
#
# Elastic Compliance Matrix: (Units=1/GPa)
#
#
# Indices 1 2 3 4 5 6 
#
# 1 0.015847 -0.002899 -0.003936 0.000000 0.001744 0.000000
# 2 -0.002899 0.009989 -0.002841 0.000000 -0.002890 0.000000
# 3 -0.003936 -0.002841 0.013696 0.000000 -0.003248 0.000000
# 4 0.000000 0.000000 0.000000 0.052331 0.000000 -0.019026
# 5 0.001744 -0.002890 -0.003248 0.000000 0.028841 0.000000
# 6 0.000000 0.000000 0.000000 -0.019026 0.000000 0.052000
#
#
# Mechanical properties :
#
#
# Convention : Reuss Voigt Hill
#
# Bulk Modulus (GPa) = 49.55144 53.95767 51.75456
# Shear Modulus (GPa) = 25.15319 29.31645 27.23482
#
# Velocity S-wave (km/s) = 3.67572 3.96827 3.82479
# Velocity P-wave (km/s) = 6.68063 7.06960 6.87787
#
# Compressibility (1/GPa) = 0.02018105
#
# Stress axis : x y z
#
# Youngs Moduli (GPa) = 63.10537 100.10638 73.01247
#
# Poissons Ratio (x) = 0.29019 0.28736
# Poissons Ratio (y) = 0.18293 0.20742
# Poissons Ratio (z) = 0.24837 0.28439
#
# Static dielectric constant tensor:
#      x y z
#    x 1.665290 0.000000 -0.009440 
#    y 0.000000 1.653140 0.000000 
#    z -0.009440 0.000000 1.703680 
# 
# From -- ./inp_files/62318.got.cif
#   From: 2010.05.17/outbox.cif.g08.bks.cpg/sg5_32_cif.got.tgz:62318.got - 2010.06.03 18:56:24.
