data_PCOD9125188
_publ_section_title
;
Structure prediction by ZEFSAII (Michael W. Deem and Ramdas Pophale) SiO2 
 PCOD9125188
Probable space group: C 2
;
_chemical_formula_sum "Si O2"
_cell_formula_units_Z 30
_cell_length_a 11.567622
_cell_length_b 9.058909
_cell_length_c 13.060163
_cell_angle_alpha 90.000000
_cell_angle_beta 55.545129
_cell_angle_gamma 90.000000
_cell_volume 1128.488660
_symmetry_space_group_name_H-M "C 2"
_symmetry_group_IT_number 5
_symmetry_cell_setting 'monoclinic'
loop_
_space_group_symop_operation_xyz
x,y,z
-x,y,-z
1/2+x,1/2+y,z
1/2-x,1/2+y,-z
loop_
_atom_site_type_symbol
_atom_site_label
_atom_site_fract_x
_atom_site_fract_y
_atom_site_fract_z
Si Si1 0.555353 0.800530 0.764536
Si Si2 0.899568 0.620260 0.958298
Si Si3 0.091337 0.042845 0.055554
Si Si4 0.791585 0.292496 0.796214
Si Si5 0.315194 0.483584 0.666903
Si Si6 0.755353 0.654694 0.500544
Si Si7 0.416776 0.333226 0.261425
Si Si8 0.000000 0.720376 0.500000
O O1 0.467873 0.705629 0.888804
O O2 0.433044 0.870898 0.758055
O O3 0.642837 0.702571 0.640301
O O4 0.665266 0.908402 0.760522
O O5 0.005556 0.686664 0.821017
O O6 0.761340 0.544201 0.976992
O O7 0.818378 0.753105 0.058897
O O8 0.000000 0.557486 0.000000
O O9 0.037980 0.950295 0.181272
O O10 0.000000 0.002958 0.000000
O O11 0.830900 0.131118 0.726970
O O12 0.704640 0.380091 0.756698
O O13 0.306900 0.549878 0.555195
O O14 0.417664 0.340686 0.613743
O O15 0.825072 0.793074 0.405064
O O16 0.891563 0.613693 0.497423
#
# Coordination Sequence:
#
# PCOD9125188 Si02
#       8
#     4   4   4   4   4   4   4   2
#     4  10  23  41  66 101 132 177 233 269 348 420
#     4   9  20  42  64  95 124 174 235 265 345 415
#     4  11  24  44  68 103 140 174 226 299 346 409
#     4   9  19  41  65  92 128 177 225 274 341 402
#     4  10  21  40  63  94 133 173 225 277 336 408
#     4  10  23  41  66 100 133 180 229 275 350 410
#     4  10  22  43  68  93 134 183 223 283 347 408
#     4  10  22  38  64  92 136 176 222 284 338 408
#
# _framework density 26.584226999999998
#
# number of rings (size 3 to 8) (size 9 to 14) (size 15 to 20)
#    0.000    2.133    0.000    2.000    7.467    3.733 
#   26.400    0.000    0.000    0.000    0.000    0.000 
#    0.000    0.000    0.000    0.000    0.000    0.000 
#
# Total GULP energy -83720.961472 kJ/mol
# GULP energy per Si atom -5581.397431 kJ/mol
# Density = 2.652372 g / cm^3
# Si number density = 26.584227 Si / 1000 Ang^3
#
#
#
# Elastic Constant Matrix: (Units=GPa)
#
#
# Indices 1 2 3 4 5 6 
#
# 1 136.7520 17.2118 37.8159 0.0000 -35.9413 0.0000
# 2 17.2118 63.3449 24.7182 0.0000 -6.6975 0.0000
# 3 37.8159 24.7182 98.9615 0.0000 -9.3681 0.0000
# 4 0.0000 0.0000 0.0000 42.5837 0.0000 -2.7066
# 5 -35.9413 -6.6975 -9.3681 0.0000 36.5156 0.0000
# 6 0.0000 0.0000 0.0000 -2.7066 0.0000 17.7168
#
#
#
# Elastic Compliance Matrix: (Units=1/GPa)
#
#
# Indices 1 2 3 4 5 6 
#
# 1 0.010793 -0.000726 -0.003023 0.000000 0.009715 0.000000
# 2 -0.000726 0.017705 -0.004002 0.000000 0.001506 0.000000
# 3 -0.003023 -0.004002 0.012205 0.000000 -0.000579 0.000000
# 4 0.000000 0.000000 0.000000 0.023713 0.000000 0.003623
# 5 0.009715 0.001506 -0.000579 0.000000 0.037075 0.000000
# 6 0.000000 0.000000 0.000000 0.003623 0.000000 0.056997
#
#
# Mechanical properties :
#
#
# Convention : Reuss Voigt Hill
#
# Bulk Modulus (GPa) = 39.68240 50.95003 45.31621
# Shear Modulus (GPa) = 27.41351 33.98405 30.69878
#
# Velocity S-wave (km/s) = 3.21471 3.57929 3.40188
# Velocity P-wave (km/s) = 5.36084 6.02402 5.70208
#
# Compressibility (1/GPa) = 0.02520009
#
# Stress axis : x y z
#
# Youngs Moduli (GPa) = 92.65165 56.48179 81.93238
#
# Poissons Ratio (x) = 0.04099 0.24772
# Poissons Ratio (y) = 0.06724 0.32792
# Poissons Ratio (z) = 0.28013 0.22606
#
# Static dielectric constant tensor:
#      x y z
#    x 2.136750 0.000000 0.072630 
#    y 0.000000 2.176500 0.000000 
#    z 0.072630 0.000000 2.102230 
# 
# From -- ./inp_files/52886.got.cif
#   From: 2010.05.17/outbox.cif.g08.bks.cpg/sg5_27_cif.got.tgz:52886.got - 2010.06.03 18:56:24.
