data_PCOD9125866
_publ_section_title
;
Structure prediction by ZEFSAII (Michael W. Deem and Ramdas Pophale) SiO2 
 PCOD9125866
Probable space group: C 2
;
_chemical_formula_sum "Si O2"
_cell_formula_units_Z 20
_cell_length_a 7.381496
_cell_length_b 15.211844
_cell_length_c 11.440828
_cell_angle_alpha 90.000000
_cell_angle_beta 141.404064
_cell_angle_gamma 90.000000
_cell_volume 801.393656
_symmetry_space_group_name_H-M "C 2"
_symmetry_group_IT_number 5
_symmetry_cell_setting 'monoclinic'
loop_
_space_group_symop_operation_xyz
x,y,z
-x,y,-z
1/2+x,1/2+y,z
1/2-x,1/2+y,-z
loop_
_atom_site_type_symbol
_atom_site_label
_atom_site_fract_x
_atom_site_fract_y
_atom_site_fract_z
Si Si1 0.727662 0.455030 0.440066
Si Si2 0.801368 0.761542 0.514946
Si Si3 0.878314 0.478647 0.790344
Si Si4 0.788043 0.312752 0.097814
Si Si5 0.831846 0.651836 0.126696
O O1 0.684650 0.350336 0.401808
O O2 0.000000 0.485815 0.500000
O O3 0.804137 0.469201 0.614446
O O4 0.403806 0.492590 0.271405
O O5 0.479998 0.767283 0.297360
O O6 0.000000 0.771975 0.500000
O O7 0.935293 0.680301 0.654572
O O8 0.028942 0.384239 0.882146
O O9 0.068684 0.564963 0.888371
O O10 0.500000 0.360240 0.000000
O O11 0.682651 0.234638 0.964632
O O12 0.500000 0.638988 0.000000
#
# Coordination Sequence:
#
# PCOD9125866 Si02
#       5
#     4   4   4   4   4
#     4  10  21  44  77 106 139 209 247 300 389 436
#     4  11  22  47  76 105 151 193 252 311 366 452
#     4  10  23  47  70 108 159 184 254 320 356 458
#     4  11  25  47  71 108 156 194 249 311 373 447
#     4  12  25  45  76 109 148 203 248 309 383 438
#
# _framework density 24.956524000000002
#
# number of rings (size 3 to 8) (size 9 to 14) (size 15 to 20)
#    0.000    1.200    6.000    0.600    5.600    4.000 
#    3.600    3.000    0.000    0.000    0.000    0.000 
#    0.000    0.000    0.000    0.000    0.000    0.000 
#
# Total GULP energy -55933.797418 kJ/mol
# GULP energy per Si atom -5593.379742 kJ/mol
# Density = 2.489972 g / cm^3
# Si number density = 24.956524 Si / 1000 Ang^3
#
#
#
# Elastic Constant Matrix: (Units=GPa)
#
#
# Indices 1 2 3 4 5 6 
#
# 1 172.0623 29.0322 57.4301 0.0007 34.1395 0.0002
# 2 29.0322 119.9740 51.4453 -0.0004 3.0506 -0.0003
# 3 57.4301 51.4453 142.3678 0.0016 8.8490 0.0015
# 4 0.0007 -0.0004 0.0016 16.8924 0.0009 -10.8405
# 5 34.1395 3.0506 8.8490 0.0009 38.7881 0.0006
# 6 0.0002 -0.0003 0.0015 -10.8405 0.0006 13.6244
#
#
#
# Elastic Compliance Matrix: (Units=1/GPa)
#
#
# Indices 1 2 3 4 5 6 
#
# 1 0.008080 -0.000669 -0.002616 0.000001 -0.006462 0.000001
# 2 -0.000669 0.009919 -0.003350 0.000002 0.000573 0.000002
# 3 -0.002616 -0.003350 0.009262 -0.000003 0.000453 -0.000004
# 4 0.000001 0.000002 -0.000003 0.120963 -0.000005 0.096246
# 5 -0.006462 0.000573 0.000453 -0.000005 0.031321 -0.000005
# 6 0.000001 0.000002 -0.000004 0.096246 -0.000005 0.149978
#
#
# Mechanical properties :
#
#
# Convention : Reuss Voigt Hill
#
# Bulk Modulus (GPa) = 71.47693 78.91325 75.19509
# Shear Modulus (GPa) = 14.39031 33.62740 24.00886
#
# Velocity S-wave (km/s) = 2.40389 3.67473 3.10502
# Velocity P-wave (km/s) = 6.03387 7.04938 6.56130
#
# Compressibility (1/GPa) = 0.01399053
#
# Stress axis : x y z
#
# Youngs Moduli (GPa) = 123.76051 100.81682 107.97180
#
# Poissons Ratio (x) = 0.06747 0.28245
# Poissons Ratio (y) = 0.08282 0.36170
# Poissons Ratio (z) = 0.32375 0.33773
#
# Static dielectric constant tensor:
#      x y z
#    x 1.996560 0.000000 0.010810 
#    y 0.000000 1.907040 0.000000 
#    z 0.010810 0.000000 2.098980 
# 
# From -- ./inp_files/37030.got.cif
#   From: 2010.05.17/outbox.cif.g08.bks.cpg/sg5_19_cif.got.tgz:37030.got - 2010.06.03 18:56:24.
