data_PCOD9125178
_publ_section_title
;
Structure prediction by ZEFSAII (Michael W. Deem and Ramdas Pophale) SiO2 
 PCOD9125178
Probable space group: C 2
;
_chemical_formula_sum "Si O2"
_cell_formula_units_Z 22
_cell_length_a 23.664216
_cell_length_b 5.030322
_cell_length_c 8.210367
_cell_angle_alpha 90.000000
_cell_angle_beta 88.772191
_cell_angle_gamma 90.000000
_cell_volume 977.126411
_symmetry_space_group_name_H-M "C 2"
_symmetry_group_IT_number 5
_symmetry_cell_setting 'monoclinic'
loop_
_space_group_symop_operation_xyz
x,y,z
-x,y,-z
1/2+x,1/2+y,z
1/2-x,1/2+y,-z
loop_
_atom_site_type_symbol
_atom_site_label
_atom_site_fract_x
_atom_site_fract_y
_atom_site_fract_z
Si Si1 0.278330 0.052950 0.944997
Si Si2 0.388288 0.785343 0.099347
Si Si3 0.105633 0.780352 0.668966
Si Si4 0.153456 0.775252 0.337350
Si Si5 0.576717 0.778886 0.245200
Si Si6 0.000000 0.547707 0.500000
O O1 0.330345 0.878895 0.013783
O O2 0.266618 0.310738 0.060670
O O3 0.291529 0.204871 0.773483
O O4 0.389460 0.520297 0.205622
O O5 0.396839 0.017148 0.225808
O O6 0.432260 0.768917 0.947473
O O7 0.155893 0.788140 0.532216
O O8 0.048328 0.744218 0.566727
O O9 0.114738 0.529256 0.290114
O O10 0.117020 0.030140 0.284781
O O11 0.522492 0.847872 0.357503
#
# Coordination Sequence:
#
# PCOD9125178 Si02
#       6
#     4   4   4   4   4   2
#     4  11  22  41  70  97 124 168 221 260 321 403
#     4  11  23  41  65  95 129 166 209 279 322 360
#     4  11  23  41  64  93 134 168 215 262 320 375
#     4  10  21  40  64  90 128 172 201 264 334 376
#     4  10  21  40  63  90 128 169 218 258 318 375
#     4  10  24  42  64  94 130 186 220 250 306 396
#
# _framework density 22.515000000000001
#
# number of rings (size 3 to 8) (size 9 to 14) (size 15 to 20)
#    0.000    1.455    0.000    7.636    0.000    7.273 
#    0.000    7.273    0.000    2.182    0.000    0.000 
#    0.000    0.000    0.000    0.000    0.000    0.000 
#
# Total GULP energy -61321.511534 kJ/mol
# GULP energy per Si atom -5574.682867 kJ/mol
# Density = 2.246376 g / cm^3
# Si number density = 22.515000 Si / 1000 Ang^3
#
#
#
# Elastic Constant Matrix: (Units=GPa)
#
#
# Indices 1 2 3 4 5 6 
#
# 1 45.3792 24.0288 32.0577 0.0000 -18.0446 0.0000
# 2 24.0288 231.1891 92.6240 0.0000 -23.9162 0.0000
# 3 32.0577 92.6240 215.1100 0.0000 -42.0709 0.0000
# 4 0.0000 0.0000 0.0000 53.7787 0.0000 5.1056
# 5 -18.0446 -23.9162 -42.0709 0.0000 39.0017 0.0000
# 6 0.0000 0.0000 0.0000 5.1056 0.0000 37.9081
#
#
#
# Elastic Compliance Matrix: (Units=1/GPa)
#
#
# Indices 1 2 3 4 5 6 
#
# 1 0.027965 -0.001177 -0.001611 0.000000 0.010478 0.000000
# 2 -0.001177 0.005307 -0.002002 0.000000 0.000550 0.000000
# 3 -0.001611 -0.002002 0.006800 0.000000 0.005361 0.000000
# 4 0.000000 0.000000 0.000000 0.018836 0.000000 -0.002537
# 5 0.010478 0.000550 0.005361 0.000000 0.036608 0.000000
# 6 0.000000 0.000000 0.000000 -0.002537 0.000000 0.026721
#
#
# Mechanical properties :
#
#
# Convention : Reuss Voigt Hill
#
# Bulk Modulus (GPa) = 32.79755 87.67770 60.23763
# Shear Modulus (GPa) = 35.21608 49.00224 42.10916
#
# Velocity S-wave (km/s) = 3.95918 4.67028 4.32936
# Velocity P-wave (km/s) = 5.95808 8.25278 7.19747
#
# Compressibility (1/GPa) = 0.03049008
#
# Stress axis : x y z
#
# Youngs Moduli (GPa) = 35.75940 188.43725 147.06764
#
# Poissons Ratio (x) = 0.22178 0.23699
# Poissons Ratio (y) = 0.04209 0.29444
# Poissons Ratio (z) = 0.05763 0.37727
#
# Static dielectric constant tensor:
#      x y z
#    x 2.023730 0.000000 -0.108940 
#    y 0.000000 1.770320 0.000000 
#    z -0.108940 0.000000 1.925790 
# 
# From -- ./inp_files/31214.got.cif
#   From: 2010.05.17/outbox.cif.g08.bks.cpg/sg5_16_cif.got.tgz:31214.got - 2010.06.03 18:56:24.
