data_PCOD9125359
_publ_section_title
;
Structure prediction by ZEFSAII (Michael W. Deem and Ramdas Pophale) SiO2 
 PCOD9125359
Probable space group: C 2
;
_chemical_formula_sum "Si O2"
_cell_formula_units_Z 32
_cell_length_a 14.868443
_cell_length_b 9.175706
_cell_length_c 23.755882
_cell_angle_alpha 90.000000
_cell_angle_beta 28.950057
_cell_angle_gamma 90.000000
_cell_volume 1568.786073
_symmetry_space_group_name_H-M "C 2"
_symmetry_group_IT_number 5
_symmetry_cell_setting 'monoclinic'
loop_
_space_group_symop_operation_xyz
x,y,z
-x,y,-z
1/2+x,1/2+y,z
1/2-x,1/2+y,-z
loop_
_atom_site_type_symbol
_atom_site_label
_atom_site_fract_x
_atom_site_fract_y
_atom_site_fract_z
Si Si1 0.376331 0.479130 0.697272
Si Si2 0.907672 0.718898 0.109002
Si Si3 0.656626 0.592125 0.461128
Si Si4 0.027340 0.760812 0.255476
Si Si5 0.678027 0.360987 0.053205
Si Si6 0.297730 0.299367 0.626922
Si Si7 0.498756 0.662429 0.146844
Si Si8 0.314364 0.530216 0.139676
O O1 0.209333 0.590100 0.800092
O O2 0.553506 0.567899 0.576630
O O3 0.422957 0.384645 0.726435
O O4 0.323811 0.373625 0.674029
O O5 0.062275 0.788490 0.065531
O O6 0.778337 0.858927 0.166204
O O7 0.000000 0.670144 0.000000
O O8 0.500000 0.627814 0.500000
O O9 0.734693 0.434308 0.397718
O O10 0.814620 0.712125 0.375301
O O11 0.086286 0.809069 0.161250
O O12 0.149325 0.618661 0.202679
O O13 0.650934 0.534307 0.067585
O O14 0.888418 0.306238 0.932499
O O15 0.500000 0.234367 0.500000
O O16 0.124776 0.192249 0.730246
O O17 0.363253 0.604160 0.172325
O O18 0.500000 0.543471 0.000000
#
# Coordination Sequence:
#
# PCOD9125359 Si02
#       8
#     4   4   4   4   4   4   4   4
#     4  10  22  41  66  95 122 164 224 265 319 385
#     4  10  24  42  64  93 133 170 208 266 327 391
#     4   9  22  43  66  89 127 174 215 270 326 388
#     4  12  23  41  68  96 127 170 216 265 326 389
#     4  11  26  39  63 102 131 174 211 267 335 380
#     4   9  20  42  67  88 124 178 216 267 324 381
#     4  11  23  40  64  96 136 164 222 270 319 396
#     4  10  21  41  62  94 132 164 204 263 328 383
#
# _framework density 20.397938
#
# number of rings (size 3 to 8) (size 9 to 14) (size 15 to 20)
#    0.000    2.000    2.500    1.500    5.250    1.500 
#    4.500    3.125    0.000    0.000    0.000    0.000 
#    0.000    0.000    0.000    0.000    0.000    0.000 
#
# Total GULP energy -89379.918109 kJ/mol
# GULP energy per Si atom -5586.244882 kJ/mol
# Density = 2.035151 g / cm^3
# Si number density = 20.397938 Si / 1000 Ang^3
#
#
#
# Elastic Constant Matrix: (Units=GPa)
#
#
# Indices 1 2 3 4 5 6 
#
# 1 37.3061 6.8884 13.0283 0.0000 13.9559 0.0000
# 2 6.8884 61.2539 43.0960 -0.0002 -7.0781 -0.0001
# 3 13.0283 43.0960 111.7145 -0.0005 14.1734 -0.0001
# 4 0.0000 -0.0002 -0.0005 34.7235 -0.0004 -0.4107
# 5 13.9559 -7.0781 14.1734 -0.0004 31.2870 0.0000
# 6 0.0000 -0.0001 -0.0001 -0.4107 0.0000 22.8734
#
#
#
# Elastic Compliance Matrix: (Units=1/GPa)
#
#
# Indices 1 2 3 4 5 6 
#
# 1 0.034046 -0.006149 0.000536 0.000000 -0.016820 0.000000
# 2 -0.006149 0.026562 -0.011289 0.000000 0.013866 0.000000
# 3 0.000536 -0.011289 0.014427 0.000000 -0.009329 0.000000
# 4 0.000000 0.000000 0.000000 0.028805 0.000000 0.000517
# 5 -0.016820 0.013866 -0.009329 0.000000 0.046828 0.000000
# 6 0.000000 0.000000 0.000000 0.000517 0.000000 0.043728
#
#
# Mechanical properties :
#
#
# Convention : Reuss Voigt Hill
#
# Bulk Modulus (GPa) = 24.25397 37.36665 30.81031
# Shear Modulus (GPa) = 20.66595 27.59424 24.13010
#
# Velocity S-wave (km/s) = 3.18644 3.68203 3.44316
# Velocity P-wave (km/s) = 5.04520 6.03614 5.56278
#
# Compressibility (1/GPa) = 0.04123036
#
# Stress axis : x y z
#
# Youngs Moduli (GPa) = 29.37209 37.64838 69.31320
#
# Poissons Ratio (x) = 0.23151 -0.03713
# Poissons Ratio (y) = 0.18062 0.78245
# Poissons Ratio (z) = -0.01574 0.42500
#
# Static dielectric constant tensor:
#      x y z
#    x 1.730190 0.000000 -0.009880 
#    y 0.000000 1.741980 0.000000 
#    z -0.009880 0.000000 1.728290 
# 
# From -- ./inp_files/68747.got.cif
#   From: 2010.05.17/outbox.cif.g08.bks.cpg/sg5_35_cif.got.tgz:68747.got - 2010.06.03 18:56:24.
