data_PCOD9125520
_publ_section_title
;
Structure prediction by ZEFSAII (Michael W. Deem and Ramdas Pophale) SiO2 
 PCOD9125520
Probable space group: C 2
;
_chemical_formula_sum "Si O2"
_cell_formula_units_Z 28
_cell_length_a 9.040838
_cell_length_b 19.023843
_cell_length_c 8.777814
_cell_angle_alpha 90.000000
_cell_angle_beta 45.171561
_cell_angle_gamma 90.000000
_cell_volume 1070.717351
_symmetry_space_group_name_H-M "C 2"
_symmetry_group_IT_number 5
_symmetry_cell_setting 'monoclinic'
loop_
_space_group_symop_operation_xyz
x,y,z
-x,y,-z
1/2+x,1/2+y,z
1/2-x,1/2+y,-z
loop_
_atom_site_type_symbol
_atom_site_label
_atom_site_fract_x
_atom_site_fract_y
_atom_site_fract_z
Si Si1 0.068020 0.352300 0.280991
Si Si2 0.062924 0.787278 0.190774
Si Si3 0.264777 0.683511 0.732395
Si Si4 0.717120 0.876888 0.748568
Si Si5 0.770089 0.003517 0.093643
Si Si6 0.225977 0.033098 0.272178
Si Si7 0.271401 0.657111 0.095868
O O1 0.263596 0.312513 0.061107
O O2 0.141168 0.433884 0.223349
O O3 0.000000 0.338114 0.500000
O O4 0.855077 0.333971 0.345197
O O5 0.120741 0.744741 0.763319
O O6 0.087912 0.854731 0.287491
O O7 0.149404 0.725611 0.236511
O O8 0.500000 0.690876 0.500000
O O9 0.166054 0.606457 0.761096
O O10 0.282602 0.670290 0.903296
O O11 0.716107 0.958233 0.701068
O O12 0.500000 0.869302 0.000000
O O13 0.691352 0.080273 0.202764
O O14 0.777752 0.015015 0.904907
O O15 0.000000 0.993502 0.000000
O O16 0.000000 0.046337 0.500000
O O17 0.500000 0.660984 0.000000
#
# Coordination Sequence:
#
# PCOD9125520 Si02
#       7
#     4   4   4   4   4   4   4
#     4  11  25  45  74 113 160 208 268 321 402 484
#     4  11  23  46  74 109 155 211 260 330 413 459
#     4  10  24  45  74 111 150 211 271 325 390 484
#     4  10  21  43  72 109 154 202 256 328 402 472
#     4  10  22  41  67 106 152 210 260 326 382 463
#     4  10  21  41  72 108 149 201 268 321 389 471
#     4  10  22  44  71 104 154 205 261 319 391 465
#
# _framework density 26.150693
#
# number of rings (size 3 to 8) (size 9 to 14) (size 15 to 20)
#    0.000    1.714    2.857    1.714    4.000    1.714 
#    0.000    6.429    0.000    5.143    0.000    0.000 
#    0.000    0.000    0.000    0.000    0.000    0.000 
#
# Total GULP energy -78057.173874 kJ/mol
# GULP energy per Si atom -5575.512420 kJ/mol
# Density = 2.609117 g / cm^3
# Si number density = 26.150693 Si / 1000 Ang^3
#
#
#
# Elastic Constant Matrix: (Units=GPa)
#
#
# Indices 1 2 3 4 5 6 
#
# 1 182.0975 70.1119 31.7157 0.0000 -11.9029 0.0000
# 2 70.1119 217.3056 33.4119 0.0000 12.3822 0.0000
# 3 31.7157 33.4119 98.0644 0.0000 -17.2989 0.0000
# 4 0.0000 0.0000 0.0000 45.4086 0.0000 -6.3285
# 5 -11.9029 12.3822 -17.2989 0.0000 19.2044 0.0000
# 6 0.0000 0.0000 0.0000 -6.3285 0.0000 42.5679
#
#
#
# Elastic Compliance Matrix: (Units=1/GPa)
#
#
# Indices 1 2 3 4 5 6 
#
# 1 0.006871 -0.002464 -0.000417 0.000000 0.005472 0.000000
# 2 -0.002464 0.006282 -0.002767 0.000000 -0.008071 0.000000
# 3 -0.000417 -0.002767 0.013725 0.000000 0.013889 0.000000
# 4 0.000000 0.000000 0.000000 0.022488 0.000000 0.003343
# 5 0.005472 -0.008071 0.013889 0.000000 0.073177 0.000000
# 6 0.000000 0.000000 0.000000 0.003343 0.000000 0.023989
#
#
# Mechanical properties :
#
#
# Convention : Reuss Voigt Hill
#
# Bulk Modulus (GPa) = 64.18218 85.32741 74.75479
# Shear Modulus (GPa) = 30.67043 45.58470 38.12757
#
# Velocity S-wave (km/s) = 3.42838 4.17964 3.82251
# Velocity P-wave (km/s) = 6.34573 7.48281 6.93760
#
# Compressibility (1/GPa) = 0.01558065
#
# Stress axis : x y z
#
# Youngs Moduli (GPa) = 145.54449 159.17837 72.85898
#
# Poissons Ratio (x) = 0.39228 0.03040
# Poissons Ratio (y) = 0.35868 0.20161
# Poissons Ratio (z) = 0.06073 0.44046
#
# Static dielectric constant tensor:
#      x y z
#    x 2.064560 0.000000 -0.032180 
#    y 0.000000 2.234300 0.000000 
#    z -0.032180 0.000000 2.096710 
# 
# From -- ./inp_files/21581.got.cif
#   From: 2010.05.17/outbox.cif.g08.bks.cpg/sg5_11_cif.got.tgz:21581.got - 2010.06.03 18:56:24.
