data_PCOD9125905
_publ_section_title
;
Structure prediction by ZEFSAII (Michael W. Deem and Ramdas Pophale) SiO2 
 PCOD9125905
Probable space group: C 2
;
_chemical_formula_sum "Si O2"
_cell_formula_units_Z 20
_cell_length_a 5.064650
_cell_length_b 28.343259
_cell_length_c 5.284733
_cell_angle_alpha 90.000000
_cell_angle_beta 93.648508
_cell_angle_gamma 90.000000
_cell_volume 757.078926
_symmetry_space_group_name_H-M "C 2"
_symmetry_group_IT_number 5
_symmetry_cell_setting 'monoclinic'
loop_
_space_group_symop_operation_xyz
x,y,z
-x,y,-z
1/2+x,1/2+y,z
1/2-x,1/2+y,-z
loop_
_atom_site_type_symbol
_atom_site_label
_atom_site_fract_x
_atom_site_fract_y
_atom_site_fract_z
Si Si1 0.837025 0.226540 0.241871
Si Si2 0.500000 0.163726 0.500000
Si Si3 0.273687 0.387883 0.170812
Si Si4 0.725126 0.593851 0.823678
Si Si5 0.000000 0.317614 0.500000
Si Si6 0.680441 0.990777 0.261528
O O1 0.554122 0.201795 0.274799
O O2 0.000000 0.209331 0.500000
O O3 0.854183 0.282703 0.292140
O O4 0.000000 0.216094 0.000000
O O5 0.283215 0.125192 0.581196
O O6 0.212747 0.351658 0.387781
O O7 0.334208 0.441401 0.261104
O O8 0.500000 0.371305 0.000000
O O9 0.000000 0.390306 0.000000
O O10 0.663914 0.539852 0.746699
O O11 0.500000 0.611427 0.000000
O O12 0.000000 0.595180 0.000000
O O13 0.500000 0.991377 0.500000
O O14 0.500000 0.991087 0.000000
#
# Coordination Sequence:
#
# PCOD9125905 Si02
#       6
#     4   2   4   4   2   4
#     4  10  26  46  69  99 140 186 237 305 363 428
#     4  12  26  43  76  98 146 187 250 294 374 420
#     4  11  24  44  73 106 148 190 240 293 361 432
#     4  11  26  45  72 107 149 191 243 296 360 432
#     4  10  24  45  72 102 142 183 248 294 370 422
#     4  10  21  46  70 109 149 193 236 296 356 431
#
# _framework density 26.417325000000002
#
# number of rings (size 3 to 8) (size 9 to 14) (size 15 to 20)
#    0.600    0.800    2.000    1.800    5.600    4.000 
#    0.000    4.000    0.000    0.000    0.000    0.000 
#    0.000    0.000    0.000    0.000    0.000    0.000 
#
# Total GULP energy -55908.856695 kJ/mol
# GULP energy per Si atom -5590.885670 kJ/mol
# Density = 2.635720 g / cm^3
# Si number density = 26.417325 Si / 1000 Ang^3
#
#
#
# Elastic Constant Matrix: (Units=GPa)
#
#
# Indices 1 2 3 4 5 6 
#
# 1 137.2638 38.5208 78.0352 0.0000 -33.5420 0.0000
# 2 38.5208 245.4468 66.2412 0.0000 -47.3538 0.0000
# 3 78.0352 66.2412 223.6261 0.0000 -60.9110 0.0000
# 4 0.0000 0.0000 0.0000 82.5141 0.0000 -62.3973
# 5 -33.5420 -47.3538 -60.9110 0.0000 84.3299 0.0000
# 6 0.0000 0.0000 0.0000 -62.3973 0.0000 36.8389
#
#
#
# Elastic Compliance Matrix: (Units=1/GPa)
#
#
# Indices 1 2 3 4 5 6 
#
# 1 0.009317 -0.000441 -0.002712 0.000000 0.001499 0.000000
# 2 -0.000441 0.004713 -0.000708 0.000000 0.001959 0.000000
# 3 -0.002712 -0.000708 0.006506 0.000000 0.003223 0.000000
# 4 0.000000 0.000000 0.000000 -0.043152 0.000000 -0.073091
# 5 0.001499 0.001959 0.003223 0.000000 0.015882 0.000000
# 6 0.000000 0.000000 0.000000 -0.073091 0.000000 -0.096655
#
#
# Mechanical properties :
#
#
# Convention : Reuss Voigt Hill
#
# Bulk Modulus (GPa) = 78.05062 107.99234 93.02148
# Shear Modulus (GPa) = -54.70726 68.97253 7.13264
#
# Velocity S-wave (km/s) = -4.55564 5.11522 1.64495
# Velocity P-wave (km/s) = 1.39199 8.70950 6.23671
#
# Compressibility (1/GPa) = 0.01281220
#
# Stress axis : x y z
#
# Youngs Moduli (GPa) = 107.32686 212.19789 153.70882
#
# Poissons Ratio (x) = 0.09359 0.41691
# Poissons Ratio (y) = 0.04734 0.10889
# Poissons Ratio (z) = 0.29111 0.15032
#
# Static dielectric constant tensor:
#      x y z
#    x 2.285040 0.000000 0.156290 
#    y 0.000000 2.071330 0.000000 
#    z 0.156290 0.000000 2.047720 
# 
# From -- ./inp_files/1265.got.cif
#   From: 2010.05.17/outbox.cif.g08.bks.cpg/sg5_1_cif.got.tgz:1265.got - 2010.06.03 18:56:24.
