data_PCOD9125590
_publ_section_title
;
Structure prediction by ZEFSAII (Michael W. Deem and Ramdas Pophale) SiO2 
 PCOD9125590
Probable space group: C 2
;
_chemical_formula_sum "Si O2"
_cell_formula_units_Z 28
_cell_length_a 11.177777
_cell_length_b 13.363455
_cell_length_c 9.669280
_cell_angle_alpha 90.000000
_cell_angle_beta 107.360856
_cell_angle_gamma 90.000000
_cell_volume 1378.538726
_symmetry_space_group_name_H-M "C 2"
_symmetry_group_IT_number 5
_symmetry_cell_setting 'monoclinic'
loop_
_space_group_symop_operation_xyz
x,y,z
-x,y,-z
1/2+x,1/2+y,z
1/2-x,1/2+y,-z
loop_
_atom_site_type_symbol
_atom_site_label
_atom_site_fract_x
_atom_site_fract_y
_atom_site_fract_z
Si Si1 0.796326 0.083050 0.165941
Si Si2 0.135577 0.364608 0.438123
Si Si3 0.913541 0.575825 0.670563
Si Si4 0.956654 0.964518 0.824028
Si Si5 0.109301 0.304287 0.747118
Si Si6 0.396154 0.302507 0.576235
Si Si7 0.198168 0.519899 0.837130
O O1 0.686755 0.059493 0.239262
O O2 0.836192 0.198858 0.192294
O O3 0.927044 0.020077 0.211826
O O4 0.736780 0.063535 0.996814
O O5 0.111653 0.482629 0.438794
O O6 0.124590 0.318468 0.587347
O O7 0.276509 0.343560 0.454530
O O8 0.040576 0.317555 0.294701
O O9 0.885005 0.685373 0.604694
O O10 0.063134 0.567249 0.752278
O O11 0.824475 0.026283 0.786304
O O12 0.923872 0.864764 0.725912
O O13 0.000000 0.947617 0.000000
O O14 0.173043 0.400201 0.838458
O O15 0.500000 0.317867 0.500000
#
# Coordination Sequence:
#
# PCOD9125590 Si02
#       7
#     4   4   4   4   4   4   4
#     4  11  22  42  67  99 125 177 219 268 333 398
#     4  10  22  42  62  90 131 172 214 263 329 401
#     4  11  24  40  66  95 132 170 221 269 334 389
#     4  10  23  44  65  95 138 172 217 277 332 396
#     4  10  21  42  66  89 127 177 211 263 333 395
#     4  12  25  40  66 103 129 172 221 283 331 387
#     4  10  22  41  68  92 130 172 216 271 327 397
#
# _framework density 20.311364000000001
#
# number of rings (size 3 to 8) (size 9 to 14) (size 15 to 20)
#    0.000    1.429    2.857    1.286    4.000    5.714 
#    2.571    8.571    0.000    0.000    0.000    0.000 
#    0.000    0.000    0.000    0.000    0.000    0.000 
#
# Total GULP energy -78073.415860 kJ/mol
# GULP energy per Si atom -5576.672561 kJ/mol
# Density = 2.026513 g / cm^3
# Si number density = 20.311364 Si / 1000 Ang^3
#
#
#
# Elastic Constant Matrix: (Units=GPa)
#
#
# Indices 1 2 3 4 5 6 
#
# 1 173.7715 30.9993 40.8133 0.0000 5.9116 0.0000
# 2 30.9993 88.6985 32.2152 0.0000 22.3563 0.0000
# 3 40.8133 32.2152 54.2520 0.0000 9.0040 0.0000
# 4 0.0000 0.0000 0.0000 25.0797 0.0000 -1.7686
# 5 5.9116 22.3563 9.0040 0.0000 31.0207 0.0000
# 6 0.0000 0.0000 0.0000 -1.7686 0.0000 24.9064
#
#
#
# Elastic Compliance Matrix: (Units=1/GPa)
#
#
# Indices 1 2 3 4 5 6 
#
# 1 0.007034 -0.000855 -0.004900 0.000000 0.000698 0.000000
# 2 -0.000855 0.016835 -0.007740 0.000000 -0.009723 0.000000
# 3 -0.004900 -0.007740 0.026932 0.000000 -0.001305 0.000000
# 4 0.000000 0.000000 0.000000 0.040074 0.000000 0.002846
# 5 0.000698 -0.009723 -0.001305 0.000000 0.039490 0.000000
# 6 0.000000 0.000000 0.000000 0.002846 0.000000 0.040352
#
#
# Mechanical properties :
#
#
# Convention : Reuss Voigt Hill
#
# Bulk Modulus (GPa) = 41.99723 58.30862 50.15292
# Shear Modulus (GPa) = 24.31402 30.38096 27.34749
#
# Velocity S-wave (km/s) = 3.46362 3.87170 3.67333
# Velocity P-wave (km/s) = 6.05947 6.98259 6.53734
#
# Compressibility (1/GPa) = 0.02381109
#
# Stress axis : x y z
#
# Youngs Moduli (GPa) = 142.16086 59.40138 37.13117
#
# Poissons Ratio (x) = 0.05076 0.18195
# Poissons Ratio (y) = 0.12148 0.28739
# Poissons Ratio (z) = 0.69662 0.45977
#
# Static dielectric constant tensor:
#      x y z
#    x 1.354140 0.000000 -0.095770 
#    y 0.000000 1.695360 0.000000 
#    z -0.095770 0.000000 1.688160 
# 
# From -- ./inp_files/20415.got.cif
#   From: 2010.05.17/outbox.cif.g08.bks.cpg/sg5_11_cif.got.tgz:20415.got - 2010.06.03 18:56:24.
