data_PCOD9125837
_publ_section_title
;
Structure prediction by ZEFSAII (Michael W. Deem and Ramdas Pophale) SiO2 
 PCOD9125837
Probable space group: C 2
;
_chemical_formula_sum "Si O2"
_cell_formula_units_Z 28
_cell_length_a 14.231356
_cell_length_b 7.784156
_cell_length_c 12.986344
_cell_angle_alpha 90.000000
_cell_angle_beta 64.695137
_cell_angle_gamma 90.000000
_cell_volume 1300.574927
_symmetry_space_group_name_H-M "C 2"
_symmetry_group_IT_number 5
_symmetry_cell_setting 'monoclinic'
loop_
_space_group_symop_operation_xyz
x,y,z
-x,y,-z
1/2+x,1/2+y,z
1/2-x,1/2+y,-z
loop_
_atom_site_type_symbol
_atom_site_label
_atom_site_fract_x
_atom_site_fract_y
_atom_site_fract_z
Si Si1 0.432568 0.704070 0.748199
Si Si2 0.863610 0.011688 0.400605
Si Si3 0.572467 0.178509 0.753106
Si Si4 0.534050 0.015871 0.377163
Si Si5 0.802100 0.765435 0.616434
Si Si6 0.231571 0.490575 0.823628
Si Si7 0.573815 0.946766 0.063285
O O1 0.539189 0.642524 0.645859
O O2 0.393266 0.875790 0.709217
O O3 0.347723 0.558469 0.779473
O O4 0.444870 0.781469 0.856465
O O5 0.901384 0.865933 0.301544
O O6 0.835473 0.914407 0.520403
O O7 0.763504 0.118861 0.410802
O O8 0.560379 0.061925 0.655196
O O9 0.659523 0.124622 0.794351
O O10 0.464127 0.119808 0.859091
O O11 0.500000 0.937369 0.500000
O O12 0.404486 0.185965 0.620503
O O13 0.733361 0.832722 0.743622
O O14 0.185781 0.458310 0.958181
O O15 0.500000 0.929810 0.000000
#
# Coordination Sequence:
#
# PCOD9125837 Si02
#       7
#     4   4   4   4   4   4   4
#     4  11  26  41  70  99 134 176 221 271 329 398
#     4  12  25  43  65 100 130 176 222 271 333 392
#     4  10  21  44  68  96 131 171 223 269 327 386
#     4  11  23  41  64  96 130 175 213 271 325 386
#     4  12  26  40  67  96 135 175 218 277 328 397
#     4  11  24  44  68 102 133 177 219 270 333 389
#     4   9  21  45  70  94 134 175 220 278 323 386
#
# _framework density 21.528939000000001
#
# number of rings (size 3 to 8) (size 9 to 14) (size 15 to 20)
#    0.000    1.143    1.429    5.143    4.000    3.429 
#    0.000    7.857    0.000    0.000    0.000    0.000 
#    0.000    0.000    0.000    0.000    0.000    0.000 
#
# Total GULP energy -78119.079057 kJ/mol
# GULP energy per Si atom -5579.934218 kJ/mol
# Density = 2.147994 g / cm^3
# Si number density = 21.528939 Si / 1000 Ang^3
#
#
#
# Elastic Constant Matrix: (Units=GPa)
#
#
# Indices 1 2 3 4 5 6 
#
# 1 44.2283 10.8885 28.9149 0.0000 -2.3264 0.0000
# 2 10.8885 74.7258 37.6550 0.0000 5.3451 0.0000
# 3 28.9149 37.6550 124.9038 0.0000 6.9064 0.0000
# 4 0.0000 0.0000 0.0000 33.9989 0.0000 5.4397
# 5 -2.3264 5.3451 6.9064 0.0000 30.8563 0.0000
# 6 0.0000 0.0000 0.0000 5.4397 0.0000 30.8783
#
#
#
# Elastic Compliance Matrix: (Units=1/GPa)
#
#
# Indices 1 2 3 4 5 6 
#
# 1 0.027084 -0.001114 -0.006134 0.000000 0.003608 0.000000
# 2 -0.001114 0.015913 -0.004437 0.000000 -0.001847 0.000000
# 3 -0.006134 -0.004437 0.010882 0.000000 -0.002129 0.000000
# 4 0.000000 0.000000 0.000000 0.030266 0.000000 -0.005332
# 5 0.003608 -0.001847 -0.002129 0.000000 0.033477 0.000000
# 6 0.000000 0.000000 0.000000 -0.005332 0.000000 0.033325
#
#
# Mechanical properties :
#
#
# Convention : Reuss Voigt Hill
#
# Bulk Modulus (GPa) = 32.77733 44.30828 38.54281
# Shear Modulus (GPa) = 27.10263 30.24000 28.67131
#
# Velocity S-wave (km/s) = 3.55194 3.75189 3.65328
# Velocity P-wave (km/s) = 5.66388 6.27650 5.97804
#
# Compressibility (1/GPa) = 0.03050889
#
# Stress axis : x y z
#
# Youngs Moduli (GPa) = 36.92240 62.84304 91.89905
#
# Poissons Ratio (x) = 0.06999 0.56367
# Poissons Ratio (y) = 0.04112 0.40778
# Poissons Ratio (z) = 0.22647 0.27885
#
# Static dielectric constant tensor:
#      x y z
#    x 1.774210 0.000000 -0.014400 
#    y 0.000000 1.795460 0.000000 
#    z -0.014400 0.000000 1.889820 
# 
# From -- ./inp_files/54119.got.cif
#   From: 2010.05.17/outbox.cif.g08.bks.cpg/sg5_28_cif.got.tgz:54119.got - 2010.06.03 18:56:24.
