data_PCOD9125663
_publ_section_title
;
Structure prediction by ZEFSAII (Michael W. Deem and Ramdas Pophale) SiO2 
 PCOD9125663
Probable space group: C 2
;
_chemical_formula_sum "Si O2"
_cell_formula_units_Z 20
_cell_length_a 19.601701
_cell_length_b 8.682157
_cell_length_c 7.987389
_cell_angle_alpha 90.000000
_cell_angle_beta 38.766874
_cell_angle_gamma 90.000000
_cell_volume 851.151335
_symmetry_space_group_name_H-M "C 2"
_symmetry_group_IT_number 5
_symmetry_cell_setting 'monoclinic'
loop_
_space_group_symop_operation_xyz
x,y,z
-x,y,-z
1/2+x,1/2+y,z
1/2-x,1/2+y,-z
loop_
_atom_site_type_symbol
_atom_site_label
_atom_site_fract_x
_atom_site_fract_y
_atom_site_fract_z
Si Si1 0.620863 0.089440 0.721110
Si Si2 0.723187 0.365611 0.712694
Si Si3 0.122472 0.713964 0.336334
Si Si4 0.120231 0.038427 0.193023
Si Si5 0.631741 0.875618 0.248517
O O1 0.659515 0.219609 0.772998
O O2 0.621480 0.164903 0.533194
O O3 0.711898 0.957342 0.552750
O O4 0.500000 0.035590 0.000000
O O5 0.819481 0.332913 0.661854
O O6 0.636628 0.471701 0.975738
O O7 0.164355 0.887580 0.215834
O O8 0.164742 0.556964 0.162536
O O9 0.000000 0.726647 0.500000
O O10 0.000000 0.055841 0.500000
O O11 0.157051 0.217464 0.101587
O O12 0.500000 0.887358 0.500000
#
# Coordination Sequence:
#
# PCOD9125663 Si02
#       5
#     4   4   4   4   4
#     4  11  25  49  69 103 153 188 237 298 362 439
#     4  11  26  46  69 110 136 198 234 287 386 419
#     4   9  19  40  70  98 133 183 225 293 355 403
#     4  10  21  42  70 103 133 176 243 296 351 420
#     4   9  21  41  67 103 133 171 244 296 344 421
#
# _framework density 23.497586999999999
#
# number of rings (size 3 to 8) (size 9 to 14) (size 15 to 20)
#    0.000    2.000    0.000    2.400    8.400    0.000 
#   21.600    0.000    0.000    0.000    0.000    0.000 
#    0.000    0.000    0.000    0.000    0.000    0.000 
#
# Total GULP energy -55696.546494 kJ/mol
# GULP energy per Si atom -5569.654649 kJ/mol
# Density = 2.344411 g / cm^3
# Si number density = 23.497587 Si / 1000 Ang^3
#
#
#
# Elastic Constant Matrix: (Units=GPa)
#
#
# Indices 1 2 3 4 5 6 
#
# 1 43.6956 2.4614 -13.9496 0.0000 -7.3299 0.0000
# 2 2.4614 72.2734 34.7608 0.0000 0.1872 0.0000
# 3 -13.9496 34.7608 104.5421 0.0000 -6.7991 0.0000
# 4 0.0000 0.0000 0.0000 30.6292 0.0000 47.2073
# 5 -7.3299 0.1872 -6.7991 0.0000 20.7602 0.0000
# 6 0.0000 0.0000 0.0000 47.2073 0.0000 -34.9620
#
#
#
# Elastic Compliance Matrix: (Units=1/GPa)
#
#
# Indices 1 2 3 4 5 6 
#
# 1 0.026730 -0.003580 0.005490 0.000000 0.011268 0.000000
# 2 -0.003580 0.017030 -0.006368 0.000000 -0.003503 0.000000
# 3 0.005490 -0.006368 0.012818 0.000000 0.006194 0.000000
# 4 0.000000 0.000000 0.000000 0.010597 0.000000 0.014308
# 5 0.011268 -0.003503 0.006194 0.000000 0.054208 0.000000
# 6 0.000000 0.000000 0.000000 0.014308 0.000000 -0.009283
#
#
# Mechanical properties :
#
#
# Convention : Reuss Voigt Hill
#
# Bulk Modulus (GPa) = 20.98100 29.67292 25.32696
# Shear Modulus (GPa) = 36.52217 16.43470 26.47844
#
# Velocity S-wave (km/s) = 3.94673 2.64753 3.36051
# Velocity P-wave (km/s) = 5.45136 4.69056 5.08521
#
# Compressibility (1/GPa) = 0.04766218
#
# Stress axis : x y z
#
# Youngs Moduli (GPa) = 37.41106 58.71930 78.01323
#
# Poissons Ratio (x) = 0.21021 -0.42829
# Poissons Ratio (y) = 0.13393 0.49680
# Poissons Ratio (z) = -0.20538 0.37393
#
# Static dielectric constant tensor:
#      x y z
#    x 1.999760 0.000000 -0.003390 
#    y 0.000000 1.962900 0.000000 
#    z -0.003390 0.000000 2.311490 
# 
# From -- ./inp_files/28823.got.cif
#   From: 2010.05.17/outbox.cif.g08.bks.cpg/sg5_15_cif.got.tgz:28823.got - 2010.06.03 18:56:24.
