data_PCOD9125543
_publ_section_title
;
Structure prediction by ZEFSAII (Michael W. Deem and Ramdas Pophale) SiO2 
 PCOD9125543
Probable space group: C 2
;
_chemical_formula_sum "Si O2"
_cell_formula_units_Z 30
_cell_length_a 9.017572
_cell_length_b 12.644959
_cell_length_c 14.132303
_cell_angle_alpha 90.000000
_cell_angle_beta 60.159015
_cell_angle_gamma 90.000000
_cell_volume 1397.797553
_symmetry_space_group_name_H-M "C 2"
_symmetry_group_IT_number 5
_symmetry_cell_setting 'monoclinic'
loop_
_space_group_symop_operation_xyz
x,y,z
-x,y,-z
1/2+x,1/2+y,z
1/2-x,1/2+y,-z
loop_
_atom_site_type_symbol
_atom_site_label
_atom_site_fract_x
_atom_site_fract_y
_atom_site_fract_z
Si Si1 0.653153 0.796980 0.551963
Si Si2 0.594367 0.220330 0.162536
Si Si3 0.354013 0.009472 0.973138
Si Si4 0.796582 0.817715 0.046976
Si Si5 0.729211 0.160410 0.323276
Si Si6 0.123688 0.112417 0.193521
Si Si7 0.000000 0.490926 0.500000
Si Si8 0.219977 0.212211 0.332448
O O1 0.762359 0.760963 0.607352
O O2 0.635587 0.913793 0.512017
O O3 0.711466 0.716888 0.448907
O O4 0.453553 0.774343 0.638193
O O5 0.585825 0.116157 0.098591
O O6 0.711768 0.295953 0.062906
O O7 0.676035 0.195667 0.236517
O O8 0.401624 0.259235 0.243644
O O9 0.500000 0.975931 0.000000
O O10 0.193253 0.033869 0.092220
O O11 0.299677 0.927280 0.910204
O O12 0.704352 0.723764 0.131241
O O13 0.000000 0.820803 0.000000
O O14 0.921039 0.115108 0.260225
O O15 0.603093 0.068865 0.398667
O O16 0.195267 0.105077 0.278652
#
# Coordination Sequence:
#
# PCOD9125543 Si02
#       8
#     4   4   4   4   4   4   2   4
#     4   9  22  39  67  95 129 166 224 272 323 406
#     4  11  22  40  65  89 131 169 210 269 328 388
#     4  11  24  39  61  97 131 164 217 273 315 400
#     4  11  24  41  64  91 129 174 212 266 330 391
#     4  11  24  39  68 101 128 174 217 279 329 399
#     4  10  21  42  62  88 130 165 217 255 329 387
#     4  10  22  46  68  98 134 174 222 284 338 380
#     4   9  16  38  65  83 116 173 204 260 328 376
#
# _framework density 21.462334999999999
#
# number of rings (size 3 to 8) (size 9 to 14) (size 15 to 20)
#    0.000    1.867    2.667    1.600    3.733    6.400 
#    0.000    0.000    0.000   20.000    0.000    0.000 
#    0.000    0.000    0.000    0.000    0.000    0.000 
#
# Total GULP energy -83609.155621 kJ/mol
# GULP energy per Si atom -5573.943708 kJ/mol
# Density = 2.141349 g / cm^3
# Si number density = 21.462335 Si / 1000 Ang^3
#
#
#
# Elastic Constant Matrix: (Units=GPa)
#
#
# Indices 1 2 3 4 5 6 
#
# 1 49.7700 7.4228 37.2793 0.0000 7.9916 0.0000
# 2 7.4228 65.3494 9.4765 0.0000 1.5417 0.0000
# 3 37.2793 9.4765 118.9923 0.0000 6.5086 0.0000
# 4 0.0000 0.0000 0.0000 14.7944 0.0000 -0.6601
# 5 7.9916 1.5417 6.5086 0.0000 38.5769 0.0000
# 6 0.0000 0.0000 0.0000 -0.6601 0.0000 21.7906
#
#
#
# Elastic Compliance Matrix: (Units=1/GPa)
#
#
# Indices 1 2 3 4 5 6 
#
# 1 0.027116 -0.001804 -0.008123 0.000000 -0.004175 0.000000
# 2 -0.001804 0.015608 -0.000670 0.000000 -0.000137 0.000000
# 3 -0.008123 -0.000670 0.011010 0.000000 -0.000148 0.000000
# 4 0.000000 0.000000 0.000000 0.067685 0.000000 0.002050
# 5 -0.004175 -0.000137 -0.000148 0.000000 0.026818 0.000000
# 6 0.000000 0.000000 0.000000 0.002050 0.000000 0.045953
#
#
# Mechanical properties :
#
#
# Convention : Reuss Voigt Hill
#
# Bulk Modulus (GPa) = 30.73168 38.05209 34.39189
# Shear Modulus (GPa) = 22.10128 27.02794 24.56461
#
# Velocity S-wave (km/s) = 3.21248 3.55254 3.38678
# Velocity P-wave (km/s) = 5.30189 5.88180 5.59936
#
# Compressibility (1/GPa) = 0.03253971
#
# Stress axis : x y z
#
# Youngs Moduli (GPa) = 36.87808 64.07109 90.82354
#
# Poissons Ratio (x) = 0.11556 0.73779
# Poissons Ratio (y) = 0.06651 0.06089
# Poissons Ratio (z) = 0.29957 0.04296
#
# Static dielectric constant tensor:
#      x y z
#    x 1.791140 0.000000 0.038470 
#    y 0.000000 1.793830 0.000000 
#    z 0.038470 0.000000 1.813210 
# 
# From -- ./inp_files/36385.got.cif
#   From: 2010.05.17/outbox.cif.g08.bks.cpg/sg5_19_cif.got.tgz:36385.got - 2010.06.03 18:56:24.
