data_PCOD9125772
_publ_section_title
;
Structure prediction by ZEFSAII (Michael W. Deem and Ramdas Pophale) SiO2 
 PCOD9125772
Probable space group: C 2
;
_chemical_formula_sum "Si O2"
_cell_formula_units_Z 20
_cell_length_a 13.583128
_cell_length_b 11.952679
_cell_length_c 10.063622
_cell_angle_alpha 90.000000
_cell_angle_beta 32.826753
_cell_angle_gamma 90.000000
_cell_volume 885.725772
_symmetry_space_group_name_H-M "C 2"
_symmetry_group_IT_number 5
_symmetry_cell_setting 'monoclinic'
loop_
_space_group_symop_operation_xyz
x,y,z
-x,y,-z
1/2+x,1/2+y,z
1/2-x,1/2+y,-z
loop_
_atom_site_type_symbol
_atom_site_label
_atom_site_fract_x
_atom_site_fract_y
_atom_site_fract_z
Si Si1 0.927249 0.866160 0.903394
Si Si2 0.799606 0.405313 0.100706
Si Si3 0.971813 0.117499 0.882992
Si Si4 0.803836 0.157112 0.793516
Si Si5 0.694066 0.803082 0.621103
O O1 0.845442 0.878021 0.847880
O O2 0.140521 0.844698 0.653385
O O3 0.912371 0.991153 0.974503
O O4 0.817979 0.765714 0.094569
O O5 0.786965 0.538358 0.140584
O O6 0.755215 0.337856 0.285249
O O7 0.999997 0.366457 0.824053
O O8 0.838516 0.153392 0.914707
O O9 0.162016 0.172227 0.618284
O O10 0.000000 0.165285 0.000000
O O11 0.000000 0.163894 0.500000
#
# Coordination Sequence:
#
# PCOD9125772 Si02
#       5
#     4   4   4   4   4
#     4  11  24  40  69  99 141 172 225 287 350 383
#     4  10  21  43  69  98 133 181 232 275 328 423
#     4  11  23  45  67  99 136 175 230 277 334 411
#     4  11  24  46  70  98 141 181 226 282 342 403
#     4  11  21  41  71  97 135 180 233 268 338 414
#
# _framework density 22.580352000000001
#
# number of rings (size 3 to 8) (size 9 to 14) (size 15 to 20)
#    0.000    1.200    4.000    3.000    2.800    1.600 
#    3.600    0.000    0.000    0.000    0.000    0.000 
#    0.000    0.000    0.000    0.000    0.000    0.000 
#
# Total GULP energy -55672.625993 kJ/mol
# GULP energy per Si atom -5567.262599 kJ/mol
# Density = 2.252896 g / cm^3
# Si number density = 22.580352 Si / 1000 Ang^3
#
#
#
# Elastic Constant Matrix: (Units=GPa)
#
#
# Indices 1 2 3 4 5 6 
#
# 1 120.6471 20.8741 3.6648 0.0000 4.6393 0.0000
# 2 20.8741 172.6705 42.0831 0.0000 1.3677 0.0000
# 3 3.6648 42.0831 110.1528 0.0001 -18.7318 0.0000
# 4 0.0000 0.0000 0.0001 -44.8794 0.0000 2.7349
# 5 4.6393 1.3677 -18.7318 0.0000 15.6879 0.0000
# 6 0.0000 0.0000 0.0000 2.7349 0.0000 27.2558
#
#
#
# Elastic Compliance Matrix: (Units=1/GPa)
#
#
# Indices 1 2 3 4 5 6 
#
# 1 0.008574 -0.000903 -0.000449 0.000000 -0.002993 0.000000
# 2 -0.000903 0.006727 -0.003255 0.000000 -0.004206 0.000000
# 3 -0.000449 -0.003255 0.013059 0.000000 0.016010 0.000000
# 4 0.000000 0.000000 0.000000 -0.022146 0.000000 0.002222
# 5 -0.002993 -0.004206 0.016010 0.000000 0.084111 0.000000
# 6 0.000000 0.000000 0.000000 0.002222 0.000000 0.036466
#
#
# Mechanical properties :
#
#
# Convention : Reuss Voigt Hill
#
# Bulk Modulus (GPa) = 52.23327 59.63495 55.93411
# Shear Modulus (GPa) = 35.11508 22.06941 28.59225
#
# Velocity S-wave (km/s) = 3.94777 3.12969 3.56229
# Velocity P-wave (km/s) = 6.63041 6.28708 6.46102
#
# Compressibility (1/GPa) = 0.01914489
#
# Stress axis : x y z
#
# Youngs Moduli (GPa) = 116.63642 148.64829 76.57275
#
# Poissons Ratio (x) = 0.13428 0.03439
# Poissons Ratio (y) = 0.10536 0.24927
# Poissons Ratio (z) = 0.05238 0.48390
#
# Static dielectric constant tensor:
#      x y z
#    x 1.906790 0.000000 0.064810 
#    y 0.000000 1.892520 0.000000 
#    z 0.064810 0.000000 1.848980 
# 
# From -- ./inp_files/42356.got.cif
#   From: 2010.05.17/outbox.cif.g08.bks.cpg/sg5_22_cif.got.tgz:42356.got - 2010.06.03 18:56:24.
