data_PCOD9125253
_publ_section_title
;
Structure prediction by ZEFSAII (Michael W. Deem and Ramdas Pophale) SiO2 
 PCOD9125253
Probable space group: C 2
;
_chemical_formula_sum "Si O2"
_cell_formula_units_Z 26
_cell_length_a 13.317846
_cell_length_b 8.243225
_cell_length_c 11.665066
_cell_angle_alpha 90.000000
_cell_angle_beta 114.369853
_cell_angle_gamma 90.000000
_cell_volume 1166.512702
_symmetry_space_group_name_H-M "C 2"
_symmetry_group_IT_number 5
_symmetry_cell_setting 'monoclinic'
loop_
_space_group_symop_operation_xyz
x,y,z
-x,y,-z
1/2+x,1/2+y,z
1/2-x,1/2+y,-z
loop_
_atom_site_type_symbol
_atom_site_label
_atom_site_fract_x
_atom_site_fract_y
_atom_site_fract_z
Si Si1 0.877328 0.950600 0.084627
Si Si2 0.000000 0.222566 0.000000
Si Si3 0.704010 0.029581 0.392955
Si Si4 0.808581 0.465966 0.177515
Si Si5 0.770097 0.327508 0.797242
Si Si6 0.502834 0.124695 0.138579
Si Si7 0.371694 0.809572 0.443900
O O1 0.797310 0.956742 0.156905
O O2 0.961784 0.806715 0.146870
O O3 0.941914 0.107181 0.068837
O O4 0.792958 0.898248 0.943945
O O5 0.101209 0.317445 0.106300
O O6 0.614657 0.101277 0.261703
O O7 0.799272 0.159940 0.454198
O O8 0.747540 0.875573 0.341695
O O9 0.648824 0.962232 0.481666
O O10 0.773950 0.647608 0.198594
O O11 0.914560 0.496294 0.147689
O O12 0.834449 0.359186 0.299155
O O13 0.500000 0.118949 0.000000
O O14 0.500000 0.768567 0.500000
#
# Coordination Sequence:
#
# PCOD9125253 Si02
#       7
#     4   2   4   4   4   4   4
#     4  10  21  40  66 111 140 180 224 282 351 427
#     4  10  22  40  68  98 152 182 212 278 364 418
#     4  12  27  47  73 101 138 187 242 292 354 418
#     4  10  22  44  69  97 146 179 234 289 339 422
#     4  10  24  41  66 106 136 181 231 286 347 424
#     4  11  21  39  71 104 141 179 226 286 356 413
#     4  12  27  51  70 101 137 191 243 296 344 413
#
# _framework density 22.288653
#
# number of rings (size 3 to 8) (size 9 to 14) (size 15 to 20)
#    0.000    1.231    2.308    2.769    5.385    3.692 
#    5.538    0.000    0.000    0.000    0.000    0.000 
#    0.000    0.000    0.000    0.000    0.000    0.000 
#
# Total GULP energy -72751.063196 kJ/mol
# GULP energy per Si atom -5596.235630 kJ/mol
# Density = 2.223792 g / cm^3
# Si number density = 22.288653 Si / 1000 Ang^3
#
#
#
# Elastic Constant Matrix: (Units=GPa)
#
#
# Indices 1 2 3 4 5 6 
#
# 1 138.0324 40.1983 38.9592 0.0000 7.9271 0.0000
# 2 40.1983 65.2211 13.8519 0.0000 9.8743 0.0000
# 3 38.9592 13.8519 73.6645 0.0000 -5.0788 0.0000
# 4 0.0000 0.0000 0.0000 28.4766 0.0000 1.1212
# 5 7.9271 9.8743 -5.0788 0.0000 35.9383 0.0000
# 6 0.0000 0.0000 0.0000 1.1212 0.0000 24.8198
#
#
#
# Elastic Compliance Matrix: (Units=1/GPa)
#
#
# Indices 1 2 3 4 5 6 
#
# 1 0.010055 -0.005025 -0.004474 0.000000 -0.001470 0.000000
# 2 -0.005025 0.019368 -0.001288 0.000000 -0.004395 0.000000
# 3 -0.004474 -0.001288 0.016436 0.000000 0.003664 0.000000
# 4 0.000000 0.000000 0.000000 0.035179 0.000000 -0.001589
# 5 -0.001470 -0.004395 0.003664 0.000000 0.029875 0.000000
# 6 0.000000 0.000000 0.000000 -0.001589 0.000000 0.040362
#
#
# Mechanical properties :
#
#
# Convention : Reuss Voigt Hill
#
# Bulk Modulus (GPa) = 41.17562 51.43741 46.30651
# Shear Modulus (GPa) = 27.63269 30.10750 28.87010
#
# Velocity S-wave (km/s) = 3.52485 3.67931 3.60291
# Velocity P-wave (km/s) = 5.92284 6.41699 6.17486
#
# Compressibility (1/GPa) = 0.02428622
#
# Stress axis : x y z
#
# Youngs Moduli (GPa) = 99.45031 51.63086 60.84130
#
# Poissons Ratio (x) = 0.25943 0.27223
# Poissons Ratio (y) = 0.49970 0.07834
# Poissons Ratio (z) = 0.44499 0.06648
#
# Static dielectric constant tensor:
#      x y z
#    x 1.870680 0.000000 -0.020270 
#    y 0.000000 1.836860 0.000000 
#    z -0.020270 0.000000 1.763330 
# 
# From -- ./inp_files/41828.got.cif
#   From: 2010.05.17/outbox.cif.g08.bks.cpg/sg5_21_cif.got.tgz:41828.got - 2010.06.03 18:56:24.
