data_PCOD9125675
_publ_section_title
;
Structure prediction by ZEFSAII (Michael W. Deem and Ramdas Pophale) SiO2 
 PCOD9125675
Probable space group: C 2
;
_chemical_formula_sum "Si O2"
_cell_formula_units_Z 24
_cell_length_a 17.533443
_cell_length_b 6.643001
_cell_length_c 9.506976
_cell_angle_alpha 90.000000
_cell_angle_beta 120.559609
_cell_angle_gamma 90.000000
_cell_volume 953.515694
_symmetry_space_group_name_H-M "C 2"
_symmetry_group_IT_number 5
_symmetry_cell_setting 'monoclinic'
loop_
_space_group_symop_operation_xyz
x,y,z
-x,y,-z
1/2+x,1/2+y,z
1/2-x,1/2+y,-z
loop_
_atom_site_type_symbol
_atom_site_label
_atom_site_fract_x
_atom_site_fract_y
_atom_site_fract_z
Si Si1 0.641231 0.899990 0.528054
Si Si2 0.990111 0.052497 0.649510
Si Si3 0.154552 0.255665 0.861373
Si Si4 0.907238 0.953830 0.844998
Si Si5 0.681114 0.084313 0.086454
Si Si6 0.247532 0.263886 0.358308
O O1 0.552468 0.780350 0.398006
O O2 0.755413 0.686581 0.970118
O O3 0.662290 0.136958 0.552667
O O4 0.651902 0.834347 0.699121
O O5 0.087711 0.071052 0.804361
O O6 0.000000 0.978355 0.500000
O O7 0.929787 0.934212 0.701167
O O8 0.127033 0.421258 0.947817
O O9 0.876245 0.747384 0.886338
O O10 0.827470 0.113769 0.776771
O O11 0.000000 0.023417 0.000000
O O12 0.786140 0.321559 0.517132
O O13 0.741723 0.960999 0.255371
#
# Coordination Sequence:
#
# PCOD9125675 Si02
#       6
#     4   4   4   4   4   4
#     4  10  21  42  71 100 140 185 236 293 361 417
#     4   9  22  45  75 103 147 187 244 304 357 428
#     4  11  23  44  70 105 144 193 238 300 358 428
#     4  11  25  45  71 109 144 192 243 293 370 426
#     4  12  26  43  73 104 149 193 243 297 362 435
#     4  11  23  45  71 105 142 188 242 300 353 439
#
# _framework density 25.170010000000001
#
# number of rings (size 3 to 8) (size 9 to 14) (size 15 to 20)
#    0.000    1.333    1.667    3.000    2.333    3.333 
#    0.000    0.000    0.000    0.000    0.000    0.000 
#    0.000    0.000    0.000    0.000    0.000    0.000 
#
# Total GULP energy -67142.555929 kJ/mol
# GULP energy per Si atom -5595.212994 kJ/mol
# Density = 2.511272 g / cm^3
# Si number density = 25.170010 Si / 1000 Ang^3
#
#
#
# Elastic Constant Matrix: (Units=GPa)
#
#
# Indices 1 2 3 4 5 6 
#
# 1 117.7402 43.9055 21.2434 0.0000 -23.9310 0.0000
# 2 43.9055 92.4143 51.7000 0.0000 -12.3424 0.0000
# 3 21.2434 51.7000 82.4221 0.0000 -9.2052 0.0000
# 4 0.0000 0.0000 0.0000 44.2003 0.0000 -10.1317
# 5 -23.9310 -12.3424 -9.2052 0.0000 49.5121 0.0000
# 6 0.0000 0.0000 0.0000 -10.1317 0.0000 31.7080
#
#
#
# Elastic Compliance Matrix: (Units=1/GPa)
#
#
# Indices 1 2 3 4 5 6 
#
# 1 0.011144 -0.005216 0.000874 0.000000 0.004249 0.000000
# 2 -0.005216 0.019363 -0.010767 0.000000 0.000304 0.000000
# 3 0.000874 -0.010767 0.018799 0.000000 0.001233 0.000000
# 4 0.000000 0.000000 0.000000 0.024412 0.000000 0.007801
# 5 0.004249 0.000304 0.001233 0.000000 0.022556 0.000000
# 6 0.000000 0.000000 0.000000 0.007801 0.000000 0.034030
#
#
# Mechanical properties :
#
#
# Convention : Reuss Voigt Hill
#
# Bulk Modulus (GPa) = 52.39001 58.47494 55.43247
# Shear Modulus (GPa) = 29.96046 36.79926 33.37986
#
# Velocity S-wave (km/s) = 3.45385 3.82780 3.64562
# Velocity P-wave (km/s) = 6.06342 6.54358 6.30807
#
# Compressibility (1/GPa) = 0.01908761
#
# Stress axis : x y z
#
# Youngs Moduli (GPa) = 89.73258 51.64407 53.19387
#
# Poissons Ratio (x) = 0.26938 -0.04650
# Poissons Ratio (y) = 0.46806 0.57276
# Poissons Ratio (z) = -0.07843 0.55608
#
# Static dielectric constant tensor:
#      x y z
#    x 1.962980 0.000000 0.024690 
#    y 0.000000 1.972170 0.000000 
#    z 0.024690 0.000000 2.028990 
# 
# From -- ./inp_files/29005.got.cif
#   From: 2010.05.17/outbox.cif.g08.bks.cpg/sg5_15_cif.got.tgz:29005.got - 2010.06.03 18:56:24.
