data_PCOD9125331
_publ_section_title
;
Structure prediction by ZEFSAII (Michael W. Deem and Ramdas Pophale) SiO2 
 PCOD9125331
Probable space group: C 2
;
_chemical_formula_sum "Si O2"
_cell_formula_units_Z 26
_cell_length_a 16.262666
_cell_length_b 7.204389
_cell_length_c 21.388303
_cell_angle_alpha 90.000000
_cell_angle_beta 24.052125
_cell_angle_gamma 90.000000
_cell_volume 1021.327088
_symmetry_space_group_name_H-M "C 2"
_symmetry_group_IT_number 5
_symmetry_cell_setting 'monoclinic'
loop_
_space_group_symop_operation_xyz
x,y,z
-x,y,-z
1/2+x,1/2+y,z
1/2-x,1/2+y,-z
loop_
_atom_site_type_symbol
_atom_site_label
_atom_site_fract_x
_atom_site_fract_y
_atom_site_fract_z
Si Si1 0.000000 0.524710 0.000000
Si Si2 0.404845 0.435329 0.183712
Si Si3 0.256019 0.833707 0.582106
Si Si4 0.338741 0.024713 0.866435
Si Si5 0.471364 0.510434 0.671565
Si Si6 0.581900 0.095133 0.325487
Si Si7 0.031764 0.320760 0.108112
O O1 0.240126 0.591473 0.839975
O O2 0.020485 0.412040 0.921103
O O3 0.322341 0.297369 0.292888
O O4 0.408618 0.639311 0.212687
O O5 0.287731 0.493109 0.202699
O O6 0.636200 0.399264 0.004920
O O7 0.419691 0.993532 0.479162
O O8 0.090720 0.931532 0.650512
O O9 0.749735 0.727569 0.943152
O O10 0.450801 0.035815 0.723723
O O11 0.881212 0.162177 0.463802
O O12 0.464458 0.952499 0.836249
O O13 0.436845 0.316317 0.658034
#
# Coordination Sequence:
#
# PCOD9125331 Si02
#       7
#     2   4   4   4   4   4   4
#     4  12  22  50  84 120 152 212 274 330 388 476
#     4  10  23  47  71 109 161 204 259 329 392 478
#     4  12  28  46  79 115 159 210 262 326 408 477
#     4  10  22  40  75 112 147 207 263 319 395 463
#     4  12  25  51  81 115 159 212 263 333 398 476
#     4  12  24  50  78 110 157 207 263 329 401 466
#     4  10  21  40  76 108 157 196 261 325 392 460
#
# _framework density 25.457073000000001
#
# number of rings (size 3 to 8) (size 9 to 14) (size 15 to 20)
#    0.923    0.000    4.615    1.846    2.154    0.000 
#    5.538    4.615    0.000    0.000    0.000    0.000 
#    0.000    0.000    0.000    0.000    0.000    0.000 
#
# Total GULP energy -72463.327646 kJ/mol
# GULP energy per Si atom -5574.102127 kJ/mol
# Density = 2.539913 g / cm^3
# Si number density = 25.457073 Si / 1000 Ang^3
#
#
#
# Elastic Constant Matrix: (Units=GPa)
#
#
# Indices 1 2 3 4 5 6 
#
# 1 113.6455 69.1132 28.5197 0.0002 -3.7763 0.0002
# 2 69.1132 106.0024 48.5999 -0.0034 11.3751 0.0003
# 3 28.5197 48.5999 107.6333 -0.0098 10.8664 0.0008
# 4 0.0002 -0.0034 -0.0098 31.6030 0.0003 17.8368
# 5 -3.7763 11.3751 10.8664 0.0003 40.4565 0.0006
# 6 0.0002 0.0003 0.0008 17.8368 0.0006 14.4319
#
#
#
# Elastic Compliance Matrix: (Units=1/GPa)
#
#
# Indices 1 2 3 4 5 6 
#
# 1 0.015299 -0.010568 0.000281 -0.000004 0.004324 0.000004
# 2 -0.010568 0.019349 -0.005435 0.000001 -0.004967 -0.000001
# 3 0.000281 -0.005435 0.011834 0.000011 -0.001624 -0.000014
# 4 -0.000004 0.000001 0.000011 0.104626 -0.000002 -0.129311
# 5 0.004324 -0.004967 -0.001624 -0.000002 0.026954 0.000002
# 6 0.000004 -0.000001 -0.000014 -0.129311 0.000002 0.229110
#
#
# Mechanical properties :
#
#
# Convention : Reuss Voigt Hill
#
# Bulk Modulus (GPa) = 66.49282 68.86077 67.67679
# Shear Modulus (GPa) = 11.27066 29.36816 20.31941
#
# Velocity S-wave (km/s) = 2.10640 3.40020 2.82828
# Velocity P-wave (km/s) = 5.66500 6.52102 6.10802
#
# Compressibility (1/GPa) = 0.01503922
#
# Stress axis : x y z
#
# Youngs Moduli (GPa) = 65.36240 51.68234 84.50031
#
# Poissons Ratio (x) = 0.54619 -0.02378
# Poissons Ratio (y) = 0.69076 0.45926
# Poissons Ratio (z) = -0.01840 0.28089
#
# Static dielectric constant tensor:
#      x y z
#    x 2.010150 0.000000 -0.132840 
#    y 0.000000 2.010670 0.000000 
#    z -0.132840 0.000000 2.083760 
# 
# From -- ./inp_files/23531.got.cif
#   From: 2010.05.17/outbox.cif.g08.bks.cpg/sg5_12_cif.got.tgz:23531.got - 2010.06.03 18:56:24.
