data_PCOD9125324
_publ_section_title
;
Structure prediction by ZEFSAII (Michael W. Deem and Ramdas Pophale) SiO2 
 PCOD9125324
Probable space group: C 2
;
_chemical_formula_sum "Si O2"
_cell_formula_units_Z 28
_cell_length_a 15.975947
_cell_length_b 15.724103
_cell_length_c 6.783193
_cell_angle_alpha 90.000000
_cell_angle_beta 140.112758
_cell_angle_gamma 90.000000
_cell_volume 1092.731701
_symmetry_space_group_name_H-M "C 2"
_symmetry_group_IT_number 5
_symmetry_cell_setting 'monoclinic'
loop_
_space_group_symop_operation_xyz
x,y,z
-x,y,-z
1/2+x,1/2+y,z
1/2-x,1/2+y,-z
loop_
_atom_site_type_symbol
_atom_site_label
_atom_site_fract_x
_atom_site_fract_y
_atom_site_fract_z
Si Si1 0.367298 0.565270 0.965556
Si Si2 0.344368 0.594314 0.393436
Si Si3 0.640776 0.759542 0.153086
Si Si4 0.000000 0.394701 0.500000
Si Si5 0.000000 0.657245 0.500000
Si Si6 0.750471 0.260187 0.059398
Si Si7 0.074007 0.523839 0.941257
Si Si8 0.255830 0.884916 0.348235
O O1 0.473918 0.564766 0.737974
O O2 0.329611 0.657233 0.802175
O O3 0.297799 0.480495 0.757521
O O4 0.341087 0.568859 0.155378
O O5 0.326823 0.695924 0.343937
O O6 0.214336 0.557845 0.250174
O O7 0.648017 0.782526 0.932209
O O8 0.729874 0.830405 0.425558
O O9 0.500000 0.766399 0.000000
O O10 0.089364 0.455066 0.800819
O O11 0.107932 0.370673 0.527002
O O12 0.867235 0.709131 0.254645
O O13 0.001896 0.599310 0.307199
O O14 0.671944 0.329680 0.043140
O O15 0.000000 0.492250 0.000000
#
# Coordination Sequence:
#
# PCOD9125324 Si02
#       8
#     4   4   4   2   2   4   4   4
#     4  10  22  44  75 113 156 199 255 313 389 458
#     4   9  19  44  74 109 148 203 248 317 387 450
#     4  11  25  47  77 112 149 201 260 319 373 459
#     4  11  24  44  66 108 153 196 256 313 374 450
#     4   9  22  42  66 100 147 196 244 305 376 452
#     4  10  23  45  73 103 149 199 251 314 381 447
#     4  10  21  40  72 104 141 195 254 309 367 446
#     4  12  25  46  75 111 154 202 254 318 383 452
#
# _framework density 25.623854000000001
#
# number of rings (size 3 to 8) (size 9 to 14) (size 15 to 20)
#    0.000    1.714    1.429    1.714    2.000    8.571 
#    0.000    5.714    0.000    0.000    0.000    0.000 
#    0.000    0.000    0.000    0.000    0.000    0.000 
#
# Total GULP energy -78214.088775 kJ/mol
# GULP energy per Si atom -5586.720627 kJ/mol
# Density = 2.556553 g / cm^3
# Si number density = 25.623854 Si / 1000 Ang^3
#
#
#
# Elastic Constant Matrix: (Units=GPa)
#
#
# Indices 1 2 3 4 5 6 
#
# 1 91.0730 28.5535 34.6282 0.0000 -9.1502 0.0000
# 2 28.5535 172.8656 71.0039 0.0000 -5.7260 0.0000
# 3 34.6282 71.0039 131.8025 0.0000 -19.5846 0.0000
# 4 0.0000 0.0000 0.0000 2799.5989 0.0000 3220.0752
# 5 -9.1502 -5.7260 -19.5846 0.0000 42.9494 0.0000
# 6 0.0000 0.0000 0.0000 3220.0752 0.0000 3815.7763
#
#
#
# Elastic Compliance Matrix: (Units=1/GPa)
#
#
# Indices 1 2 3 4 5 6 
#
# 1 0.012381 -0.000959 -0.002535 0.000000 0.001354 0.000000
# 2 -0.000959 0.007535 -0.003956 0.000000 -0.001004 0.000000
# 3 -0.002535 -0.003956 0.010969 0.000000 0.003934 0.000000
# 4 0.000000 0.000000 0.000000 0.012162 0.000000 -0.010263
# 5 0.001354 -0.001004 0.003934 0.000000 0.025232 0.000000
# 6 0.000000 0.000000 0.000000 -0.010263 0.000000 0.008923
#
#
# Mechanical properties :
#
#
# Convention : Reuss Voigt Hill
#
# Bulk Modulus (GPa) = 62.56202 73.79026 68.17614
# Shear Modulus (GPa) = 51.31889 1349.10195 700.21042
#
# Velocity S-wave (km/s) = 4.48010 22.97053 16.54866
# Velocity P-wave (km/s) = 7.15753 27.06265 19.79416
#
# Compressibility (1/GPa) = 0.01598414
#
# Stress axis : x y z
#
# Youngs Moduli (GPa) = 80.77058 132.71239 91.16483
#
# Poissons Ratio (x) = 0.12726 0.23110
# Poissons Ratio (y) = 0.07745 0.36069
# Poissons Ratio (z) = 0.20475 0.52507
#
# Static dielectric constant tensor:
#      x y z
#    x 1.532130 0.000000 -5.787340 
#    y 0.000000 2.297510 0.000000 
#    z -5.787340 0.000000 -66.965280 
# 
# From -- ./inp_files/8722.got.cif
#   From: 2010.05.17/outbox.cif.g08.bks.cpg/sg5_5_cif.got.tgz:8722.got - 2010.06.03 18:56:24.
