data_PCOD9125097
_publ_section_title
;
Structure prediction by ZEFSAII (Michael W. Deem and Ramdas Pophale) SiO2 
 PCOD9125097
Probable space group: C 2
;
_chemical_formula_sum "Si O2"
_cell_formula_units_Z 32
_cell_length_a 30.355678
_cell_length_b 5.520480
_cell_length_c 9.268755
_cell_angle_alpha 90.000000
_cell_angle_beta 89.336556
_cell_angle_gamma 90.000000
_cell_volume 1553.134494
_symmetry_space_group_name_H-M "C 2"
_symmetry_group_IT_number 5
_symmetry_cell_setting 'monoclinic'
loop_
_space_group_symop_operation_xyz
x,y,z
-x,y,-z
1/2+x,1/2+y,z
1/2-x,1/2+y,-z
loop_
_atom_site_type_symbol
_atom_site_label
_atom_site_fract_x
_atom_site_fract_y
_atom_site_fract_z
Si Si1 0.965300 0.470220 0.750765
Si Si2 0.611136 0.361681 0.253371
Si Si3 0.547241 0.320115 0.754494
Si Si4 0.428805 0.654724 0.993313
Si Si5 0.700083 0.826837 0.599315
Si Si6 0.062980 0.159796 0.505855
Si Si7 0.197542 0.823804 0.418078
Si Si8 0.384122 0.940494 0.249876
O O1 0.921399 0.634042 0.764337
O O2 0.962538 0.342003 0.596844
O O3 0.010169 0.617047 0.761534
O O4 0.961561 0.282608 0.881084
O O5 0.590783 0.502319 0.391561
O O6 0.661289 0.316316 0.294038
O O7 0.605461 0.519008 0.109899
O O8 0.547687 0.466999 0.901893
O O9 0.537396 0.484624 0.616236
O O10 0.596666 0.211438 0.736637
O O11 0.404617 0.839432 0.101617
O O12 0.751774 0.829182 0.635178
O O13 0.691492 0.569871 0.516150
O O14 0.666857 0.874677 0.732547
O O15 0.692021 0.068802 0.503025
O O16 0.094016 0.307329 0.613487
#
# Coordination Sequence:
#
# PCOD9125097 Si02
#       8
#     4   4   4   4   4   4   4   4
#     4  11  25  43  64  92 129 175 225 273 336 401
#     4  11  22  40  66  94 130 173 216 274 338 397
#     4  11  25  43  64  92 129 175 225 273 336 401
#     4  10  26  43  64  88 132 178 228 270 323 412
#     4  10  21  39  69 105 136 171 224 286 352 412
#     4  10  22  39  64  94 126 158 212 280 329 392
#     4  10  21  39  69 105 136 171 224 286 352 412
#     4  11  22  40  66  94 130 173 216 274 338 397
#
# _framework density 20.603494000000001
#
# number of rings (size 3 to 8) (size 9 to 14) (size 15 to 20)
#    0.000    1.500    1.250    3.000    3.500   10.000 
#    0.000    3.750    5.500    0.000    0.000    0.000 
#    0.000    0.000    0.000    0.000    0.000    0.000 
#
# Total GULP energy -89471.078770 kJ/mol
# GULP energy per Si atom -5591.942423 kJ/mol
# Density = 2.055660 g / cm^3
# Si number density = 20.603494 Si / 1000 Ang^3
#
#
#
# Elastic Constant Matrix: (Units=GPa)
#
#
# Indices 1 2 3 4 5 6 
#
# 1 81.5345 4.9481 15.9295 0.0000 1.4464 0.0000
# 2 4.9481 65.6426 13.7052 0.0000 2.6830 0.0000
# 3 15.9295 13.7052 111.2459 0.0000 11.7840 0.0000
# 4 0.0000 0.0000 0.0000 -28.8247 0.0000 -3.6508
# 5 1.4464 2.6830 11.7840 0.0000 16.3581 0.0000
# 6 0.0000 0.0000 0.0000 -3.6508 0.0000 24.6454
#
#
#
# Elastic Compliance Matrix: (Units=1/GPa)
#
#
# Indices 1 2 3 4 5 6 
#
# 1 0.012641 -0.000595 -0.001763 0.000000 0.000250 0.000000
# 2 -0.000595 0.015689 -0.001711 0.000000 -0.001288 0.000000
# 3 -0.001763 -0.001711 0.010183 0.000000 -0.006899 0.000000
# 4 0.000000 0.000000 0.000000 -0.034054 0.000000 -0.005044
# 5 0.000250 -0.001288 -0.006899 0.000000 0.066291 0.000000
# 6 0.000000 0.000000 0.000000 -0.005044 0.000000 0.039828
#
#
# Mechanical properties :
#
#
# Convention : Reuss Voigt Hill
#
# Bulk Modulus (GPa) = 32.92283 36.39875 34.66079
# Shear Modulus (GPa) = 38.80724 17.35844 28.08284
#
# Velocity S-wave (km/s) = 4.34467 2.90573 3.69591
# Velocity P-wave (km/s) = 6.41733 5.38167 5.92218
#
# Compressibility (1/GPa) = 0.03037406
#
# Stress axis : x y z
#
# Youngs Moduli (GPa) = 79.10826 63.73991 98.20087
#
# Poissons Ratio (x) = 0.03792 0.17315
# Poissons Ratio (y) = 0.04707 0.16804
# Poissons Ratio (z) = 0.13949 0.10907
#
# Static dielectric constant tensor:
#      x y z
#    x 1.755180 0.000000 -0.014750 
#    y 0.000000 1.810350 0.000000 
#    z -0.014750 0.000000 1.690380 
# 
# From -- ./inp_files/32280.got.cif
#   From: 2010.05.17/outbox.cif.g08.bks.cpg/sg5_17_cif.got.tgz:32280.got - 2010.06.03 18:56:24.
