data_PCOD9125470
_publ_section_title
;
Structure prediction by ZEFSAII (Michael W. Deem and Ramdas Pophale) SiO2 
 PCOD9125470
Probable space group: C 2
;
_chemical_formula_sum "Si O2"
_cell_formula_units_Z 28
_cell_length_a 5.402794
_cell_length_b 31.045515
_cell_length_c 9.184815
_cell_angle_alpha 90.000000
_cell_angle_beta 109.790953
_cell_angle_gamma 90.000000
_cell_volume 1449.595943
_symmetry_space_group_name_H-M "C 2"
_symmetry_group_IT_number 5
_symmetry_cell_setting 'monoclinic'
loop_
_space_group_symop_operation_xyz
x,y,z
-x,y,-z
1/2+x,1/2+y,z
1/2-x,1/2+y,-z
loop_
_atom_site_type_symbol
_atom_site_label
_atom_site_fract_x
_atom_site_fract_y
_atom_site_fract_z
Si Si1 0.101600 0.103470 0.863056
Si Si2 0.772048 0.234929 0.832187
Si Si3 0.694809 0.950970 0.912793
Si Si4 0.000000 0.679213 0.000000
Si Si5 0.691594 0.662985 0.398827
Si Si6 0.606094 0.878303 0.684709
Si Si7 0.000000 0.535158 0.000000
Si Si8 0.390975 0.327936 0.312522
O O1 0.259959 0.147266 0.926591
O O2 0.885049 0.119631 0.706697
O O3 0.308366 0.065964 0.868369
O O4 0.000000 0.089445 0.000000
O O5 0.546187 0.208310 0.869601
O O6 0.851628 0.205120 0.711512
O O7 0.666799 0.280879 0.761495
O O8 0.000000 0.239165 0.000000
O O9 0.627702 0.926135 0.752782
O O10 0.500000 0.933191 0.000000
O O11 0.000000 0.942456 0.000000
O O12 0.645075 0.002098 0.919045
O O13 0.500000 0.665011 0.500000
O O14 0.000000 0.662069 0.500000
O O15 0.500000 0.879766 0.500000
O O16 0.386315 0.852787 0.732845
O O17 0.886212 0.853673 0.733586
O O18 0.500000 0.324102 0.500000
#
# Coordination Sequence:
#
# PCOD9125470 Si02
#       8
#     4   4   4   2   4   4   2   4
#     4  11  21  42  70  88 132 173 217 268 323 399
#     4  12  25  41  63  94 133 175 230 272 318 376
#     4  10  21  41  67  99 124 155 214 262 322 388
#     4  11  20  40  62  94 122 176 228 262 326 371
#     4  12  26  42  66  96 132 180 224 270 327 384
#     4  10  22  43  67  91 130 174 206 254 333 393
#     4   9  24  38  74  94 128 162 222 264 338 375
#     4  10  24  41  62  94 131 173 214 265 319 377
#
# _framework density 19.315728
#
# number of rings (size 3 to 8) (size 9 to 14) (size 15 to 20)
#    0.429    0.857    2.857    2.571    4.000    3.429 
#    0.000    0.000    6.286    0.000    0.000    0.000 
#    0.000    0.000    0.000    0.000    0.000    0.000 
#
# Total GULP energy -78093.532404 kJ/mol
# GULP energy per Si atom -5578.109457 kJ/mol
# Density = 1.927176 g / cm^3
# Si number density = 19.315728 Si / 1000 Ang^3
#
#
#
# Elastic Constant Matrix: (Units=GPa)
#
#
# Indices 1 2 3 4 5 6 
#
# 1 134.5395 43.6047 45.3715 0.0000 0.0807 0.0000
# 2 43.6047 128.5933 45.9134 0.0000 2.2349 0.0000
# 3 45.3715 45.9134 67.3010 0.0000 1.2833 0.0000
# 4 0.0000 0.0000 0.0000 17.0473 0.0000 28.8682
# 5 0.0807 2.2349 1.2833 0.0000 30.3052 0.0000
# 6 0.0000 0.0000 0.0000 28.8682 0.0000 315.7280
#
#
#
# Elastic Compliance Matrix: (Units=1/GPa)
#
#
# Indices 1 2 3 4 5 6 
#
# 1 0.009777 -0.001276 -0.005727 0.000000 0.000311 0.000000
# 2 -0.001276 0.010454 -0.006262 0.000000 -0.000502 0.000000
# 3 -0.005727 -0.006262 0.023001 0.000000 -0.000497 0.000000
# 4 0.000000 0.000000 0.000000 0.069407 0.000000 -0.006346
# 5 0.000311 -0.000502 -0.000497 0.000000 0.033055 0.000000
# 6 0.000000 0.000000 0.000000 -0.006346 0.000000 0.003748
#
#
# Mechanical properties :
#
#
# Convention : Reuss Voigt Hill
#
# Bulk Modulus (GPa) = 59.87160 66.69034 63.28097
# Shear Modulus (GPa) = 27.54239 85.65237 56.59738
#
# Velocity S-wave (km/s) = 3.78021 6.66630 5.41893
# Velocity P-wave (km/s) = 7.07933 9.68784 8.48443
#
# Compressibility (1/GPa) = 0.01670241
#
# Stress axis : x y z
#
# Youngs Moduli (GPa) = 102.27582 95.66103 43.47688
#
# Poissons Ratio (x) = 0.12207 0.24899
# Poissons Ratio (y) = 0.13051 0.27224
# Poissons Ratio (z) = 0.58573 0.59900
#
# Static dielectric constant tensor:
#      x y z
#    x 1.687300 0.000000 -0.017320 
#    y 0.000000 1.637800 0.000000 
#    z -0.017320 0.000000 1.678040 
# 
# From -- ./inp_files/13227.got.cif
#   From: 2010.05.17/outbox.cif.g08.bks.cpg/sg5_7_cif.got.tgz:13227.got - 2010.06.03 18:56:24.
