data_PCOD9125788
_publ_section_title
;
Structure prediction by ZEFSAII (Michael W. Deem and Ramdas Pophale) SiO2 
 PCOD9125788
Probable space group: C 2
;
_chemical_formula_sum "Si O2"
_cell_formula_units_Z 30
_cell_length_a 11.629085
_cell_length_b 15.044667
_cell_length_c 9.282742
_cell_angle_alpha 90.000000
_cell_angle_beta 111.510988
_cell_angle_gamma 90.000000
_cell_volume 1510.947900
_symmetry_space_group_name_H-M "C 2"
_symmetry_group_IT_number 5
_symmetry_cell_setting 'monoclinic'
loop_
_space_group_symop_operation_xyz
x,y,z
-x,y,-z
1/2+x,1/2+y,z
1/2-x,1/2+y,-z
loop_
_atom_site_type_symbol
_atom_site_label
_atom_site_fract_x
_atom_site_fract_y
_atom_site_fract_z
Si Si1 0.242455 0.341560 0.797904
Si Si2 0.370835 0.010755 0.392051
Si Si3 0.561134 0.543277 0.767246
Si Si4 0.629753 0.295627 0.414334
Si Si5 0.000000 0.909649 0.000000
Si Si6 0.866647 0.706974 0.282048
Si Si7 0.626284 0.719510 0.968855
Si Si8 0.337411 0.501633 0.485686
O O1 0.201490 0.440678 0.738234
O O2 0.267981 0.287888 0.662558
O O3 0.148564 0.295747 0.861802
O O4 0.378566 0.351121 0.926328
O O5 0.500000 0.970600 0.500000
O O6 0.292088 0.023826 0.501274
O O7 0.391926 0.102615 0.318401
O O8 0.612666 0.627164 0.876417
O O9 0.436491 0.561301 0.618332
O O10 0.652413 0.511677 0.681199
O O11 0.524472 0.471208 0.871549
O O12 0.494907 0.258593 0.303805
O O13 0.665506 0.244488 0.574868
O O14 0.625405 0.400055 0.455453
O O15 0.749295 0.718088 0.124546
O O16 0.500000 0.731780 0.000000
#
# Coordination Sequence:
#
# PCOD9125788 Si02
#       8
#     4   4   4   4   2   4   4   4
#     4  11  26  42  66  97 130 172 218 265 330 385
#     4  11  22  43  65  94 135 171 209 267 326 391
#     4  11  21  41  68  95 129 168 222 272 319 380
#     4  10  21  43  72  99 115 170 234 272 310 372
#     4  12  20  44  72  92 130 168 224 282 312 382
#     4  11  22  41  71  94 131 165 221 273 317 379
#     4  12  27  42  60 100 140 174 207 267 339 389
#     4  10  23  41  69 101 123 170 231 267 317 386
#
# _framework density 19.855086
#
# number of rings (size 3 to 8) (size 9 to 14) (size 15 to 20)
#    0.000    1.067    4.667    4.000    3.733    2.133 
#    2.400    0.000    2.933    0.000    0.000    0.000 
#    0.000    0.000    0.000    0.000    0.000    0.000 
#
# Total GULP energy -83763.001343 kJ/mol
# GULP energy per Si atom -5584.200090 kJ/mol
# Density = 1.980989 g / cm^3
# Si number density = 19.855086 Si / 1000 Ang^3
#
#
#
# Elastic Constant Matrix: (Units=GPa)
#
#
# Indices 1 2 3 4 5 6 
#
# 1 107.4476 29.0775 37.3590 0.0000 -17.3887 0.0000
# 2 29.0775 72.8420 25.8712 0.0000 -9.6307 0.0000
# 3 37.3590 25.8712 100.2835 0.0000 -14.1843 0.0000
# 4 0.0000 0.0000 0.0000 -16.2117 0.0000 -59.1912
# 5 -17.3887 -9.6307 -14.1843 0.0000 36.8792 0.0000
# 6 0.0000 0.0000 0.0000 -59.1912 0.0000 -42.9130
#
#
#
# Elastic Compliance Matrix: (Units=1/GPa)
#
#
# Indices 1 2 3 4 5 6 
#
# 1 0.011807 -0.003147 -0.003083 0.000000 0.003559 0.000000
# 2 -0.003147 0.016189 -0.002766 0.000000 0.001680 0.000000
# 3 -0.003083 -0.002766 0.012189 0.000000 0.002512 0.000000
# 4 0.000000 0.000000 0.000000 0.015283 0.000000 -0.021080
# 5 0.003559 0.001680 0.002512 0.000000 0.030199 0.000000
# 6 0.000000 0.000000 0.000000 -0.021080 0.000000 0.005774
#
#
# Mechanical properties :
#
#
# Convention : Reuss Voigt Hill
#
# Bulk Modulus (GPa) = 45.06234 51.68762 48.37498
# Shear Modulus (GPa) = 42.79683 8.10194 25.44938
#
# Velocity S-wave (km/s) = 4.64773 2.02222 3.58405
# Velocity P-wave (km/s) = 7.17961 5.61618 6.44547
#
# Compressibility (1/GPa) = 0.02219148
#
# Stress axis : x y z
#
# Youngs Moduli (GPa) = 84.69880 61.76888 82.03962
#
# Poissons Ratio (x) = 0.19442 0.25292
# Poissons Ratio (y) = 0.26659 0.22696
# Poissons Ratio (z) = 0.26112 0.17088
#
# Static dielectric constant tensor:
#      x y z
#    x 1.709870 0.000000 -0.029640 
#    y 0.000000 1.713370 0.000000 
#    z -0.029640 0.000000 1.767980 
# 
# From -- ./inp_files/20682.got.cif
#   From: 2010.05.17/outbox.cif.g08.bks.cpg/sg5_11_cif.got.tgz:20682.got - 2010.06.03 18:56:24.
