data_PCOD9125425
_publ_section_title
;
Structure prediction by ZEFSAII (Michael W. Deem and Ramdas Pophale) SiO2 
 PCOD9125425
Probable space group: C 2
;
_chemical_formula_sum "Si O2"
_cell_formula_units_Z 26
_cell_length_a 8.907092
_cell_length_b 14.835549
_cell_length_c 16.265797
_cell_angle_alpha 90.000000
_cell_angle_beta 144.362382
_cell_angle_gamma 90.000000
_cell_volume 1252.355558
_symmetry_space_group_name_H-M "C 2"
_symmetry_group_IT_number 5
_symmetry_cell_setting 'monoclinic'
loop_
_space_group_symop_operation_xyz
x,y,z
-x,y,-z
1/2+x,1/2+y,z
1/2-x,1/2+y,-z
loop_
_atom_site_type_symbol
_atom_site_label
_atom_site_fract_x
_atom_site_fract_y
_atom_site_fract_z
Si Si1 0.789799 0.352500 0.779206
Si Si2 0.927282 0.375373 0.270596
Si Si3 0.439777 0.061904 0.376915
Si Si4 0.357467 0.630412 0.082348
Si Si5 0.500000 0.708444 0.000000
Si Si6 0.000000 0.486721 0.000000
Si Si7 0.839533 0.745901 0.514558
Si Si8 0.000000 0.781677 0.000000
O O1 0.905824 0.268822 0.882976
O O2 0.500832 0.320967 0.635042
O O3 0.933542 0.376132 0.757710
O O4 0.829070 0.431334 0.860474
O O5 0.957020 0.470360 0.331014
O O6 0.630388 0.346794 0.125037
O O7 0.065147 0.290978 0.377279
O O8 0.500000 0.040961 0.500000
O O9 0.634724 0.144417 0.439820
O O10 0.153962 0.106463 0.237256
O O11 0.226423 0.715316 0.070277
O O12 0.308049 0.644783 0.963166
O O13 0.194218 0.545878 0.035589
O O14 0.000000 0.739680 0.500000
#
# Coordination Sequence:
#
# PCOD9125425 Si02
#       8
#     4   4   4   4   2   2   4   2
#     4  10  21  41  65  97 136 178 224 282 347 406
#     4  11  24  40  72 100 135 184 234 290 341 417
#     4  11  24  42  69  98 136 183 237 281 349 415
#     4  11  24  42  67  99 134 185 222 291 339 407
#     4  11  20  40  70  97 128 186 223 267 359 399
#     4  10  26  36  63 101 144 168 232 284 333 413
#     4   9  19  43  65  91 129 178 225 279 346 398
#     4  11  22  46  65  98 144 170 233 291 344 398
#
# _framework density 20.760877000000001
#
# number of rings (size 3 to 8) (size 9 to 14) (size 15 to 20)
#    0.000    1.538    3.077    1.846    6.462    0.000 
#    0.000    0.000    0.000    0.000    0.000    0.000 
#    0.000    0.000    0.000    0.000    0.000    0.000 
#
# Total GULP energy -72438.863051 kJ/mol
# GULP energy per Si atom -5572.220235 kJ/mol
# Density = 2.071362 g / cm^3
# Si number density = 20.760877 Si / 1000 Ang^3
#
#
#
# Elastic Constant Matrix: (Units=GPa)
#
#
# Indices 1 2 3 4 5 6 
#
# 1 66.9481 52.5245 31.5151 -0.0006 -16.9268 0.0006
# 2 52.5245 165.0001 70.1798 -0.0001 -10.0825 -0.0001
# 3 31.5151 70.1798 114.5429 0.0003 0.8946 -0.0012
# 4 -0.0006 -0.0001 0.0003 -57.8846 -0.0004 140.9136
# 5 -16.9268 -10.0825 0.8946 -0.0004 28.4128 0.0002
# 6 0.0006 -0.0001 -0.0012 140.9136 0.0002 -204.5784
#
#
#
# Elastic Compliance Matrix: (Units=1/GPa)
#
#
# Indices 1 2 3 4 5 6 
#
# 1 0.023915 -0.005428 -0.003351 0.000000 0.012427 0.000000
# 2 -0.005428 0.009705 -0.004455 0.000000 0.000350 0.000000
# 3 -0.003351 -0.004455 0.012413 0.000000 -0.003968 0.000000
# 4 0.000000 0.000000 0.000000 0.025525 0.000000 0.017582
# 5 0.012427 0.000350 -0.003968 0.000000 0.042848 0.000000
# 6 0.000000 0.000000 0.000000 0.017582 0.000000 0.007222
#
#
# Mechanical properties :
#
#
# Convention : Reuss Voigt Hill
#
# Bulk Modulus (GPa) = 51.11521 72.77000 61.94261
# Shear Modulus (GPa) = 32.33745 -33.99193 -0.82724
#
# Velocity S-wave (km/s) = 3.95094 -4.05075 -0.63192
# Velocity P-wave (km/s) = 6.74445 3.63998 5.41928
#
# Compressibility (1/GPa) = 0.01956365
#
# Stress axis : x y z
#
# Youngs Moduli (GPa) = 41.81471 103.03955 80.55926
#
# Poissons Ratio (x) = 0.55932 0.26997
# Poissons Ratio (y) = 0.22698 0.35893
# Poissons Ratio (z) = 0.14013 0.45909
#
# Static dielectric constant tensor:
#      x y z
#    x 2.439440 0.000000 -0.185660 
#    y 0.000000 1.802720 0.000000 
#    z -0.185660 0.000000 1.846330 
# 
# From -- ./inp_files/51059.got.cif
#   From: 2010.05.17/outbox.cif.g08.bks.cpg/sg5_26_cif.got.tgz:51059.got - 2010.06.03 18:56:24.
