data_PCOD9125307
_publ_section_title
;
Structure prediction by ZEFSAII (Michael W. Deem and Ramdas Pophale) SiO2 
 PCOD9125307
Probable space group: C 2
;
_chemical_formula_sum "Si O2"
_cell_formula_units_Z 26
_cell_length_a 12.035574
_cell_length_b 20.632247
_cell_length_c 8.884298
_cell_angle_alpha 90.000000
_cell_angle_beta 36.846455
_cell_angle_gamma 90.000000
_cell_volume 1322.972082
_symmetry_space_group_name_H-M "C 2"
_symmetry_group_IT_number 5
_symmetry_cell_setting 'monoclinic'
loop_
_space_group_symop_operation_xyz
x,y,z
-x,y,-z
1/2+x,1/2+y,z
1/2-x,1/2+y,-z
loop_
_atom_site_type_symbol
_atom_site_label
_atom_site_fract_x
_atom_site_fract_y
_atom_site_fract_z
Si Si1 0.928801 0.123240 0.242123
Si Si2 0.000000 0.961664 0.500000
Si Si3 0.292107 0.833950 0.731716
Si Si4 0.415585 0.211982 0.434067
Si Si5 0.049559 0.856896 0.697672
Si Si6 0.768040 0.185633 0.863001
Si Si7 0.782019 0.562650 0.270703
O O1 0.782635 0.180885 0.372808
O O2 0.813749 0.067450 0.459046
O O3 0.095508 0.156586 0.157160
O O4 0.000000 0.101022 0.000000
O O5 0.939025 0.916194 0.428318
O O6 0.827538 0.009862 0.709026
O O7 0.500000 0.859868 0.500000
O O8 0.189043 0.850918 0.687663
O O9 0.305698 0.756884 0.755203
O O10 0.157035 0.858940 0.008971
O O11 0.500000 0.190215 0.500000
O O12 0.416406 0.289583 0.426069
O O13 0.559651 0.188963 0.151939
O O14 0.771220 0.133715 0.728955
O O15 0.000000 0.553538 0.000000
#
# Coordination Sequence:
#
# PCOD9125307 Si02
#       7
#     4   2   4   4   4   4   4
#     4  12  23  38  65 104 136 167 212 279 343 389
#     4  12  26  46  64  92 134 182 228 258 316 398
#     4  10  21  40  69  99 127 164 216 281 334 387
#     4  11  20  36  64  99 136 162 209 276 333 391
#     4  10  23  41  64  93 131 181 214 262 328 390
#     4  11  21  39  66 102 132 167 216 270 344 395
#     4  12  25  43  67  92 130 179 224 269 322 398
#
# _framework density 19.652719000000001
#
# number of rings (size 3 to 8) (size 9 to 14) (size 15 to 20)
#    0.000    0.923    5.385    2.769    2.154    1.231 
#    2.769    0.769    0.000    0.000    0.000    0.000 
#    0.000    0.000    0.000    0.000    0.000    0.000 
#
# Total GULP energy -72522.784749 kJ/mol
# GULP energy per Si atom -5578.675750 kJ/mol
# Density = 1.960799 g / cm^3
# Si number density = 19.652719 Si / 1000 Ang^3
#
#
#
# Elastic Constant Matrix: (Units=GPa)
#
#
# Indices 1 2 3 4 5 6 
#
# 1 78.8924 9.6401 26.6542 0.0000 -8.2698 0.0000
# 2 9.6401 38.8951 10.8315 0.0000 5.2322 0.0000
# 3 26.6542 10.8315 99.8951 -0.0001 -11.5265 0.0000
# 4 0.0000 0.0000 -0.0001 4.0592 0.0000 -6.3959
# 5 -8.2698 5.2322 -11.5265 0.0000 39.5556 0.0000
# 6 0.0000 0.0000 0.0000 -6.3959 0.0000 9.6197
#
#
#
# Elastic Compliance Matrix: (Units=1/GPa)
#
#
# Indices 1 2 3 4 5 6 
#
# 1 0.014392 -0.002999 -0.003231 0.000000 0.002464 0.000000
# 2 -0.002999 0.027931 -0.002822 -0.000001 -0.005144 -0.000001
# 3 -0.003231 -0.002822 0.011531 -0.000005 0.003058 -0.000003
# 4 0.000000 -0.000001 -0.000005 -5.171242 0.000002 -3.438266
# 5 0.002464 -0.005144 0.003058 0.000002 0.027368 0.000001
# 6 0.000000 -0.000001 -0.000003 -3.438266 0.000001 -2.182088
#
#
# Mechanical properties :
#
#
# Convention : Reuss Voigt Hill
#
# Bulk Modulus (GPa) = 27.97069 34.65935 31.31502
# Shear Modulus (GPa) = -0.69041 22.01734 10.66346
#
# Velocity S-wave (km/s) = -0.59335 3.35075 2.33189
# Velocity P-wave (km/s) = 3.71402 5.71351 4.81862
#
# Compressibility (1/GPa) = 0.03575170
#
# Stress axis : x y z
#
# Youngs Moduli (GPa) = 69.48458 35.80223 86.72033
#
# Poissons Ratio (x) = 0.10736 0.28015
# Poissons Ratio (y) = 0.20837 0.24472
# Poissons Ratio (z) = 0.22447 0.10103
#
# Static dielectric constant tensor:
#      x y z
#    x 1.761060 0.000000 0.029880 
#    y 0.000000 1.656030 0.000000 
#    z 0.029880 0.000000 1.751450 
# 
# From -- ./inp_files/21895.got.cif
#   From: 2010.05.17/outbox.cif.g08.bks.cpg/sg5_11_cif.got.tgz:21895.got - 2010.06.03 18:56:24.
