data_PCOD9125390
_publ_section_title
;
Structure prediction by ZEFSAII (Michael W. Deem and Ramdas Pophale) SiO2 
 PCOD9125390
Probable space group: C 2
;
_chemical_formula_sum "Si O2"
_cell_formula_units_Z 18
_cell_length_a 18.061038
_cell_length_b 8.771903
_cell_length_c 8.632197
_cell_angle_alpha 90.000000
_cell_angle_beta 136.740219
_cell_angle_gamma 90.000000
_cell_volume 937.223655
_symmetry_space_group_name_H-M "C 2"
_symmetry_group_IT_number 5
_symmetry_cell_setting 'monoclinic'
loop_
_space_group_symop_operation_xyz
x,y,z
-x,y,-z
1/2+x,1/2+y,z
1/2-x,1/2+y,-z
loop_
_atom_site_type_symbol
_atom_site_label
_atom_site_fract_x
_atom_site_fract_y
_atom_site_fract_z
Si Si1 0.056452 0.944750 0.831444
Si Si2 0.500000 0.205497 0.000000
Si Si3 0.670352 0.401665 0.690690
Si Si4 0.314972 0.982589 0.657857
Si Si5 0.681726 0.661067 0.221616
O O1 0.144483 0.924017 0.830104
O O2 0.054904 0.811900 0.955903
O O3 0.940035 0.934802 0.571138
O O4 0.086543 0.098800 0.969034
O O5 0.413002 0.096438 0.787712
O O6 0.760435 0.506108 0.744383
O O7 0.720160 0.234447 0.729943
O O8 0.227176 0.023900 0.394869
O O9 0.347231 0.804874 0.712834
#
# Coordination Sequence:
#
# PCOD9125390 Si02
#       5
#     4   2   4   4   4
#     4  11  21  41  67  93 131 178 215 269 330 383
#     4  12  22  38  68  96 134 178 216 272 326 394
#     4   9  23  39  64  95 131 168 221 262 329 385
#     4  10  22  39  60 101 128 172 221 266 326 389
#     4  10  21  41  64  93 128 176 210 272 319 392
#
# _framework density 19.205662
#
# number of rings (size 3 to 8) (size 9 to 14) (size 15 to 20)
#    1.333    0.444    2.222    2.667    3.111    2.667 
#    0.000    0.000    0.000    0.000    0.000    0.000 
#    0.000    0.000    0.000    0.000    0.000    0.000 
#
# Total GULP energy -50111.544473 kJ/mol
# GULP energy per Si atom -5567.949386 kJ/mol
# Density = 1.916195 g / cm^3
# Si number density = 19.205662 Si / 1000 Ang^3
#
#
#
# Elastic Constant Matrix: (Units=GPa)
#
#
# Indices 1 2 3 4 5 6 
#
# 1 66.9243 27.9516 7.7741 0.0000 -6.7691 0.0000
# 2 27.9516 106.2641 45.6173 0.0000 -4.8737 0.0000
# 3 7.7741 45.6173 69.1301 0.0000 -4.7577 0.0000
# 4 0.0000 0.0000 0.0000 28.8281 0.0000 11.5442
# 5 -6.7691 -4.8737 -4.7577 0.0000 25.3731 0.0000
# 6 0.0000 0.0000 0.0000 11.5442 0.0000 29.7078
#
#
#
# Elastic Compliance Matrix: (Units=1/GPa)
#
#
# Indices 1 2 3 4 5 6 
#
# 1 0.017269 -0.005085 0.001685 0.000000 0.003946 0.000000
# 2 -0.005085 0.014648 -0.009111 0.000000 -0.000251 0.000000
# 3 0.001685 -0.009111 0.020463 0.000000 0.002536 0.000000
# 4 0.000000 0.000000 0.000000 0.041081 0.000000 -0.015964
# 5 0.003946 -0.000251 0.002536 0.000000 0.040892 0.000000
# 6 0.000000 0.000000 0.000000 -0.015964 0.000000 0.039865
#
#
# Mechanical properties :
#
#
# Convention : Reuss Voigt Hill
#
# Bulk Modulus (GPa) = 36.55270 45.00049 40.77659
# Shear Modulus (GPa) = 23.99704 27.51350 25.75527
#
# Velocity S-wave (km/s) = 3.53863 3.78904 3.66597
# Velocity P-wave (km/s) = 5.98075 6.52872 6.26073
#
# Compressibility (1/GPa) = 0.02735776
#
# Stress axis : x y z
#
# Youngs Moduli (GPa) = 57.90584 68.26982 48.86916
#
# Poissons Ratio (x) = 0.34714 -0.08234
# Poissons Ratio (y) = 0.29444 0.44526
# Poissons Ratio (z) = -0.09757 0.62202
#
# Static dielectric constant tensor:
#      x y z
#    x 1.692680 0.000000 0.012090 
#    y 0.000000 1.660960 0.000000 
#    z 0.012090 0.000000 1.684380 
# 
# From -- ./inp_files/17935.got.cif
#   From: 2010.05.17/outbox.cif.g08.bks.cpg/sg5_9_cif.got.tgz:17935.got - 2010.06.03 18:56:24.
