data_PCOD9125319
_publ_section_title
;
Structure prediction by ZEFSAII (Michael W. Deem and Ramdas Pophale) SiO2 
 PCOD9125319
Probable space group: C 2
;
_chemical_formula_sum "Si O2"
_cell_formula_units_Z 28
_cell_length_a 24.225154
_cell_length_b 8.903107
_cell_length_c 8.463716
_cell_angle_alpha 90.000000
_cell_angle_beta 131.933779
_cell_angle_gamma 90.000000
_cell_volume 1357.982301
_symmetry_space_group_name_H-M "C 2"
_symmetry_group_IT_number 5
_symmetry_cell_setting 'monoclinic'
loop_
_space_group_symop_operation_xyz
x,y,z
-x,y,-z
1/2+x,1/2+y,z
1/2-x,1/2+y,-z
loop_
_atom_site_type_symbol
_atom_site_label
_atom_site_fract_x
_atom_site_fract_y
_atom_site_fract_z
Si Si1 0.000000 0.734280 0.500000
Si Si2 0.636400 0.841276 0.579441
Si Si3 0.238423 0.104842 0.642516
Si Si4 0.000000 0.224321 0.500000
Si Si5 0.093950 0.975260 0.858146
Si Si6 0.263442 0.388318 0.075153
Si Si7 0.132876 0.670510 0.536252
Si Si8 0.841696 0.864125 0.708212
O O1 0.958382 0.839188 0.295129
O O2 0.935204 0.655231 0.472531
O O3 0.663338 0.699983 0.529083
O O4 0.554928 0.815498 0.492299
O O5 0.646801 0.000044 0.511569
O O6 0.694050 0.846446 0.835832
O O7 0.300215 0.225765 0.714845
O O8 0.257859 0.014542 0.838306
O O9 0.218738 0.979466 0.476519
O O10 0.947700 0.121018 0.288369
O O11 0.171036 0.952440 0.910778
O O12 0.109962 0.955556 0.073386
O O13 0.298922 0.247560 0.238427
O O14 0.117986 0.785757 0.364278
#
# Coordination Sequence:
#
# PCOD9125319 Si02
#       8
#     2   4   4   2   4   4   4   4
#     4   9  21  42  64  92 124 166 232 266 326 396
#     4  12  22  40  67  96 137 170 224 285 327 391
#     4  11  23  41  64 101 131 170 225 281 330 404
#     4  11  25  40  68 104 132 172 234 282 332 390
#     4  10  21  41  68  93 126 176 223 270 329 403
#     4  10  21  40  70  95 125 178 230 269 327 400
#     4  10  23  40  65  99 131 173 221 278 335 403
#     4  11  24  40  67  98 136 174 219 279 341 395
#
# _framework density 20.618825999999999
#
# number of rings (size 3 to 8) (size 9 to 14) (size 15 to 20)
#    0.000    1.429    2.857    2.143    4.000    1.714 
#    0.000    0.000    3.143    0.000    0.000    0.000 
#    0.000    0.000    0.000    0.000    0.000    0.000 
#
# Total GULP energy -78211.134248 kJ/mol
# GULP energy per Si atom -5586.509589 kJ/mol
# Density = 2.057190 g / cm^3
# Si number density = 20.618826 Si / 1000 Ang^3
#
#
#
# Elastic Constant Matrix: (Units=GPa)
#
#
# Indices 1 2 3 4 5 6 
#
# 1 66.6322 24.3236 7.2649 0.0000 7.9921 0.0000
# 2 24.3236 106.0952 15.8912 0.0000 -3.9151 0.0000
# 3 7.2649 15.8912 83.8681 0.0000 -14.0224 0.0000
# 4 0.0000 0.0000 0.0000 9.0733 0.0000 -3.9164
# 5 7.9921 -3.9151 -14.0224 0.0000 29.5346 0.0000
# 6 0.0000 0.0000 0.0000 -3.9164 0.0000 22.6709
#
#
#
# Elastic Compliance Matrix: (Units=1/GPa)
#
#
# Indices 1 2 3 4 5 6 
#
# 1 0.017366 -0.003940 -0.001771 0.000000 -0.006063 0.000000
# 2 -0.003940 0.010600 -0.001362 0.000000 0.001825 0.000000
# 3 -0.001771 -0.001362 0.013453 0.000000 0.006686 0.000000
# 4 0.000000 0.000000 0.000000 0.119094 0.000000 0.020574
# 5 -0.006063 0.001825 0.006686 0.000000 0.038915 0.000000
# 6 0.000000 0.000000 0.000000 0.020574 0.000000 0.047663
#
#
# Mechanical properties :
#
#
# Convention : Reuss Voigt Hill
#
# Bulk Modulus (GPa) = 36.66711 39.06167 37.86439
# Shear Modulus (GPa) = 18.49594 26.19682 22.34638
#
# Velocity S-wave (km/s) = 2.99831 3.56832 3.29566
# Velocity P-wave (km/s) = 5.45971 5.99691 5.73461
#
# Compressibility (1/GPa) = 0.02727240
#
# Stress axis : x y z
#
# Youngs Moduli (GPa) = 57.58291 94.33873 74.33345
#
# Poissons Ratio (x) = 0.37168 0.13168
# Poissons Ratio (y) = 0.22687 0.10125
# Poissons Ratio (z) = 0.10201 0.12850
#
# Static dielectric constant tensor:
#      x y z
#    x 1.765870 0.000000 -0.018910 
#    y 0.000000 1.744170 0.000000 
#    z -0.018910 0.000000 1.730040 
# 
# From -- ./inp_files/26716.got.cif
#   From: 2010.05.17/outbox.cif.g08.bks.cpg/sg5_14_cif.got.tgz:26716.got - 2010.06.03 18:56:24.
