data_PCOD9125216
_publ_section_title
;
Structure prediction by ZEFSAII (Michael W. Deem and Ramdas Pophale) SiO2 
 PCOD9125216
Probable space group: C 2
;
_chemical_formula_sum "Si O2"
_cell_formula_units_Z 20
_cell_length_a 7.947067
_cell_length_b 17.320260
_cell_length_c 8.910080
_cell_angle_alpha 90.000000
_cell_angle_beta 121.794173
_cell_angle_gamma 90.000000
_cell_volume 1042.399903
_symmetry_space_group_name_H-M "C 2"
_symmetry_group_IT_number 5
_symmetry_cell_setting 'monoclinic'
loop_
_space_group_symop_operation_xyz
x,y,z
-x,y,-z
1/2+x,1/2+y,z
1/2-x,1/2+y,-z
loop_
_atom_site_type_symbol
_atom_site_label
_atom_site_fract_x
_atom_site_fract_y
_atom_site_fract_z
Si Si1 0.580566 0.861900 0.709610
Si Si2 0.157801 0.048987 0.854574
Si Si3 0.430996 0.695776 0.643924
Si Si4 0.466309 0.028419 0.765171
Si Si5 0.500000 0.140197 0.500000
Si Si6 0.000000 0.919505 0.000000
O O1 0.500000 0.866702 0.500000
O O2 0.508570 0.779016 0.732822
O O3 0.496914 0.937986 0.750224
O O4 0.815174 0.869923 0.852816
O O5 0.248591 0.035948 0.732480
O O6 0.024693 0.124665 0.780091
O O7 0.356814 0.057432 0.045114
O O8 0.051740 0.977095 0.885428
O O9 0.500000 0.688935 0.500000
O O10 0.196339 0.690221 0.562292
O O11 0.498565 0.081119 0.637350
#
# Coordination Sequence:
#
# PCOD9125216 Si02
#       6
#     4   4   4   4   2   2
#     4  10  22  42  62  95 132 168 211 269 324 380
#     4  10  21  40  64  97 122 168 220 259 320 388
#     4  11  23  41  62  96 131 167 215 266 325 381
#     4  10  21  40  67  92 127 170 216 260 320 389
#     4  12  22  42  64  94 128 174 214 260 322 384
#     4  10  22  42  68  90 130 176 216 264 322 382
#
# _framework density 19.186494
#
# number of rings (size 3 to 8) (size 9 to 14) (size 15 to 20)
#    0.000    1.600    3.000    2.400    0.000    1.600 
#    7.200   10.000    0.000    0.000    0.000    0.000 
#    0.000    0.000    0.000    0.000    0.000    0.000 
#
# Total GULP energy -55724.207915 kJ/mol
# GULP energy per Si atom -5572.420792 kJ/mol
# Density = 1.914282 g / cm^3
# Si number density = 19.186494 Si / 1000 Ang^3
#
#
#
# Elastic Constant Matrix: (Units=GPa)
#
#
# Indices 1 2 3 4 5 6 
#
# 1 149.0536 66.2439 44.0608 0.0000 21.5350 0.0000
# 2 66.2439 117.7926 59.1470 0.0000 33.4616 0.0000
# 3 44.0608 59.1470 70.4280 0.0000 17.1983 0.0000
# 4 0.0000 0.0000 0.0000 24.0473 0.0000 19.7367
# 5 21.5350 33.4616 17.1983 0.0000 31.9983 0.0000
# 6 0.0000 0.0000 0.0000 19.7367 0.0000 14.5228
#
#
#
# Elastic Compliance Matrix: (Units=1/GPa)
#
#
# Indices 1 2 3 4 5 6 
#
# 1 0.009205 -0.003653 -0.002430 0.000000 -0.001069 0.000000
# 2 -0.003653 0.019596 -0.011244 0.000000 -0.011990 0.000000
# 3 -0.002430 -0.011244 0.025199 0.000000 -0.000150 0.000000
# 4 0.000000 0.000000 0.000000 -0.360331 0.000000 0.489695
# 5 -0.001069 -0.011990 -0.000150 0.000000 0.044591 0.000000
# 6 0.000000 0.000000 0.000000 0.489695 0.000000 -0.596645
#
#
# Mechanical properties :
#
#
# Convention : Reuss Voigt Hill
#
# Bulk Modulus (GPa) = 51.68951 75.13084 63.41018
# Shear Modulus (GPa) = -6.11782 25.30184 9.59201
#
# Velocity S-wave (km/s) = -1.78760 3.63537 2.23835
# Velocity P-wave (km/s) = 4.76847 7.54085 6.30884
#
# Compressibility (1/GPa) = 0.01934628
#
# Stress axis : x y z
#
# Youngs Moduli (GPa) = 108.63342 51.03184 39.68489
#
# Poissons Ratio (x) = 0.18642 0.09644
# Poissons Ratio (y) = 0.39683 0.44620
# Poissons Ratio (z) = 0.26399 0.57378
#
# Static dielectric constant tensor:
#      x y z
#    x 1.702800 0.000000 -0.019540 
#    y 0.000000 1.627710 0.000000 
#    z -0.019540 0.000000 1.703340 
# 
# From -- ./inp_files/15300.got.cif
#   From: 2010.05.17/outbox.cif.g08.bks.cpg/sg5_8_cif.got.tgz:15300.got - 2010.06.03 18:56:24.
