data_PCOD9125251
_publ_section_title
;
Structure prediction by ZEFSAII (Michael W. Deem and Ramdas Pophale) SiO2 
 PCOD9125251
Probable space group: C 2
;
_chemical_formula_sum "Si O2"
_cell_formula_units_Z 32
_cell_length_a 18.051845
_cell_length_b 11.844749
_cell_length_c 15.109395
_cell_angle_alpha 90.000000
_cell_angle_beta 27.749375
_cell_angle_gamma 90.000000
_cell_volume 1504.222373
_symmetry_space_group_name_H-M "C 2"
_symmetry_group_IT_number 5
_symmetry_cell_setting 'monoclinic'
loop_
_space_group_symop_operation_xyz
x,y,z
-x,y,-z
1/2+x,1/2+y,z
1/2-x,1/2+y,-z
loop_
_atom_site_type_symbol
_atom_site_label
_atom_site_fract_x
_atom_site_fract_y
_atom_site_fract_z
Si Si1 0.104308 0.050100 0.810414
Si Si2 0.615391 0.890006 0.463690
Si Si3 0.105230 0.516678 0.798608
Si Si4 0.815774 0.729607 0.361996
Si Si5 0.137147 0.279437 0.167468
Si Si6 0.443382 0.766059 0.222607
Si Si7 0.011809 0.054313 0.591264
Si Si8 0.046679 0.909704 0.183710
O O1 0.094648 0.184455 0.817969
O O2 0.280973 0.002300 0.636464
O O3 0.014142 0.006213 0.818431
O O4 0.000000 0.002326 0.000000
O O5 0.500000 0.881144 0.500000
O O6 0.746497 0.790771 0.345824
O O7 0.494335 0.875319 0.672502
O O8 0.064184 0.627433 0.784198
O O9 0.085034 0.395140 0.774738
O O10 0.295789 0.545203 0.600424
O O11 0.000000 0.518000 0.000000
O O12 0.666321 0.709760 0.584054
O O13 0.905212 0.821457 0.326347
O O14 0.116562 0.254254 0.085007
O O15 0.302190 0.340211 0.010588
O O16 0.080364 0.171817 0.286094
O O17 0.000000 0.033484 0.500000
O O18 0.936011 0.962838 0.737778
#
# Coordination Sequence:
#
# PCOD9125251 Si02
#       8
#     4   4   4   4   4   4   4   4
#     4  11  23  43  69  97 144 184 228 293 358 428
#     4  10  21  40  66 104 132 172 233 297 353 421
#     4  12  26  43  72 105 137 186 244 285 362 434
#     4  10  23  41  71  94 136 182 230 291 352 419
#     4  11  24  40  71  96 139 187 235 289 355 414
#     4  11  23  46  67  96 140 190 231 288 356 424
#     4  12  26  47  67 104 152 183 234 307 351 424
#     4  11  24  46  69 103 138 186 234 292 360 417
#
# _framework density 21.273451000000001
#
# number of rings (size 3 to 8) (size 9 to 14) (size 15 to 20)
#    0.000    1.000    5.000    1.500    7.000    2.000 
#    0.000    0.625    0.000    0.000    0.000    0.000 
#    0.000    0.000    0.000    0.000    0.000    0.000 
#
# Total GULP energy -89073.060057 kJ/mol
# GULP energy per Si atom -5567.066254 kJ/mol
# Density = 2.122503 g / cm^3
# Si number density = 21.273451 Si / 1000 Ang^3
#
#
#
# Elastic Constant Matrix: (Units=GPa)
#
#
# Indices 1 2 3 4 5 6 
#
# 1 89.0789 57.4175 32.5193 0.0000 12.3278 0.0000
# 2 57.4175 125.4839 27.0835 0.0001 12.2862 0.0000
# 3 32.5193 27.0835 79.6860 0.0001 9.1142 0.0000
# 4 0.0000 0.0001 0.0001 19.5185 -0.0001 -0.3123
# 5 12.3278 12.2862 9.1142 -0.0001 35.0719 0.0000
# 6 0.0000 0.0000 0.0000 -0.3123 0.0000 5.1203
#
#
#
# Elastic Compliance Matrix: (Units=1/GPa)
#
#
# Indices 1 2 3 4 5 6 
#
# 1 0.017672 -0.006839 -0.004587 0.000000 -0.002624 0.000000
# 2 -0.006839 0.011434 -0.000940 0.000000 -0.001357 0.000000
# 3 -0.004587 -0.000940 0.014963 0.000000 -0.001947 0.000000
# 4 0.000000 0.000000 0.000000 0.051284 0.000000 0.003128
# 5 -0.002624 -0.001357 -0.001947 0.000000 0.030417 0.000000
# 6 0.000000 0.000000 0.000000 0.003128 0.000000 0.195490
#
#
# Mechanical properties :
#
#
# Convention : Reuss Voigt Hill
#
# Bulk Modulus (GPa) = 51.71452 58.69882 55.20667
# Shear Modulus (GPa) = 14.18686 23.75739 18.97212
#
# Velocity S-wave (km/s) = 2.58521 3.34542 2.98958
# Velocity P-wave (km/s) = 5.76830 6.52495 6.15825
#
# Compressibility (1/GPa) = 0.01933693
#
# Stress axis : x y z
#
# Youngs Moduli (GPa) = 56.58637 87.45578 66.82961
#
# Poissons Ratio (x) = 0.59813 0.30656
# Poissons Ratio (y) = 0.38701 0.06282
# Poissons Ratio (z) = 0.25958 0.08221
#
# Static dielectric constant tensor:
#      x y z
#    x 1.929620 0.000000 -0.033800 
#    y 0.000000 1.845010 0.000000 
#    z -0.033800 0.000000 1.785840 
# 
# From -- ./inp_files/56010.got.cif
#   From: 2010.05.17/outbox.cif.g08.bks.cpg/sg5_29_cif.got.tgz:56010.got - 2010.06.03 18:56:24.
