data_PCOD9125921
_publ_section_title
;
Structure prediction by ZEFSAII (Michael W. Deem and Ramdas Pophale) SiO2 
 PCOD9125921
Probable space group: C 2
;
_chemical_formula_sum "Si O2"
_cell_formula_units_Z 20
_cell_length_a 12.303471
_cell_length_b 11.666827
_cell_length_c 5.502449
_cell_angle_alpha 90.000000
_cell_angle_beta 77.888880
_cell_angle_gamma 90.000000
_cell_volume 772.255381
_symmetry_space_group_name_H-M "C 2"
_symmetry_group_IT_number 5
_symmetry_cell_setting 'monoclinic'
loop_
_space_group_symop_operation_xyz
x,y,z
-x,y,-z
1/2+x,1/2+y,z
1/2-x,1/2+y,-z
loop_
_atom_site_type_symbol
_atom_site_label
_atom_site_fract_x
_atom_site_fract_y
_atom_site_fract_z
Si Si1 0.500000 0.908650 0.500000
Si Si2 0.325482 0.255486 0.224806
Si Si3 0.348582 0.467634 0.923422
Si Si4 0.884934 0.544211 0.915358
Si Si5 0.922505 0.192742 0.728965
Si Si6 0.000000 0.814594 0.500000
O O1 0.491081 0.811612 0.720707
O O2 0.403048 0.993522 0.637139
O O3 0.196323 0.230002 0.329702
O O4 0.415337 0.234586 0.389030
O O5 0.344525 0.388944 0.161271
O O6 0.356234 0.177248 0.977066
O O7 0.391088 0.597513 0.940742
O O8 0.423266 0.396262 0.703182
O O9 0.219151 0.479596 0.911058
O O10 0.000000 0.525365 0.000000
O O11 0.000000 0.128282 0.500000
#
# Coordination Sequence:
#
# PCOD9125921 Si02
#       6
#     2   4   4   4   4   2
#     4  10  21  47  72 102 144 191 227 304 356 428
#     4  11  25  46  72 108 148 188 246 296 361 436
#     4  11  22  44  73 108 144 186 247 303 355 435
#     4  11  25  42  73 109 147 187 245 297 366 431
#     4   9  20  44  75 105 138 186 242 295 365 417
#     4  12  25  43  72 104 152 195 233 302 358 436
#
# _framework density 25.898168999999999
#
# number of rings (size 3 to 8) (size 9 to 14) (size 15 to 20)
#    0.600    0.800    3.000    1.800    2.800    3.200 
#    0.000   12.000    0.000    0.000    0.000    1.400 
#    0.000    0.000    0.000    0.000    0.000    0.000 
#
# Total GULP energy -55715.771060 kJ/mol
# GULP energy per Si atom -5571.577106 kJ/mol
# Density = 2.583922 g / cm^3
# Si number density = 25.898169 Si / 1000 Ang^3
#
#
#
# Elastic Constant Matrix: (Units=GPa)
#
#
# Indices 1 2 3 4 5 6 
#
# 1 183.3689 42.7424 64.8352 0.0000 -33.6136 0.0000
# 2 42.7424 167.4849 38.7951 0.0000 -10.3578 0.0000
# 3 64.8352 38.7951 57.0811 0.0000 -17.1001 0.0000
# 4 0.0000 0.0000 0.0000 30.4008 0.0000 -12.4298
# 5 -33.6136 -10.3578 -17.1001 0.0000 38.9174 0.0000
# 6 0.0000 0.0000 0.0000 -12.4298 0.0000 30.2767
#
#
#
# Elastic Compliance Matrix: (Units=1/GPa)
#
#
# Indices 1 2 3 4 5 6 
#
# 1 0.009637 0.000054 -0.009772 0.000000 0.004045 0.000000
# 2 0.000054 0.007089 -0.004952 0.000000 -0.000242 0.000000
# 3 -0.009772 -0.004952 0.033465 0.000000 0.004947 0.000000
# 4 0.000000 0.000000 0.000000 0.039529 0.000000 0.016228
# 5 0.004045 -0.000242 0.004947 0.000000 0.031298 0.000000
# 6 0.000000 0.000000 0.000000 0.016228 0.000000 0.039691
#
#
# Mechanical properties :
#
#
# Convention : Reuss Voigt Hill
#
# Bulk Modulus (GPa) = 47.95549 77.85337 62.90443
# Shear Modulus (GPa) = 25.38073 37.35646 31.36859
#
# Velocity S-wave (km/s) = 3.13392 3.80206 3.48405
# Velocity P-wave (km/s) = 5.62605 7.02857 6.36605
#
# Compressibility (1/GPa) = 0.02085267
#
# Stress axis : x y z
#
# Youngs Moduli (GPa) = 103.76310 141.06455 29.88153
#
# Poissons Ratio (x) = -0.00763 0.29199
# Poissons Ratio (y) = -0.00561 0.14798
# Poissons Ratio (z) = 1.01393 0.69856
#
# Static dielectric constant tensor:
#      x y z
#    x 2.066940 0.000000 0.054580 
#    y 0.000000 2.051240 0.000000 
#    z 0.054580 0.000000 2.118720 
# 
# From -- ./inp_files/6501.got.cif
#   From: 2010.05.17/outbox.cif.g08.bks.cpg/sg5_4_cif.got.tgz:6501.got - 2010.06.03 18:56:24.
