data_PCOD9125099
_publ_section_title
;
Structure prediction by ZEFSAII (Michael W. Deem and Ramdas Pophale) SiO2 
 PCOD9125099
Probable space group: C 2
;
_chemical_formula_sum "Si O2"
_cell_formula_units_Z 30
_cell_length_a 29.420827
_cell_length_b 4.833412
_cell_length_c 9.881516
_cell_angle_alpha 90.000000
_cell_angle_beta 124.570604
_cell_angle_gamma 90.000000
_cell_volume 1157.064817
_symmetry_space_group_name_H-M "C 2"
_symmetry_group_IT_number 5
_symmetry_cell_setting 'monoclinic'
loop_
_space_group_symop_operation_xyz
x,y,z
-x,y,-z
1/2+x,1/2+y,z
1/2-x,1/2+y,-z
loop_
_atom_site_type_symbol
_atom_site_label
_atom_site_fract_x
_atom_site_fract_y
_atom_site_fract_z
Si Si1 0.411123 0.855770 0.185339
Si Si2 0.282872 0.990989 0.598180
Si Si3 0.927789 0.888076 0.037628
Si Si4 0.949797 0.762794 0.664232
Si Si5 0.500000 0.537143 0.500000
Si Si6 0.257724 0.339806 0.191287
Si Si7 0.397838 0.721887 0.711578
Si Si8 0.685551 0.842331 0.797576
O O1 0.392316 0.571302 0.083325
O O2 0.467838 0.744888 0.345882
O O3 0.373231 0.935206 0.247466
O O4 0.414561 0.078423 0.070212
O O5 0.268479 0.305986 0.541626
O O6 0.340068 0.872836 0.640214
O O7 0.280231 0.945835 0.753699
O O8 0.936100 0.465065 0.708696
O O9 0.994283 0.878002 0.167781
O O10 0.915537 0.047988 0.876924
O O11 0.964102 0.829049 0.532104
O O12 0.899743 0.969504 0.610928
O O13 0.309086 0.539981 0.251910
O O14 0.283979 0.041067 0.256046
O O15 0.221843 0.344958 0.995322
#
# Coordination Sequence:
#
# PCOD9125099 Si02
#       8
#     4   4   4   4   2   4   4   4
#     4  11  23  41  68 103 143 187 232 288 362 433
#     4  12  27  46  67  99 142 189 237 293 360 435
#     4  11  24  43  70 104 141 182 240 306 355 420
#     4  11  25  45  72 106 143 188 240 298 369 446
#     4  10  26  46  70 108 156 194 236 298 368 454
#     4  10  22  41  63  95 131 166 226 291 341 407
#     4  12  26  46  73 102 141 194 249 302 365 436
#     4  10  21  39  69  97 126 174 225 284 349 410
#
# _framework density 25.927676000000002
#
# number of rings (size 3 to 8) (size 9 to 14) (size 15 to 20)
#    0.000    1.067    0.000    6.000    0.000   12.267 
#    0.000    1.333    0.000    0.000    0.000    0.000 
#    0.000    0.000    0.000    0.000    0.000    0.000 
#
# Total GULP energy -83813.549433 kJ/mol
# GULP energy per Si atom -5587.569962 kJ/mol
# Density = 2.586866 g / cm^3
# Si number density = 25.927676 Si / 1000 Ang^3
#
#
#
# Elastic Constant Matrix: (Units=GPa)
#
#
# Indices 1 2 3 4 5 6 
#
# 1 125.2217 37.8842 25.0823 0.0000 -9.8039 0.0000
# 2 37.8842 141.6005 48.7484 0.0000 -3.9266 0.0000
# 3 25.0823 48.7484 76.6103 0.0000 -2.0856 0.0000
# 4 0.0000 0.0000 0.0000 29.8565 0.0000 -5.7351
# 5 -9.8039 -3.9266 -2.0856 0.0000 31.8659 0.0000
# 6 0.0000 0.0000 0.0000 -5.7351 0.0000 45.6797
#
#
#
# Elastic Compliance Matrix: (Units=1/GPa)
#
#
# Indices 1 2 3 4 5 6 
#
# 1 0.009064 -0.001739 -0.001794 0.000000 0.002457 0.000000
# 2 -0.001739 0.009394 -0.005401 0.000000 0.000269 0.000000
# 3 -0.001794 -0.005401 0.017074 0.000000 -0.000100 0.000000
# 4 0.000000 0.000000 0.000000 0.034321 0.000000 0.004309
# 5 0.002457 0.000269 -0.000100 0.000000 0.032164 0.000000
# 6 0.000000 0.000000 0.000000 0.004309 0.000000 0.022433
#
#
# Mechanical properties :
#
#
# Convention : Reuss Voigt Hill
#
# Bulk Modulus (GPa) = 56.61169 62.98469 59.79819
# Shear Modulus (GPa) = 33.73672 36.92825 35.33248
#
# Velocity S-wave (km/s) = 3.61111 3.77806 3.69553
# Velocity P-wave (km/s) = 6.26647 6.58611 6.42828
#
# Compressibility (1/GPa) = 0.01766420
#
# Stress axis : x y z
#
# Youngs Moduli (GPa) = 110.33044 106.44765 58.56712
#
# Poissons Ratio (x) = 0.18514 0.10506
# Poissons Ratio (y) = 0.19189 0.31632
# Poissons Ratio (z) = 0.19792 0.57492
#
# Static dielectric constant tensor:
#      x y z
#    x 2.015010 0.000000 -0.009880 
#    y 0.000000 1.972340 0.000000 
#    z -0.009880 0.000000 2.123900 
# 
# From -- ./inp_files/32341.got.cif
#   From: 2010.05.17/outbox.cif.g08.bks.cpg/sg5_17_cif.got.tgz:32341.got - 2010.06.03 18:56:24.
