data_PCOD9125428
_publ_section_title
;
Structure prediction by ZEFSAII (Michael W. Deem and Ramdas Pophale) SiO2 
 PCOD9125428
Probable space group: C 2
;
_chemical_formula_sum "Si O2"
_cell_formula_units_Z 32
_cell_length_a 18.939766
_cell_length_b 6.277149
_cell_length_c 12.292060
_cell_angle_alpha 90.000000
_cell_angle_beta 75.337650
_cell_angle_gamma 90.000000
_cell_volume 1413.784434
_symmetry_space_group_name_H-M "C 2"
_symmetry_group_IT_number 5
_symmetry_cell_setting 'monoclinic'
loop_
_space_group_symop_operation_xyz
x,y,z
-x,y,-z
1/2+x,1/2+y,z
1/2-x,1/2+y,-z
loop_
_atom_site_type_symbol
_atom_site_label
_atom_site_fract_x
_atom_site_fract_y
_atom_site_fract_z
Si Si1 0.615583 0.320360 0.751672
Si Si2 0.482101 0.666044 0.130433
Si Si3 0.838736 0.403217 0.188929
Si Si4 0.645291 0.815233 0.457571
Si Si5 0.764155 0.141580 0.385452
Si Si6 0.101160 0.305237 0.245288
Si Si7 0.218049 0.318013 0.018435
Si Si8 0.523524 0.078169 0.607402
O O1 0.555938 0.439064 0.846784
O O2 0.678612 0.472205 0.684084
O O3 0.574225 0.220951 0.664094
O O4 0.655358 0.153454 0.812825
O O5 0.418649 0.824782 0.196709
O O6 0.549937 0.670564 0.184954
O O7 0.500000 0.723724 0.000000
O O8 0.777142 0.336286 0.298669
O O9 0.826694 0.305636 0.076476
O O10 0.684557 0.041758 0.417161
O O11 0.572466 0.871912 0.553134
O O12 0.704858 0.698521 0.508225
O O13 0.625055 0.708292 0.351555
O O14 0.171373 0.355405 0.145608
O O15 0.048978 0.502163 0.301268
O O16 0.254236 0.563167 0.986995
O O17 0.500000 0.176343 0.500000
#
# Coordination Sequence:
#
# PCOD9125428 Si02
#       8
#     4   4   4   4   4   4   4   4
#     4  11  23  40  70 100 137 186 243 299 372 448
#     4  11  23  42  68 105 135 191 242 303 380 444
#     4  11  24  46  72  98 148 189 252 305 371 456
#     4  11  23  42  70  99 145 183 244 303 371 455
#     4  11  24  41  69 103 138 196 242 302 379 453
#     4  11  24  45  71 106 147 188 247 312 377 448
#     4  12  30  50  77 111 153 201 255 316 384 455
#     4  10  21  41  65  98 136 181 231 304 369 441
#
# _framework density 22.634287
#
# number of rings (size 3 to 8) (size 9 to 14) (size 15 to 20)
#    0.000    1.000    3.750    2.250    5.250    3.500 
#    0.000    1.250    0.000    0.000    0.000    0.000 
#    0.000    0.000    0.000    0.000    0.000    0.000 
#
# Total GULP energy -89257.480874 kJ/mol
# GULP energy per Si atom -5578.592555 kJ/mol
# Density = 2.258277 g / cm^3
# Si number density = 22.634287 Si / 1000 Ang^3
#
#
#
# Elastic Constant Matrix: (Units=GPa)
#
#
# Indices 1 2 3 4 5 6 
#
# 1 72.7300 17.2753 21.7025 0.0000 -5.6231 0.0000
# 2 17.2753 59.4462 -5.1925 0.0000 -12.0636 0.0000
# 3 21.7025 -5.1925 87.9641 0.0000 -7.7160 0.0000
# 4 0.0000 0.0000 0.0000 20.8473 0.0000 -14.1201
# 5 -5.6231 -12.0636 -7.7160 0.0000 46.5657 0.0000
# 6 0.0000 0.0000 0.0000 -14.1201 0.0000 -0.1019
#
#
#
# Elastic Compliance Matrix: (Units=1/GPa)
#
#
# Indices 1 2 3 4 5 6 
#
# 1 0.016246 -0.005114 -0.004317 0.000000 -0.000078 0.000000
# 2 -0.005114 0.019555 0.002848 0.000000 0.004920 0.000000
# 3 -0.004317 0.002848 0.012807 0.000000 0.002339 0.000000
# 4 0.000000 0.000000 0.000000 0.000506 0.000000 -0.070075
# 5 -0.000078 0.004920 0.002339 0.000000 0.023128 0.000000
# 6 0.000000 0.000000 0.000000 -0.070075 0.000000 -0.103460
#
#
# Mechanical properties :
#
#
# Convention : Reuss Voigt Hill
#
# Bulk Modulus (GPa) = 28.21574 31.96790 30.09182
# Shear Modulus (GPa) = -801.61030 25.88589 -387.86220
#
# Velocity S-wave (km/s) = -18.83949 3.38547 -13.10467
# Velocity P-wave (km/s) = 21.46491 5.42551 14.68513
#
# Compressibility (1/GPa) = 0.03544121
#
# Stress axis : x y z
#
# Youngs Moduli (GPa) = 61.55208 51.13671 78.08466
#
# Poissons Ratio (x) = 0.26153 0.33710
# Poissons Ratio (y) = 0.31479 -0.22237
# Poissons Ratio (z) = 0.26573 -0.14562
#
# Static dielectric constant tensor:
#      x y z
#    x 1.855870 0.000000 0.008960 
#    y 0.000000 1.917040 0.000000 
#    z 0.008960 0.000000 1.842470 
# 
# From -- ./inp_files/55460.got.cif
#   From: 2010.05.17/outbox.cif.g08.bks.cpg/sg5_28_cif.got.tgz:55460.got - 2010.06.03 18:56:24.
