data_PCOD9125832
_publ_section_title
;
Structure prediction by ZEFSAII (Michael W. Deem and Ramdas Pophale) SiO2 
 PCOD9125832
Probable space group: C 2
;
_chemical_formula_sum "Si O2"
_cell_formula_units_Z 24
_cell_length_a 8.569671
_cell_length_b 24.528144
_cell_length_c 5.855012
_cell_angle_alpha 90.000000
_cell_angle_beta 65.408479
_cell_angle_gamma 90.000000
_cell_volume 1119.084086
_symmetry_space_group_name_H-M "C 2"
_symmetry_group_IT_number 5
_symmetry_cell_setting 'monoclinic'
loop_
_space_group_symop_operation_xyz
x,y,z
-x,y,-z
1/2+x,1/2+y,z
1/2-x,1/2+y,-z
loop_
_atom_site_type_symbol
_atom_site_label
_atom_site_fract_x
_atom_site_fract_y
_atom_site_fract_z
Si Si1 0.000000 0.329830 0.000000
Si Si2 0.176244 0.522245 0.257810
Si Si3 0.846724 0.689531 0.411906
Si Si4 0.683521 0.307053 0.518224
Si Si5 0.000000 0.597657 0.000000
Si Si6 0.415087 0.609496 0.301677
Si Si7 0.181069 0.400430 0.257094
O O1 0.128542 0.368112 0.064134
O O2 0.858985 0.301664 0.255802
O O3 0.293383 0.557045 0.354115
O O4 0.244839 0.461580 0.168270
O O5 0.000000 0.516104 0.500000
O O6 0.126041 0.559107 0.069721
O O7 0.823024 0.750434 0.333819
O O8 0.890857 0.640399 0.215167
O O9 0.680613 0.667439 0.640287
O O10 0.000000 0.691457 0.500000
O O11 0.500000 0.310336 0.500000
O O12 0.703067 0.360930 0.659534
O O13 0.500000 0.606292 0.500000
O O14 0.500000 0.607054 0.000000
O O15 0.000000 0.404849 0.500000
#
# Coordination Sequence:
#
# PCOD9125832 Si02
#       7
#     2   4   4   4   2   4   4
#     4  10  21  44  68  92 134 179 226 286 362 416
#     4  11  22  42  69  94 132 186 239 287 349 435
#     4  11  24  43  68  97 131 186 236 286 353 439
#     4  10  24  43  68 101 133 178 235 290 354 431
#     4  12  19  40  74  96 132 183 248 286 354 424
#     4  12  26  43  64 106 145 182 234 299 370 425
#     4   9  21  42  66  98 130 177 234 287 351 420
#
# _framework density 21.446107999999999
#
# number of rings (size 3 to 8) (size 9 to 14) (size 15 to 20)
#    0.000    1.333    3.333    1.500    1.167    6.000 
#    3.000    0.000    0.000    0.000    0.000    0.000 
#    0.000    0.000    0.000    0.000    0.000    0.000 
#
# Total GULP energy -66866.566233 kJ/mol
# GULP energy per Si atom -5572.213853 kJ/mol
# Density = 2.139730 g / cm^3
# Si number density = 21.446108 Si / 1000 Ang^3
#
#
#
# Elastic Constant Matrix: (Units=GPa)
#
#
# Indices 1 2 3 4 5 6 
#
# 1 114.1222 63.4174 25.6130 0.0000 20.6386 0.0000
# 2 63.4174 200.1937 42.0063 0.0000 17.2945 0.0000
# 3 25.6130 42.0063 71.5956 0.0000 9.5053 0.0000
# 4 0.0000 0.0000 0.0000 104.4465 0.0000 -87.9229
# 5 20.6386 17.2945 9.5053 0.0000 28.8339 0.0000
# 6 0.0000 0.0000 0.0000 -87.9229 0.0000 127.9476
#
#
#
# Elastic Compliance Matrix: (Units=1/GPa)
#
#
# Indices 1 2 3 4 5 6 
#
# 1 0.011863 -0.002856 -0.001745 0.000000 -0.006203 0.000000
# 2 -0.002856 0.006550 -0.002689 0.000000 -0.000998 0.000000
# 3 -0.001745 -0.002689 0.016512 0.000000 -0.002582 0.000000
# 4 0.000000 0.000000 0.000000 0.022713 0.000000 0.015608
# 5 -0.006203 -0.000998 -0.002582 0.000000 0.040571 0.000000
# 6 0.000000 0.000000 0.000000 0.015608 0.000000 0.018541
#
#
# Mechanical properties :
#
#
# Convention : Reuss Voigt Hill
#
# Bulk Modulus (GPa) = 49.14998 71.99832 60.57415
# Shear Modulus (GPa) = 36.20262 69.23727 52.71994
#
# Velocity S-wave (km/s) = 4.11308 5.68809 4.96346
# Velocity P-wave (km/s) = 6.74716 8.76264 7.82010
#
# Compressibility (1/GPa) = 0.02034589
#
# Stress axis : x y z
#
# Youngs Moduli (GPa) = 84.29589 152.66400 60.56241
#
# Poissons Ratio (x) = 0.43601 0.10566
# Poissons Ratio (y) = 0.24075 0.16285
# Poissons Ratio (z) = 0.14707 0.41051
#
# Static dielectric constant tensor:
#      x y z
#    x 1.673750 0.000000 -0.078780 
#    y 0.000000 1.812540 0.000000 
#    z -0.078780 0.000000 1.860540 
# 
# From -- ./inp_files/3353.got.cif
#   From: 2010.05.17/outbox.cif.g08.bks.cpg/sg5_2_cif.got.tgz:3353.got - 2010.06.03 18:56:24.
