data_PCOD9125463
_publ_section_title
;
Structure prediction by ZEFSAII (Michael W. Deem and Ramdas Pophale) SiO2 
 PCOD9125463
Probable space group: C 2
;
_chemical_formula_sum "Si O2"
_cell_formula_units_Z 32
_cell_length_a 12.640842
_cell_length_b 32.240766
_cell_length_c 9.648047
_cell_angle_alpha 90.000000
_cell_angle_beta 24.274570
_cell_angle_gamma 90.000000
_cell_volume 1616.510754
_symmetry_space_group_name_H-M "C 2"
_symmetry_group_IT_number 5
_symmetry_cell_setting 'monoclinic'
loop_
_space_group_symop_operation_xyz
x,y,z
-x,y,-z
1/2+x,1/2+y,z
1/2-x,1/2+y,-z
loop_
_atom_site_type_symbol
_atom_site_label
_atom_site_fract_x
_atom_site_fract_y
_atom_site_fract_z
Si Si1 0.888697 0.068630 0.285226
Si Si2 0.808877 0.867847 0.835260
Si Si3 0.411104 0.386821 0.261789
Si Si4 0.960966 0.445263 0.898385
Si Si5 0.695128 0.736859 0.395731
Si Si6 0.114733 0.518707 0.210614
Si Si7 0.600919 0.807715 0.720988
Si Si8 0.805371 0.139345 0.604988
O O1 0.610858 0.046534 0.592857
O O2 0.862765 0.109469 0.408487
O O3 0.000000 0.078210 0.000000
O O4 0.109449 0.040367 0.093758
O O5 0.000000 0.846616 0.500000
O O6 0.855024 0.894935 0.915846
O O7 0.703906 0.904719 0.862022
O O8 0.616064 0.832059 0.105721
O O9 0.204609 0.422755 0.534238
O O10 0.325093 0.342270 0.431912
O O11 0.500000 0.382426 0.000000
O O12 0.850495 0.478652 0.925869
O O13 0.000000 0.466985 0.000000
O O14 0.500000 0.747732 0.500000
O O15 0.647720 0.765044 0.587369
O O16 0.651547 0.688138 0.476610
O O17 0.000000 0.742458 0.000000
O O18 0.000000 0.508344 0.500000
O O19 0.500000 0.804356 0.000000
O O20 0.000000 0.128970 0.500000
O O21 0.500000 0.134530 0.000000
#
# Coordination Sequence:
#
# PCOD9125463 Si02
#       8
#     4   4   4   4   4   4   4   4
#     4  10  22  42  65  93 127 163 203 253 308 371
#     4  11  21  40  60  82 121 160 209 268 306 361
#     4  11  24  38  60  85 117 162 211 259 315 365
#     4  11  24  39  58  87 117 161 211 260 313 366
#     4  10  24  42  64  95 130 163 204 256 308 368
#     4  10  24  40  62  93 127 161 205 259 310 366
#     4  11  23  38  59  89 121 162 210 259 311 367
#     4  10  21  41  67  96 128 163 203 252 307 370
#
# _framework density 19.795722999999999
#
# number of rings (size 3 to 8) (size 9 to 14) (size 15 to 20)
#    0.000    1.500    2.500    1.875    7.000    3.500 
#    0.000    0.000    0.000    5.250    0.000    0.000 
#    0.000    0.000    0.000    0.000    0.000    0.000 
#
# Total GULP energy -89092.884056 kJ/mol
# GULP energy per Si atom -5568.305253 kJ/mol
# Density = 1.975067 g / cm^3
# Si number density = 19.795723 Si / 1000 Ang^3
#
#
#
# Elastic Constant Matrix: (Units=GPa)
#
#
# Indices 1 2 3 4 5 6 
#
# 1 124.5888 59.2120 41.9829 0.0000 9.1671 0.0000
# 2 59.2120 101.6541 37.8148 0.0000 19.2976 0.0000
# 3 41.9829 37.8148 54.0876 0.0000 9.1695 0.0000
# 4 0.0000 0.0000 0.0000 76.0279 0.0000 -25.3981
# 5 9.1671 19.2976 9.1695 0.0000 34.6986 0.0000
# 6 0.0000 0.0000 0.0000 -25.3981 0.0000 48.4880
#
#
#
# Elastic Compliance Matrix: (Units=1/GPa)
#
#
# Indices 1 2 3 4 5 6 
#
# 1 0.012524 -0.005185 -0.006307 0.000000 0.001241 0.000000
# 2 -0.005185 0.016390 -0.006409 0.000000 -0.006052 0.000000
# 3 -0.006307 -0.006409 0.028243 0.000000 -0.002233 0.000000
# 4 0.000000 0.000000 0.000000 0.015943 0.000000 0.008351
# 5 0.001241 -0.006052 -0.002233 0.000000 0.032448 0.000000
# 6 0.000000 0.000000 0.000000 0.008351 0.000000 0.024998
#
#
# Mechanical properties :
#
#
# Convention : Reuss Voigt Hill
#
# Bulk Modulus (GPa) = 46.82317 62.03888 54.43103
# Shear Modulus (GPa) = 28.82407 41.26429 35.04418
#
# Velocity S-wave (km/s) = 3.82000 4.57059 4.21205
# Velocity P-wave (km/s) = 6.56970 7.69814 7.15620
#
# Compressibility (1/GPa) = 0.02135695
#
# Stress axis : x y z
#
# Youngs Moduli (GPa) = 79.84360 61.01204 35.40674
#
# Poissons Ratio (x) = 0.31633 0.22331
# Poissons Ratio (y) = 0.41397 0.22691
# Poissons Ratio (z) = 0.50358 0.39100
#
# Static dielectric constant tensor:
#      x y z
#    x 1.715230 0.000000 -0.203220 
#    y 0.000000 1.660630 0.000000 
#    z -0.203220 0.000000 1.757200 
# 
# From -- ./inp_files/22213.got.cif
#   From: 2010.05.17/outbox.cif.g08.bks.cpg/sg5_12_cif.got.tgz:22213.got - 2010.06.03 18:56:24.
