data_PCOD9125722
_publ_section_title
;
Structure prediction by ZEFSAII (Michael W. Deem and Ramdas Pophale) SiO2 
 PCOD9125722
Probable space group: C 2
;
_chemical_formula_sum "Si O2"
_cell_formula_units_Z 18
_cell_length_a 14.386128
_cell_length_b 7.580723
_cell_length_c 12.687503
_cell_angle_alpha 90.000000
_cell_angle_beta 150.849761
_cell_angle_gamma 90.000000
_cell_volume 673.984700
_symmetry_space_group_name_H-M "C 2"
_symmetry_group_IT_number 5
_symmetry_cell_setting 'monoclinic'
loop_
_space_group_symop_operation_xyz
x,y,z
-x,y,-z
1/2+x,1/2+y,z
1/2-x,1/2+y,-z
loop_
_atom_site_type_symbol
_atom_site_label
_atom_site_fract_x
_atom_site_fract_y
_atom_site_fract_z
Si Si1 0.751203 0.277680 0.642613
Si Si2 0.292094 0.658048 0.460245
Si Si3 0.292875 0.847569 0.908891
Si Si4 0.000000 0.810443 0.000000
Si Si5 0.211024 0.258044 0.861541
O O1 0.651871 0.459943 0.512796
O O2 0.725624 0.153820 0.516315
O O3 0.708121 0.252301 0.722516
O O4 0.979383 0.315440 0.867303
O O5 0.482502 0.774099 0.632031
O O6 0.128577 0.719289 0.218502
O O7 0.258841 0.058758 0.870496
O O8 0.226197 0.779212 0.955860
O O9 0.166474 0.888905 0.090782
#
# Coordination Sequence:
#
# PCOD9125722 Si02
#       5
#     4   4   4   2   4
#     4  10  21  43  65  95 130 163 210 263 311 379
#     4  11  23  40  69  94 125 169 212 256 320 372
#     4  10  21  43  65  95 130 163 210 263 311 379
#     4  12  22  44  62  92 128 176 202 272 296 390
#     4  11  23  40  69  94 125 169 212 256 320 372
#
# _framework density 26.706841000000001
#
# number of rings (size 3 to 8) (size 9 to 14) (size 15 to 20)
#    0.000    1.333    4.444    0.667    3.111    0.000 
#    4.000    0.000    0.000    0.000    0.000    0.000 
#    0.000    0.000    0.000    0.000    0.000    0.000 
#
# Total GULP energy -50320.280841 kJ/mol
# GULP energy per Si atom -5591.142316 kJ/mol
# Density = 2.664606 g / cm^3
# Si number density = 26.706841 Si / 1000 Ang^3
#
#
#
# Elastic Constant Matrix: (Units=GPa)
#
#
# Indices 1 2 3 4 5 6 
#
# 1 201.1758 38.5228 75.2182 0.0000 -49.0840 0.0000
# 2 38.5228 66.1483 36.7286 0.0000 -17.5378 0.0000
# 3 75.2182 36.7286 170.4275 0.0000 -10.2262 0.0000
# 4 0.0000 0.0000 0.0000 21.2287 0.0000 -7.6867
# 5 -49.0840 -17.5378 -10.2262 0.0000 74.9711 0.0000
# 6 0.0000 0.0000 0.0000 -7.6867 0.0000 27.8479
#
#
#
# Elastic Compliance Matrix: (Units=1/GPa)
#
#
# Indices 1 2 3 4 5 6 
#
# 1 0.007239 -0.001725 -0.002584 0.000000 0.003984 0.000000
# 2 -0.001725 0.018569 -0.003073 0.000000 0.002795 0.000000
# 3 -0.002584 -0.003073 0.007588 0.000000 -0.001376 0.000000
# 4 0.000000 0.000000 0.000000 0.052337 0.000000 0.014446
# 5 0.003984 0.002795 -0.001376 0.000000 0.016413 0.000000
# 6 0.000000 0.000000 0.000000 0.014446 0.000000 0.039897
#
#
# Mechanical properties :
#
#
# Convention : Reuss Voigt Hill
#
# Bulk Modulus (GPa) = 53.66964 82.07675 67.87320
# Shear Modulus (GPa) = 30.67151 43.96168 37.31659
#
# Velocity S-wave (km/s) = 3.39256 4.06160 3.74206
# Velocity P-wave (km/s) = 5.95696 7.26599 6.64379
#
# Compressibility (1/GPa) = 0.01863251
#
# Stress axis : x y z
#
# Youngs Moduli (GPa) = 138.13572 53.85198 131.78956
#
# Poissons Ratio (x) = 0.09289 0.34058
# Poissons Ratio (y) = 0.23826 0.40497
# Poissons Ratio (z) = 0.35698 0.16548
#
# Static dielectric constant tensor:
#      x y z
#    x 2.177900 0.000000 0.062860 
#    y 0.000000 2.104680 0.000000 
#    z 0.062860 0.000000 2.060620 
# 
# From -- ./inp_files/42364.got.cif
#   From: 2010.05.17/outbox.cif.g08.bks.cpg/sg5_22_cif.got.tgz:42364.got - 2010.06.03 18:56:24.
