data_PCOD9125194
_publ_section_title
;
Structure prediction by ZEFSAII (Michael W. Deem and Ramdas Pophale) SiO2 
 PCOD9125194
Probable space group: C 2
;
_chemical_formula_sum "Si O2"
_cell_formula_units_Z 24
_cell_length_a 14.146114
_cell_length_b 9.089760
_cell_length_c 13.719267
_cell_angle_alpha 90.000000
_cell_angle_beta 32.231058
_cell_angle_gamma 90.000000
_cell_volume 940.850182
_symmetry_space_group_name_H-M "C 2"
_symmetry_group_IT_number 5
_symmetry_cell_setting 'monoclinic'
loop_
_space_group_symop_operation_xyz
x,y,z
-x,y,-z
1/2+x,1/2+y,z
1/2-x,1/2+y,-z
loop_
_atom_site_type_symbol
_atom_site_label
_atom_site_fract_x
_atom_site_fract_y
_atom_site_fract_z
Si Si1 0.351774 0.694910 0.269372
Si Si2 0.625177 0.949599 0.974662
Si Si3 0.717723 0.807016 0.474757
Si Si4 0.012723 0.818853 0.358385
Si Si5 0.093895 0.511241 0.220688
Si Si6 0.689811 0.379605 0.803334
O O1 0.361650 0.689809 0.379345
O O2 0.164454 0.787452 0.422260
O O3 0.338181 0.540182 0.225919
O O4 0.517653 0.794958 0.091318
O O5 0.829299 0.932078 0.764776
O O6 0.500000 0.014125 0.000000
O O7 0.633610 0.025398 0.072772
O O8 0.918299 0.835229 0.334937
O O9 0.604665 0.951674 0.596787
O O10 0.716879 0.781867 0.360840
O O11 0.108442 0.662643 0.264533
O O12 0.203971 0.398014 0.189555
O O13 0.500000 0.326443 0.000000
#
# Coordination Sequence:
#
# PCOD9125194 Si02
#       6
#     4   4   4   4   4   4
#     4   9  21  37  61  94 121 162 209 248 314 378
#     4  11  23  40  60  95 125 163 210 265 314 381
#     4   9  20  36  57  91 125 160 201 256 316 362
#     4  10  21  40  64  85 130 158 207 259 316 363
#     4  11  22  39  62  92 126 164 218 258 310 384
#     4  12  21  36  66  98 123 166 216 265 311 375
#
# _framework density 25.508842000000001
#
# number of rings (size 3 to 8) (size 9 to 14) (size 15 to 20)
#    1.000    0.667    1.667    4.000    0.000    2.000 
#    0.000    2.500    0.000    6.000    0.000    0.000 
#    0.000    0.000    0.000    0.000    0.000    0.000 
#
# Total GULP energy -66976.087224 kJ/mol
# GULP energy per Si atom -5581.340602 kJ/mol
# Density = 2.545078 g / cm^3
# Si number density = 25.508842 Si / 1000 Ang^3
#
#
#
# Elastic Constant Matrix: (Units=GPa)
#
#
# Indices 1 2 3 4 5 6 
#
# 1 135.2230 7.5231 16.9422 0.0000 19.3742 0.0000
# 2 7.5231 42.3061 5.5662 0.0000 -2.7043 0.0000
# 3 16.9422 5.5662 84.3578 0.0000 -9.8864 0.0000
# 4 0.0000 0.0000 0.0000 9.9364 0.0000 7.0846
# 5 19.3742 -2.7043 -9.8864 0.0000 52.8753 0.0000
# 6 0.0000 0.0000 0.0000 7.0846 0.0000 15.8651
#
#
#
# Elastic Compliance Matrix: (Units=1/GPa)
#
#
# Indices 1 2 3 4 5 6 
#
# 1 0.008214 -0.001423 -0.001960 0.000000 -0.003449 0.000000
# 2 -0.001423 0.024137 -0.001126 0.000000 0.001546 0.000000
# 3 -0.001960 -0.001126 0.012677 0.000000 0.003031 0.000000
# 4 0.000000 0.000000 0.000000 0.147650 0.000000 -0.065933
# 5 -0.003449 0.001546 0.003031 0.000000 0.020822 0.000000
# 6 0.000000 0.000000 0.000000 -0.065933 0.000000 0.092474
#
#
# Mechanical properties :
#
#
# Convention : Reuss Voigt Hill
#
# Bulk Modulus (GPa) = 27.76940 35.77221 31.77080
# Shear Modulus (GPa) = 15.29070 31.19238 23.24154
#
# Velocity S-wave (km/s) = 2.45098 3.50066 3.02175
# Velocity P-wave (km/s) = 4.34966 5.51302 4.96553
#
# Compressibility (1/GPa) = 0.03601086
#
# Stress axis : x y z
#
# Youngs Moduli (GPa) = 121.74179 41.42970 78.88058
#
# Poissons Ratio (x) = 0.05897 0.15461
# Poissons Ratio (y) = 0.17327 0.08879
# Poissons Ratio (z) = 0.23861 0.04664
#
# Static dielectric constant tensor:
#      x y z
#    x 2.201260 0.000000 0.008310 
#    y 0.000000 2.142230 0.000000 
#    z 0.008310 0.000000 2.000270 
# 
# From -- ./inp_files/54403.got.cif
#   From: 2010.05.17/outbox.cif.g08.bks.cpg/sg5_28_cif.got.tgz:54403.got - 2010.06.03 18:56:24.
