data_PCOD9125911
_publ_section_title
;
Structure prediction by ZEFSAII (Michael W. Deem and Ramdas Pophale) SiO2 
 PCOD9125911
Probable space group: C 2
;
_chemical_formula_sum "Si O2"
_cell_formula_units_Z 28
_cell_length_a 19.403425
_cell_length_b 5.267125
_cell_length_c 20.333313
_cell_angle_alpha 90.000000
_cell_angle_beta 151.156676
_cell_angle_gamma 90.000000
_cell_volume 1002.494522
_symmetry_space_group_name_H-M "C 2"
_symmetry_group_IT_number 5
_symmetry_cell_setting 'monoclinic'
loop_
_space_group_symop_operation_xyz
x,y,z
-x,y,-z
1/2+x,1/2+y,z
1/2-x,1/2+y,-z
loop_
_atom_site_type_symbol
_atom_site_label
_atom_site_fract_x
_atom_site_fract_y
_atom_site_fract_z
Si Si1 0.699398 0.779830 0.105304
Si Si2 0.169055 0.502510 0.407555
Si Si3 0.830945 0.969752 0.092445
Si Si4 0.453982 0.491373 0.836990
Si Si5 0.546018 0.980881 0.663010
Si Si6 0.000000 0.626131 0.000000
Si Si7 0.199398 0.192424 0.605304
Si Si8 0.000000 0.846121 0.500000
O O1 0.810999 0.933775 0.153459
O O2 0.783814 0.520532 0.192113
O O3 0.637534 0.945627 0.111327
O O4 0.553701 0.722686 0.943403
O O5 0.244065 0.238358 0.488724
O O6 0.015703 0.516618 0.314557
O O7 0.189000 0.538485 0.346540
O O8 0.984297 0.955641 0.185443
O O9 0.744065 0.733904 0.988723
O O10 0.283814 0.451723 0.692113
O O11 0.492772 0.291116 0.927509
O O12 0.507228 0.181136 0.572491
O O13 0.446299 0.749567 0.556597
O O14 0.137534 0.026626 0.611327
#
# Coordination Sequence:
#
# PCOD9125911 Si02
#       8
#     4   4   4   4   4   2   4   2
#     4  11  25  45  70 103 141 187 237 297 359 430
#     4  10  21  46  73 108 143 190 243 300 357 430
#     4  10  21  46  73 108 143 190 243 300 357 430
#     4  11  25  45  70 103 141 187 237 297 359 430
#     4  11  25  45  70 103 141 187 237 297 359 430
#     4  12  24  44  68 104 142 182 234 298 364 428
#     4  11  25  45  70 103 141 187 237 297 359 430
#     4  12  24  44  68 104 142 182 234 298 364 428
#
# _framework density 27.930326999999998
#
# number of rings (size 3 to 8) (size 9 to 14) (size 15 to 20)
#    0.000    1.143    2.857    2.571    0.000    6.857 
#    0.000    7.143    0.000    0.000    0.000    0.000 
#    0.000    0.000    0.000    0.000    0.000    0.000 
#
# Total GULP energy -78332.699758 kJ/mol
# GULP energy per Si atom -5595.192840 kJ/mol
# Density = 2.786676 g / cm^3
# Si number density = 27.930327 Si / 1000 Ang^3
#
#
#
# Elastic Constant Matrix: (Units=GPa)
#
#
# Indices 1 2 3 4 5 6 
#
# 1 159.1492 10.4861 56.0947 0.0004 27.9052 0.0003
# 2 10.4861 74.0063 29.3714 0.0020 7.7968 0.0032
# 3 56.0947 29.3714 117.2246 0.0007 -1.1052 0.0011
# 4 0.0004 0.0020 0.0007 11.1065 0.0003 2.9645
# 5 27.9052 7.7968 -1.1052 0.0003 26.2622 0.0007
# 6 0.0003 0.0032 0.0011 2.9645 0.0007 40.1391
#
#
#
# Elastic Compliance Matrix: (Units=1/GPa)
#
#
# Indices 1 2 3 4 5 6 
#
# 1 0.010086 0.001936 -0.005420 0.000000 -0.011520 0.000000
# 2 0.001936 0.015957 -0.004990 -0.000002 -0.007004 -0.000001
# 3 -0.005420 -0.004990 0.012448 0.000000 0.007765 0.000000
# 4 0.000000 -0.000002 0.000000 0.091848 0.000000 -0.006783
# 5 -0.011520 -0.007004 0.007765 0.000000 0.052724 -0.000001
# 6 0.000000 -0.000001 0.000000 -0.006783 -0.000001 0.025414
#
#
# Mechanical properties :
#
#
# Convention : Reuss Voigt Hill
#
# Bulk Modulus (GPa) = 46.42299 60.25383 53.33841
# Shear Modulus (GPa) = 21.49547 32.46341 26.97944
#
# Velocity S-wave (km/s) = 2.77719 3.41295 3.11135
# Velocity P-wave (km/s) = 5.19046 6.09514 5.66090
#
# Compressibility (1/GPa) = 0.02154105
#
# Stress axis : x y z
#
# Youngs Moduli (GPa) = 99.14565 62.67030 80.33534
#
# Poissons Ratio (x) = -0.12131 0.43542
# Poissons Ratio (y) = -0.19191 0.40090
# Poissons Ratio (z) = 0.53738 0.31274
#
# Static dielectric constant tensor:
#      x y z
#    x 2.172030 0.000000 -0.057220 
#    y 0.000000 2.203770 0.000000 
#    z -0.057220 0.000000 2.142320 
# 
# From -- ./inp_files/69358.got.cif
#   From: 2010.05.17/outbox.cif.g08.bks.cpg/sg5_35_cif.got.tgz:69358.got - 2010.06.03 18:56:24.
