data_PCOD9125984
_publ_section_title
;
Structure prediction by ZEFSAII (Michael W. Deem and Ramdas Pophale) SiO2 
 PCOD9125984
Probable space group: C 2
;
_chemical_formula_sum "Si O2"
_cell_formula_units_Z 28
_cell_length_a 23.772982
_cell_length_b 10.000711
_cell_length_c 21.985602
_cell_angle_alpha 90.000000
_cell_angle_beta 164.026953
_cell_angle_gamma 90.000000
_cell_volume 1438.394001
_symmetry_space_group_name_H-M "C 2"
_symmetry_group_IT_number 5
_symmetry_cell_setting 'monoclinic'
loop_
_space_group_symop_operation_xyz
x,y,z
-x,y,-z
1/2+x,1/2+y,z
1/2-x,1/2+y,-z
loop_
_atom_site_type_symbol
_atom_site_label
_atom_site_fract_x
_atom_site_fract_y
_atom_site_fract_z
Si Si1 0.398164 0.528860 0.137071
Si Si2 0.404018 0.376880 0.467955
Si Si3 0.783434 0.915300 0.622861
Si Si4 0.231477 0.112771 0.582538
Si Si5 0.215927 0.236584 0.072425
Si Si6 0.909722 0.130916 0.846067
Si Si7 0.485755 0.946444 0.200676
O O1 0.511536 0.439997 0.204276
O O2 0.561638 0.595786 0.352417
O O3 0.256026 0.635401 0.954254
O O4 0.010955 0.317593 0.838454
O O5 0.500000 0.401341 0.500000
O O6 0.324064 0.510845 0.420153
O O7 0.587187 0.315122 0.699443
O O8 0.223819 0.264304 0.278059
O O9 0.757763 0.768505 0.624434
O O10 0.779537 0.030638 0.669112
O O11 0.613590 0.933891 0.394418
O O12 0.436748 0.065004 0.761187
O O13 0.251233 0.947369 0.975667
O O14 0.119842 0.161164 0.029318
O O15 0.000000 0.064047 0.000000
#
# Coordination Sequence:
#
# PCOD9125984 Si02
#       7
#     4   4   4   4   4   4   4
#     4  10  22  36  63  92 129 165 203 251 325 381
#     4  12  24  41  67  91 122 168 223 262 307 379
#     4  10  24  40  61  96 132 164 206 262 321 380
#     4  11  23  38  61  97 130 160 203 267 322 373
#     4  11  21  38  64  93 118 163 213 261 305 376
#     4  11  23  45  66  88 122 170 223 261 307 372
#     4  11  21  36  63  93 129 162 199 257 319 382
#
# _framework density 19.466155000000001
#
# number of rings (size 3 to 8) (size 9 to 14) (size 15 to 20)
#    0.000    1.143    5.714    0.857    2.000    0.000 
#    0.000    2.857    0.000    0.000    0.000    0.000 
#    0.000    0.000    0.000    0.000    0.000    0.000 
#
# Total GULP energy -77985.601123 kJ/mol
# GULP energy per Si atom -5570.400080 kJ/mol
# Density = 1.942185 g / cm^3
# Si number density = 19.466155 Si / 1000 Ang^3
#
#
#
# Elastic Constant Matrix: (Units=GPa)
#
#
# Indices 1 2 3 4 5 6 
#
# 1 90.6160 33.1266 15.7979 0.0094 -8.0601 0.0073
# 2 33.1266 95.8344 7.4118 -0.0231 1.0432 -0.0116
# 3 15.7979 7.4118 58.4552 -0.0096 -7.5341 -0.0059
# 4 0.0094 -0.0231 -0.0096 22.2896 -0.0066 -2.7570
# 5 -8.0601 1.0432 -7.5341 -0.0066 29.1014 -0.0051
# 6 0.0073 -0.0116 -0.0059 -2.7570 -0.0051 19.6015
#
#
#
# Elastic Compliance Matrix: (Units=1/GPa)
#
#
# Indices 1 2 3 4 5 6 
#
# 1 0.013414 -0.004467 -0.002648 -0.000012 0.003190 -0.000009
# 2 -0.004467 0.012041 -0.000553 0.000015 -0.001812 0.000010
# 3 -0.002648 -0.000553 0.018415 0.000011 0.004054 0.000009
# 4 -0.000012 0.000015 0.000011 0.045658 0.000011 0.006422
# 5 0.003190 -0.001812 0.004054 0.000011 0.036361 0.000010
# 6 -0.000009 0.000010 0.000009 0.006422 0.000010 0.051920
#
#
# Mechanical properties :
#
#
# Convention : Reuss Voigt Hill
#
# Bulk Modulus (GPa) = 35.04431 39.73091 37.38761
# Shear Modulus (GPa) = 24.67239 26.76978 25.72109
#
# Velocity S-wave (km/s) = 3.56399 3.71239 3.63894
# Velocity P-wave (km/s) = 5.91420 6.23140 6.07487
#
# Compressibility (1/GPa) = 0.02853530
#
# Stress axis : x y z
#
# Youngs Moduli (GPa) = 74.55021 83.04862 54.30256
#
# Poissons Ratio (x) = 0.37095 0.14378
# Poissons Ratio (y) = 0.33299 0.03004
# Poissons Ratio (z) = 0.19739 0.04594
#
# Static dielectric constant tensor:
#      x y z
#    x 1.725360 0.000000 0.024220 
#    y 0.000000 1.741680 0.000000 
#    z 0.024220 0.000000 1.698850 
# 
# From -- ./inp_files/67378.got.cif
#   From: 2010.05.17/outbox.cif.g08.bks.cpg/sg5_34_cif.got.tgz:67378.got - 2010.06.03 18:56:24.
