data_PCOD9125285
_publ_section_title
;
Structure prediction by ZEFSAII (Michael W. Deem and Ramdas Pophale) SiO2 
 PCOD9125285
Probable space group: C 2
;
_chemical_formula_sum "Si O2"
_cell_formula_units_Z 18
_cell_length_a 13.452895
_cell_length_b 8.876600
_cell_length_c 7.332903
_cell_angle_alpha 90.000000
_cell_angle_beta 111.396937
_cell_angle_gamma 90.000000
_cell_volume 815.310730
_symmetry_space_group_name_H-M "C 2"
_symmetry_group_IT_number 5
_symmetry_cell_setting 'monoclinic'
loop_
_space_group_symop_operation_xyz
x,y,z
-x,y,-z
1/2+x,1/2+y,z
1/2-x,1/2+y,-z
loop_
_atom_site_type_symbol
_atom_site_label
_atom_site_fract_x
_atom_site_fract_y
_atom_site_fract_z
Si Si1 0.090003 0.066450 0.909693
Si Si2 0.000000 0.909064 0.500000
Si Si3 0.263848 0.306022 0.411358
Si Si4 0.271662 0.979465 0.258956
Si Si5 0.382111 0.903116 0.005291
O O1 0.039370 0.009884 0.692409
O O2 0.134843 0.234861 0.923742
O O3 0.000000 0.080541 0.000000
O O4 0.175098 0.952083 0.052819
O O5 0.107853 0.823823 0.510627
O O6 0.220268 0.354492 0.579936
O O7 0.202583 0.408725 0.218538
O O8 0.242124 0.133079 0.345109
O O9 0.366211 0.003927 0.175617
O O10 0.500000 0.920863 0.000000
#
# Coordination Sequence:
#
# PCOD9125285 Si02
#       5
#     4   2   4   4   4
#     4  10  21  40  68 100 131 179 224 276 332 406
#     4  12  22  42  68 102 132 178 224 274 346 400
#     4  11  26  41  70 103 136 181 223 278 344 397
#     4  11  24  44  67 106 140 173 225 282 340 402
#     4  10  24  43  67  99 139 180 225 277 335 400
#
# _framework density 22.077472
#
# number of rings (size 3 to 8) (size 9 to 14) (size 15 to 20)
#    0.000    1.333    4.444    0.000    3.111    2.667 
#    0.000    1.111    0.000    0.000    0.000    0.000 
#    0.000    0.000    0.000    0.000    0.000    0.000 
#
# Total GULP energy -50223.773088 kJ/mol
# GULP energy per Si atom -5580.419232 kJ/mol
# Density = 2.202722 g / cm^3
# Si number density = 22.077472 Si / 1000 Ang^3
#
#
#
# Elastic Constant Matrix: (Units=GPa)
#
#
# Indices 1 2 3 4 5 6 
#
# 1 104.6421 4.0455 45.3460 0.0000 -4.4888 0.0000
# 2 4.0455 25.9135 39.1675 0.0000 -6.0575 0.0000
# 3 45.3460 39.1675 189.0746 0.0000 -7.7539 0.0000
# 4 0.0000 0.0000 0.0000 19.2223 0.0000 18.1252
# 5 -4.4888 -6.0575 -7.7539 0.0000 44.7913 0.0000
# 6 0.0000 0.0000 0.0000 18.1252 0.0000 -1.9834
#
#
#
# Elastic Compliance Matrix: (Units=1/GPa)
#
#
# Indices 1 2 3 4 5 6 
#
# 1 0.010894 0.003522 -0.003301 0.000000 0.000997 0.000000
# 2 0.003522 0.058762 -0.012768 0.000000 0.006090 0.000000
# 3 -0.003301 -0.012768 0.008703 0.000000 -0.000551 0.000000
# 4 0.000000 0.000000 0.000000 0.005409 0.000000 0.049435
# 5 0.000997 0.006090 -0.000551 0.000000 0.023154 0.000000
# 6 0.000000 0.000000 0.000000 0.049435 0.000000 -0.052427
#
#
# Mechanical properties :
#
#
# Convention : Reuss Voigt Hill
#
# Bulk Modulus (GPa) = 18.77422 55.19423 36.98422
# Shear Modulus (GPa) = 51.36499 27.81079 39.58789
#
# Velocity S-wave (km/s) = 4.82870 3.55306 4.23914
# Velocity P-wave (km/s) = 6.29370 6.47201 6.38348
#
# Compressibility (1/GPa) = 0.05326453
#
# Stress axis : x y z
#
# Youngs Moduli (GPa) = 91.79700 17.01792 114.90317
#
# Poissons Ratio (x) = -0.05994 0.37934
# Poissons Ratio (y) = -0.32334 1.46705
# Poissons Ratio (z) = 0.30306 0.21728
#
# Static dielectric constant tensor:
#      x y z
#    x 1.932720 0.000000 -0.035400 
#    y 0.000000 1.890880 0.000000 
#    z -0.035400 0.000000 1.805500 
# 
# From -- ./inp_files/4428.got.cif
#   From: 2010.05.17/outbox.cif.g08.bks.cpg/sg5_3_cif.got.tgz:4428.got - 2010.06.03 18:56:24.
