data_PCOD9125180
_publ_section_title
;
Structure prediction by ZEFSAII (Michael W. Deem and Ramdas Pophale) SiO2 
 PCOD9125180
Probable space group: C 2
;
_chemical_formula_sum "Si O2"
_cell_formula_units_Z 30
_cell_length_a 11.528974
_cell_length_b 14.228267
_cell_length_c 14.216478
_cell_angle_alpha 90.000000
_cell_angle_beta 138.105257
_cell_angle_gamma 90.000000
_cell_volume 1557.248262
_symmetry_space_group_name_H-M "C 2"
_symmetry_group_IT_number 5
_symmetry_cell_setting 'monoclinic'
loop_
_space_group_symop_operation_xyz
x,y,z
-x,y,-z
1/2+x,1/2+y,z
1/2-x,1/2+y,-z
loop_
_atom_site_type_symbol
_atom_site_label
_atom_site_fract_x
_atom_site_fract_y
_atom_site_fract_z
Si Si1 0.761276 0.272640 0.776495
Si Si2 0.578394 0.299786 0.301444
Si Si3 0.582351 0.467433 0.879022
Si Si4 0.000000 0.107120 0.000000
Si Si5 0.708426 0.096197 0.320478
Si Si6 0.844542 0.291420 0.621906
Si Si7 0.019434 0.421672 0.861535
Si Si8 0.479862 0.591624 0.639133
O O1 0.594581 0.292554 0.738848
O O2 0.854317 0.178215 0.870273
O O3 0.725888 0.268671 0.642535
O O4 0.899340 0.358723 0.857888
O O5 0.541450 0.375974 0.198490
O O6 0.627765 0.197937 0.291175
O O7 0.732294 0.325880 0.466487
O O8 0.562180 0.538826 0.953751
O O9 0.529273 0.522864 0.752766
O O10 0.779873 0.431193 0.994486
O O11 0.857716 0.099721 0.332436
O O12 0.811103 0.062135 0.476204
O O13 0.564347 0.023411 0.200644
O O14 0.985268 0.365997 0.743227
O O15 0.936614 0.194531 0.651672
#
# Coordination Sequence:
#
# PCOD9125180 Si02
#       8
#     4   4   4   2   4   4   4   4
#     4  10  21  40  63  91 121 167 205 264 296 374
#     4  11  22  38  64  92 126 158 212 254 318 357
#     4  12  24  40  61  92 125 168 205 260 303 388
#     4  12  24  42  62  92 132 164 210 250 326 362
#     4  10  22  39  63  91 123 162 204 267 302 378
#     4   9  21  40  64  89 119 164 208 265 301 366
#     4  10  22  38  60  91 119 161 205 256 307 360
#     4  10  21  41  63  87 123 162 212 253 321 353
#
# _framework density 19.264749999999999
#
# number of rings (size 3 to 8) (size 9 to 14) (size 15 to 20)
#    0.800    0.800    1.333    3.600    0.000    4.800 
#    0.000    0.000    0.000    0.000    0.000    0.000 
#    0.000    0.000    0.000    0.000    0.000    0.000 
#
# Total GULP energy -83674.308824 kJ/mol
# GULP energy per Si atom -5578.287255 kJ/mol
# Density = 1.922090 g / cm^3
# Si number density = 19.264750 Si / 1000 Ang^3
#
#
#
# Elastic Constant Matrix: (Units=GPa)
#
#
# Indices 1 2 3 4 5 6 
#
# 1 31.6874 24.8875 24.8983 0.0000 -10.5054 0.0000
# 2 24.8875 101.0883 64.0317 0.0000 -1.0253 0.0000
# 3 24.8983 64.0317 104.4580 0.0001 10.2489 0.0001
# 4 0.0000 0.0000 0.0001 37.6191 0.0000 6.6936
# 5 -10.5054 -1.0253 10.2489 0.0000 22.6845 0.0001
# 6 0.0000 0.0000 0.0001 6.6936 0.0001 9.1790
#
#
#
# Elastic Compliance Matrix: (Units=1/GPa)
#
#
# Indices 1 2 3 4 5 6 
#
# 1 0.056971 -0.005047 -0.013657 0.000000 0.032326 0.000000
# 2 -0.005047 0.017290 -0.009671 0.000000 0.002813 0.000000
# 3 -0.013657 -0.009671 0.020321 0.000000 -0.015943 0.000000
# 4 0.000000 0.000000 0.000000 0.030546 0.000000 -0.022274
# 5 0.032326 0.002813 -0.015943 0.000000 0.066384 -0.000001
# 6 0.000000 0.000000 0.000000 -0.022274 -0.000001 0.125187
#
#
# Mechanical properties :
#
#
# Convention : Reuss Voigt Hill
#
# Bulk Modulus (GPa) = 26.43413 51.65208 39.04311
# Shear Modulus (GPa) = 12.95140 22.12428 17.53784
#
# Velocity S-wave (km/s) = 2.59566 3.39253 3.02049
# Velocity P-wave (km/s) = 4.76808 6.49735 5.69869
#
# Compressibility (1/GPa) = 0.03782988
#
# Stress axis : x y z
#
# Youngs Moduli (GPa) = 17.55293 57.83852 49.20981
#
# Poissons Ratio (x) = 0.29193 0.67206
# Poissons Ratio (y) = 0.08860 0.47592
# Poissons Ratio (z) = 0.23972 0.55937
#
# Static dielectric constant tensor:
#      x y z
#    x 1.686810 0.000000 -0.039960 
#    y 0.000000 1.661760 0.000000 
#    z -0.039960 0.000000 1.692690 
# 
# From -- ./inp_files/53079.got.cif
#   From: 2010.05.17/outbox.cif.g08.bks.cpg/sg5_27_cif.got.tgz:53079.got - 2010.06.03 18:56:24.
