data_PCOD9125925
_publ_section_title
;
Structure prediction by ZEFSAII (Michael W. Deem and Ramdas Pophale) SiO2 
 PCOD9125925
Probable space group: C 2
;
_chemical_formula_sum "Si O2"
_cell_formula_units_Z 18
_cell_length_a 5.282100
_cell_length_b 25.071142
_cell_length_c 5.308990
_cell_angle_alpha 90.000000
_cell_angle_beta 84.813696
_cell_angle_gamma 90.000000
_cell_volume 700.182105
_symmetry_space_group_name_H-M "C 2"
_symmetry_group_IT_number 5
_symmetry_cell_setting 'monoclinic'
loop_
_space_group_symop_operation_xyz
x,y,z
-x,y,-z
1/2+x,1/2+y,z
1/2-x,1/2+y,-z
loop_
_atom_site_type_symbol
_atom_site_label
_atom_site_fract_x
_atom_site_fract_y
_atom_site_fract_z
Si Si1 0.232473 0.915130 0.670937
Si Si2 0.164924 0.531872 0.232214
Si Si3 0.165339 0.299983 0.229030
Si Si4 0.277496 0.188245 0.338571
Si Si5 0.500000 0.615867 0.000000
O O1 0.500000 0.915650 0.500000
O O2 0.226767 0.859331 0.819063
O O3 0.000000 0.914547 0.500000
O O4 0.231709 0.971616 0.810510
O O5 0.000000 0.533857 0.500000
O O6 0.384931 0.575728 0.216542
O O7 0.000000 0.543431 0.000000
O O8 0.344596 0.249334 0.260033
O O9 0.000000 0.303731 0.500000
O O10 0.000000 0.286539 0.000000
O O11 0.500000 0.167903 0.500000
O O12 0.000000 0.189738 0.500000
O O13 0.215369 0.152948 0.101433
#
# Coordination Sequence:
#
# PCOD9125925 Si02
#       5
#     4   4   4   4   2
#     4  10  23  46  76 112 153 198 253 323 393 468
#     4  11  29  50  77 113 157 207 267 324 397 467
#     4  10  21  47  77 112 151 198 253 322 394 469
#     4  11  27  49  77 114 156 207 265 326 398 470
#     4  12  30  48  80 114 162 212 272 328 394 478
#
# _framework density 25.707595000000001
#
# number of rings (size 3 to 8) (size 9 to 14) (size 15 to 20)
#    0.000    1.333    1.111    1.333   12.444    0.000 
#    0.000    6.667    0.000    0.000    0.000    0.000 
#    0.000    0.000    0.000    0.000    0.000    0.000 
#
# Total GULP energy -50450.349755 kJ/mol
# GULP energy per Si atom -5605.594417 kJ/mol
# Density = 2.564908 g / cm^3
# Si number density = 25.707595 Si / 1000 Ang^3
#
#
#
# Elastic Constant Matrix: (Units=GPa)
#
#
# Indices 1 2 3 4 5 6 
#
# 1 138.5976 29.3028 48.3597 0.0000 12.2658 0.0000
# 2 29.3028 221.8678 19.9741 0.0000 6.7059 0.0000
# 3 48.3597 19.9741 133.0413 0.0000 3.6818 0.0000
# 4 0.0000 0.0000 0.0000 42.2264 0.0000 23.0555
# 5 12.2658 6.7059 3.6818 0.0000 70.4486 0.0000
# 6 0.0000 0.0000 0.0000 23.0555 0.0000 101.0295
#
#
#
# Elastic Compliance Matrix: (Units=1/GPa)
#
#
# Indices 1 2 3 4 5 6 
#
# 1 0.008526 -0.000823 -0.002941 0.000000 -0.001252 0.000000
# 2 -0.000823 0.004660 -0.000393 0.000000 -0.000280 0.000000
# 3 -0.002941 -0.000393 0.008642 0.000000 0.000098 0.000000
# 4 0.000000 0.000000 0.000000 0.027053 0.000000 -0.006174
# 5 -0.001252 -0.000280 0.000098 0.000000 0.014434 0.000000
# 6 0.000000 0.000000 0.000000 -0.006174 0.000000 0.011307
#
#
# Mechanical properties :
#
#
# Convention : Reuss Voigt Hill
#
# Bulk Modulus (GPa) = 73.99841 76.53110 75.26476
# Shear Modulus (GPa) = 57.18208 69.13225 63.15716
#
# Velocity S-wave (km/s) = 4.72139 5.19135 4.96194
# Velocity P-wave (km/s) = 7.65305 8.10975 7.88471
#
# Compressibility (1/GPa) = 0.01351380
#
# Stress axis : x y z
#
# Youngs Moduli (GPa) = 117.28520 214.60444 115.71793
#
# Poissons Ratio (x) = 0.17672 0.34032
# Poissons Ratio (y) = 0.09658 0.04542
# Poissons Ratio (z) = 0.34493 0.08424
#
# Static dielectric constant tensor:
#      x y z
#    x 1.993870 0.000000 -0.076750 
#    y 0.000000 2.050340 0.000000 
#    z -0.076750 0.000000 1.967300 
# 
# From -- ./inp_files/1128.got.cif
#   From: 2010.05.17/outbox.cif.g08.bks.cpg/sg5_1_cif.got.tgz:1128.got - 2010.06.03 18:56:24.
