data_PCOD9125534
_publ_section_title
;
Structure prediction by ZEFSAII (Michael W. Deem and Ramdas Pophale) SiO2 
 PCOD9125534
Probable space group: C 2
;
_chemical_formula_sum "Si O2"
_cell_formula_units_Z 32
_cell_length_a 8.015388
_cell_length_b 12.456873
_cell_length_c 11.882705
_cell_angle_alpha 90.000000
_cell_angle_beta 91.631458
_cell_angle_gamma 90.000000
_cell_volume 1185.967583
_symmetry_space_group_name_H-M "C 2"
_symmetry_group_IT_number 5
_symmetry_cell_setting 'monoclinic'
loop_
_space_group_symop_operation_xyz
x,y,z
-x,y,-z
1/2+x,1/2+y,z
1/2-x,1/2+y,-z
loop_
_atom_site_type_symbol
_atom_site_label
_atom_site_fract_x
_atom_site_fract_y
_atom_site_fract_z
Si Si1 0.313384 0.570750 0.151634
Si Si2 0.627089 0.412596 0.133694
Si Si3 0.771755 0.265579 0.311004
Si Si4 0.849725 0.298730 0.723772
Si Si5 0.348741 0.117890 0.411992
Si Si6 0.045299 0.553060 0.827909
Si Si7 0.200489 0.405760 0.484289
Si Si8 0.716770 0.234062 0.959223
O O1 0.295017 0.645177 0.263715
O O2 0.135119 0.510604 0.140414
O O3 0.529448 0.492561 0.856645
O O4 0.312740 0.656715 0.048611
O O5 0.633189 0.328780 0.237179
O O6 0.792710 0.484518 0.141852
O O7 0.658724 0.337606 0.026652
O O8 0.742585 0.304506 0.438125
O O9 0.953179 0.313663 0.284165
O O10 0.783320 0.197947 0.648391
O O11 0.763241 0.391341 0.646849
O O12 0.815558 0.272933 0.851526
O O13 0.500000 0.149004 0.500000
O O14 0.446513 0.074941 0.304088
O O15 0.246242 0.019790 0.465638
O O16 0.072812 0.663366 0.896655
O O17 0.000000 0.407143 0.500000
#
# Coordination Sequence:
#
# PCOD9125534 Si02
#       8
#     4   4   4   4   4   4   4   4
#     4  11  25  48  80 118 165 212 275 340 417 485
#     4  11  25  51  84 119 168 215 273 348 407 501
#     4  10  22  44  78 115 160 211 271 346 413 500
#     4  10  22  44  82 110 160 225 270 340 428 484
#     4  10  21  41  80 113 161 210 276 347 411 508
#     4  11  24  50  80 119 162 214 277 336 425 489
#     4   9  19  40  73 111 154 205 272 337 410 491
#     4  10  25  53  79 119 168 220 281 339 407 512
#
# _framework density 26.982185999999999
#
# number of rings (size 3 to 8) (size 9 to 14) (size 15 to 20)
#    0.000    1.750    1.250    1.875    1.750    4.500 
#   13.500    8.750    8.250    0.000    0.000    0.000 
#    0.000    0.000    0.000    0.000    0.000    0.000 
#
# Total GULP energy -89593.965447 kJ/mol
# GULP energy per Si atom -5599.622840 kJ/mol
# Density = 2.692077 g / cm^3
# Si number density = 26.982186 Si / 1000 Ang^3
#
#
#
# Elastic Constant Matrix: (Units=GPa)
#
#
# Indices 1 2 3 4 5 6 
#
# 1 156.7439 80.5616 50.4580 0.0000 10.4333 0.0000
# 2 80.5616 146.3335 49.0028 0.0000 19.2957 0.0000
# 3 50.4580 49.0028 143.4894 0.0000 3.6969 0.0000
# 4 0.0000 0.0000 0.0000 53.6986 0.0000 15.8205
# 5 10.4333 19.2957 3.6969 0.0000 29.5801 0.0000
# 6 0.0000 0.0000 0.0000 15.8205 0.0000 45.8225
#
#
#
# Elastic Compliance Matrix: (Units=1/GPa)
#
#
# Indices 1 2 3 4 5 6 
#
# 1 0.009255 -0.004507 -0.001712 0.000000 -0.000110 0.000000
# 2 -0.004507 0.010629 -0.001913 0.000000 -0.005105 0.000000
# 3 -0.001712 -0.001913 0.008203 0.000000 0.000827 0.000000
# 4 0.000000 0.000000 0.000000 0.020731 0.000000 -0.007158
# 5 -0.000110 -0.005105 0.000827 0.000000 0.037072 0.000000
# 6 0.000000 0.000000 0.000000 -0.007158 0.000000 0.024295
#
#
# Mechanical properties :
#
#
# Convention : Reuss Voigt Hill
#
# Bulk Modulus (GPa) = 84.59296 89.62351 87.10823
# Shear Modulus (GPa) = 38.34605 43.58985 40.96795
#
# Velocity S-wave (km/s) = 3.77392 4.02369 3.90081
# Velocity P-wave (km/s) = 7.09996 7.40775 7.25549
#
# Compressibility (1/GPa) = 0.01182132
#
# Stress axis : x y z
#
# Youngs Moduli (GPa) = 108.04970 94.08299 121.89976
#
# Poissons Ratio (x) = 0.42405 0.20874
# Poissons Ratio (y) = 0.48700 0.23324
# Poissons Ratio (z) = 0.18503 0.18002
#
# Static dielectric constant tensor:
#      x y z
#    x 2.104230 0.000000 0.021850 
#    y 0.000000 2.214220 0.000000 
#    z 0.021850 0.000000 2.137250 
# 
# From -- ./inp_files/39228.got.cif
#   From: 2010.05.17/outbox.cif.g08.bks.cpg/sg5_20_cif.got.tgz:39228.got - 2010.06.03 18:56:24.
