data_PCOD9125527
_publ_section_title
;
Structure prediction by ZEFSAII (Michael W. Deem and Ramdas Pophale) SiO2 
 PCOD9125527
Probable space group: C 2
;
_chemical_formula_sum "Si O2"
_cell_formula_units_Z 26
_cell_length_a 8.485905
_cell_length_b 27.195268
_cell_length_c 8.666943
_cell_angle_alpha 90.000000
_cell_angle_beta 142.148652
_cell_angle_gamma 90.000000
_cell_volume 1227.307455
_symmetry_space_group_name_H-M "C 2"
_symmetry_group_IT_number 5
_symmetry_cell_setting 'monoclinic'
loop_
_space_group_symop_operation_xyz
x,y,z
-x,y,-z
1/2+x,1/2+y,z
1/2-x,1/2+y,-z
loop_
_atom_site_type_symbol
_atom_site_label
_atom_site_fract_x
_atom_site_fract_y
_atom_site_fract_z
Si Si1 0.301282 0.473630 0.203814
Si Si2 0.861877 0.048178 0.661008
Si Si3 0.809431 0.289240 0.205951
Si Si4 0.762944 0.893126 0.934754
Si Si5 0.744115 0.680238 0.909855
Si Si6 0.500000 0.630213 0.000000
Si Si7 0.000000 0.463546 0.500000
Si Si8 0.000000 0.100955 0.500000
O O1 0.500000 0.474183 0.500000
O O2 0.359168 0.523349 0.150526
O O3 0.352717 0.423086 0.151768
O O4 0.000000 0.472949 0.000000
O O5 0.796429 0.068462 0.439250
O O6 0.714932 0.001341 0.610924
O O7 0.851608 0.092483 0.772598
O O8 0.841701 0.337958 0.126319
O O9 0.871690 0.235199 0.188481
O O10 0.000000 0.296362 0.500000
O O11 0.500000 0.287717 0.000000
O O12 0.566182 0.928511 0.693552
O O13 0.000000 0.889718 0.000000
O O14 0.602614 0.637198 0.708501
O O15 0.702536 0.662043 0.054491
O O16 0.000000 0.683354 0.000000
#
# Coordination Sequence:
#
# PCOD9125527 Si02
#       8
#     4   4   4   4   4   2   2   2
#     4  12  26  44  65  97 147 184 228 282 347 417
#     4  11  23  39  61  99 131 185 228 284 338 416
#     4  10  21  41  74 101 130 176 230 285 353 418
#     4  11  23  41  68  99 135 180 238 281 348 418
#     4  10  22  43  69  93 133 174 230 290 352 410
#     4  10  24  42  64 100 134 176 238 288 348 412
#     4  12  22  39  66  98 142 177 236 292 334 416
#     4  10  22  39  62  94 126 177 226 274 350 408
#
# _framework density 21.184588000000002
#
# number of rings (size 3 to 8) (size 9 to 14) (size 15 to 20)
#    0.000    1.231    3.846    1.846    2.154    2.462 
#    1.385    0.000    0.000    0.000    0.000    0.000 
#    0.000    0.000    0.000    0.000    0.000    0.000 
#
# Total GULP energy -72389.720554 kJ/mol
# GULP energy per Si atom -5568.440043 kJ/mol
# Density = 2.113637 g / cm^3
# Si number density = 21.184588 Si / 1000 Ang^3
#
#
#
# Elastic Constant Matrix: (Units=GPa)
#
#
# Indices 1 2 3 4 5 6 
#
# 1 97.6300 47.7662 26.9621 0.0000 -7.1206 0.0000
# 2 47.7662 170.0985 35.0831 0.0000 -19.9551 0.0000
# 3 26.9621 35.0831 77.7526 0.0000 -8.6349 0.0000
# 4 0.0000 0.0000 0.0000 19.8202 0.0000 2.4019
# 5 -7.1206 -19.9551 -8.6349 0.0000 30.4405 0.0000
# 6 0.0000 0.0000 0.0000 2.4019 0.0000 1.8497
#
#
#
# Elastic Compliance Matrix: (Units=1/GPa)
#
#
# Indices 1 2 3 4 5 6 
#
# 1 0.012491 -0.002863 -0.003019 0.000000 0.000189 0.000000
# 2 -0.002863 0.007528 -0.001993 0.000000 0.003700 0.000000
# 3 -0.003019 -0.001993 0.015058 0.000000 0.002259 0.000000
# 4 0.000000 0.000000 0.000000 0.059876 0.000000 -0.077754
# 5 0.000189 0.003700 0.002259 0.000000 0.035961 0.000000
# 6 0.000000 0.000000 0.000000 -0.077754 0.000000 0.641609
#
#
# Mechanical properties :
#
#
# Convention : Reuss Voigt Hill
#
# Bulk Modulus (GPa) = 51.73891 62.78933 57.26412
# Shear Modulus (GPa) = 6.29156 26.13339 16.21247
#
# Velocity S-wave (km/s) = 1.72520 3.51608 2.76940
# Velocity P-wave (km/s) = 5.33332 6.79612 6.10867
#
# Compressibility (1/GPa) = 0.01932781
#
# Stress axis : x y z
#
# Youngs Moduli (GPa) = 80.05850 132.83708 66.40878
#
# Poissons Ratio (x) = 0.38029 0.20047
# Poissons Ratio (y) = 0.22920 0.13236
# Poissons Ratio (z) = 0.24167 0.26476
#
# Static dielectric constant tensor:
#      x y z
#    x 1.945460 0.000000 0.011850 
#    y 0.000000 1.805220 0.000000 
#    z 0.011850 0.000000 1.826640 
# 
# From -- ./inp_files/17478.got.cif
#   From: 2010.05.17/outbox.cif.g08.bks.cpg/sg5_9_cif.got.tgz:17478.got - 2010.06.03 18:56:24.
