data_PCOD9125822
_publ_section_title
;
Structure prediction by ZEFSAII (Michael W. Deem and Ramdas Pophale) SiO2 
 PCOD9125822
Probable space group: C 2
;
_chemical_formula_sum "Si O2"
_cell_formula_units_Z 22
_cell_length_a 22.131438
_cell_length_b 8.765989
_cell_length_c 17.202975
_cell_angle_alpha 90.000000
_cell_angle_beta 161.463492
_cell_angle_gamma 90.000000
_cell_volume 1061.003289
_symmetry_space_group_name_H-M "C 2"
_symmetry_group_IT_number 5
_symmetry_cell_setting 'monoclinic'
loop_
_space_group_symop_operation_xyz
x,y,z
-x,y,-z
1/2+x,1/2+y,z
1/2-x,1/2+y,-z
loop_
_atom_site_type_symbol
_atom_site_label
_atom_site_fract_x
_atom_site_fract_y
_atom_site_fract_z
Si Si1 0.075125 0.482430 0.211104
Si Si2 0.000000 0.329457 0.500000
Si Si3 0.705583 0.550972 0.679629
Si Si4 0.657247 0.209797 0.451305
Si Si5 0.137073 0.879545 0.814584
Si Si6 0.590929 0.053286 0.746411
O O1 0.182439 0.544628 0.265168
O O2 0.157168 0.313566 0.326242
O O3 0.126600 0.600834 0.341403
O O4 0.851739 0.478721 0.919407
O O5 0.150816 0.217587 0.642976
O O6 0.087116 0.435938 0.672430
O O7 0.509465 0.463482 0.421146
O O8 0.486288 0.331385 0.258483
O O9 0.620539 0.105590 0.483457
O O10 0.192406 0.713324 0.850121
O O11 0.305912 0.981377 0.052766
#
# Coordination Sequence:
#
# PCOD9125822 Si02
#       6
#     4   2   4   4   4   4
#     4  10  21  44  66  94 130 176 222 265 333 395
#     4  12  24  40  66 104 134 166 226 278 334 386
#     4  10  23  40  68  93 135 172 216 274 333 389
#     4   9  22  40  67  94 126 175 221 267 331 387
#     4   9  20  41  64  94 130 170 220 264 334 382
#     4  10  22  41  63  98 133 170 220 270 331 391
#
# _framework density 20.735091000000001
#
# number of rings (size 3 to 8) (size 9 to 14) (size 15 to 20)
#    1.091    1.091    0.000    2.182    5.091    0.727 
#    0.000    1.818    0.000    0.000    0.000    0.000 
#    0.000    0.000    0.000    0.000    0.000    0.000 
#
# Total GULP energy -61308.987781 kJ/mol
# GULP energy per Si atom -5573.544344 kJ/mol
# Density = 2.068790 g / cm^3
# Si number density = 20.735091 Si / 1000 Ang^3
#
#
#
# Elastic Constant Matrix: (Units=GPa)
#
#
# Indices 1 2 3 4 5 6 
#
# 1 78.1301 49.6070 39.1701 0.0000 -12.8308 0.0000
# 2 49.6070 159.1989 86.0349 0.0001 -19.3258 0.0000
# 3 39.1701 86.0349 112.0271 0.0000 -10.0405 0.0001
# 4 0.0000 0.0001 0.0000 24.7263 0.0000 -3.8585
# 5 -12.8308 -19.3258 -10.0405 0.0000 29.7424 0.0000
# 6 0.0000 0.0000 0.0001 -3.8585 0.0000 53.3708
#
#
#
# Elastic Compliance Matrix: (Units=1/GPa)
#
#
# Indices 1 2 3 4 5 6 
#
# 1 0.017062 -0.003042 -0.003245 0.000000 0.004288 0.000000
# 2 -0.003042 0.011849 -0.007696 0.000000 0.003788 0.000000
# 3 -0.003245 -0.007696 0.015878 0.000000 -0.001040 0.000000
# 4 0.000000 0.000000 0.000000 0.040904 0.000000 0.002957
# 5 0.004288 0.003788 -0.001040 0.000000 0.037582 0.000000
# 6 0.000000 0.000000 0.000000 0.002957 0.000000 0.018951
#
#
# Mechanical properties :
#
#
# Convention : Reuss Voigt Hill
#
# Bulk Modulus (GPa) = 59.44645 77.66447 68.55546
# Shear Modulus (GPa) = 28.44143 33.20417 30.82280
#
# Velocity S-wave (km/s) = 3.70761 4.00603 3.85970
# Velocity P-wave (km/s) = 6.86004 7.67689 7.27993
#
# Compressibility (1/GPa) = 0.01682186
#
# Stress axis : x y z
#
# Youngs Moduli (GPa) = 58.61026 84.39858 62.97929
#
# Poissons Ratio (x) = 0.25678 0.20436
# Poissons Ratio (y) = 0.17832 0.48470
# Poissons Ratio (z) = 0.19018 0.64955
#
# Static dielectric constant tensor:
#      x y z
#    x 1.820100 0.000000 0.037610 
#    y 0.000000 1.738250 0.000000 
#    z 0.037610 0.000000 1.742290 
# 
# From -- ./inp_files/63271.got.cif
#   From: 2010.05.17/outbox.cif.g08.bks.cpg/sg5_32_cif.got.tgz:63271.got - 2010.06.03 18:56:24.
