data_PCOD9125119
_publ_section_title
;
Structure prediction by ZEFSAII (Michael W. Deem and Ramdas Pophale) SiO2 
 PCOD9125119
Probable space group: C 2
;
_chemical_formula_sum "Si O2"
_cell_formula_units_Z 32
_cell_length_a 9.186847
_cell_length_b 23.632011
_cell_length_c 15.979117
_cell_angle_alpha 90.000000
_cell_angle_beta 27.624850
_cell_angle_gamma 90.000000
_cell_volume 1608.565066
_symmetry_space_group_name_H-M "C 2"
_symmetry_group_IT_number 5
_symmetry_cell_setting 'monoclinic'
loop_
_space_group_symop_operation_xyz
x,y,z
-x,y,-z
1/2+x,1/2+y,z
1/2-x,1/2+y,-z
loop_
_atom_site_type_symbol
_atom_site_label
_atom_site_fract_x
_atom_site_fract_y
_atom_site_fract_z
Si Si1 0.119144 0.910100 0.692198
Si Si2 0.410628 0.612842 0.951593
Si Si3 0.770330 0.729157 0.306853
Si Si4 0.644985 0.333406 0.835153
Si Si5 0.720861 0.129309 0.807157
Si Si6 0.405471 0.332195 0.454176
Si Si7 0.373081 0.538712 0.307407
Si Si8 0.763456 0.228611 0.190037
O O1 0.500000 0.911037 0.500000
O O2 0.040571 0.879877 0.820114
O O3 0.018550 0.874485 0.661746
O O4 0.007230 0.974722 0.744268
O O5 0.548250 0.565979 0.821276
O O6 0.556037 0.675880 0.858699
O O7 0.500000 0.601475 0.000000
O O8 0.040553 0.609380 0.124922
O O9 0.500000 0.758669 0.500000
O O10 0.950989 0.773851 0.157736
O O11 0.632173 0.683286 0.313490
O O12 0.996251 0.704562 0.263298
O O13 0.024928 0.328243 0.648184
O O14 0.500000 0.342003 0.000000
O O15 0.963550 0.081590 0.710634
O O16 0.500000 0.144529 0.000000
O O17 0.500000 0.350177 0.500000
O O18 0.594624 0.274243 0.335164
O O19 0.000000 0.538206 0.500000
O O20 0.000000 0.255054 0.000000
#
# Coordination Sequence:
#
# PCOD9125119 Si02
#       8
#     4   4   4   4   4   4   4   4
#     4   9  20  46  64  87 130 166 215 265 322 379
#     4  10  21  40  59  87 127 167 206 260 317 381
#     4  12  21  38  62  93 130 169 207 264 325 389
#     4  11  23  40  65  94 129 172 211 261 332 387
#     4  10  22  39  58  89 129 166 211 261 318 384
#     4  11  24  40  64  96 126 167 216 269 318 388
#     4  10  23  40  66  90 122 171 214 269 316 376
#     4  11  22  39  63  93 135 170 207 266 327 379
#
# _framework density 19.893507
#
# number of rings (size 3 to 8) (size 9 to 14) (size 15 to 20)
#    0.000    1.500    5.000    0.750    3.500    3.000 
#    0.000   10.000    0.000    0.000    0.000    0.000 
#    0.000    0.000    0.000    0.000    0.000    0.000 
#
# Total GULP energy -89189.677545 kJ/mol
# GULP energy per Si atom -5574.354847 kJ/mol
# Density = 1.984823 g / cm^3
# Si number density = 19.893507 Si / 1000 Ang^3
#
#
#
# Elastic Constant Matrix: (Units=GPa)
#
#
# Indices 1 2 3 4 5 6 
#
# 1 135.7947 58.2510 28.8169 -0.0077 15.3959 -0.0002
# 2 58.2510 134.0638 37.3753 -0.0028 19.7719 -0.0007
# 3 28.8169 37.3753 78.2463 -0.0072 19.4834 0.0096
# 4 -0.0077 -0.0028 -0.0072 1.3327 0.0029 3.4086
# 5 15.3959 19.7719 19.4834 0.0029 33.3560 -0.0019
# 6 -0.0002 -0.0007 0.0096 3.4086 -0.0019 22.2193
#
#
#
# Elastic Compliance Matrix: (Units=1/GPa)
#
#
# Indices 1 2 3 4 5 6 
#
# 1 0.009302 -0.003433 -0.001432 0.000067 -0.001422 -0.000010
# 2 -0.003433 0.010166 -0.002909 -0.000019 -0.002742 0.000004
# 3 -0.001432 -0.002909 0.016503 0.000182 -0.007255 -0.000036
# 4 0.000067 -0.000019 0.000182 1.234863 -0.000245 -0.189437
# 5 -0.001422 -0.002742 -0.007255 -0.000245 0.036499 0.000044
# 6 -0.000010 0.000004 -0.000036 -0.189437 0.000044 0.074067
#
#
# Mechanical properties :
#
#
# Convention : Reuss Voigt Hill
#
# Bulk Modulus (GPa) = 48.96131 66.33237 57.64684
# Shear Modulus (GPa) = 3.56187 26.29237 14.92712
#
# Velocity S-wave (km/s) = 1.33954 3.63940 2.74223
# Velocity P-wave (km/s) = 5.20169 7.14678 6.25036
#
# Compressibility (1/GPa) = 0.02042429
#
# Stress axis : x y z
#
# Youngs Moduli (GPa) = 107.50785 98.36667 60.59372
#
# Poissons Ratio (x) = 0.33766 0.08676
# Poissons Ratio (y) = 0.36904 0.17626
# Poissons Ratio (z) = 0.15394 0.28614
#
# Static dielectric constant tensor:
#      x y z
#    x 1.729710 -0.000010 -0.013970 
#    y -0.000010 1.720510 -0.000010 
#    z -0.013970 -0.000010 1.825710 
# 
# From -- ./inp_files/51683.got.cif
#   From: 2010.05.17/outbox.cif.g08.bks.cpg/sg5_26_cif.got.tgz:51683.got - 2010.06.03 18:56:24.
