data_PCOD9125524
_publ_section_title
;
Structure prediction by ZEFSAII (Michael W. Deem and Ramdas Pophale) SiO2 
 PCOD9125524
Probable space group: C 2
;
_chemical_formula_sum "Si O2"
_cell_formula_units_Z 28
_cell_length_a 7.399620
_cell_length_b 12.104493
_cell_length_c 14.025079
_cell_angle_alpha 90.000000
_cell_angle_beta 103.995784
_cell_angle_gamma 90.000000
_cell_volume 1218.915002
_symmetry_space_group_name_H-M "C 2"
_symmetry_group_IT_number 5
_symmetry_cell_setting 'monoclinic'
loop_
_space_group_symop_operation_xyz
x,y,z
-x,y,-z
1/2+x,1/2+y,z
1/2-x,1/2+y,-z
loop_
_atom_site_type_symbol
_atom_site_label
_atom_site_fract_x
_atom_site_fract_y
_atom_site_fract_z
Si Si1 0.307829 0.053200 0.714980
Si Si2 0.107073 0.122110 0.324154
Si Si3 0.484876 0.221909 0.854215
Si Si4 0.263663 0.373453 0.686321
Si Si5 0.172130 0.231739 0.971904
Si Si6 0.927439 0.330661 0.784045
Si Si7 0.190367 0.688814 0.466244
O O1 0.480030 0.112109 0.789607
O O2 0.327684 0.082384 0.605966
O O3 0.114183 0.112149 0.715531
O O4 0.288965 0.931493 0.754018
O O5 0.163803 0.213600 0.253870
O O6 0.154917 0.167438 0.434639
O O7 0.194758 0.001282 0.326443
O O8 0.409382 0.320229 0.779229
O O9 0.322787 0.193456 0.911938
O O10 0.678915 0.256799 0.926153
O O11 0.274251 0.296414 0.594178
O O12 0.068440 0.358804 0.715051
O O13 0.050310 0.321373 0.896128
O O14 0.000000 0.164961 0.000000
O O15 0.000000 0.703519 0.500000
#
# Coordination Sequence:
#
# PCOD9125524 Si02
#       7
#     4   4   4   4   4   4   4
#     4  11  24  47  72  98 147 186 229 300 353 420
#     4  12  25  44  73 101 142 185 238 284 358 412
#     4   9  21  48  68 100 151 180 234 299 356 421
#     4  10  24  46  68  99 145 185 230 296 348 420
#     4  10  21  41  73 104 139 183 239 290 355 431
#     4  11  25  47  69 105 139 185 232 295 356 422
#     4  11  25  43  69 106 140 192 238 286 349 424
#
# _framework density 22.971250000000001
#
# number of rings (size 3 to 8) (size 9 to 14) (size 15 to 20)
#    0.000    1.429    4.286    1.286    6.000    2.286 
#    5.143    0.000    0.000    0.000    0.000    0.000 
#    0.000    0.000    0.000    0.000    0.000    0.000 
#
# Total GULP energy -78138.867190 kJ/mol
# GULP energy per Si atom -5581.347656 kJ/mol
# Density = 2.291897 g / cm^3
# Si number density = 22.971250 Si / 1000 Ang^3
#
#
#
# Elastic Constant Matrix: (Units=GPa)
#
#
# Indices 1 2 3 4 5 6 
#
# 1 95.9535 20.8273 22.9850 0.0000 1.6265 0.0000
# 2 20.8273 116.5212 59.1430 0.0000 15.6908 0.0000
# 3 22.9850 59.1430 160.7046 0.0000 21.7123 0.0000
# 4 0.0000 0.0000 0.0000 4.4121 0.0000 2.9283
# 5 1.6265 15.6908 21.7123 0.0000 33.1465 0.0000
# 6 0.0000 0.0000 0.0000 2.9283 0.0000 24.9387
#
#
#
# Elastic Compliance Matrix: (Units=1/GPa)
#
#
# Indices 1 2 3 4 5 6 
#
# 1 0.011008 -0.001512 -0.001143 0.000000 0.000924 0.000000
# 2 -0.001512 0.010984 -0.003438 0.000000 -0.002874 0.000000
# 3 -0.001143 -0.003438 0.008145 0.000000 -0.003652 0.000000
# 4 0.000000 0.000000 0.000000 0.245805 0.000000 -0.028862
# 5 0.000924 -0.002874 -0.003652 0.000000 0.033876 0.000000
# 6 0.000000 0.000000 0.000000 -0.028862 0.000000 0.043487
#
#
# Mechanical properties :
#
#
# Convention : Reuss Voigt Hill
#
# Bulk Modulus (GPa) = 55.70608 64.34332 60.02470
# Shear Modulus (GPa) = 13.45986 30.51439 21.98713
#
# Velocity S-wave (km/s) = 2.42325 3.64864 3.09715
# Velocity P-wave (km/s) = 5.66856 6.76914 6.24315
#
# Compressibility (1/GPa) = 0.01795136
#
# Stress axis : x y z
#
# Youngs Moduli (GPa) = 90.84302 91.03834 122.77957
#
# Poissons Ratio (x) = 0.13765 0.14032
# Poissons Ratio (y) = 0.13735 0.42212
# Poissons Ratio (z) = 0.10382 0.31299
#
# Static dielectric constant tensor:
#      x y z
#    x 1.908140 0.000000 -0.038220 
#    y 0.000000 1.869840 0.000000 
#    z -0.038220 0.000000 1.883160 
# 
# From -- ./inp_files/50324.got.cif
#   From: 2010.05.17/outbox.cif.g08.bks.cpg/sg5_26_cif.got.tgz:50324.got - 2010.06.03 18:56:24.
