data_PCOD9125985
_publ_section_title
;
Structure prediction by ZEFSAII (Michael W. Deem and Ramdas Pophale) SiO2 
 PCOD9125985
Probable space group: C 2
;
_chemical_formula_sum "Si O2"
_cell_formula_units_Z 26
_cell_length_a 7.319616
_cell_length_b 12.726102
_cell_length_c 18.308509
_cell_angle_alpha 90.000000
_cell_angle_beta 134.380061
_cell_angle_gamma 90.000000
_cell_volume 1218.906107
_symmetry_space_group_name_H-M "C 2"
_symmetry_group_IT_number 5
_symmetry_cell_setting 'monoclinic'
loop_
_space_group_symop_operation_xyz
x,y,z
-x,y,-z
1/2+x,1/2+y,z
1/2-x,1/2+y,-z
loop_
_atom_site_type_symbol
_atom_site_label
_atom_site_fract_x
_atom_site_fract_y
_atom_site_fract_z
Si Si1 0.189838 0.078580 0.902403
Si Si2 0.683784 0.460327 0.754855
Si Si3 0.292386 0.840638 0.345690
Si Si4 0.500000 0.012391 0.500000
Si Si5 0.540509 0.367504 0.118915
Si Si6 0.105860 0.301356 0.917169
Si Si7 0.025539 0.100695 0.591696
O O1 0.037740 0.182698 0.881006
O O2 0.130070 0.047594 0.801974
O O3 0.500000 0.091108 0.000000
O O4 0.075345 0.983859 0.917481
O O5 0.458024 0.376028 0.678243
O O6 0.722065 0.525649 0.691479
O O7 0.893543 0.389590 0.853949
O O8 0.481284 0.932307 0.425743
O O9 0.196801 0.852743 0.236251
O O10 0.391239 0.722905 0.383687
O O11 0.754141 0.081112 0.557241
O O12 0.718102 0.335762 0.102085
O O13 0.282632 0.299255 0.038490
O O14 0.000000 0.070207 0.500000
#
# Coordination Sequence:
#
# PCOD9125985 Si02
#       7
#     4   4   4   2   4   4   4
#     4  11  20  39  60  83 130 173 202 263 322 369
#     4  10  24  42  65  94 129 166 217 268 322 390
#     4  10  22  45  65  94 131 168 216 272 323 391
#     4  10  24  48  64  98 134 166 222 278 328 392
#     4  10  22  36  63  93 128 166 215 262 311 391
#     4  11  22  39  61  98 127 169 216 256 322 397
#     4  11  24  46  71  96 131 173 220 276 336 390
#
# _framework density 21.3306
#
# number of rings (size 3 to 8) (size 9 to 14) (size 15 to 20)
#    0.000    1.538    3.846    0.923    2.154    1.231 
#    9.692    4.615    0.000    0.000    0.000    0.000 
#    0.000    0.000    0.000    0.000    0.000    0.000 
#
# Total GULP energy -72466.111508 kJ/mol
# GULP energy per Si atom -5574.316270 kJ/mol
# Density = 2.128205 g / cm^3
# Si number density = 21.330600 Si / 1000 Ang^3
#
#
#
# Elastic Constant Matrix: (Units=GPa)
#
#
# Indices 1 2 3 4 5 6 
#
# 1 16.6575 15.6651 9.7708 0.0000 -9.3248 0.0000
# 2 15.6651 126.9955 36.8124 0.0000 -13.5298 0.0000
# 3 9.7708 36.8124 109.9883 0.0000 -14.1227 0.0000
# 4 0.0000 0.0000 0.0000 35.6565 0.0000 8.0123
# 5 -9.3248 -13.5298 -14.1227 0.0000 25.6087 0.0000
# 6 0.0000 0.0000 0.0000 8.0123 0.0000 39.9887
#
#
#
# Elastic Compliance Matrix: (Units=1/GPa)
#
#
# Indices 1 2 3 4 5 6 
#
# 1 0.081580 -0.006889 -0.001716 0.000000 0.025119 0.000000
# 2 -0.006889 0.009557 -0.002433 0.000000 0.001199 0.000000
# 3 -0.001716 -0.002433 0.010561 0.000000 0.003914 0.000000
# 4 0.000000 0.000000 0.000000 0.029368 0.000000 -0.005884
# 5 0.025119 0.001199 0.003914 0.000000 0.050988 0.000000
# 6 0.000000 0.000000 0.000000 -0.005884 0.000000 0.026186
#
#
# Mechanical properties :
#
#
# Convention : Reuss Voigt Hill
#
# Bulk Modulus (GPa) = 12.55936 42.01533 27.28734
# Shear Modulus (GPa) = 19.46612 33.01030 26.23821
#
# Velocity S-wave (km/s) = 3.02419 3.93817 3.51105
# Velocity P-wave (km/s) = 4.25383 6.35758 5.40897
#
# Compressibility (1/GPa) = 0.07962191
#
# Stress axis : x y z
#
# Youngs Moduli (GPa) = 12.25790 104.63493 94.68701
#
# Poissons Ratio (x) = 0.72088 0.16248
# Poissons Ratio (y) = 0.08445 0.23035
# Poissons Ratio (z) = 0.02103 0.25455
#
# Static dielectric constant tensor:
#      x y z
#    x 1.670320 0.000000 0.008070 
#    y 0.000000 1.764940 0.000000 
#    z 0.008070 0.000000 1.847110 
# 
# From -- ./inp_files/50215.got.cif
#   From: 2010.05.17/outbox.cif.g08.bks.cpg/sg5_26_cif.got.tgz:50215.got - 2010.06.03 18:56:24.
