data_PCOD9125062
_publ_section_title
;
Structure prediction by ZEFSAII (Michael W. Deem and Ramdas Pophale) SiO2 
 PCOD9125062
Probable space group: C 2
;
_chemical_formula_sum "Si O2"
_cell_formula_units_Z 22
_cell_length_a 14.346346
_cell_length_b 7.237922
_cell_length_c 22.181896
_cell_angle_alpha 90.000000
_cell_angle_beta 158.539676
_cell_angle_gamma 90.000000
_cell_volume 842.684587
_symmetry_space_group_name_H-M "C 2"
_symmetry_group_IT_number 5
_symmetry_cell_setting 'monoclinic'
loop_
_space_group_symop_operation_xyz
x,y,z
-x,y,-z
1/2+x,1/2+y,z
1/2-x,1/2+y,-z
loop_
_atom_site_type_symbol
_atom_site_label
_atom_site_fract_x
_atom_site_fract_y
_atom_site_fract_z
Si Si1 0.681634 0.824390 0.235455
Si Si2 0.819265 0.213716 0.124291
Si Si3 0.724026 0.387947 0.536318
Si Si4 0.500000 0.902449 0.000000
Si Si5 0.233257 0.313473 0.570062
Si Si6 0.352384 0.276012 0.770886
O O1 0.499775 0.720017 0.172860
O O2 0.983593 0.788138 0.422199
O O3 0.653137 0.048649 0.230008
O O4 0.609948 0.789233 0.122576
O O5 0.007104 0.299447 0.286675
O O6 0.697231 0.038771 0.084699
O O7 0.571265 0.324938 0.950058
O O8 0.668714 0.397268 0.432360
O O9 0.738999 0.593693 0.568489
O O10 0.390308 0.345432 0.725361
O O11 0.930756 0.351567 0.388510
#
# Coordination Sequence:
#
# PCOD9125062 Si02
#       6
#     4   4   4   2   4   4
#     4  10  21  39  66  90 130 173 221 271 330 397
#     4  11  20  38  65  92 125 171 217 273 320 397
#     4  11  21  38  65  99 128 171 216 273 336 391
#     4  10  24  42  64  98 128 180 228 266 340 404
#     4  10  21  40  66  91 130 171 218 270 330 402
#     4   9  20  40  62  89 122 177 215 261 331 397
#
# _framework density 26.107040000000001
#
# number of rings (size 3 to 8) (size 9 to 14) (size 15 to 20)
#    0.000    1.818    1.818    3.818    2.545    0.000 
#    0.000    7.273    4.000    0.000    0.000    0.000 
#    0.000    0.000    0.000    0.000    0.000    0.000 
#
# Total GULP energy -61519.751412 kJ/mol
# GULP energy per Si atom -5592.704674 kJ/mol
# Density = 2.604762 g / cm^3
# Si number density = 26.107040 Si / 1000 Ang^3
#
#
#
# Elastic Constant Matrix: (Units=GPa)
#
#
# Indices 1 2 3 4 5 6 
#
# 1 142.4722 14.7748 20.9792 0.0035 -18.8144 -0.0002
# 2 14.7748 77.7708 33.6955 0.0093 6.7097 -0.0024
# 3 20.9792 33.6955 149.2425 0.0426 -16.7436 -0.0052
# 4 0.0035 0.0093 0.0426 25.1890 -0.0026 -4.2934
# 5 -18.8144 6.7097 -16.7436 -0.0026 62.7879 0.0000
# 6 -0.0002 -0.0024 -0.0052 -4.2934 0.0000 42.0415
#
#
#
# Elastic Compliance Matrix: (Units=1/GPa)
#
#
# Indices 1 2 3 4 5 6 
#
# 1 0.007539 -0.001420 -0.000483 0.000001 0.002282 0.000000
# 2 -0.001420 0.014897 -0.003495 0.000000 -0.002949 0.000000
# 3 -0.000483 -0.003495 0.007817 -0.000012 0.002313 0.000000
# 4 0.000001 0.000000 -0.000012 0.040403 -0.000001 0.004126
# 5 0.002282 -0.002949 0.002313 -0.000001 0.017542 0.000000
# 6 0.000000 0.000000 0.000000 0.004126 0.000000 0.024207
#
#
# Mechanical properties :
#
#
# Convention : Reuss Voigt Hill
#
# Bulk Modulus (GPa) = 51.39495 56.48715 53.94105
# Shear Modulus (GPa) = 38.55475 46.00609 42.28042
#
# Velocity S-wave (km/s) = 3.84708 4.20242 4.02867
# Velocity P-wave (km/s) = 6.28190 6.72539 6.50743
#
# Compressibility (1/GPa) = 0.01945716
#
# Stress axis : x y z
#
# Youngs Moduli (GPa) = 132.65030 67.12963 127.92715
#
# Poissons Ratio (x) = 0.09530 0.06181
# Poissons Ratio (y) = 0.18832 0.44705
# Poissons Ratio (z) = 0.06409 0.23459
#
# Static dielectric constant tensor:
#      x y z
#    x 2.047020 0.000000 0.008400 
#    y 0.000000 2.072080 0.000000 
#    z 0.008400 0.000000 1.930400 
# 
# From -- ./inp_files/42547.got.cif
#   From: 2010.05.17/outbox.cif.g08.bks.cpg/sg5_22_cif.got.tgz:42547.got - 2010.06.03 18:56:24.
