data_PCOD9125856
_publ_section_title
;
Structure prediction by ZEFSAII (Michael W. Deem and Ramdas Pophale) SiO2 
 PCOD9125856
Probable space group: C 2
;
_chemical_formula_sum "Si O2"
_cell_formula_units_Z 18
_cell_length_a 7.835041
_cell_length_b 10.054248
_cell_length_c 10.742007
_cell_angle_alpha 90.000000
_cell_angle_beta 71.019483
_cell_angle_gamma 90.000000
_cell_volume 800.197490
_symmetry_space_group_name_H-M "C 2"
_symmetry_group_IT_number 5
_symmetry_cell_setting 'monoclinic'
loop_
_space_group_symop_operation_xyz
x,y,z
-x,y,-z
1/2+x,1/2+y,z
1/2-x,1/2+y,-z
loop_
_atom_site_type_symbol
_atom_site_label
_atom_site_fract_x
_atom_site_fract_y
_atom_site_fract_z
Si Si1 0.209502 0.311240 0.993481
Si Si2 0.240720 0.656127 0.251539
Si Si3 0.500000 0.018880 0.500000
Si Si4 0.359997 0.568601 0.835882
Si Si5 0.798488 0.915135 0.597304
O O1 0.308401 0.217317 0.869438
O O2 0.286500 0.458818 0.952986
O O3 0.207957 0.218603 0.116425
O O4 0.000000 0.317675 0.000000
O O5 0.422330 0.570202 0.202505
O O6 0.287255 0.783567 0.324330
O O7 0.072302 0.593160 0.360696
O O8 0.676527 0.948194 0.508850
O O9 0.308143 0.519749 0.709688
O O10 0.000000 0.892935 0.500000
#
# Coordination Sequence:
#
# PCOD9125856 Si02
#       5
#     4   4   2   4   4
#     4   9  21  41  68  99 139 183 230 289 340 412
#     4  10  22  42  65  98 141 178 232 283 336 418
#     4  12  24  40  68 100 138 186 228 274 350 416
#     4  10  21  44  71  98 142 185 227 289 348 404
#     4  11  23  42  68 102 141 181 226 287 345 410
#
# _framework density 22.494447000000001
#
# number of rings (size 3 to 8) (size 9 to 14) (size 15 to 20)
#    0.000    1.778    3.333    0.000    0.000    7.111 
#    0.000   18.889    0.000    0.000    0.000    0.000 
#    0.000    0.000    0.000    0.000    0.000    0.000 
#
# Total GULP energy -50209.260438 kJ/mol
# GULP energy per Si atom -5578.806715 kJ/mol
# Density = 2.244325 g / cm^3
# Si number density = 22.494447 Si / 1000 Ang^3
#
#
#
# Elastic Constant Matrix: (Units=GPa)
#
#
# Indices 1 2 3 4 5 6 
#
# 1 79.2609 32.7323 16.7202 0.0000 -10.1196 0.0000
# 2 32.7323 79.6047 31.1909 0.0000 -8.8036 0.0000
# 3 16.7202 31.1909 85.6030 0.0000 -22.4515 0.0000
# 4 0.0000 0.0000 0.0000 29.5466 0.0000 -23.7650
# 5 -10.1196 -8.8036 -22.4515 0.0000 29.2716 0.0000
# 6 0.0000 0.0000 0.0000 -23.7650 0.0000 12.4495
#
#
#
# Elastic Compliance Matrix: (Units=1/GPa)
#
#
# Indices 1 2 3 4 5 6 
#
# 1 0.015551 -0.006038 0.000120 0.000000 0.003653 0.000000
# 2 -0.006038 0.017002 -0.005285 0.000000 -0.001028 0.000000
# 3 0.000120 -0.005285 0.016497 0.000000 0.011105 0.000000
# 4 0.000000 0.000000 0.000000 -0.063217 0.000000 -0.120675
# 5 0.003653 -0.001028 0.011105 0.000000 0.043634 0.000000
# 6 0.000000 0.000000 0.000000 -0.120675 0.000000 -0.150033
#
#
# Mechanical properties :
#
#
# Convention : Reuss Voigt Hill
#
# Bulk Modulus (GPa) = 37.53074 45.08395 41.30735
# Shear Modulus (GPa) = -56.00326 25.17521 -15.41403
#
# Velocity S-wave (km/s) = -4.99505 3.34904 -2.62054
# Velocity P-wave (km/s) = 4.06776 5.91950 3.04087
#
# Compressibility (1/GPa) = 0.02664482
#
# Stress axis : x y z
#
# Youngs Moduli (GPa) = 64.30533 58.81731 60.61844
#
# Poissons Ratio (x) = 0.35511 -0.00730
# Poissons Ratio (y) = 0.38824 0.32038
# Poissons Ratio (z) = -0.00774 0.31086
#
# Static dielectric constant tensor:
#      x y z
#    x 1.855400 0.000000 -0.004640 
#    y 0.000000 1.885000 0.000000 
#    z -0.004640 0.000000 1.925780 
# 
# From -- ./inp_files/14253.got.cif
#   From: 2010.05.17/outbox.cif.g08.bks.cpg/sg5_8_cif.got.tgz:14253.got - 2010.06.03 18:56:24.
