data_PCOD9125641
_publ_section_title
;
Structure prediction by ZEFSAII (Michael W. Deem and Ramdas Pophale) SiO2 
 PCOD9125641
Probable space group: C 2
;
_chemical_formula_sum "Si O2"
_cell_formula_units_Z 30
_cell_length_a 12.707501
_cell_length_b 13.588877
_cell_length_c 17.959963
_cell_angle_alpha 90.000000
_cell_angle_beta 27.483235
_cell_angle_gamma 90.000000
_cell_volume 1431.233717
_symmetry_space_group_name_H-M "C 2"
_symmetry_group_IT_number 5
_symmetry_cell_setting 'monoclinic'
loop_
_space_group_symop_operation_xyz
x,y,z
-x,y,-z
1/2+x,1/2+y,z
1/2-x,1/2+y,-z
loop_
_atom_site_type_symbol
_atom_site_label
_atom_site_fract_x
_atom_site_fract_y
_atom_site_fract_z
Si Si1 0.341519 0.386170 0.172249
Si Si2 0.144112 0.636885 0.624440
Si Si3 0.350303 0.079667 0.664248
Si Si4 0.570004 0.207123 0.097422
Si Si5 0.418631 0.717384 0.261392
Si Si6 0.000000 0.567814 0.000000
Si Si7 0.008505 0.030903 0.670293
Si Si8 0.184007 0.343037 0.537744
O O1 0.342097 0.498332 0.199896
O O2 0.423913 0.306299 0.179964
O O3 0.078093 0.364924 0.317950
O O4 0.500000 0.374974 0.000000
O O5 0.379082 0.575359 0.475659
O O6 0.221772 0.747677 0.562092
O O7 0.995054 0.597802 0.648032
O O8 0.993781 0.641179 0.792034
O O9 0.500000 0.042904 0.500000
O O10 0.247007 0.181671 0.699651
O O11 0.517912 0.139974 0.058943
O O12 0.833531 0.237516 0.927276
O O13 0.448321 0.620408 0.297234
O O14 0.325889 0.806898 0.369581
O O15 0.239237 0.511371 0.841233
O O16 0.155467 0.932719 0.586655
#
# Coordination Sequence:
#
# PCOD9125641 Si02
#       8
#     4   4   4   4   4   2   4   4
#     4  12  24  40  72 104 129 180 237 281 341 411
#     4  11  25  40  67 101 138 177 238 286 342 409
#     4  12  24  44  67  98 137 190 223 284 346 405
#     4  11  23  42  66 104 139 177 225 297 341 408
#     4  10  22  42  67  94 146 181 219 300 351 393
#     4  10  22  46  66  92 146 178 218 296 374 390
#     4  10  21  42  68  97 130 185 233 287 342 422
#     4  11  21  43  69  97 133 179 236 281 341 417
#
# _framework density 20.960937999999999
#
# number of rings (size 3 to 8) (size 9 to 14) (size 15 to 20)
#    0.000    1.067    6.000    1.600    5.600    1.600 
#    0.000    4.000    0.000    0.000    0.000    0.000 
#    0.000    0.000    0.000    0.000    0.000    0.000 
#
# Total GULP energy -83741.884313 kJ/mol
# GULP energy per Si atom -5582.792288 kJ/mol
# Density = 2.091323 g / cm^3
# Si number density = 20.960938 Si / 1000 Ang^3
#
#
#
# Elastic Constant Matrix: (Units=GPa)
#
#
# Indices 1 2 3 4 5 6 
#
# 1 78.3056 6.2237 49.4494 -0.0237 12.3596 -0.0064
# 2 6.2237 73.6252 32.2664 -0.0403 -11.8343 -0.0033
# 3 49.4494 32.2664 131.5813 -0.0472 -8.3433 -0.0028
# 4 -0.0237 -0.0403 -0.0472 32.7109 0.0103 0.0125
# 5 12.3596 -11.8343 -8.3433 0.0103 36.2729 0.0030
# 6 -0.0064 -0.0033 -0.0028 0.0125 0.0030 18.1230
#
#
#
# Elastic Compliance Matrix: (Units=1/GPa)
#
#
# Indices 1 2 3 4 5 6 
#
# 1 0.018882 0.000497 -0.007728 0.000006 -0.008049 0.000007
# 2 0.000497 0.015878 -0.003818 0.000013 0.004133 0.000002
# 3 -0.007728 -0.003818 0.011699 0.000005 0.004079 -0.000002
# 4 0.000006 0.000013 0.000005 0.030571 -0.000005 -0.000021
# 5 -0.008049 0.004133 0.004079 -0.000005 0.032598 -0.000007
# 6 0.000007 0.000002 -0.000002 -0.000021 -0.000007 0.055179
#
#
# Mechanical properties :
#
#
# Convention : Reuss Voigt Hill
#
# Bulk Modulus (GPa) = 41.05124 51.04345 46.04735
# Shear Modulus (GPa) = 25.63770 30.45952 28.04861
#
# Velocity S-wave (km/s) = 3.50110 3.81616 3.66202
# Velocity P-wave (km/s) = 5.99757 6.61982 6.31636
#
# Compressibility (1/GPa) = 0.02435980
#
# Stress axis : x y z
#
# Youngs Moduli (GPa) = 52.96120 62.98037 85.47646
#
# Poissons Ratio (x) = -0.03130 0.66058
# Poissons Ratio (y) = -0.02632 0.32638
# Poissons Ratio (z) = 0.40929 0.24048
#
# Static dielectric constant tensor:
#      x y z
#    x 1.791970 0.000010 -0.002100 
#    y 0.000010 1.746770 0.000010 
#    z -0.002100 0.000010 1.790040 
# 
# From -- ./inp_files/60643.got.cif
#   From: 2010.05.17/outbox.cif.g08.bks.cpg/sg5_31_cif.got.tgz:60643.got - 2010.06.03 18:56:24.
