data_PCOD9125831
_publ_section_title
;
Structure prediction by ZEFSAII (Michael W. Deem and Ramdas Pophale) SiO2 
 PCOD9125831
Probable space group: C 2
;
_chemical_formula_sum "Si O2"
_cell_formula_units_Z 26
_cell_length_a 14.981463
_cell_length_b 16.743007
_cell_length_c 5.143367
_cell_angle_alpha 90.000000
_cell_angle_beta 66.472130
_cell_angle_gamma 90.000000
_cell_volume 1182.881037
_symmetry_space_group_name_H-M "C 2"
_symmetry_group_IT_number 5
_symmetry_cell_setting 'monoclinic'
loop_
_space_group_symop_operation_xyz
x,y,z
-x,y,-z
1/2+x,1/2+y,z
1/2-x,1/2+y,-z
loop_
_atom_site_type_symbol
_atom_site_label
_atom_site_fract_x
_atom_site_fract_y
_atom_site_fract_z
Si Si1 0.686438 0.556980 0.919649
Si Si2 0.792392 0.683293 0.116500
Si Si3 0.000000 0.833472 0.500000
Si Si4 0.119022 0.195254 0.720418
Si Si5 0.500000 0.220700 0.000000
Si Si6 0.676341 0.452477 0.417143
Si Si7 0.500000 0.798183 0.500000
Si Si8 0.806359 0.330547 0.985573
O O1 0.606404 0.617135 0.903814
O O2 0.699084 0.490993 0.673664
O O3 0.773891 0.618664 0.905478
O O4 0.652496 0.517166 0.224730
O O5 0.701602 0.670913 0.415118
O O6 0.775563 0.778106 0.068845
O O7 0.897817 0.672871 0.123222
O O8 0.911755 0.889466 0.501545
O O9 0.986996 0.774936 0.759986
O O10 0.029157 0.236943 0.690344
O O11 0.164410 0.265967 0.834998
O O12 0.768126 0.406974 0.181065
O O13 0.402232 0.844439 0.697153
#
# Coordination Sequence:
#
# PCOD9125831 Si02
#       8
#     4   4   2   4   2   4   2   4
#     4  11  25  44  67 100 142 190 219 283 360 417
#     4  10  22  44  70 103 135 187 234 287 346 410
#     4  12  26  43  66 117 132 188 228 294 354 413
#     4  10  21  44  68 101 134 179 236 280 342 409
#     4  12  24  42  78 102 138 174 256 288 330 422
#     4  12  25  45  69  99 150 179 227 284 361 423
#     4  10  22  39  72 105 128 176 250 284 342 395
#     4  10  22  41  71  99 137 182 232 294 340 416
#
# _framework density 21.980229999999999
#
# number of rings (size 3 to 8) (size 9 to 14) (size 15 to 20)
#    0.000    1.231    3.077    2.308    6.462    0.615 
#    8.308    0.000    6.769    0.000    0.000    0.000 
#    0.000    0.000    0.000    0.000    0.000    0.000 
#
# Total GULP energy -72476.004768 kJ/mol
# GULP energy per Si atom -5575.077290 kJ/mol
# Density = 2.193020 g / cm^3
# Si number density = 21.980230 Si / 1000 Ang^3
#
#
#
# Elastic Constant Matrix: (Units=GPa)
#
#
# Indices 1 2 3 4 5 6 
#
# 1 107.7330 6.4247 35.1033 0.0000 -18.0246 0.0000
# 2 6.4247 30.4973 19.5607 0.0000 -2.1247 0.0000
# 3 35.1033 19.5607 97.5954 0.0000 8.4237 0.0000
# 4 0.0000 0.0000 0.0000 38.9829 0.0000 19.7303
# 5 -18.0246 -2.1247 8.4237 0.0000 33.3643 0.0000
# 6 0.0000 0.0000 0.0000 19.7303 0.0000 21.5671
#
#
#
# Elastic Compliance Matrix: (Units=1/GPa)
#
#
# Indices 1 2 3 4 5 6 
#
# 1 0.012321 0.001448 -0.005422 0.000000 0.008117 0.000000
# 2 0.001448 0.038438 -0.008693 0.000000 0.005425 0.000000
# 3 -0.005422 -0.008693 0.014557 0.000000 -0.007158 0.000000
# 4 0.000000 0.000000 0.000000 0.047771 0.000000 -0.043703
# 5 0.008117 0.005425 -0.007158 0.000000 0.036510 0.000000
# 6 0.000000 0.000000 0.000000 -0.043703 0.000000 0.086348
#
#
# Mechanical properties :
#
#
# Convention : Reuss Voigt Hill
#
# Bulk Modulus (GPa) = 25.01201 39.77814 32.39507
# Shear Modulus (GPa) = 18.20781 30.43201 24.31991
#
# Velocity S-wave (km/s) = 2.88127 3.72495 3.32993
# Velocity P-wave (km/s) = 4.74057 6.05284 5.43644
#
# Compressibility (1/GPa) = 0.03998080
#
# Stress axis : x y z
#
# Youngs Moduli (GPa) = 81.16380 26.01569 68.69605
#
# Poissons Ratio (x) = -0.03767 0.37250
# Poissons Ratio (y) = -0.11751 0.59718
# Poissons Ratio (z) = 0.44010 0.22616
#
# Static dielectric constant tensor:
#      x y z
#    x 1.858940 0.000000 0.014680 
#    y 0.000000 1.834760 0.000000 
#    z 0.014680 0.000000 1.893780 
# 
# From -- ./inp_files/7168.got.cif
#   From: 2010.05.17/outbox.cif.g08.bks.cpg/sg5_4_cif.got.tgz:7168.got - 2010.06.03 18:56:24.
