data_PCOD9125941
_publ_section_title
;
Structure prediction by ZEFSAII (Michael W. Deem and Ramdas Pophale) SiO2 
 PCOD9125941
Probable space group: C 2
;
_chemical_formula_sum "Si O2"
_cell_formula_units_Z 28
_cell_length_a 7.205536
_cell_length_b 15.409114
_cell_length_c 11.762167
_cell_angle_alpha 90.000000
_cell_angle_beta 63.811966
_cell_angle_gamma 90.000000
_cell_volume 1171.907783
_symmetry_space_group_name_H-M "C 2"
_symmetry_group_IT_number 5
_symmetry_cell_setting 'monoclinic'
loop_
_space_group_symop_operation_xyz
x,y,z
-x,y,-z
1/2+x,1/2+y,z
1/2-x,1/2+y,-z
loop_
_atom_site_type_symbol
_atom_site_label
_atom_site_fract_x
_atom_site_fract_y
_atom_site_fract_z
Si Si1 0.975206 0.082790 0.787287
Si Si2 0.216676 0.795646 0.687656
Si Si3 0.619385 0.981144 0.313916
Si Si4 0.889001 0.260031 0.878094
Si Si5 0.701859 0.989270 0.022211
Si Si6 0.724648 0.597428 0.389296
Si Si7 0.778935 0.822138 0.866499
O O1 0.176254 0.030343 0.698328
O O2 0.027970 0.182840 0.790460
O O3 0.869143 0.057577 0.933634
O O4 0.802515 0.074849 0.736539
O O5 0.232064 0.777499 0.819285
O O6 0.256057 0.703756 0.613400
O O7 0.976135 0.817012 0.734192
O O8 0.360318 0.882392 0.642375
O O9 0.412197 0.039035 0.387865
O O10 0.657845 0.983934 0.166884
O O11 0.064986 0.331774 0.855889
O O12 0.771101 0.245659 0.029283
O O13 0.803983 0.901391 0.945789
O O14 0.500000 0.005004 0.000000
O O15 0.500000 0.576150 0.500000
#
# Coordination Sequence:
#
# PCOD9125941 Si02
#       7
#     4   4   4   4   4   4   4
#     4  11  25  40  67 101 138 182 230 287 365 427
#     4  11  23  42  68  95 132 182 229 281 353 411
#     4  12  24  43  72 104 141 185 231 287 365 435
#     4  10  22  34  56  92 138 179 218 263 338 425
#     4  12  21  37  62 104 148 183 213 277 360 449
#     4  11  28  52  69  96 139 183 252 311 342 407
#     4  11  20  35  58  95 142 175 216 268 337 436
#
# _framework density 23.892665000000001
#
# number of rings (size 3 to 8) (size 9 to 14) (size 15 to 20)
#    0.000    0.857    5.714    1.714    6.000    0.571 
#    2.571    0.000    0.000    0.000    0.000    0.000 
#    0.000    0.000    0.000    0.000    0.000    0.000 
#
# Total GULP energy -78077.707956 kJ/mol
# GULP energy per Si atom -5576.979140 kJ/mol
# Density = 2.383828 g / cm^3
# Si number density = 23.892665 Si / 1000 Ang^3
#
#
#
# Elastic Constant Matrix: (Units=GPa)
#
#
# Indices 1 2 3 4 5 6 
#
# 1 86.0678 42.4045 9.4741 0.0000 -23.0057 0.0000
# 2 42.4045 115.7992 26.4135 0.0000 -26.6428 0.0000
# 3 9.4741 26.4135 78.2899 0.0000 -25.3640 0.0000
# 4 0.0000 0.0000 0.0000 8.3082 0.0000 -11.4135
# 5 -23.0057 -26.6428 -25.3640 0.0000 34.6976 0.0000
# 6 0.0000 0.0000 0.0000 -11.4135 0.0000 29.9175
#
#
#
# Elastic Compliance Matrix: (Units=1/GPa)
#
#
# Indices 1 2 3 4 5 6 
#
# 1 0.015877 -0.004298 0.002450 0.000000 0.009018 0.000000
# 2 -0.004298 0.011742 -0.001892 0.000000 0.004783 0.000000
# 3 0.002450 -0.001892 0.017258 0.000000 0.012788 0.000000
# 4 0.000000 0.000000 0.000000 0.252910 0.000000 0.096485
# 5 0.009018 0.004783 0.012788 0.000000 0.047820 0.000000
# 6 0.000000 0.000000 0.000000 0.096485 0.000000 0.070234
#
#
# Mechanical properties :
#
#
# Convention : Reuss Voigt Hill
#
# Bulk Modulus (GPa) = 26.73974 48.52679 37.63327
# Shear Modulus (GPa) = 11.47355 28.04232 19.75793
#
# Velocity S-wave (km/s) = 2.19375 3.42962 2.87879
# Velocity P-wave (km/s) = 4.19912 6.00312 5.18026
#
# Compressibility (1/GPa) = 0.03739752
#
# Stress axis : x y z
#
# Youngs Moduli (GPa) = 62.98367 85.16747 57.94574
#
# Poissons Ratio (x) = 0.36606 -0.14199
# Poissons Ratio (y) = 0.27071 0.10961
# Poissons Ratio (z) = -0.15433 0.16110
#
# Static dielectric constant tensor:
#      x y z
#    x 1.906180 0.000000 0.005550 
#    y 0.000000 2.080900 0.000000 
#    z 0.005550 0.000000 1.922040 
# 
# From -- ./inp_files/50890.got.cif
#   From: 2010.05.17/outbox.cif.g08.bks.cpg/sg5_26_cif.got.tgz:50890.got - 2010.06.03 18:56:24.
