data_PCOD9125920
_publ_section_title
;
Structure prediction by ZEFSAII (Michael W. Deem and Ramdas Pophale) SiO2 
 PCOD9125920
Probable space group: C 2
;
_chemical_formula_sum "Si O2"
_cell_formula_units_Z 20
_cell_length_a 13.548716
_cell_length_b 7.573345
_cell_length_c 16.989924
_cell_angle_alpha 90.000000
_cell_angle_beta 24.979256
_cell_angle_gamma 90.000000
_cell_volume 736.187131
_symmetry_space_group_name_H-M "C 2"
_symmetry_group_IT_number 5
_symmetry_cell_setting 'monoclinic'
loop_
_space_group_symop_operation_xyz
x,y,z
-x,y,-z
1/2+x,1/2+y,z
1/2-x,1/2+y,-z
loop_
_atom_site_type_symbol
_atom_site_label
_atom_site_fract_x
_atom_site_fract_y
_atom_site_fract_z
Si Si1 0.636961 0.062550 0.233433
Si Si2 0.609045 0.597110 0.105217
Si Si3 0.185382 0.385366 0.434341
Si Si4 0.755019 0.349834 0.275633
Si Si5 0.825799 0.172581 0.761934
O O1 0.734385 0.222788 0.214023
O O2 0.373506 0.022554 0.452636
O O3 0.751098 0.876189 0.177052
O O4 0.687449 0.087239 0.105839
O O5 0.442109 0.424416 0.219706
O O6 0.444750 0.760869 0.195709
O O7 0.672920 0.607850 0.149956
O O8 0.000000 0.432573 0.500000
O O9 0.089775 0.200180 0.535352
O O10 0.500000 0.348803 0.500000
O O11 0.800448 0.543707 0.207422
#
# Coordination Sequence:
#
# PCOD9125920 Si02
#       5
#     4   4   4   4   4
#     4  10  24  47  66 101 150 175 238 306 341 425
#     4  12  23  45  77  99 143 194 227 300 366 410
#     4  10  21  47  66  95 142 178 225 297 347 411
#     4  12  23  45  75 102 144 187 239 294 356 435
#     4  10  27  44  71 108 139 186 244 289 354 442
#
# _framework density 27.167007999999999
#
# number of rings (size 3 to 8) (size 9 to 14) (size 15 to 20)
#    1.200    0.000    4.000    1.200    5.600    0.000 
#    0.000   14.000    0.000    0.000    0.000    0.000 
#    0.000    0.000    0.000    0.000    0.000    0.000 
#
# Total GULP energy -55959.731164 kJ/mol
# GULP energy per Si atom -5595.973116 kJ/mol
# Density = 2.710517 g / cm^3
# Si number density = 27.167008 Si / 1000 Ang^3
#
#
#
# Elastic Constant Matrix: (Units=GPa)
#
#
# Indices 1 2 3 4 5 6 
#
# 1 122.9331 52.3069 68.2494 -0.0010 31.4821 0.0017
# 2 52.3069 143.1838 8.7715 -0.0085 1.7110 0.0022
# 3 68.2494 8.7715 105.5154 -0.0122 49.6920 0.0068
# 4 -0.0010 -0.0085 -0.0122 0.1437 0.0032 12.3120
# 5 31.4821 1.7110 49.6920 0.0032 38.2784 -0.0021
# 6 0.0017 0.0022 0.0068 12.3120 -0.0021 49.8028
#
#
#
# Elastic Compliance Matrix: (Units=1/GPa)
#
#
# Indices 1 2 3 4 5 6 
#
# 1 0.015743 -0.005156 -0.009688 0.000055 -0.000141 -0.000013
# 2 -0.005156 0.008728 0.002048 -0.000033 0.001191 0.000008
# 3 -0.009688 0.002048 0.030528 -0.000189 -0.031754 0.000041
# 4 0.000055 -0.000033 -0.000189 -0.344830 0.000236 0.085247
# 5 -0.000141 0.001191 -0.031754 0.000236 0.067409 -0.000051
# 6 -0.000013 0.000008 0.000041 0.085247 -0.000051 -0.000995
#
#
# Mechanical properties :
#
#
# Convention : Reuss Voigt Hill
#
# Bulk Modulus (GPa) = 34.00488 70.03198 52.01843
# Shear Modulus (GPa) = -26.59229 33.79861 3.60316
#
# Velocity S-wave (km/s) = -3.13204 3.53101 1.15290
# Velocity P-wave (km/s) = 0.73174 6.51601 4.57837
#
# Compressibility (1/GPa) = 0.02940754
#
# Stress axis : x y z
#
# Youngs Moduli (GPa) = 63.52127 114.57626 32.75725
#
# Poissons Ratio (x) = 0.59074 0.31735
# Poissons Ratio (y) = 0.32751 -0.06710
# Poissons Ratio (z) = 0.61538 -0.23470
#
# Static dielectric constant tensor:
#      x y z
#    x 2.042530 0.000000 -0.006290 
#    y 0.000000 2.129960 0.000000 
#    z -0.006290 0.000000 2.212180 
# 
# From -- ./inp_files/61360.got.cif
#   From: 2010.05.17/outbox.cif.g08.bks.cpg/sg5_31_cif.got.tgz:61360.got - 2010.06.03 18:56:24.
