data_PCOD9125452
_publ_section_title
;
Structure prediction by ZEFSAII (Michael W. Deem and Ramdas Pophale) SiO2 
 PCOD9125452
Probable space group: C 2
;
_chemical_formula_sum "Si O2"
_cell_formula_units_Z 16
_cell_length_a 22.064835
_cell_length_b 5.274966
_cell_length_c 9.961953
_cell_angle_alpha 90.000000
_cell_angle_beta 33.014020
_cell_angle_gamma 90.000000
_cell_volume 631.738288
_symmetry_space_group_name_H-M "C 2"
_symmetry_group_IT_number 5
_symmetry_cell_setting 'monoclinic'
loop_
_space_group_symop_operation_xyz
x,y,z
-x,y,-z
1/2+x,1/2+y,z
1/2-x,1/2+y,-z
loop_
_atom_site_type_symbol
_atom_site_label
_atom_site_fract_x
_atom_site_fract_y
_atom_site_fract_z
Si Si1 0.676852 0.286980 0.630945
Si Si2 0.945973 0.422758 0.963392
Si Si3 0.597837 0.871581 0.424060
Si Si4 0.294039 0.364561 0.710675
O O1 0.754338 0.524600 0.522718
O O2 0.636008 0.363669 0.559553
O O3 0.596150 0.197081 0.899732
O O4 0.037707 0.400773 0.679527
O O5 0.832786 0.328110 0.102375
O O6 0.000000 0.304312 0.000000
O O7 0.500000 0.832009 0.500000
O O8 0.681127 0.635649 0.272202
O O9 0.662699 0.133586 0.281432
#
# Coordination Sequence:
#
# PCOD9125452 Si02
#       4
#     4   4   4   4
#     4  10  21  41  67 104 144 173 225 298 350 407
#     4  11  25  44  74 110 137 190 227 293 364 414
#     4  12  28  49  72 103 144 193 240 285 351 425
#     4  11  25  47  71 104 149 177 239 298 340 424
#
# _framework density 25.326943
#
# number of rings (size 3 to 8) (size 9 to 14) (size 15 to 20)
#    0.000    1.000    2.500    3.750    7.000    8.000 
#    0.000    0.000    0.000    0.000    0.000    0.000 
#    0.000    0.000    0.000    0.000    0.000    0.000 
#
# Total GULP energy -44697.819643 kJ/mol
# GULP energy per Si atom -5587.227455 kJ/mol
# Density = 2.526930 g / cm^3
# Si number density = 25.326943 Si / 1000 Ang^3
#
#
#
# Elastic Constant Matrix: (Units=GPa)
#
#
# Indices 1 2 3 4 5 6 
#
# 1 120.4711 18.3219 28.5868 -0.0009 -21.8310 -0.0004
# 2 18.3219 154.3865 40.0680 -0.0029 -13.4898 -0.0005
# 3 28.5868 40.0680 117.9035 -0.0005 0.8740 -0.0004
# 4 -0.0009 -0.0029 -0.0005 6.5780 -0.0002 -17.4105
# 5 -21.8310 -13.4898 0.8740 -0.0002 59.4325 0.0000
# 6 -0.0004 -0.0005 -0.0004 -17.4105 0.0000 17.1426
#
#
#
# Elastic Compliance Matrix: (Units=1/GPa)
#
#
# Indices 1 2 3 4 5 6 
#
# 1 0.009499 -0.000241 -0.002247 -0.000001 0.003467 -0.000001
# 2 -0.000241 0.007275 -0.002426 -0.000002 0.001598 -0.000002
# 3 -0.002247 -0.002426 0.009862 0.000000 -0.001521 0.000000
# 4 -0.000001 -0.000002 0.000000 -0.090053 -0.000001 -0.091460
# 5 0.003467 0.001598 -0.001521 -0.000001 0.018485 -0.000001
# 6 -0.000001 -0.000002 0.000000 -0.091460 -0.000001 -0.034555
#
#
# Mechanical properties :
#
#
# Convention : Reuss Voigt Hill
#
# Bulk Modulus (GPa) = 59.49394 62.96826 61.23110
# Shear Modulus (GPa) = -78.05559 37.01625 -20.51967
#
# Velocity S-wave (km/s) = -5.55753 3.82715 -2.84947
# Velocity P-wave (km/s) = 4.20001 6.66675 3.66098
#
# Compressibility (1/GPa) = 0.01680843
#
# Stress axis : x y z
#
# Youngs Moduli (GPa) = 105.27486 137.45559 101.40034
#
# Poissons Ratio (x) = 0.03315 0.22783
# Poissons Ratio (y) = 0.02539 0.24597
# Poissons Ratio (z) = 0.23654 0.33343
#
# Static dielectric constant tensor:
#      x y z
#    x 2.000000 0.000000 -0.008190 
#    y 0.000000 2.006130 0.000000 
#    z -0.008190 0.000000 2.114230 
# 
# From -- ./inp_files/46862.got.cif
#   From: 2010.05.17/outbox.cif.g08.bks.cpg/sg5_24_cif.got.tgz:46862.got - 2010.06.03 18:56:24.
