data_PCOD9125314
_publ_section_title
;
Structure prediction by ZEFSAII (Michael W. Deem and Ramdas Pophale) SiO2 
 PCOD9125314
Probable space group: C 2
;
_chemical_formula_sum "Si O2"
_cell_formula_units_Z 30
_cell_length_a 19.288282
_cell_length_b 4.874320
_cell_length_c 13.692955
_cell_angle_alpha 90.000000
_cell_angle_beta 75.905055
_cell_angle_gamma 90.000000
_cell_volume 1248.615771
_symmetry_space_group_name_H-M "C 2"
_symmetry_group_IT_number 5
_symmetry_cell_setting 'monoclinic'
loop_
_space_group_symop_operation_xyz
x,y,z
-x,y,-z
1/2+x,1/2+y,z
1/2-x,1/2+y,-z
loop_
_atom_site_type_symbol
_atom_site_label
_atom_site_fract_x
_atom_site_fract_y
_atom_site_fract_z
Si Si1 0.620103 0.729520 0.181844
Si Si2 0.360375 0.392543 0.644262
Si Si3 0.204974 0.192348 0.499147
Si Si4 0.619328 0.360728 0.692347
Si Si5 0.500000 0.496024 0.500000
Si Si6 0.027170 0.324754 0.691442
Si Si7 0.292622 0.791415 0.020522
Si Si8 0.754694 0.030219 0.228756
O O1 0.618137 0.462735 0.252174
O O2 0.549851 0.892061 0.237019
O O3 0.692538 0.869262 0.195155
O O4 0.635652 0.706812 0.061996
O O5 0.333232 0.657676 0.592064
O O6 0.432084 0.315328 0.559846
O O7 0.290032 0.206540 0.676871
O O8 0.275443 0.998210 0.476781
O O9 0.154883 0.033707 0.592025
O O10 0.559855 0.580009 0.746250
O O11 0.684709 0.340279 0.744948
O O12 0.579244 0.084900 0.676194
O O13 0.515582 0.691052 0.587928
O O14 0.291143 0.724765 0.135297
O O15 0.230021 0.602350 0.993774
#
# Coordination Sequence:
#
# PCOD9125314 Si02
#       8
#     4   4   4   4   2   4   4   4
#     4  10  24  43  70 100 135 182 235 284 349 418
#     4  11  22  40  64 100 131 183 227 288 334 411
#     4  12  24  38  61  92 133 173 219 272 339 404
#     4  12  26  44  65 103 142 182 226 288 349 412
#     4  10  24  44  66 100 140 200 238 280 338 428
#     4  11  27  44  68  97 146 185 230 280 347 422
#     4  10  21  40  70 106 131 170 232 298 345 402
#     4  11  24  42  74 100 139 178 236 296 347 410
#
# _framework density 24.026606000000001
#
# number of rings (size 3 to 8) (size 9 to 14) (size 15 to 20)
#    0.000    1.067    4.000    1.600    5.600    1.600 
#    0.000    0.667    0.000    1.600    0.000    0.000 
#    0.000    0.000    0.000    0.000    0.000    0.000 
#
# Total GULP energy -83851.494231 kJ/mol
# GULP energy per Si atom -5590.099615 kJ/mol
# Density = 2.397192 g / cm^3
# Si number density = 24.026606 Si / 1000 Ang^3
#
#
#
# Elastic Constant Matrix: (Units=GPa)
#
#
# Indices 1 2 3 4 5 6 
#
# 1 131.3878 29.2070 49.9051 0.0000 -17.8907 0.0000
# 2 29.2070 77.8544 18.3381 0.0000 -4.0834 0.0000
# 3 49.9051 18.3381 140.4680 0.0000 -33.2152 0.0000
# 4 0.0000 0.0000 0.0000 24.4380 0.0000 -0.2974
# 5 -17.8907 -4.0834 -33.2152 0.0000 28.6938 0.0000
# 6 0.0000 0.0000 0.0000 -0.2974 0.0000 47.2671
#
#
#
# Elastic Compliance Matrix: (Units=1/GPa)
#
#
# Indices 1 2 3 4 5 6 
#
# 1 0.009523 -0.002873 -0.002342 0.000000 0.002818 0.000000
# 2 -0.002873 0.014119 -0.001062 0.000000 -0.001011 0.000000
# 3 -0.002342 -0.001062 0.010614 0.000000 0.010675 0.000000
# 4 0.000000 0.000000 0.000000 0.040923 0.000000 0.000257
# 5 0.002818 -0.001011 0.010675 0.000000 0.048821 0.000000
# 6 0.000000 0.000000 0.000000 0.000257 0.000000 0.021158
#
#
# Mechanical properties :
#
#
# Convention : Reuss Voigt Hill
#
# Bulk Modulus (GPa) = 46.07648 60.51229 53.29438
# Shear Modulus (GPa) = 30.31296 36.89710 33.60503
#
# Velocity S-wave (km/s) = 3.55581 3.92302 3.74392
# Velocity P-wave (km/s) = 6.00644 6.76464 6.39678
#
# Compressibility (1/GPa) = 0.02170305
#
# Stress axis : x y z
#
# Youngs Moduli (GPa) = 105.00937 70.82474 94.21580
#
# Poissons Ratio (x) = 0.20349 0.22064
# Poissons Ratio (y) = 0.30170 0.10002
# Poissons Ratio (z) = 0.24592 0.07519
#
# Static dielectric constant tensor:
#      x y z
#    x 2.014830 0.000000 -0.045370 
#    y 0.000000 1.957590 0.000000 
#    z -0.045370 0.000000 1.999410 
# 
# From -- ./inp_files/55298.got.cif
#   From: 2010.05.17/outbox.cif.g08.bks.cpg/sg5_28_cif.got.tgz:55298.got - 2010.06.03 18:56:24.
