data_PCOD9125836
_publ_section_title
;
Structure prediction by ZEFSAII (Michael W. Deem and Ramdas Pophale) SiO2 
 PCOD9125836
Probable space group: C 2
;
_chemical_formula_sum "Si O2"
_cell_formula_units_Z 28
_cell_length_a 11.100041
_cell_length_b 15.212461
_cell_length_c 7.433743
_cell_angle_alpha 90.000000
_cell_angle_beta 101.511192
_cell_angle_gamma 90.000000
_cell_volume 1230.005467
_symmetry_space_group_name_H-M "C 2"
_symmetry_group_IT_number 5
_symmetry_cell_setting 'monoclinic'
loop_
_space_group_symop_operation_xyz
x,y,z
-x,y,-z
1/2+x,1/2+y,z
1/2-x,1/2+y,-z
loop_
_atom_site_type_symbol
_atom_site_label
_atom_site_fract_x
_atom_site_fract_y
_atom_site_fract_z
Si Si1 0.139363 0.980740 0.985639
Si Si2 0.647472 0.094380 0.862987
Si Si3 0.402227 0.021534 0.747646
Si Si4 0.080936 0.320424 0.254621
Si Si5 0.266809 0.282294 0.023279
Si Si6 0.837225 0.253145 0.377750
Si Si7 0.365280 0.552754 0.402551
O O1 0.190666 0.883986 0.947267
O O2 0.128114 0.043427 0.810086
O O3 0.000000 0.966376 0.000000
O O4 0.231933 0.034354 0.145539
O O5 0.525005 0.069758 0.717684
O O6 0.663746 0.199215 0.869532
O O7 0.625474 0.064181 0.064965
O O8 0.273580 0.018506 0.600638
O O9 0.442965 0.921786 0.786165
O O10 0.137752 0.279665 0.092732
O O11 0.178181 0.310714 0.448658
O O12 0.960056 0.279285 0.305506
O O13 0.262579 0.263188 0.808425
O O14 0.854269 0.154383 0.450379
O O15 0.500000 0.516864 0.500000
#
# Coordination Sequence:
#
# PCOD9125836 Si02
#       7
#     4   4   4   4   4   4   4
#     4  11  25  41  67 110 135 187 238 285 358 419
#     4  10  22  40  70 102 137 191 228 292 357 412
#     4  10  21  44  68  95 144 181 231 295 350 407
#     4  11  23  42  69 102 140 182 246 288 348 419
#     4  12  23  43  73 102 142 186 237 291 355 423
#     4  11  24  40  71 108 136 183 242 292 349 420
#     4  11  22  45  66  99 146 179 221 302 355 405
#
# _framework density 22.764126999999998
#
# number of rings (size 3 to 8) (size 9 to 14) (size 15 to 20)
#    0.000    1.143    7.143    1.286    6.000    1.143 
#    0.000    2.857    0.000    0.000    0.000    0.000 
#    0.000    0.000    0.000    0.000    0.000    0.000 
#
# Total GULP energy -78008.716195 kJ/mol
# GULP energy per Si atom -5572.051157 kJ/mol
# Density = 2.271231 g / cm^3
# Si number density = 22.764127 Si / 1000 Ang^3
#
#
#
# Elastic Constant Matrix: (Units=GPa)
#
#
# Indices 1 2 3 4 5 6 
#
# 1 93.1233 -5.2666 9.3690 0.0000 31.8927 0.0000
# 2 -5.2666 86.7709 -9.4130 0.0000 3.4300 0.0000
# 3 9.3690 -9.4130 81.1495 0.0000 8.5900 0.0000
# 4 0.0000 0.0000 0.0000 31.6359 0.0000 7.9672
# 5 31.8927 3.4300 8.5900 0.0000 34.1966 0.0000
# 6 0.0000 0.0000 0.0000 7.9672 0.0000 27.6811
#
#
#
# Elastic Compliance Matrix: (Units=1/GPa)
#
#
# Indices 1 2 3 4 5 6 
#
# 1 0.015988 0.001557 -0.000072 0.000000 -0.015049 0.000000
# 2 0.001557 0.011904 0.001522 0.000000 -0.003029 0.000000
# 3 -0.000072 0.001522 0.012859 0.000000 -0.003315 0.000000
# 4 0.000000 0.000000 0.000000 0.034080 0.000000 -0.009809
# 5 -0.015049 -0.003029 -0.003315 0.000000 0.044414 0.000000
# 6 0.000000 0.000000 0.000000 -0.009809 0.000000 0.038949
#
#
# Mechanical properties :
#
#
# Convention : Reuss Voigt Hill
#
# Bulk Modulus (GPa) = 21.38405 27.82470 24.60437
# Shear Modulus (GPa) = 29.80315 36.45966 33.13141
#
# Velocity S-wave (km/s) = 3.62223 4.00638 3.81914
# Velocity P-wave (km/s) = 5.18732 5.80095 5.50269
#
# Compressibility (1/GPa) = 0.04676383
#
# Stress axis : x y z
#
# Youngs Moduli (GPa) = 62.54847 84.00593 77.76823
#
# Poissons Ratio (x) = -0.13083 0.00562
# Poissons Ratio (y) = -0.09741 -0.11833
# Poissons Ratio (z) = 0.00452 -0.12782
#
# Static dielectric constant tensor:
#      x y z
#    x 1.971780 0.000000 0.073810 
#    y 0.000000 1.793370 0.000000 
#    z 0.073810 0.000000 1.932470 
# 
# From -- ./inp_files/20427.got.cif
#   From: 2010.05.17/outbox.cif.g08.bks.cpg/sg5_11_cif.got.tgz:20427.got - 2010.06.03 18:56:24.
