data_PCOD9125858
_publ_section_title
;
Structure prediction by ZEFSAII (Michael W. Deem and Ramdas Pophale) SiO2 
 PCOD9125858
Probable space group: C 2
;
_chemical_formula_sum "Si O2"
_cell_formula_units_Z 24
_cell_length_a 9.989108
_cell_length_b 11.446984
_cell_length_c 10.549102
_cell_angle_alpha 90.000000
_cell_angle_beta 94.398144
_cell_angle_gamma 90.000000
_cell_volume 1202.686663
_symmetry_space_group_name_H-M "C 2"
_symmetry_group_IT_number 5
_symmetry_cell_setting 'monoclinic'
loop_
_space_group_symop_operation_xyz
x,y,z
-x,y,-z
1/2+x,1/2+y,z
1/2-x,1/2+y,-z
loop_
_atom_site_type_symbol
_atom_site_label
_atom_site_fract_x
_atom_site_fract_y
_atom_site_fract_z
Si Si1 0.500000 0.928270 0.500000
Si Si2 0.741927 0.526186 0.357681
Si Si3 0.000000 0.050532 0.500000
Si Si4 0.162850 0.836671 0.158585
Si Si5 0.886083 0.153941 0.231406
Si Si6 0.637565 0.780878 0.287628
Si Si7 0.136823 0.894331 0.863315
O O1 0.577193 0.849801 0.402444
O O2 0.386673 0.004206 0.424716
O O3 0.621824 0.482895 0.442204
O O4 0.725095 0.450122 0.230720
O O5 0.711323 0.661801 0.334471
O O6 0.073161 0.121142 0.619892
O O7 0.248594 0.725106 0.208878
O O8 0.005110 0.833997 0.181753
O O9 0.169127 0.856012 0.008485
O O10 0.008491 0.237427 0.197972
O O11 0.883961 0.033385 0.154179
O O12 0.742575 0.857495 0.218617
#
# Coordination Sequence:
#
# PCOD9125858 Si02
#       7
#     2   4   2   4   4   4   4
#     4  12  25  44  67 106 140 171 228 283 344 410
#     4  11  24  43  68 100 137 175 226 282 338 407
#     4  10  21  44  73  96 132 181 218 279 348 392
#     4  11  25  44  68  98 139 176 231 279 331 406
#     4  11  23  46  70  98 139 172 230 287 332 406
#     4  11  24  44  71  99 132 180 224 276 349 393
#     4  11  26  45  69  99 133 190 226 276 342 396
#
# _framework density 19.955321999999999
#
# number of rings (size 3 to 8) (size 9 to 14) (size 15 to 20)
#    0.000    1.000    5.000    3.000    2.333    3.333 
#    0.000    0.000    0.000    0.000    0.000    0.000 
#    0.000    0.000    0.000    0.000    0.000    0.000 
#
# Total GULP energy -67027.756827 kJ/mol
# GULP energy per Si atom -5585.646402 kJ/mol
# Density = 1.990990 g / cm^3
# Si number density = 19.955322 Si / 1000 Ang^3
#
#
#
# Elastic Constant Matrix: (Units=GPa)
#
#
# Indices 1 2 3 4 5 6 
#
# 1 159.5255 53.6701 55.8475 0.0000 10.0276 0.0000
# 2 53.6701 61.6104 12.9279 0.0000 8.3060 0.0000
# 3 55.8475 12.9279 75.8885 0.0000 9.0444 0.0000
# 4 0.0000 0.0000 0.0000 13.0968 0.0000 -2.4132
# 5 10.0276 8.3060 9.0444 0.0000 40.5263 0.0000
# 6 0.0000 0.0000 0.0000 -2.4132 0.0000 38.8284
#
#
#
# Elastic Compliance Matrix: (Units=1/GPa)
#
#
# Indices 1 2 3 4 5 6 
#
# 1 0.011691 -0.008747 -0.007173 0.000000 0.000501 0.000000
# 2 -0.008747 0.023712 0.002793 0.000000 -0.003319 0.000000
# 3 -0.007173 0.002793 0.018324 0.000000 -0.002887 0.000000
# 4 0.000000 0.000000 0.000000 0.077239 0.000000 0.004800
# 5 0.000501 -0.003319 -0.002887 0.000000 0.025876 0.000000
# 6 0.000000 0.000000 0.000000 0.004800 0.000000 0.026053
#
#
# Mechanical properties :
#
#
# Convention : Reuss Voigt Hill
#
# Bulk Modulus (GPa) = 36.39895 60.21283 48.30589
# Shear Modulus (GPa) = 22.90358 30.12890 26.51624
#
# Velocity S-wave (km/s) = 3.39151 3.88985 3.64920
# Velocity P-wave (km/s) = 5.79795 7.10028 6.48191
#
# Compressibility (1/GPa) = 0.02747332
#
# Stress axis : x y z
#
# Youngs Moduli (GPa) = 85.53555 42.17313 54.57191
#
# Poissons Ratio (x) = 0.36887 0.39146
# Poissons Ratio (y) = 0.74815 -0.15242
# Poissons Ratio (z) = 0.61357 -0.11779
#
# Static dielectric constant tensor:
#      x y z
#    x 1.712580 0.000000 -0.015190 
#    y 0.000000 1.699320 0.000000 
#    z -0.015190 0.000000 1.714900 
# 
# From -- ./inp_files/35441.got.cif
#   From: 2010.05.17/outbox.cif.g08.bks.cpg/sg5_18_cif.got.tgz:35441.got - 2010.06.03 18:56:24.
