data_PCOD9125685
_publ_section_title
;
Structure prediction by ZEFSAII (Michael W. Deem and Ramdas Pophale) SiO2 
 PCOD9125685
Probable space group: C 2
;
_chemical_formula_sum "Si O2"
_cell_formula_units_Z 20
_cell_length_a 12.622079
_cell_length_b 12.076930
_cell_length_c 8.583722
_cell_angle_alpha 90.000000
_cell_angle_beta 144.783332
_cell_angle_gamma 90.000000
_cell_volume 754.554220
_symmetry_space_group_name_H-M "C 2"
_symmetry_group_IT_number 5
_symmetry_cell_setting 'monoclinic'
loop_
_space_group_symop_operation_xyz
x,y,z
-x,y,-z
1/2+x,1/2+y,z
1/2-x,1/2+y,-z
loop_
_atom_site_type_symbol
_atom_site_label
_atom_site_fract_x
_atom_site_fract_y
_atom_site_fract_z
Si Si1 0.745493 0.526230 0.875557
Si Si2 0.059593 0.902580 0.359602
Si Si3 0.887330 0.459488 0.550188
Si Si4 0.956512 0.225497 0.215189
Si Si5 0.224805 0.685967 0.638132
O O1 0.669982 0.471591 0.626370
O O2 0.642993 0.450417 0.882963
O O3 0.656149 0.645851 0.804441
O O4 0.963689 0.516761 0.152885
O O5 0.186780 0.922556 0.365992
O O6 0.067194 0.772906 0.406370
O O7 0.838765 0.565052 0.386987
O O8 0.985844 0.342259 0.643741
O O9 0.141057 0.175886 0.352416
O O10 0.833216 0.240409 0.911898
#
# Coordination Sequence:
#
# PCOD9125685 Si02
#       5
#     4   4   4   4   4
#     4  11  22  37  67  94 136 173 230 269 334 405
#     4  10  22  42  63  96 131 181 221 278 339 398
#     4  11  22  40  71  97 132 176 227 277 338 397
#     4  10  22  42  65 104 132 175 227 281 328 410
#     4  10  21  42  72  90 136 179 223 276 344 391
#
# _framework density 26.505714999999999
#
# number of rings (size 3 to 8) (size 9 to 14) (size 15 to 20)
#    0.000    1.600    4.000    0.600    2.800    0.800 
#    0.000    4.000    0.000    0.000    0.000    0.000 
#    0.000    0.000    0.000    0.000    0.000    0.000 
#
# Total GULP energy -55878.700320 kJ/mol
# GULP energy per Si atom -5587.870032 kJ/mol
# Density = 2.644539 g / cm^3
# Si number density = 26.505715 Si / 1000 Ang^3
#
#
#
# Elastic Constant Matrix: (Units=GPa)
#
#
# Indices 1 2 3 4 5 6 
#
# 1 75.9510 31.0351 15.5468 0.0000 11.8886 0.0000
# 2 31.0351 216.3728 12.1073 0.0000 -1.1539 0.0000
# 3 15.5468 12.1073 71.5976 0.0000 18.7479 0.0000
# 4 0.0000 0.0000 0.0000 40.5523 0.0000 7.3831
# 5 11.8886 -1.1539 18.7479 0.0000 40.6812 0.0000
# 6 0.0000 0.0000 0.0000 7.3831 0.0000 14.2756
#
#
#
# Elastic Compliance Matrix: (Units=1/GPa)
#
#
# Indices 1 2 3 4 5 6 
#
# 1 0.014962 -0.002054 -0.001980 0.000000 -0.003518 0.000000
# 2 -0.002054 0.004959 -0.000667 0.000000 0.001048 0.000000
# 3 -0.001980 -0.000667 0.016334 0.000000 -0.006968 0.000000
# 4 0.000000 0.000000 0.000000 0.027223 0.000000 -0.014079
# 5 -0.003518 0.001048 -0.006968 0.000000 0.028850 0.000000
# 6 0.000000 0.000000 0.000000 -0.014079 0.000000 0.077331
#
#
# Mechanical properties :
#
#
# Convention : Reuss Voigt Hill
#
# Bulk Modulus (GPa) = 37.24050 53.47776 45.35913
# Shear Modulus (GPa) = 26.59393 39.45063 33.02228
#
# Velocity S-wave (km/s) = 3.17097 3.86214 3.53350
# Velocity P-wave (km/s) = 5.24283 6.33308 5.81357
#
# Compressibility (1/GPa) = 0.02685249
#
# Stress axis : x y z
#
# Youngs Moduli (GPa) = 66.83723 201.64623 61.22083
#
# Poissons Ratio (x) = 0.41417 0.12123
# Poissons Ratio (y) = 0.13728 0.04084
# Poissons Ratio (z) = 0.13236 0.13452
#
# Static dielectric constant tensor:
#      x y z
#    x 2.154910 0.000000 0.000010 
#    y 0.000000 2.064680 0.000000 
#    z 0.000010 0.000000 2.020990 
# 
# From -- ./inp_files/19066.got.cif
#   From: 2010.05.17/outbox.cif.g08.bks.cpg/sg5_10_cif.got.tgz:19066.got - 2010.06.03 18:56:24.
