data_PCOD9125481
_publ_section_title
;
Structure prediction by ZEFSAII (Michael W. Deem and Ramdas Pophale) SiO2 
 PCOD9125481
Probable space group: C 2
;
_chemical_formula_sum "Si O2"
_cell_formula_units_Z 28
_cell_length_a 5.172853
_cell_length_b 18.245897
_cell_length_c 12.896204
_cell_angle_alpha 90.000000
_cell_angle_beta 78.430457
_cell_angle_gamma 90.000000
_cell_volume 1192.456043
_symmetry_space_group_name_H-M "C 2"
_symmetry_group_IT_number 5
_symmetry_cell_setting 'monoclinic'
loop_
_space_group_symop_operation_xyz
x,y,z
-x,y,-z
1/2+x,1/2+y,z
1/2-x,1/2+y,-z
loop_
_atom_site_type_symbol
_atom_site_label
_atom_site_fract_x
_atom_site_fract_y
_atom_site_fract_z
Si Si1 0.864520 0.006780 0.108526
Si Si2 0.163704 0.011679 0.389550
Si Si3 0.691928 0.927801 0.824937
Si Si4 0.026954 0.685110 0.108526
Si Si5 0.553254 0.680211 0.610450
Si Si6 0.983135 0.264089 0.824937
Si Si7 0.603130 0.095945 0.293740
O O1 0.844233 0.061203 0.208434
O O2 0.567146 0.975914 0.124957
O O3 0.073608 0.942118 0.113451
O O4 0.000000 0.045910 0.000000
O O5 0.474475 0.031229 0.370644
O O6 0.000000 0.983145 0.500000
O O7 0.058791 0.095945 0.382419
O O8 0.176050 0.956242 0.292762
O O9 0.588096 0.845945 0.823809
O O10 0.812942 0.749772 0.113451
O O11 0.307897 0.715976 0.124957
O O12 0.947333 0.630687 0.208434
O O13 0.000000 0.645980 0.000000
O O14 0.500000 0.708745 0.500000
O O15 0.468812 0.735648 0.707238
O O16 0.845119 0.660661 0.629356
#
# Coordination Sequence:
#
# PCOD9125481 Si02
#       7
#     4   4   4   4   4   4   4
#     4  11  24  41  67  98 135 181 227 279 348 413
#     4  10  21  41  68  94 129 170 232 276 348 401
#     4  11  24  44  65  97 139 176 224 284 342 413
#     4  11  24  41  67  98 135 181 227 279 348 413
#     4  10  21  41  68  94 129 170 232 276 348 401
#     4  11  24  44  65  97 139 176 224 284 342 413
#     4  10  22  41  66 102 140 168 229 298 344 402
#
# _framework density 23.480948000000001
#
# number of rings (size 3 to 8) (size 9 to 14) (size 15 to 20)
#    0.000    1.429    2.857    1.714    0.000   10.286 
#    0.000    2.857    0.000    0.000    0.000    0.000 
#    0.000    0.000    0.000    0.000    0.000    0.000 
#
# Total GULP energy -78009.846256 kJ/mol
# GULP energy per Si atom -5572.131875 kJ/mol
# Density = 2.342750 g / cm^3
# Si number density = 23.480948 Si / 1000 Ang^3
#
#
#
# Elastic Constant Matrix: (Units=GPa)
#
#
# Indices 1 2 3 4 5 6 
#
# 1 107.0466 31.5422 66.5088 0.0000 1.2974 0.0000
# 2 31.5422 83.7770 13.3143 0.0000 -0.7776 0.0000
# 3 66.5088 13.3143 182.6189 0.0000 1.9266 0.0000
# 4 0.0000 0.0000 0.0000 11.4763 0.0000 -1.3654
# 5 1.2974 -0.7776 1.9266 0.0000 35.5019 0.0000
# 6 0.0000 0.0000 0.0000 -1.3654 0.0000 43.4805
#
#
#
# Elastic Compliance Matrix: (Units=1/GPa)
#
#
# Indices 1 2 3 4 5 6 
#
# 1 0.013478 -0.004348 -0.004588 0.000000 -0.000339 0.000000
# 2 -0.004348 0.013483 0.000596 0.000000 0.000422 0.000000
# 3 -0.004588 0.000596 0.007105 0.000000 -0.000205 0.000000
# 4 0.000000 0.000000 0.000000 0.087463 0.000000 0.002746
# 5 -0.000339 0.000422 -0.000205 0.000000 0.028200 0.000000
# 6 0.000000 0.000000 0.000000 0.002746 0.000000 0.023085
#
#
# Mechanical properties :
#
#
# Convention : Reuss Voigt Hill
#
# Bulk Modulus (GPa) = 57.51824 66.24146 61.87985
# Shear Modulus (GPa) = 25.60300 35.56355 30.58328
#
# Velocity S-wave (km/s) = 3.30566 3.89597 3.61289
# Velocity P-wave (km/s) = 6.25450 6.96492 6.61925
#
# Compressibility (1/GPa) = 0.01738579
#
# Stress axis : x y z
#
# Youngs Moduli (GPa) = 74.19728 74.16868 140.73705
#
# Poissons Ratio (x) = 0.32251 0.64568
# Poissons Ratio (y) = 0.32264 -0.08391
# Poissons Ratio (z) = 0.34041 -0.04422
#
# Static dielectric constant tensor:
#      x y z
#    x 2.230320 0.000000 -0.012740 
#    y 0.000000 1.908680 0.000000 
#    z -0.012740 0.000000 1.931630 
# 
# From -- ./inp_files/33917.got.cif
#   From: 2010.05.17/outbox.cif.g08.bks.cpg/sg5_17_cif.got.tgz:33917.got - 2010.06.03 18:56:24.
