data_PCOD9125555
_publ_section_title
;
Structure prediction by ZEFSAII (Michael W. Deem and Ramdas Pophale) SiO2 
 PCOD9125555
Probable space group: C 2
;
_chemical_formula_sum "Si O2"
_cell_formula_units_Z 20
_cell_length_a 10.738374
_cell_length_b 18.516967
_cell_length_c 5.190269
_cell_angle_alpha 90.000000
_cell_angle_beta 110.639241
_cell_angle_gamma 90.000000
_cell_volume 965.805779
_symmetry_space_group_name_H-M "C 2"
_symmetry_group_IT_number 5
_symmetry_cell_setting 'monoclinic'
loop_
_space_group_symop_operation_xyz
x,y,z
-x,y,-z
1/2+x,1/2+y,z
1/2-x,1/2+y,-z
loop_
_atom_site_type_symbol
_atom_site_label
_atom_site_fract_x
_atom_site_fract_y
_atom_site_fract_z
Si Si1 0.656035 0.580060 0.587775
Si Si2 0.649319 0.957042 0.096838
Si Si3 0.776053 0.822566 0.361897
Si Si4 0.656442 0.673366 0.094021
Si Si5 0.641436 0.395397 0.069081
O O1 0.500000 0.560927 0.500000
O O2 0.748911 0.511610 0.695903
O O3 0.679552 0.612370 0.324266
O O4 0.683206 0.640351 0.830636
O O5 0.652611 0.878482 0.235841
O O6 0.725212 0.942425 0.879925
O O7 0.500000 0.984874 0.000000
O O8 0.737371 0.743001 0.246806
O O9 0.872324 0.854008 0.212120
O O10 0.830406 0.838342 0.684599
O O11 0.500000 0.692462 0.000000
O O12 0.500000 0.435067 0.000000
#
# Coordination Sequence:
#
# PCOD9125555 Si02
#       5
#     4   4   4   4   4
#     4  10  23  39  67  91 129 172 216 255 318 385
#     4  10  25  42  66  99 130 167 215 271 326 372
#     4  10  22  40  69  93 127 161 221 269 316 369
#     4  10  21  42  63  94 124 172 215 261 311 386
#     4  10  23  39  64  94 129 165 214 259 322 381
#
# _framework density 20.708096999999999
#
# number of rings (size 3 to 8) (size 9 to 14) (size 15 to 20)
#    1.200    0.800    0.000    2.400    5.600    1.600 
#    0.000    6.000    0.000    0.000    0.000    0.000 
#    0.000    0.000    0.000    0.000    0.000    0.000 
#
# Total GULP energy -55710.426152 kJ/mol
# GULP energy per Si atom -5571.042615 kJ/mol
# Density = 2.066096 g / cm^3
# Si number density = 20.708097 Si / 1000 Ang^3
#
#
#
# Elastic Constant Matrix: (Units=GPa)
#
#
# Indices 1 2 3 4 5 6 
#
# 1 100.7749 36.2742 35.5841 0.0000 10.5082 0.0000
# 2 36.2742 66.5063 8.5206 0.0000 17.8473 0.0000
# 3 35.5841 8.5206 99.9111 0.0000 -7.0365 0.0000
# 4 0.0000 0.0000 0.0000 40.8779 0.0000 7.6226
# 5 10.5082 17.8473 -7.0365 0.0000 25.2437 0.0000
# 6 0.0000 0.0000 0.0000 7.6226 0.0000 13.7884
#
#
#
# Elastic Compliance Matrix: (Units=1/GPa)
#
#
# Indices 1 2 3 4 5 6 
#
# 1 0.014163 -0.006407 -0.004686 0.000000 -0.002672 0.000000
# 2 -0.006407 0.022119 -0.000528 0.000000 -0.013118 0.000000
# 3 -0.004686 -0.000528 0.012125 0.000000 0.005704 0.000000
# 4 0.000000 0.000000 0.000000 0.027275 0.000000 -0.015078
# 5 -0.002672 -0.013118 0.005704 0.000000 0.051590 0.000000
# 6 0.000000 0.000000 0.000000 -0.015078 0.000000 0.080860
#
#
# Mechanical properties :
#
#
# Convention : Reuss Voigt Hill
#
# Bulk Modulus (GPa) = 39.74054 47.55002 43.64528
# Shear Modulus (GPa) = 20.85402 28.43623 24.64513
#
# Velocity S-wave (km/s) = 3.17684 3.70968 3.45355
# Velocity P-wave (km/s) = 5.71742 6.43124 6.08481
#
# Compressibility (1/GPa) = 0.02516322
#
# Stress axis : x y z
#
# Youngs Moduli (GPa) = 70.60828 45.21028 82.47732
#
# Poissons Ratio (x) = 0.28968 0.38648
# Poissons Ratio (y) = 0.45241 0.04356
# Poissons Ratio (z) = 0.33086 0.02388
#
# Static dielectric constant tensor:
#      x y z
#    x 1.750350 0.000000 -0.010230 
#    y 0.000000 1.741550 0.000000 
#    z -0.010230 0.000000 1.752450 
# 
# From -- ./inp_files/5052.got.cif
#   From: 2010.05.17/outbox.cif.g08.bks.cpg/sg5_3_cif.got.tgz:5052.got - 2010.06.03 18:56:24.
