data_PCOD9125842
_publ_section_title
;
Structure prediction by ZEFSAII (Michael W. Deem and Ramdas Pophale) SiO2 
 PCOD9125842
Probable space group: C 2
;
_chemical_formula_sum "Si O2"
_cell_formula_units_Z 26
_cell_length_a 24.660553
_cell_length_b 7.040429
_cell_length_c 18.655630
_cell_angle_alpha 90.000000
_cell_angle_beta 20.529927
_cell_angle_gamma 90.000000
_cell_volume 1135.908594
_symmetry_space_group_name_H-M "C 2"
_symmetry_group_IT_number 5
_symmetry_cell_setting 'monoclinic'
loop_
_space_group_symop_operation_xyz
x,y,z
-x,y,-z
1/2+x,1/2+y,z
1/2-x,1/2+y,-z
loop_
_atom_site_type_symbol
_atom_site_label
_atom_site_fract_x
_atom_site_fract_y
_atom_site_fract_z
Si Si1 0.000000 0.623351 0.000000
Si Si2 0.677447 0.753874 0.385541
Si Si3 0.737328 0.654801 0.166219
Si Si4 0.885209 0.490508 0.749346
Si Si5 0.106610 0.082600 0.628246
Si Si6 0.640079 0.403961 0.164092
Si Si7 0.055659 0.441190 0.781499
O O1 0.138013 0.766722 0.847808
O O2 0.049199 0.482590 0.874747
O O3 0.560251 0.925996 0.520716
O O4 0.666001 0.607534 0.332126
O O5 0.649184 0.691202 0.502009
O O6 0.636207 0.571988 0.226484
O O7 0.908731 0.572172 0.941648
O O8 0.716854 0.881769 0.183722
O O9 0.984788 0.931952 0.745115
O O10 0.806826 0.414239 0.919830
O O11 0.036015 0.230904 0.772807
O O12 0.624076 0.213570 0.229023
O O13 0.268913 0.000742 0.457428
#
# Coordination Sequence:
#
# PCOD9125842 Si02
#       7
#     2   4   4   4   4   4   4
#     4   8  20  44  76 100 146 188 226 302 354 432
#     4  10  21  44  69 103 144 185 227 292 366 412
#     4  11  23  45  69 103 147 185 232 302 353 422
#     4  12  23  40  71 104 136 189 237 291 349 424
#     4  11  24  43  73 105 141 195 237 293 355 433
#     4  12  25  43  73 103 144 183 246 292 355 419
#     4  10  23  43  74 102 148 190 236 291 365 415
#
# _framework density 22.889165999999999
#
# number of rings (size 3 to 8) (size 9 to 14) (size 15 to 20)
#    0.000    1.231    3.077    2.308    2.154    0.000 
#    5.538    0.000   10.154    0.923    0.000    0.000 
#    0.000    0.000    0.000    0.000    0.000    0.000 
#
# Total GULP energy -72406.170963 kJ/mol
# GULP energy per Si atom -5569.705459 kJ/mol
# Density = 2.283707 g / cm^3
# Si number density = 22.889166 Si / 1000 Ang^3
#
#
#
# Elastic Constant Matrix: (Units=GPa)
#
#
# Indices 1 2 3 4 5 6 
#
# 1 81.8495 25.0184 37.5853 -0.0011 -5.6210 -0.0002
# 2 25.0184 98.4628 28.1543 -0.0053 -2.1270 -0.0012
# 3 37.5853 28.1543 127.3049 -0.0010 -5.0746 -0.0003
# 4 -0.0011 -0.0053 -0.0010 108.2307 -0.0013 38.2432
# 5 -5.6210 -2.1270 -5.0746 -0.0013 38.6815 0.0001
# 6 -0.0002 -0.0012 -0.0003 38.2432 0.0001 39.8584
#
#
#
# Elastic Compliance Matrix: (Units=1/GPa)
#
#
# Indices 1 2 3 4 5 6 
#
# 1 0.014854 -0.002674 -0.003733 0.000000 0.001522 0.000000
# 2 -0.002674 0.011326 -0.001715 0.000001 0.000009 0.000000
# 3 -0.003733 -0.001715 0.009360 0.000000 0.000591 0.000000
# 4 0.000000 0.000001 0.000000 0.013979 0.000001 -0.013412
# 5 0.001522 0.000009 0.000591 0.000001 0.026151 -0.000001
# 6 0.000000 0.000000 0.000000 -0.013412 -0.000001 0.037958
#
#
# Mechanical properties :
#
#
# Convention : Reuss Voigt Hill
#
# Bulk Modulus (GPa) = 51.82537 54.34812 53.08675
# Shear Modulus (GPa) = 36.68271 51.81140 44.24705
#
# Velocity S-wave (km/s) = 4.00762 4.76287 4.40147
# Velocity P-wave (km/s) = 6.64121 7.35134 7.00528
#
# Compressibility (1/GPa) = 0.01929557
#
# Stress axis : x y z
#
# Youngs Moduli (GPa) = 67.32328 88.29167 106.83460
#
# Poissons Ratio (x) = 0.23607 0.39886
# Poissons Ratio (y) = 0.18001 0.18323
# Poissons Ratio (z) = 0.25135 0.15143
#
# Static dielectric constant tensor:
#      x y z
#    x 1.946990 0.000000 -0.035340 
#    y 0.000000 1.872030 0.000000 
#    z -0.035340 0.000000 1.899690 
# 
# From -- ./inp_files/67489.got.cif
#   From: 2010.05.17/outbox.cif.g08.bks.cpg/sg5_34_cif.got.tgz:67489.got - 2010.06.03 18:56:24.
