data_PCOD9125562
_publ_section_title
;
Structure prediction by ZEFSAII (Michael W. Deem and Ramdas Pophale) SiO2 
 PCOD9125562
Probable space group: C 2
;
_chemical_formula_sum "Si O2"
_cell_formula_units_Z 20
_cell_length_a 7.332811
_cell_length_b 24.893899
_cell_length_c 7.713265
_cell_angle_alpha 90.000000
_cell_angle_beta 37.324972
_cell_angle_gamma 90.000000
_cell_volume 853.717801
_symmetry_space_group_name_H-M "C 2"
_symmetry_group_IT_number 5
_symmetry_cell_setting 'monoclinic'
loop_
_space_group_symop_operation_xyz
x,y,z
-x,y,-z
1/2+x,1/2+y,z
1/2-x,1/2+y,-z
loop_
_atom_site_type_symbol
_atom_site_label
_atom_site_fract_x
_atom_site_fract_y
_atom_site_fract_z
Si Si1 0.662285 0.175180 0.562840
Si Si2 0.882927 0.983643 0.892267
Si Si3 0.500000 0.254158 0.000000
Si Si4 0.326059 0.604116 0.947339
Si Si5 0.702060 0.915320 0.619722
Si Si6 0.000000 0.329262 0.500000
O O1 0.500000 0.187646 0.500000
O O2 0.002470 0.154006 0.277075
O O3 0.577432 0.220282 0.767612
O O4 0.506100 0.122471 0.757357
O O5 0.173328 0.968697 0.563258
O O6 0.806564 0.043996 0.893011
O O7 0.624489 0.937486 0.068945
O O8 0.000000 0.982704 0.000000
O O9 0.211063 0.293038 0.217505
O O10 0.500000 0.600768 0.000000
O O11 0.665939 0.869004 0.505508
O O12 0.000000 0.897625 0.500000
#
# Coordination Sequence:
#
# PCOD9125562 Si02
#       6
#     4   4   2   4   4   2
#     4  10  21  42  64 100 141 177 235 299 345 434
#     4  11  20  41  70 102 142 193 225 282 357 432
#     4  12  26  44  74  98 136 194 242 304 374 402
#     4   9  19  36  67  99 139 186 226 273 360 430
#     4  12  25  44  69 101 144 182 237 299 355 426
#     4  12  26  48  70 100 142 190 246 308 362 420
#
# _framework density 23.426946999999998
#
# number of rings (size 3 to 8) (size 9 to 14) (size 15 to 20)
#    0.000    1.200    2.000    4.200    0.000    4.000 
#    7.200    2.000    0.000    0.000    0.000    0.000 
#    0.000    0.000    0.000    0.000    0.000    0.000 
#
# Total GULP energy -55756.828318 kJ/mol
# GULP energy per Si atom -5575.682832 kJ/mol
# Density = 2.337363 g / cm^3
# Si number density = 23.426947 Si / 1000 Ang^3
#
#
#
# Elastic Constant Matrix: (Units=GPa)
#
#
# Indices 1 2 3 4 5 6 
#
# 1 117.0558 46.0089 19.1611 0.0000 1.8681 0.0000
# 2 46.0089 103.2690 16.1750 0.0000 11.8217 0.0000
# 3 19.1611 16.1750 104.9681 0.0000 -6.7487 0.0000
# 4 0.0000 0.0000 0.0000 35.4164 0.0000 -12.8625
# 5 1.8681 11.8217 -6.7487 0.0000 27.7252 0.0000
# 6 0.0000 0.0000 0.0000 -12.8625 0.0000 3.6394
#
#
#
# Elastic Compliance Matrix: (Units=1/GPa)
#
#
# Indices 1 2 3 4 5 6 
#
# 1 0.010533 -0.004626 -0.001147 0.000000 0.000984 0.000000
# 2 -0.004626 0.012589 -0.001443 0.000000 -0.005408 0.000000
# 3 -0.001147 -0.001443 0.010162 0.000000 0.003166 0.000000
# 4 0.000000 0.000000 0.000000 -0.099576 0.000000 -0.351924
# 5 0.000984 -0.005408 0.003166 0.000000 0.039078 0.000000
# 6 0.000000 0.000000 0.000000 -0.351924 0.000000 -0.969009
#
#
# Mechanical properties :
#
#
# Convention : Reuss Voigt Hill
#
# Bulk Modulus (GPa) = 53.04153 54.22031 53.63092
# Shear Modulus (GPa) = -5.12554 29.61938 12.24692
#
# Velocity S-wave (km/s) = -1.48075 3.55960 2.28890
# Velocity P-wave (km/s) = 4.44600 6.33159 5.47064
#
# Compressibility (1/GPa) = 0.01885315
#
# Stress axis : x y z
#
# Youngs Moduli (GPa) = 94.93886 79.43189 98.40595
#
# Poissons Ratio (x) = 0.36743 0.11284
# Poissons Ratio (y) = 0.43916 0.14202
# Poissons Ratio (z) = 0.10887 0.11464
#
# Static dielectric constant tensor:
#      x y z
#    x 1.930740 0.000000 0.048310 
#    y 0.000000 1.860250 0.000000 
#    z 0.048310 0.000000 1.855220 
# 
# From -- ./inp_files/17291.got.cif
#   From: 2010.05.17/outbox.cif.g08.bks.cpg/sg5_9_cif.got.tgz:17291.got - 2010.06.03 18:56:24.
