data_PCOD9125107
_publ_section_title
;
Structure prediction by ZEFSAII (Michael W. Deem and Ramdas Pophale) SiO2 
 PCOD9125107
Probable space group: C 2
;
_chemical_formula_sum "Si O2"
_cell_formula_units_Z 26
_cell_length_a 7.773424
_cell_length_b 14.258312
_cell_length_c 11.499620
_cell_angle_alpha 90.000000
_cell_angle_beta 116.034716
_cell_angle_gamma 90.000000
_cell_volume 1145.237882
_symmetry_space_group_name_H-M "C 2"
_symmetry_group_IT_number 5
_symmetry_cell_setting 'monoclinic'
loop_
_space_group_symop_operation_xyz
x,y,z
-x,y,-z
1/2+x,1/2+y,z
1/2-x,1/2+y,-z
loop_
_atom_site_type_symbol
_atom_site_label
_atom_site_fract_x
_atom_site_fract_y
_atom_site_fract_z
Si Si1 0.682204 0.462290 0.634315
Si Si2 0.329919 0.270732 0.233805
Si Si3 0.574583 0.765173 0.779116
Si Si4 0.097461 0.612693 0.404115
Si Si5 0.500000 0.718736 0.500000
Si Si6 0.779578 0.576306 0.898890
Si Si7 0.789453 0.397320 0.002593
O O1 0.500000 0.483386 0.500000
O O2 0.647269 0.355399 0.665028
O O3 0.865939 0.504239 0.620070
O O4 0.715705 0.519952 0.763404
O O5 0.471262 0.182713 0.286295
O O6 0.329238 0.322654 0.109177
O O7 0.117005 0.240324 0.205504
O O8 0.537069 0.772408 0.631268
O O9 0.706073 0.678648 0.851888
O O10 0.666021 0.858568 0.858228
O O11 0.308226 0.658972 0.466576
O O12 0.000000 0.617848 0.500000
O O13 0.706532 0.501775 0.973523
O O14 0.000000 0.587125 0.000000
O O15 0.000000 0.400267 0.000000
#
# Coordination Sequence:
#
# PCOD9125107 Si02
#       7
#     4   4   4   4   2   4   4
#     4  11  23  44  71 106 148 193 252 319 376 455
#     4  10  23  42  71 102 142 198 248 319 384 444
#     4  11  21  41  72 101 149 189 255 309 378 463
#     4  12  23  43  72 103 150 197 252 304 397 453
#     4  12  24  42  68 116 144 198 250 318 378 468
#     4  10  21  39  70  99 139 197 242 308 379 442
#     4   8  19  39  63  99 133 190 249 296 379 451
#
# _framework density 22.702707
#
# number of rings (size 3 to 8) (size 9 to 14) (size 15 to 20)
#    0.000    1.538    3.846    1.385    2.154    0.000 
#    1.385    0.000    3.385    0.000    0.000    0.000 
#    0.000    0.000    0.000    0.000    0.000    0.000 
#
# Total GULP energy -72476.287841 kJ/mol
# GULP energy per Si atom -5575.099065 kJ/mol
# Density = 2.265103 g / cm^3
# Si number density = 22.702707 Si / 1000 Ang^3
#
#
#
# Elastic Constant Matrix: (Units=GPa)
#
#
# Indices 1 2 3 4 5 6 
#
# 1 58.4642 10.8652 25.4317 0.0000 5.3920 0.0000
# 2 10.8652 74.4924 59.6345 0.0000 5.4268 0.0000
# 3 25.4317 59.6345 142.5685 0.0000 12.9651 0.0000
# 4 0.0000 0.0000 0.0000 -24.8894 0.0000 37.5053
# 5 5.3920 5.4268 12.9651 0.0000 31.7333 0.0000
# 6 0.0000 0.0000 0.0000 37.5053 0.0000 -33.7880
#
#
#
# Elastic Compliance Matrix: (Units=1/GPa)
#
#
# Indices 1 2 3 4 5 6 
#
# 1 0.018651 -0.000086 -0.003120 0.000000 -0.001880 0.000000
# 2 -0.000086 0.020183 -0.008428 0.000000 0.000006 0.000000
# 3 -0.003120 -0.008428 0.011338 0.000000 -0.002661 0.000000
# 4 0.000000 0.000000 0.000000 0.059729 0.000000 0.066301
# 5 -0.001880 0.000006 -0.002661 0.000000 0.032918 0.000000
# 6 0.000000 0.000000 0.000000 0.066301 0.000000 0.043999
#
#
# Mechanical properties :
#
#
# Convention : Reuss Voigt Hill
#
# Bulk Modulus (GPa) = 37.16770 51.93198 44.54984
# Shear Modulus (GPa) = 22.82552 6.58408 14.70480
#
# Velocity S-wave (km/s) = 3.17426 1.70482 2.54778
# Velocity P-wave (km/s) = 5.46275 5.17684 5.32171
#
# Compressibility (1/GPa) = 0.02690508
#
# Stress axis : x y z
#
# Youngs Moduli (GPa) = 53.61626 49.54710 88.19996
#
# Poissons Ratio (x) = 0.00424 0.27521
# Poissons Ratio (y) = 0.00458 0.74331
# Poissons Ratio (z) = 0.16730 0.41756
#
# Static dielectric constant tensor:
#      x y z
#    x 1.884030 0.000000 0.023830 
#    y 0.000000 1.935140 0.000000 
#    z 0.023830 0.000000 1.890880 
# 
# From -- ./inp_files/36259.got.cif
#   From: 2010.05.17/outbox.cif.g08.bks.cpg/sg5_19_cif.got.tgz:36259.got - 2010.06.03 18:56:24.
