data_PCOD9125072
_publ_section_title
;
Structure prediction by ZEFSAII (Michael W. Deem and Ramdas Pophale) SiO2 
 PCOD9125072
Probable space group: C 2
;
_chemical_formula_sum "Si O2"
_cell_formula_units_Z 30
_cell_length_a 14.725401
_cell_length_b 11.605252
_cell_length_c 9.404163
_cell_angle_alpha 90.000000
_cell_angle_beta 62.817902
_cell_angle_gamma 90.000000
_cell_volume 1429.607061
_symmetry_space_group_name_H-M "C 2"
_symmetry_group_IT_number 5
_symmetry_cell_setting 'monoclinic'
loop_
_space_group_symop_operation_xyz
x,y,z
-x,y,-z
1/2+x,1/2+y,z
1/2-x,1/2+y,-z
loop_
_atom_site_type_symbol
_atom_site_label
_atom_site_fract_x
_atom_site_fract_y
_atom_site_fract_z
Si Si1 0.116632 0.103690 0.785071
Si Si2 0.899672 0.199002 0.889035
Si Si3 0.795531 0.113396 0.704351
Si Si4 0.000000 0.972108 0.500000
Si Si5 0.583998 0.360778 0.700196
Si Si6 0.790142 0.275998 0.466295
Si Si7 0.003790 0.405118 0.669069
Si Si8 0.062691 0.602400 0.814656
O O1 0.205900 0.157746 0.626210
O O2 0.009709 0.138306 0.786788
O O3 0.111200 0.965458 0.788418
O O4 0.120244 0.171284 0.931774
O O5 0.814491 0.137038 0.856086
O O6 0.920009 0.327756 0.813965
O O7 0.800449 0.236048 0.621342
O O8 0.682214 0.069305 0.751178
O O9 0.895534 0.046162 0.577363
O O10 0.000344 0.899292 0.645306
O O11 0.684437 0.340096 0.532083
O O12 0.559662 0.239908 0.791006
O O13 0.887924 0.350478 0.360236
O O14 0.011017 0.534652 0.721286
O O15 0.000000 0.397792 0.500000
O O16 0.000000 0.572047 0.000000
#
# Coordination Sequence:
#
# PCOD9125072 Si02
#       8
#     4   4   4   2   4   4   4   4
#     4  10  21  39  70 100 133 167 235 286 342 397
#     4  10  21  39  72 101 122 168 239 290 335 384
#     4  11  20  44  69 102 129 175 230 294 332 410
#     4  12  20  40  74 102 122 170 250 282 326 400
#     4  11  24  41  67  96 142 180 224 284 341 417
#     4  10  21  39  67 100 129 170 225 288 342 387
#     4  11  22  43  70  96 135 175 233 288 331 414
#     4  11  29  46  61  95 156 188 213 275 372 411
#
# _framework density 20.984788000000002
#
# number of rings (size 3 to 8) (size 9 to 14) (size 15 to 20)
#    0.000    1.333    4.000    1.600    8.400    0.000 
#    4.800    0.000    0.000    0.000    0.000    0.000 
#    0.000    0.000    0.000    0.000    0.000    0.000 
#
# Total GULP energy -83624.122012 kJ/mol
# GULP energy per Si atom -5574.941467 kJ/mol
# Density = 2.093703 g / cm^3
# Si number density = 20.984788 Si / 1000 Ang^3
#
#
#
# Elastic Constant Matrix: (Units=GPa)
#
#
# Indices 1 2 3 4 5 6 
#
# 1 67.5182 31.4813 26.1314 0.0000 8.4342 0.0000
# 2 31.4813 107.3984 33.8709 0.0000 13.2628 0.0000
# 3 26.1314 33.8709 82.9569 0.0000 13.7648 0.0000
# 4 0.0000 0.0000 0.0000 22.1114 0.0000 3.9798
# 5 8.4342 13.2628 13.7648 0.0000 36.4725 0.0000
# 6 0.0000 0.0000 0.0000 3.9798 0.0000 27.6567
#
#
#
# Elastic Compliance Matrix: (Units=1/GPa)
#
#
# Indices 1 2 3 4 5 6 
#
# 1 0.018353 -0.003975 -0.003941 0.000000 -0.001311 0.000000
# 2 -0.003975 0.011747 -0.003187 0.000000 -0.002149 0.000000
# 3 -0.003941 -0.003187 0.015206 0.000000 -0.003668 0.000000
# 4 0.000000 0.000000 0.000000 0.046428 0.000000 -0.006681
# 5 -0.001311 -0.002149 -0.003668 0.000000 0.029887 0.000000
# 6 0.000000 0.000000 0.000000 -0.006681 0.000000 0.037119
#
#
# Mechanical properties :
#
#
# Convention : Reuss Voigt Hill
#
# Bulk Modulus (GPa) = 43.29049 48.98230 46.13639
# Shear Modulus (GPa) = 26.50460 28.34080 27.42270
#
# Velocity S-wave (km/s) = 3.55778 3.67896 3.61888
# Velocity P-wave (km/s) = 6.12791 6.43730 6.28451
#
# Compressibility (1/GPa) = 0.02309976
#
# Stress axis : x y z
#
# Youngs Moduli (GPa) = 54.48633 85.12801 65.76417
#
# Poissons Ratio (x) = 0.33839 0.25915
# Poissons Ratio (y) = 0.21659 0.20962
# Poissons Ratio (z) = 0.21471 0.27134
#
# Static dielectric constant tensor:
#      x y z
#    x 1.743310 0.000000 -0.016970 
#    y 0.000000 1.796630 0.000000 
#    z -0.016970 0.000000 1.779630 
# 
# From -- ./inp_files/23838.got.cif
#   From: 2010.05.17/outbox.cif.g08.bks.cpg/sg5_12_cif.got.tgz:23838.got - 2010.06.03 18:56:24.
