data_PCOD9125165
_publ_section_title
;
Structure prediction by ZEFSAII (Michael W. Deem and Ramdas Pophale) SiO2 
 PCOD9125165
Probable space group: C 2
;
_chemical_formula_sum "Si O2"
_cell_formula_units_Z 32
_cell_length_a 15.279616
_cell_length_b 23.570976
_cell_length_c 9.140039
_cell_angle_alpha 90.000000
_cell_angle_beta 28.974052
_cell_angle_gamma 90.000000
_cell_volume 1594.609215
_symmetry_space_group_name_H-M "C 2"
_symmetry_group_IT_number 5
_symmetry_cell_setting 'monoclinic'
loop_
_space_group_symop_operation_xyz
x,y,z
-x,y,-z
1/2+x,1/2+y,z
1/2-x,1/2+y,-z
loop_
_atom_site_type_symbol
_atom_site_label
_atom_site_fract_x
_atom_site_fract_y
_atom_site_fract_z
Si Si1 0.193972 0.775700 0.140617
Si Si2 0.952252 0.760061 0.234368
Si Si3 0.808257 0.184942 0.203267
Si Si4 0.164248 0.981780 0.148430
Si Si5 0.693671 0.876289 0.188077
Si Si6 0.309434 0.375891 0.333874
Si Si7 0.313456 0.554105 0.179989
Si Si8 0.457661 0.979890 0.228942
O O1 0.289757 0.727065 0.092361
O O2 0.000000 0.790453 0.500000
O O3 0.127324 0.756608 0.079767
O O4 0.314247 0.830226 0.928838
O O5 0.823797 0.712709 0.486457
O O6 0.858111 0.823174 0.369139
O O7 0.000000 0.748482 0.000000
O O8 0.764302 0.120132 0.231069
O O9 0.000000 0.186248 0.000000
O O10 0.000000 0.991738 0.500000
O O11 0.155299 0.920695 0.081776
O O12 0.350130 0.977054 0.968992
O O13 0.170824 0.025401 0.003137
O O14 0.500000 0.905269 0.500000
O O15 0.738834 0.851719 0.281643
O O16 0.162821 0.421662 0.600976
O O17 0.500000 0.403191 0.000000
O O18 0.164843 0.522279 0.495993
O O19 0.500000 0.550834 0.000000
O O20 0.500000 0.997242 0.000000
#
# Coordination Sequence:
#
# PCOD9125165 Si02
#       8
#     4   4   4   4   4   4   4   4
#     4  10  22  39  61  94 132 175 218 266 330 392
#     4  10  21  40  62  93 129 175 218 262 330 391
#     4  10  25  43  67  95 128 175 221 277 329 391
#     4  12  26  43  68 101 135 176 223 277 338 403
#     4  12  22  39  63 100 137 175 215 271 336 399
#     4  11  22  40  66  98 142 177 215 276 333 393
#     4  11  24  49  70  94 135 175 228 284 337 390
#     4  12  26  41  68 104 132 178 225 272 339 402
#
# _framework density 20.067613000000001
#
# number of rings (size 3 to 8) (size 9 to 14) (size 15 to 20)
#    0.000    1.000    5.000    1.875    3.500    6.000 
#    0.000    3.125    0.000    0.000    0.000    0.000 
#    0.000    0.000    0.000    0.000    0.000    0.000 
#
# Total GULP energy -89248.373080 kJ/mol
# GULP energy per Si atom -5578.023318 kJ/mol
# Density = 2.002194 g / cm^3
# Si number density = 20.067613 Si / 1000 Ang^3
#
#
#
# Elastic Constant Matrix: (Units=GPa)
#
#
# Indices 1 2 3 4 5 6 
#
# 1 120.1747 51.6364 47.5003 0.0000 20.0455 -0.0004
# 2 51.6364 148.1950 62.0257 0.0000 18.5356 -0.0002
# 3 47.5003 62.0257 118.7807 -0.0002 13.9880 -0.0003
# 4 0.0000 0.0000 -0.0002 7.1021 0.0000 0.0020
# 5 20.0455 18.5356 13.9880 0.0000 38.4054 0.0002
# 6 -0.0004 -0.0002 -0.0003 0.0020 0.0002 36.8213
#
#
#
# Elastic Compliance Matrix: (Units=1/GPa)
#
#
# Indices 1 2 3 4 5 6 
#
# 1 0.010986 -0.002191 -0.002819 0.000000 -0.003650 0.000000
# 2 -0.002191 0.009336 -0.003764 0.000000 -0.001991 0.000000
# 3 -0.002819 -0.003764 0.011623 0.000000 -0.000945 0.000000
# 4 0.000000 0.000000 0.000000 0.140803 0.000000 -0.000007
# 5 -0.003650 -0.001991 -0.000945 0.000000 0.029248 0.000000
# 6 0.000000 0.000000 0.000000 -0.000007 0.000000 0.027158
#
#
# Mechanical properties :
#
#
# Convention : Reuss Voigt Hill
#
# Bulk Modulus (GPa) = 69.46695 78.83057 74.14876
# Shear Modulus (GPa) = 19.88051 31.53165 25.70608
#
# Velocity S-wave (km/s) = 3.15092 3.96823 3.58295
# Velocity P-wave (km/s) = 6.92310 7.76940 7.35842
#
# Compressibility (1/GPa) = 0.01439533
#
# Stress axis : x y z
#
# Youngs Moduli (GPa) = 91.02590 107.11240 86.03483
#
# Poissons Ratio (x) = 0.23474 0.24254
# Poissons Ratio (y) = 0.19948 0.32386
# Poissons Ratio (z) = 0.25661 0.40320
#
# Static dielectric constant tensor:
#      x y z
#    x 1.768660 0.000000 -0.063840 
#    y 0.000000 1.728830 0.000000 
#    z -0.063840 0.000000 1.836090 
# 
# From -- ./inp_files/25627.got.cif
#   From: 2010.05.17/outbox.cif.g08.bks.cpg/sg5_13_cif.got.tgz:25627.got - 2010.06.03 18:56:24.
