data_PCOD9125904
_publ_section_title
;
Structure prediction by ZEFSAII (Michael W. Deem and Ramdas Pophale) SiO2 
 PCOD9125904
Probable space group: C 2
;
_chemical_formula_sum "Si O2"
_cell_formula_units_Z 16
_cell_length_a 8.145377
_cell_length_b 13.136572
_cell_length_c 9.015720
_cell_angle_alpha 90.000000
_cell_angle_beta 131.421495
_cell_angle_gamma 90.000000
_cell_volume 723.395053
_symmetry_space_group_name_H-M "C 2"
_symmetry_group_IT_number 5
_symmetry_cell_setting 'monoclinic'
loop_
_space_group_symop_operation_xyz
x,y,z
-x,y,-z
1/2+x,1/2+y,z
1/2-x,1/2+y,-z
loop_
_atom_site_type_symbol
_atom_site_label
_atom_site_fract_x
_atom_site_fract_y
_atom_site_fract_z
Si Si1 0.088850 0.219950 0.396291
Si Si2 0.470102 0.071065 0.651430
Si Si3 0.735700 0.059655 0.074516
Si Si4 0.255699 0.391006 0.304667
O O1 0.329127 0.174014 0.571306
O O2 0.107775 0.297490 0.270346
O O3 0.000000 0.263587 0.500000
O O4 0.929925 0.126935 0.255635
O O5 0.500000 0.043856 0.500000
O O6 0.326493 0.985718 0.646111
O O7 0.697182 0.073497 0.876981
O O8 0.755570 0.942051 0.141085
O O9 0.500000 0.095848 0.000000
O O10 0.500000 0.366435 0.500000
#
# Coordination Sequence:
#
# PCOD9125904 Si02
#       4
#     4   4   4   4
#     4  12  22  44  73 105 144 183 232 290 348 416
#     4  11  23  45  69 102 148 182 231 292 346 413
#     4  10  21  46  69  97 150 180 225 300 340 405
#     4  11  22  45  73 101 142 185 229 291 347 412
#
# _framework density 22.117926000000001
#
# number of rings (size 3 to 8) (size 9 to 14) (size 15 to 20)
#    0.000    1.000    7.500    1.500    0.000    1.000 
#   27.000    0.000    0.000    0.000    0.000    0.000 
#    0.000    0.000    0.000    0.000    0.000    0.000 
#
# Total GULP energy -44655.628195 kJ/mol
# GULP energy per Si atom -5581.953524 kJ/mol
# Density = 2.206758 g / cm^3
# Si number density = 22.117926 Si / 1000 Ang^3
#
#
#
# Elastic Constant Matrix: (Units=GPa)
#
#
# Indices 1 2 3 4 5 6 
#
# 1 38.6954 20.3784 33.0034 0.0000 -3.4497 0.0000
# 2 20.3784 101.8386 28.1716 0.0000 0.1122 0.0000
# 3 33.0034 28.1716 145.5976 0.0000 -15.3830 0.0000
# 4 0.0000 0.0000 0.0000 18.8262 0.0000 -3.8321
# 5 -3.4497 0.1122 -15.3830 0.0000 35.1473 0.0000
# 6 0.0000 0.0000 0.0000 -3.8321 0.0000 31.1304
#
#
#
# Elastic Compliance Matrix: (Units=1/GPa)
#
#
# Indices 1 2 3 4 5 6 
#
# 1 0.034272 -0.004989 -0.006759 0.000000 0.000422 0.000000
# 2 -0.004989 0.011132 -0.001131 0.000000 -0.001020 0.000000
# 3 -0.006759 -0.001131 0.008964 0.000000 0.003263 0.000000
# 4 0.000000 0.000000 0.000000 0.054483 0.000000 0.006707
# 5 0.000422 -0.001020 0.003263 0.000000 0.029925 0.000000
# 6 0.000000 0.000000 0.000000 0.006707 0.000000 0.032948
#
#
# Mechanical properties :
#
#
# Convention : Reuss Voigt Hill
#
# Bulk Modulus (GPa) = 34.95163 49.91540 42.43352
# Shear Modulus (GPa) = 24.15252 30.65934 27.40593
#
# Velocity S-wave (km/s) = 3.30811 3.72718 3.52388
# Velocity P-wave (km/s) = 5.51617 6.41399 5.98195
#
# Compressibility (1/GPa) = 0.02861097
#
# Stress axis : x y z
#
# Youngs Moduli (GPa) = 29.17801 89.83370 111.55832
#
# Poissons Ratio (x) = 0.44816 0.75401
# Poissons Ratio (y) = 0.14556 0.12615
# Poissons Ratio (z) = 0.19721 0.10158
#
# Static dielectric constant tensor:
#      x y z
#    x 1.844590 0.000000 -0.040140 
#    y 0.000000 1.810110 0.000000 
#    z -0.040140 0.000000 1.895240 
# 
# From -- ./inp_files/13881.got.cif
#   From: 2010.05.17/outbox.cif.g08.bks.cpg/sg5_7_cif.got.tgz:13881.got - 2010.06.03 18:56:24.
