data_PCOD9125368
_publ_section_title
;
Structure prediction by ZEFSAII (Michael W. Deem and Ramdas Pophale) SiO2 
 PCOD9125368
Probable space group: C 2
;
_chemical_formula_sum "Si O2"
_cell_formula_units_Z 32
_cell_length_a 15.507396
_cell_length_b 23.408698
_cell_length_c 9.179598
_cell_angle_alpha 90.000000
_cell_angle_beta 150.974144
_cell_angle_gamma 90.000000
_cell_volume 1616.830176
_symmetry_space_group_name_H-M "C 2"
_symmetry_group_IT_number 5
_symmetry_cell_setting 'monoclinic'
loop_
_space_group_symop_operation_xyz
x,y,z
-x,y,-z
1/2+x,1/2+y,z
1/2-x,1/2+y,-z
loop_
_atom_site_type_symbol
_atom_site_label
_atom_site_fract_x
_atom_site_fract_y
_atom_site_fract_z
Si Si1 0.188909 0.292520 0.833920
Si Si2 0.049028 0.175899 0.736561
Si Si3 0.829879 0.394728 0.648131
Si Si4 0.187163 0.976668 0.194607
Si Si5 0.186129 0.601967 0.696543
Si Si6 0.042813 0.896174 0.728083
Si Si7 0.191844 0.790801 0.303754
Si Si8 0.190206 0.190423 0.356461
O O1 0.141376 0.239536 0.870828
O O2 0.263243 0.267964 0.790190
O O3 0.000000 0.318505 0.500000
O O4 0.332302 0.339271 0.097130
O O5 0.000000 0.165316 0.500000
O O6 0.878310 0.171262 0.587455
O O7 0.177274 0.128123 0.986831
O O8 0.802998 0.442241 0.484218
O O9 0.649792 0.388603 0.478741
O O10 0.838385 0.335544 0.571929
O O11 0.000000 0.403960 0.000000
O O12 0.271036 0.037134 0.279654
O O13 0.147629 0.939351 0.991092
O O14 0.000000 0.986586 0.000000
O O15 0.214303 0.642719 0.597625
O O16 0.000000 0.606950 0.500000
O O17 0.000000 0.915807 0.500000
O O18 0.186623 0.743813 0.422368
O O19 0.000000 0.820280 0.000000
O O20 0.000000 0.206286 0.000000
#
# Coordination Sequence:
#
# PCOD9125368 Si02
#       8
#     4   4   4   4   4   4   4   4
#     4  11  22  39  64  99 139 176 216 276 332 393
#     4  10  21  41  63  91 128 174 219 260 328 394
#     4  11  24  42  67  97 131 178 222 269 336 405
#     4  10  22  49  68  88 132 174 224 274 331 394
#     4  11  26  42  66  96 127 172 220 279 331 391
#     4  11  25  40  66 102 130 172 222 277 335 392
#     4  12  21  39  64  97 137 175 213 270 336 397
#     4  10  22  40  61  93 130 175 218 264 330 395
#
# _framework density 19.791813000000001
#
# number of rings (size 3 to 8) (size 9 to 14) (size 15 to 20)
#    0.000    1.250    5.000    1.875    3.500    4.500 
#    0.000    3.125    0.000    0.000    0.000    0.000 
#    0.000    0.000    0.000    0.000    0.000    0.000 
#
# Total GULP energy -89237.974826 kJ/mol
# GULP energy per Si atom -5577.373427 kJ/mol
# Density = 1.974677 g / cm^3
# Si number density = 19.791813 Si / 1000 Ang^3
#
#
#
# Elastic Constant Matrix: (Units=GPa)
#
#
# Indices 1 2 3 4 5 6 
#
# 1 125.4885 57.2772 50.0952 0.0000 -18.4454 0.0000
# 2 57.2772 103.9570 52.7859 0.0000 -3.4506 0.0000
# 3 50.0952 52.7859 115.9013 0.0000 -9.1291 0.0000
# 4 0.0000 0.0000 0.0000 15.4910 0.0000 -0.5275
# 5 -18.4454 -3.4506 -9.1291 0.0000 29.0842 0.0000
# 6 0.0000 0.0000 0.0000 -0.5275 0.0000 35.6608
#
#
#
# Elastic Compliance Matrix: (Units=1/GPa)
#
#
# Indices 1 2 3 4 5 6 
#
# 1 0.012308 -0.005364 -0.002371 0.000000 0.006425 0.000000
# 2 -0.005364 0.014854 -0.004692 0.000000 -0.003112 0.000000
# 3 -0.002371 -0.004692 0.011922 0.000000 0.001682 0.000000
# 4 0.000000 0.000000 0.000000 0.064586 0.000000 0.000955
# 5 0.006425 -0.003112 0.001682 0.000000 0.038617 0.000000
# 6 0.000000 0.000000 0.000000 0.000955 0.000000 0.028056
#
#
# Mechanical properties :
#
#
# Convention : Reuss Voigt Hill
#
# Bulk Modulus (GPa) = 70.27045 73.96260 72.11653
# Shear Modulus (GPa) = 25.00757 28.39311 26.70034
#
# Velocity S-wave (km/s) = 3.55847 3.79171 3.67694
# Velocity P-wave (km/s) = 7.24331 7.52468 7.38533
#
# Compressibility (1/GPa) = 0.01423073
#
# Stress axis : x y z
#
# Youngs Moduli (GPa) = 81.24677 67.32220 83.87954
#
# Poissons Ratio (x) = 0.36115 0.19884
# Poissons Ratio (y) = 0.43585 0.39353
# Poissons Ratio (z) = 0.19260 0.31585
#
# Static dielectric constant tensor:
#      x y z
#    x 1.751580 0.000000 0.050670 
#    y 0.000000 1.702620 0.000000 
#    z 0.050670 0.000000 1.793480 
# 
# From -- ./inp_files/25626.got.cif
#   From: 2010.05.17/outbox.cif.g08.bks.cpg/sg5_13_cif.got.tgz:25626.got - 2010.06.03 18:56:24.
