data_PCOD9125121
_publ_section_title
;
Structure prediction by ZEFSAII (Michael W. Deem and Ramdas Pophale) SiO2 
 PCOD9125121
Probable space group: C 2
;
_chemical_formula_sum "Si O2"
_cell_formula_units_Z 28
_cell_length_a 7.377730
_cell_length_b 11.752548
_cell_length_c 15.144032
_cell_angle_alpha 90.000000
_cell_angle_beta 82.468170
_cell_angle_gamma 90.000000
_cell_volume 1301.766360
_symmetry_space_group_name_H-M "C 2"
_symmetry_group_IT_number 5
_symmetry_cell_setting 'monoclinic'
loop_
_space_group_symop_operation_xyz
x,y,z
-x,y,-z
1/2+x,1/2+y,z
1/2-x,1/2+y,-z
loop_
_atom_site_type_symbol
_atom_site_label
_atom_site_fract_x
_atom_site_fract_y
_atom_site_fract_z
Si Si1 0.850012 0.287000 0.079440
Si Si2 0.131162 0.688488 0.242107
Si Si3 0.212372 0.926206 0.462393
Si Si4 0.071973 0.939485 0.281620
Si Si5 0.500000 0.218388 0.000000
Si Si6 0.808233 0.092879 0.394274
Si Si7 0.500000 0.745085 0.500000
Si Si8 0.632575 0.038761 0.851961
O O1 0.807601 0.207698 0.167195
O O2 0.910405 0.412298 0.108606
O O3 0.652534 0.289569 0.042675
O O4 0.000000 0.244937 0.000000
O O5 0.040481 0.813429 0.246630
O O6 0.179788 0.664470 0.340174
O O7 0.008938 0.587611 0.211288
O O8 0.212106 0.931147 0.356640
O O9 0.327072 0.825244 0.497655
O O10 0.000000 0.911192 0.500000
O O11 0.272332 0.039910 0.511033
O O12 0.170294 0.020207 0.204836
O O13 0.885901 0.991996 0.329314
O O14 0.612390 0.133393 0.928778
O O15 0.984119 0.164765 0.415670
#
# Coordination Sequence:
#
# PCOD9125121 Si02
#       8
#     4   4   4   4   2   4   2   4
#     4  10  22  44  67  95 130 166 215 262 320 397
#     4  10  23  41  63  94 131 165 215 265 320 378
#     4  10  23  41  59  94 129 166 225 266 310 380
#     4  10  21  40  59  91 128 163 217 266 308 385
#     4  10  22  44  64  94 128 164 210 266 318 384
#     4  11  23  42  61  96 128 167 224 263 312 383
#     4  12  22  42  66  88 130 176 216 268 320 370
#     4  10  22  43  64  94 128 165 210 263 325 383
#
# _framework density 21.509236999999999
#
# number of rings (size 3 to 8) (size 9 to 14) (size 15 to 20)
#    0.000    1.714    4.286    0.000    4.000    2.286 
#   10.286    0.000    0.000    0.000    0.000    0.000 
#    0.000    0.000    0.000    0.000    0.000    0.000 
#
# Total GULP energy -78075.426838 kJ/mol
# GULP energy per Si atom -5576.816203 kJ/mol
# Density = 2.146028 g / cm^3
# Si number density = 21.509237 Si / 1000 Ang^3
#
#
#
# Elastic Constant Matrix: (Units=GPa)
#
#
# Indices 1 2 3 4 5 6 
#
# 1 47.7960 31.8520 6.8063 0.0000 11.7382 0.0000
# 2 31.8520 90.8079 13.5567 0.0000 13.0639 0.0000
# 3 6.8063 13.5567 55.7015 0.0000 13.8602 0.0000
# 4 0.0000 0.0000 0.0000 25.8130 0.0000 -2.0566
# 5 11.7382 13.0639 13.8602 0.0000 31.9385 0.0000
# 6 0.0000 0.0000 0.0000 -2.0566 0.0000 27.4439
#
#
#
# Elastic Compliance Matrix: (Units=1/GPa)
#
#
# Indices 1 2 3 4 5 6 
#
# 1 0.028647 -0.009110 0.000459 0.000000 -0.007002 0.000000
# 2 -0.009110 0.014772 -0.002031 0.000000 -0.001813 0.000000
# 3 0.000459 -0.002031 0.020433 0.000000 -0.008205 0.000000
# 4 0.000000 0.000000 0.000000 0.038973 0.000000 0.002921
# 5 -0.007002 -0.001813 -0.008205 0.000000 0.038186 0.000000
# 6 0.000000 0.000000 0.000000 0.002921 0.000000 0.036657
#
#
# Mechanical properties :
#
#
# Convention : Reuss Voigt Hill
#
# Bulk Modulus (GPa) = 23.53602 33.19283 28.36443
# Shear Modulus (GPa) = 23.45294 26.51177 24.98236
#
# Velocity S-wave (km/s) = 3.30565 3.51462 3.41173
# Velocity P-wave (km/s) = 5.05330 5.65114 5.36056
#
# Compressibility (1/GPa) = 0.04248806
#
# Stress axis : x y z
#
# Youngs Moduli (GPa) = 34.90738 67.69772 48.94113
#
# Poissons Ratio (x) = 0.61670 -0.02246
# Poissons Ratio (y) = 0.31799 0.09940
# Poissons Ratio (z) = -0.01602 0.13749
#
# Static dielectric constant tensor:
#      x y z
#    x 1.761780 0.000000 -0.003180 
#    y 0.000000 1.815610 0.000000 
#    z -0.003180 0.000000 1.841360 
# 
# From -- ./inp_files/50135.got.cif
#   From: 2010.05.17/outbox.cif.g08.bks.cpg/sg5_26_cif.got.tgz:50135.got - 2010.06.03 18:56:24.
