data_PCOD9125069
_publ_section_title
;
Structure prediction by ZEFSAII (Michael W. Deem and Ramdas Pophale) SiO2 
 PCOD9125069
Probable space group: C 2
;
_chemical_formula_sum "Si O2"
_cell_formula_units_Z 24
_cell_length_a 17.772525
_cell_length_b 7.707038
_cell_length_c 8.825147
_cell_angle_alpha 90.000000
_cell_angle_beta 126.710566
_cell_angle_gamma 90.000000
_cell_volume 969.062379
_symmetry_space_group_name_H-M "C 2"
_symmetry_group_IT_number 5
_symmetry_cell_setting 'monoclinic'
loop_
_space_group_symop_operation_xyz
x,y,z
-x,y,-z
1/2+x,1/2+y,z
1/2-x,1/2+y,-z
loop_
_atom_site_type_symbol
_atom_site_label
_atom_site_fract_x
_atom_site_fract_y
_atom_site_fract_z
Si Si1 0.751256 0.560390 0.476160
Si Si2 0.457184 0.673791 0.304602
Si Si3 0.964424 0.489649 0.782644
Si Si4 0.807006 0.196785 0.896910
Si Si5 0.208986 0.245967 0.687898
Si Si6 0.844478 0.581145 0.074294
O O1 0.697507 0.680636 0.288266
O O2 0.754233 0.379627 0.391133
O O3 0.697538 0.573785 0.570445
O O4 0.862906 0.576540 0.646675
O O5 0.500000 0.568851 0.500000
O O6 0.525184 0.804514 0.293557
O O7 0.381778 0.781712 0.318433
O O8 0.389877 0.598799 0.091543
O O9 0.044758 0.601030 0.796080
O O10 0.000000 0.469403 0.000000
O O11 0.820324 0.394985 0.967022
O O12 0.709104 0.115014 0.834241
O O13 0.293010 0.216502 0.904169
#
# Coordination Sequence:
#
# PCOD9125069 Si02
#       6
#     4   4   4   4   4   4
#     4  12  23  40  68  94 133 174 226 272 340 386
#     4  10  21  39  66  96 127 167 231 269 309 398
#     4  11  22  39  68  97 127 178 232 267 311 423
#     4  10  22  37  68  96 129 178 219 280 331 393
#     4  11  23  40  66  98 132 172 223 279 329 398
#     4  10  21  41  65  95 135 168 232 268 334 393
#
# _framework density 24.766207999999999
#
# number of rings (size 3 to 8) (size 9 to 14) (size 15 to 20)
#    0.000    1.333    3.333    4.000    2.333    0.000 
#    0.000    0.000   36.667    0.000    0.000    0.000 
#    0.000    0.000    0.000    0.000    0.000    0.000 
#
# Total GULP energy -66882.147992 kJ/mol
# GULP energy per Si atom -5573.512333 kJ/mol
# Density = 2.470984 g / cm^3
# Si number density = 24.766208 Si / 1000 Ang^3
#
#
#
# Elastic Constant Matrix: (Units=GPa)
#
#
# Indices 1 2 3 4 5 6 
#
# 1 136.1010 8.9877 33.0559 0.0000 -1.1035 0.0000
# 2 8.9877 26.4490 0.8606 0.0000 1.3759 0.0000
# 3 33.0559 0.8606 167.5903 0.0000 -18.1611 0.0000
# 4 0.0000 0.0000 0.0000 38.6541 0.0000 -3.1640
# 5 -1.1035 1.3759 -18.1611 0.0000 44.2814 0.0000
# 6 0.0000 0.0000 0.0000 -3.1640 0.0000 31.9824
#
#
#
# Elastic Compliance Matrix: (Units=1/GPa)
#
#
# Indices 1 2 3 4 5 6 
#
# 1 0.007902 -0.002614 -0.001586 0.000000 -0.000372 0.000000
# 2 -0.002614 0.038753 0.000187 0.000000 -0.001192 0.000000
# 3 -0.001586 0.000187 0.006566 0.000000 0.002647 0.000000
# 4 0.000000 0.000000 0.000000 0.026082 0.000000 0.002580
# 5 -0.000372 -0.001192 0.002647 0.000000 0.023696 0.000000
# 6 0.000000 0.000000 0.000000 0.002580 0.000000 0.031522
#
#
# Mechanical properties :
#
#
# Convention : Reuss Voigt Hill
#
# Bulk Modulus (GPa) = 22.12596 46.21654 34.17125
# Shear Modulus (GPa) = 31.72362 42.13267 36.92815
#
# Velocity S-wave (km/s) = 3.58288 4.12905 3.86563
# Velocity P-wave (km/s) = 5.10582 6.43691 5.80961
#
# Compressibility (1/GPa) = 0.04519578
#
# Stress axis : x y z
#
# Youngs Moduli (GPa) = 126.54693 25.80454 152.30913
#
# Poissons Ratio (x) = 0.06746 0.24149
# Poissons Ratio (y) = 0.33083 -0.02855
# Poissons Ratio (z) = 0.20065 -0.00484
#
# Static dielectric constant tensor:
#      x y z
#    x 1.952390 0.000000 0.036200 
#    y 0.000000 2.182590 0.000000 
#    z 0.036200 0.000000 2.067580 
# 
# From -- ./inp_files/29000.got.cif
#   From: 2010.05.17/outbox.cif.g08.bks.cpg/sg5_15_cif.got.tgz:29000.got - 2010.06.03 18:56:24.
