data_PCOD9125414
_publ_section_title
;
Structure prediction by ZEFSAII (Michael W. Deem and Ramdas Pophale) SiO2 
 PCOD9125414
Probable space group: C 2
;
_chemical_formula_sum "Si O2"
_cell_formula_units_Z 20
_cell_length_a 13.736527
_cell_length_b 12.009243
_cell_length_c 5.220976
_cell_angle_alpha 90.000000
_cell_angle_beta 77.957150
_cell_angle_gamma 90.000000
_cell_volume 842.324636
_symmetry_space_group_name_H-M "C 2"
_symmetry_group_IT_number 5
_symmetry_cell_setting 'monoclinic'
loop_
_space_group_symop_operation_xyz
x,y,z
-x,y,-z
1/2+x,1/2+y,z
1/2-x,1/2+y,-z
loop_
_atom_site_type_symbol
_atom_site_label
_atom_site_fract_x
_atom_site_fract_y
_atom_site_fract_z
Si Si1 0.300166 0.195420 0.011754
Si Si2 0.752973 0.880760 0.650353
Si Si3 0.604735 0.992034 0.067020
Si Si4 0.434621 0.332149 0.278667
Si Si5 0.391383 0.757461 0.637955
O O1 0.374981 0.223300 0.206455
O O2 0.185108 0.181570 0.159866
O O3 0.349732 0.098357 0.816302
O O4 0.299331 0.310560 0.855834
O O5 0.687610 0.977982 0.801095
O O6 0.841784 0.910907 0.410599
O O7 0.673717 0.796619 0.567031
O O8 0.500000 0.016329 0.000000
O O9 0.594552 0.875367 0.219440
O O10 0.500000 0.315589 0.500000
O O11 0.500000 0.370306 0.000000
O O12 0.500000 0.714157 0.500000
#
# Coordination Sequence:
#
# PCOD9125414 Si02
#       5
#     4   4   4   4   4
#     4  10  23  39  66 102 139 176 229 286 344 409
#     4  10  22  41  63  97 143 178 229 280 349 411
#     4  11  22  40  67 105 131 174 237 293 336 406
#     4  11  21  40  66  94 135 183 220 272 350 406
#     4  10  21  41  65  93 137 187 221 280 349 408
#
# _framework density 23.743815000000001
#
# number of rings (size 3 to 8) (size 9 to 14) (size 15 to 20)
#    0.000    1.600    4.000    0.600    0.000    3.200 
#    3.600    1.000    0.000    0.000    0.000    0.000 
#    0.000    0.000    0.000    0.000    0.000    0.000 
#
# Total GULP energy -55788.276405 kJ/mol
# GULP energy per Si atom -5578.827641 kJ/mol
# Density = 2.368977 g / cm^3
# Si number density = 23.743815 Si / 1000 Ang^3
#
#
#
# Elastic Constant Matrix: (Units=GPa)
#
#
# Indices 1 2 3 4 5 6 
#
# 1 164.5669 25.4202 64.7110 0.0000 -19.3637 0.0000
# 2 25.4202 41.0988 4.1566 0.0000 -10.1642 0.0000
# 3 64.7110 4.1566 111.3340 0.0000 -18.4394 0.0000
# 4 0.0000 0.0000 0.0000 12.0104 0.0000 -3.3241
# 5 -19.3637 -10.1642 -18.4394 0.0000 47.4965 0.0000
# 6 0.0000 0.0000 0.0000 -3.3241 0.0000 29.6154
#
#
#
# Elastic Compliance Matrix: (Units=1/GPa)
#
#
# Indices 1 2 3 4 5 6 
#
# 1 0.008790 -0.004779 -0.004816 0.000000 0.000691 0.000000
# 2 -0.004779 0.028290 0.002566 0.000000 0.005102 0.000000
# 3 -0.004816 0.002566 0.012238 0.000000 0.003337 0.000000
# 4 0.000000 0.000000 0.000000 0.085931 0.000000 0.009645
# 5 0.000691 0.005102 0.003337 0.000000 0.023723 0.000000
# 6 0.000000 0.000000 0.000000 0.009645 0.000000 0.034849
#
#
# Mechanical properties :
#
#
# Convention : Reuss Voigt Hill
#
# Bulk Modulus (GPa) = 28.36017 56.17504 42.26760
# Shear Modulus (GPa) = 22.76551 32.67190 27.71871
#
# Velocity S-wave (km/s) = 3.09980 3.71349 3.42044
# Velocity P-wave (km/s) = 4.97814 6.48821 5.78268
#
# Compressibility (1/GPa) = 0.03526072
#
# Stress axis : x y z
#
# Youngs Moduli (GPa) = 113.76847 35.34878 81.71226
#
# Poissons Ratio (x) = 0.16892 0.39353
# Poissons Ratio (y) = 0.54366 -0.20970
# Poissons Ratio (z) = 0.54791 -0.09072
#
# Static dielectric constant tensor:
#      x y z
#    x 1.913110 0.000000 -0.016290 
#    y 0.000000 1.922990 0.000000 
#    z -0.016290 0.000000 2.004060 
# 
# From -- ./inp_files/4744.got.cif
#   From: 2010.05.17/outbox.cif.g08.bks.cpg/sg5_3_cif.got.tgz:4744.got - 2010.06.03 18:56:24.
