data_PCOD9125347
_publ_section_title
;
Structure prediction by ZEFSAII (Michael W. Deem and Ramdas Pophale) SiO2 
 PCOD9125347
Probable space group: C 2
;
_chemical_formula_sum "Si O2"
_cell_formula_units_Z 20
_cell_length_a 9.164395
_cell_length_b 25.369176
_cell_length_c 7.425317
_cell_angle_alpha 90.000000
_cell_angle_beta 145.693851
_cell_angle_gamma 90.000000
_cell_volume 972.987978
_symmetry_space_group_name_H-M "C 2"
_symmetry_group_IT_number 5
_symmetry_cell_setting 'monoclinic'
loop_
_space_group_symop_operation_xyz
x,y,z
-x,y,-z
1/2+x,1/2+y,z
1/2-x,1/2+y,-z
loop_
_atom_site_type_symbol
_atom_site_label
_atom_site_fract_x
_atom_site_fract_y
_atom_site_fract_z
Si Si1 0.998263 0.287230 0.780267
Si Si2 0.501787 0.353474 0.719228
Si Si3 0.500000 0.016119 0.500000
Si Si4 0.070621 0.167637 0.284066
Si Si5 0.500000 0.444516 0.000000
Si Si6 0.078188 0.602884 0.881462
O O1 0.766747 0.326543 0.496623
O O2 0.951947 0.227609 0.671637
O O3 0.000000 0.284696 0.000000
O O4 0.269758 0.312474 0.003302
O O5 0.500000 0.361681 0.500000
O O6 0.541365 0.406745 0.870025
O O7 0.567821 0.054568 0.734094
O O8 0.251456 0.980340 0.286014
O O9 0.358161 0.145112 0.600133
O O10 0.856450 0.130872 0.158943
O O11 0.000000 0.166557 0.000000
O O12 0.000000 0.585003 0.000000
#
# Coordination Sequence:
#
# PCOD9125347 Si02
#       6
#     4   4   2   4   2   4
#     4   9  19  36  64  92 128 173 200 245 325 385
#     4  10  21  41  61  91 129 159 211 266 309 385
#     4  12  26  46  66  88 128 172 222 276 328 374
#     4  11  20  41  68  95 135 178 208 259 325 393
#     4  12  26  42  68  92 118 174 222 270 330 364
#     4  12  25  43  65  96 132 168 219 274 323 388
#
# _framework density 20.555237000000002
#
# number of rings (size 3 to 8) (size 9 to 14) (size 15 to 20)
#    0.000    1.200    2.000    4.200    0.000    4.800 
#   10.800    0.000    0.000    0.000    0.000    0.000 
#    0.000    0.000    0.000    0.000    0.000    0.000 
#
# Total GULP energy -55961.057223 kJ/mol
# GULP energy per Si atom -5596.105722 kJ/mol
# Density = 2.050845 g / cm^3
# Si number density = 20.555237 Si / 1000 Ang^3
#
#
#
# Elastic Constant Matrix: (Units=GPa)
#
#
# Indices 1 2 3 4 5 6 
#
# 1 63.9952 8.5125 -12.1624 0.0000 -18.0404 0.0000
# 2 8.5125 111.9337 18.4350 0.0000 -3.9090 0.0000
# 3 -12.1624 18.4350 77.1971 0.0000 16.0106 0.0000
# 4 0.0000 0.0000 0.0000 14.2178 0.0000 27.3234
# 5 -18.0404 -3.9090 16.0106 0.0000 29.2714 0.0000
# 6 0.0000 0.0000 0.0000 27.3234 0.0000 10.4848
#
#
#
# Elastic Compliance Matrix: (Units=1/GPa)
#
#
# Indices 1 2 3 4 5 6 
#
# 1 0.019098 -0.001233 0.001011 0.000000 0.011053 0.000000
# 2 -0.001233 0.009583 -0.002922 0.000000 0.002118 0.000000
# 3 0.001011 -0.002922 0.015524 0.000000 -0.008258 0.000000
# 4 0.000000 0.000000 0.000000 -0.017548 0.000000 0.045730
# 5 0.011053 0.002118 -0.008258 0.000000 0.045775 0.000000
# 6 0.000000 0.000000 0.000000 0.045730 0.000000 -0.023796
#
#
# Mechanical properties :
#
#
# Convention : Reuss Voigt Hill
#
# Bulk Modulus (GPa) = 26.37352 31.41069 28.89210
# Shear Modulus (GPa) = 74.00520 26.68418 50.34469
#
# Velocity S-wave (km/s) = 6.00677 3.60692 4.95435
# Velocity P-wave (km/s) = 7.80812 5.71496 6.84206
#
# Compressibility (1/GPa) = 0.03791682
#
# Stress axis : x y z
#
# Youngs Moduli (GPa) = 52.36113 104.35332 64.41790
#
# Poissons Ratio (x) = 0.12866 -0.06513
# Poissons Ratio (y) = 0.06456 0.18823
# Poissons Ratio (z) = -0.05294 0.30492
#
# Static dielectric constant tensor:
#      x y z
#    x 1.754070 0.000000 -0.038360 
#    y 0.000000 1.681460 0.000000 
#    z -0.038360 0.000000 1.709490 
# 
# From -- ./inp_files/2811.got.cif
#   From: 2010.05.17/outbox.cif.g08.bks.cpg/sg5_2_cif.got.tgz:2811.got - 2010.06.03 18:56:24.
