data_PCOD9125453
_publ_section_title
;
Structure prediction by ZEFSAII (Michael W. Deem and Ramdas Pophale) SiO2 
 PCOD9125453
Probable space group: C 2
;
_chemical_formula_sum "Si O2"
_cell_formula_units_Z 28
_cell_length_a 31.176663
_cell_length_b 8.106053
_cell_length_c 9.456877
_cell_angle_alpha 90.000000
_cell_angle_beta 32.020395
_cell_angle_gamma 90.000000
_cell_volume 1267.196065
_symmetry_space_group_name_H-M "C 2"
_symmetry_group_IT_number 5
_symmetry_cell_setting 'monoclinic'
loop_
_space_group_symop_operation_xyz
x,y,z
-x,y,-z
1/2+x,1/2+y,z
1/2-x,1/2+y,-z
loop_
_atom_site_type_symbol
_atom_site_label
_atom_site_fract_x
_atom_site_fract_y
_atom_site_fract_z
Si Si1 0.213795 0.183560 0.290459
Si Si2 0.014700 0.805578 0.612705
Si Si3 0.721939 0.441936 0.505851
Si Si4 0.923990 0.706056 0.131255
Si Si5 0.324807 0.476689 0.878051
Si Si6 0.403299 0.615468 0.933219
Si Si7 0.383035 0.844300 0.219472
O O1 0.130698 0.223397 0.608653
O O2 0.254954 0.058524 0.288376
O O3 0.204241 0.086399 0.171253
O O4 0.258913 0.356635 0.135561
O O5 0.108982 0.844156 0.366071
O O6 0.000000 0.732897 0.500000
O O7 0.976096 0.987822 0.724657
O O8 0.959638 0.706600 0.874144
O O9 0.660477 0.302275 0.619311
O O10 0.795425 0.375849 0.392393
O O11 0.664958 0.540721 0.772640
O O12 0.911963 0.516467 0.201913
O O13 0.000000 0.786370 0.000000
O O14 0.363571 0.599643 0.888588
O O15 0.430420 0.773188 0.950196
#
# Coordination Sequence:
#
# PCOD9125453 Si02
#       7
#     4   4   4   4   4   4   4
#     4  11  25  38  63  96 127 169 209 277 320 381
#     4   9  21  41  63  84 127 171 209 251 329 400
#     4  10  21  41  67  91 126 170 224 264 317 383
#     4  11  23  40  67  98 128 167 217 277 326 374
#     4  11  23  42  60  95 132 167 209 261 339 387
#     4   9  20  40  64  87 120 171 215 257 313 388
#     4  11  23  40  67  95 125 169 229 269 310 388
#
# _framework density 22.096026999999999
#
# number of rings (size 3 to 8) (size 9 to 14) (size 15 to 20)
#    0.000    1.714    1.429    2.571    6.000    2.286 
#    0.000    5.000    0.000    0.000    0.000    0.000 
#    0.000    0.000    0.000    0.000    0.000    0.000 
#
# Total GULP energy -78026.015461 kJ/mol
# GULP energy per Si atom -5573.286819 kJ/mol
# Density = 2.204574 g / cm^3
# Si number density = 22.096027 Si / 1000 Ang^3
#
#
#
# Elastic Constant Matrix: (Units=GPa)
#
#
# Indices 1 2 3 4 5 6 
#
# 1 66.5470 12.8622 18.8253 0.0000 8.5141 0.0000
# 2 12.8622 47.5891 5.4965 0.0000 14.1458 0.0000
# 3 18.8253 5.4965 64.4528 0.0000 20.7615 0.0000
# 4 0.0000 0.0000 0.0000 22.5276 0.0000 10.5350
# 5 8.5141 14.1458 20.7615 0.0000 34.7265 0.0000
# 6 0.0000 0.0000 0.0000 10.5350 0.0000 16.6140
#
#
#
# Elastic Compliance Matrix: (Units=1/GPa)
#
#
# Indices 1 2 3 4 5 6 
#
# 1 0.017138 -0.004186 -0.004761 0.000000 0.000350 0.000000
# 2 -0.004186 0.025027 0.002529 0.000000 -0.010680 0.000000
# 3 -0.004761 0.002529 0.020616 0.000000 -0.012188 0.000000
# 4 0.000000 0.000000 0.000000 0.063102 0.000000 -0.040013
# 5 0.000350 -0.010680 -0.012188 0.000000 0.040348 0.000000
# 6 0.000000 0.000000 0.000000 -0.040013 0.000000 0.085562
#
#
# Mechanical properties :
#
#
# Convention : Reuss Voigt Hill
#
# Bulk Modulus (GPa) = 20.02240 28.10631 24.06435
# Shear Modulus (GPa) = 17.77589 24.20063 20.98826
#
# Velocity S-wave (km/s) = 2.83942 3.31304 3.08533
# Velocity P-wave (km/s) = 4.45319 5.23285 4.85868
#
# Compressibility (1/GPa) = 0.04994407
#
# Stress axis : x y z
#
# Youngs Moduli (GPa) = 58.34905 39.95636 48.50511
#
# Poissons Ratio (x) = 0.16726 0.23096
# Poissons Ratio (y) = 0.24426 -0.12265
# Poissons Ratio (z) = 0.27783 -0.10104
#
# Static dielectric constant tensor:
#      x y z
#    x 1.908110 0.000000 0.044460 
#    y 0.000000 1.895690 0.000000 
#    z 0.044460 0.000000 1.964400 
# 
# From -- ./inp_files/32472.got.cif
#   From: 2010.05.17/outbox.cif.g08.bks.cpg/sg5_17_cif.got.tgz:32472.got - 2010.06.03 18:56:24.
