data_PCOD9125934
_publ_section_title
;
Structure prediction by ZEFSAII (Michael W. Deem and Ramdas Pophale) SiO2 
 PCOD9125934
Probable space group: C 2
;
_chemical_formula_sum "Si O2"
_cell_formula_units_Z 14
_cell_length_a 18.088287
_cell_length_b 4.946843
_cell_length_c 7.588992
_cell_angle_alpha 90.000000
_cell_angle_beta 46.300366
_cell_angle_gamma 90.000000
_cell_volume 490.942778
_symmetry_space_group_name_H-M "C 2"
_symmetry_group_IT_number 5
_symmetry_cell_setting 'monoclinic'
loop_
_space_group_symop_operation_xyz
x,y,z
-x,y,-z
1/2+x,1/2+y,z
1/2-x,1/2+y,-z
loop_
_atom_site_type_symbol
_atom_site_label
_atom_site_fract_x
_atom_site_fract_y
_atom_site_fract_z
Si Si1 0.847635 0.469940 0.221164
Si Si2 0.804007 0.639776 0.693327
Si Si3 0.500000 0.844566 0.500000
Si Si4 0.410587 0.477034 0.940457
O O1 0.824502 0.543588 0.457884
O O2 0.742927 0.435064 0.278099
O O3 0.920631 0.677756 0.997283
O O4 0.895250 0.173113 0.133024
O O5 0.904153 0.546009 0.630727
O O6 0.705558 0.495757 0.943481
O O7 0.482885 0.635210 0.689063
#
# Coordination Sequence:
#
# PCOD9125934 Si02
#       4
#     4   4   2   4
#     4  10  21  51  86 104 169 213 277 310 423 459
#     4  10  23  51  86 120 155 227 260 356 378 508
#     4  12  28  50  88 128 168 198 290 326 438 440
#     4  10  24  49  77 122 160 220 252 348 387 513
#
# _framework density 28.516558
#
# number of rings (size 3 to 8) (size 9 to 14) (size 15 to 20)
#    1.714    0.000    2.857    0.000    0.000    4.571 
#   10.286    2.857    0.000    0.000    0.000    0.000 
#    0.000    0.000    0.000    0.000    0.000    0.000 
#
# Total GULP energy -39139.658309 kJ/mol
# GULP energy per Si atom -5591.379758 kJ/mol
# Density = 2.845165 g / cm^3
# Si number density = 28.516558 Si / 1000 Ang^3
#
#
#
# Elastic Constant Matrix: (Units=GPa)
#
#
# Indices 1 2 3 4 5 6 
#
# 1 158.1161 15.3054 32.5271 0.0000 -23.8014 0.0000
# 2 15.3054 142.2023 10.1688 0.0000 3.0785 0.0000
# 3 32.5271 10.1688 107.3349 0.0000 1.8478 0.0000
# 4 0.0000 0.0000 0.0000 47.2403 0.0000 -3.9501
# 5 -23.8014 3.0785 1.8478 0.0000 69.3468 0.0000
# 6 0.0000 0.0000 0.0000 -3.9501 0.0000 9.5412
#
#
#
# Elastic Compliance Matrix: (Units=1/GPa)
#
#
# Indices 1 2 3 4 5 6 
#
# 1 0.007223 -0.000678 -0.002169 0.000000 0.002567 0.000000
# 2 -0.000678 0.007150 -0.000463 0.000000 -0.000538 0.000000
# 3 -0.002169 -0.000463 0.010035 0.000000 -0.000991 0.000000
# 4 0.000000 0.000000 0.000000 0.021927 0.000000 0.009078
# 5 0.002567 -0.000538 -0.000991 0.000000 0.015352 0.000000
# 6 0.000000 0.000000 0.000000 0.009078 0.000000 0.108567
#
#
# Mechanical properties :
#
#
# Convention : Reuss Voigt Hill
#
# Bulk Modulus (GPa) = 56.21545 58.18399 57.19972
# Shear Modulus (GPa) = 27.35205 48.53579 37.94392
#
# Velocity S-wave (km/s) = 3.10040 4.13003 3.65169
# Velocity P-wave (km/s) = 5.70725 6.57197 6.15481
#
# Compressibility (1/GPa) = 0.01778870
#
# Stress axis : x y z
#
# Youngs Moduli (GPa) = 138.45397 139.86161 99.65364
#
# Poissons Ratio (x) = 0.09481 0.21612
# Poissons Ratio (y) = 0.09385 0.04611
# Poissons Ratio (z) = 0.30027 0.06471
#
# Static dielectric constant tensor:
#      x y z
#    x 2.437290 0.000000 -0.110310 
#    y 0.000000 2.195980 0.000000 
#    z -0.110310 0.000000 2.162570 
# 
# From -- ./inp_files/28121.got.cif
#   From: 2010.05.17/outbox.cif.g08.bks.cpg/sg5_15_cif.got.tgz:28121.got - 2010.06.03 18:56:24.
