data_PCOD9125693
_publ_section_title
;
Structure prediction by ZEFSAII (Michael W. Deem and Ramdas Pophale) SiO2 
 PCOD9125693
Probable space group: C 2
;
_chemical_formula_sum "Si O2"
_cell_formula_units_Z 28
_cell_length_a 13.540980
_cell_length_b 10.842831
_cell_length_c 8.932304
_cell_angle_alpha 90.000000
_cell_angle_beta 55.124090
_cell_angle_gamma 90.000000
_cell_volume 1075.914819
_symmetry_space_group_name_H-M "C 2"
_symmetry_group_IT_number 5
_symmetry_cell_setting 'monoclinic'
loop_
_space_group_symop_operation_xyz
x,y,z
-x,y,-z
1/2+x,1/2+y,z
1/2-x,1/2+y,-z
loop_
_atom_site_type_symbol
_atom_site_label
_atom_site_fract_x
_atom_site_fract_y
_atom_site_fract_z
Si Si1 0.364494 0.293330 0.059076
Si Si2 0.777846 0.646469 0.863919
Si Si3 0.604991 0.040224 0.811992
Si Si4 0.113829 0.398212 0.296008
Si Si5 0.358220 0.482888 0.530820
Si Si6 0.394145 0.207218 0.478250
Si Si7 0.553541 0.625147 0.244613
O O1 0.353343 0.151238 0.117490
O O2 0.250264 0.362782 0.232731
O O3 0.500000 0.330511 0.000000
O O4 0.329456 0.266601 0.912954
O O5 0.855088 0.521032 0.823082
O O6 0.783262 0.676524 0.683273
O O7 0.000000 0.683597 0.500000
O O8 0.643498 0.608181 0.029811
O O9 0.586337 0.121593 0.679531
O O10 0.716885 0.959689 0.668397
O O11 0.500000 0.977909 0.000000
O O12 0.068323 0.270247 0.263623
O O13 0.000000 0.426343 0.500000
O O14 0.404896 0.351395 0.436302
O O15 0.415303 0.582665 0.367851
O O16 0.395161 0.540176 0.661781
#
# Coordination Sequence:
#
# PCOD9125693 Si02
#       7
#     4   4   4   4   4   4   4
#     4  10  22  42  69  97 135 190 234 277 357 429
#     4  11  25  41  70 110 140 181 243 294 350 417
#     4  11  24  44  69 102 141 183 234 286 359 417
#     4  11  21  40  70 101 141 176 237 296 339 424
#     4  11  22  47  72  99 140 188 240 287 350 439
#     4  12  26  44  70 107 141 184 239 294 342 423
#     4  10  21  42  73  97 133 193 238 271 364 422
#
# _framework density 26.024362
#
# number of rings (size 3 to 8) (size 9 to 14) (size 15 to 20)
#    0.000    1.143    5.714    2.143    4.000    3.429 
#    0.000    5.000    0.000    0.000    0.000    0.000 
#    0.000    0.000    0.000    0.000    0.000    0.000 
#
# Total GULP energy -78038.638271 kJ/mol
# GULP energy per Si atom -5574.188448 kJ/mol
# Density = 2.596513 g / cm^3
# Si number density = 26.024362 Si / 1000 Ang^3
#
#
#
# Elastic Constant Matrix: (Units=GPa)
#
#
# Indices 1 2 3 4 5 6 
#
# 1 73.1808 19.4189 48.3388 0.0000 -12.3389 0.0000
# 2 19.4189 91.3725 38.8976 0.0000 -5.2130 0.0000
# 3 48.3388 38.8976 229.4375 0.0000 -37.1168 0.0000
# 4 0.0000 0.0000 0.0000 35.2275 0.0000 -8.6320
# 5 -12.3389 -5.2130 -37.1168 0.0000 44.7265 0.0000
# 6 0.0000 0.0000 0.0000 -8.6320 0.0000 10.5588
#
#
#
# Elastic Compliance Matrix: (Units=1/GPa)
#
#
# Indices 1 2 3 4 5 6 
#
# 1 0.016407 -0.002197 -0.002765 0.000000 0.001976 0.000000
# 2 -0.002197 0.012094 -0.001683 0.000000 -0.000594 0.000000
# 3 -0.002765 -0.001683 0.005858 0.000000 0.003902 0.000000
# 4 0.000000 0.000000 0.000000 0.035498 0.000000 0.029021
# 5 0.001976 -0.000594 0.003902 0.000000 0.026072 0.000000
# 6 0.000000 0.000000 0.000000 0.029021 0.000000 0.118433
#
#
# Mechanical properties :
#
#
# Convention : Reuss Voigt Hill
#
# Bulk Modulus (GPa) = 47.46509 67.47795 57.47152
# Shear Modulus (GPa) = 21.30604 37.25825 29.28214
#
# Velocity S-wave (km/s) = 2.86439 3.78784 3.35801
# Velocity P-wave (km/s) = 5.40536 6.71680 6.09645
#
# Compressibility (1/GPa) = 0.02106812
#
# Stress axis : x y z
#
# Youngs Moduli (GPa) = 60.94922 82.68580 170.71877
#
# Poissons Ratio (x) = 0.18169 0.47196
# Poissons Ratio (y) = 0.13392 0.28740
# Poissons Ratio (z) = 0.16850 0.13920
#
# Static dielectric constant tensor:
#      x y z
#    x 2.214210 0.000000 -0.072850 
#    y 0.000000 1.997850 0.000000 
#    z -0.072850 0.000000 2.295980 
# 
# From -- ./inp_files/46375.got.cif
#   From: 2010.05.17/outbox.cif.g08.bks.cpg/sg5_24_cif.got.tgz:46375.got - 2010.06.03 18:56:24.
