data_PCOD9125360
_publ_section_title
;
Structure prediction by ZEFSAII (Michael W. Deem and Ramdas Pophale) SiO2 
 PCOD9125360
Probable space group: C 2
;
_chemical_formula_sum "Si O2"
_cell_formula_units_Z 26
_cell_length_a 13.567218
_cell_length_b 12.290780
_cell_length_c 9.393663
_cell_angle_alpha 90.000000
_cell_angle_beta 44.480746
_cell_angle_gamma 90.000000
_cell_volume 1097.535211
_symmetry_space_group_name_H-M "C 2"
_symmetry_group_IT_number 5
_symmetry_cell_setting 'monoclinic'
loop_
_space_group_symop_operation_xyz
x,y,z
-x,y,-z
1/2+x,1/2+y,z
1/2-x,1/2+y,-z
loop_
_atom_site_type_symbol
_atom_site_label
_atom_site_fract_x
_atom_site_fract_y
_atom_site_fract_z
Si Si1 0.253531 0.232650 0.372855
Si Si2 0.531334 0.973268 0.123789
Si Si3 0.516382 0.725441 0.141723
Si Si4 0.848282 0.463197 0.576798
Si Si5 0.129977 0.695115 0.469000
Si Si6 0.190021 0.080057 0.168710
Si Si7 0.500000 0.402227 0.500000
O O1 0.246429 0.354698 0.313955
O O2 0.382884 0.204247 0.345289
O O3 0.219920 0.145457 0.285189
O O4 0.129533 0.229108 0.620288
O O5 0.572944 0.847514 0.066585
O O6 0.398099 0.972237 0.361769
O O7 0.500000 0.015882 0.000000
O O8 0.664850 0.036203 0.044163
O O9 0.622280 0.661172 0.128943
O O10 0.500000 0.682836 0.000000
O O11 0.783341 0.584508 0.660847
O O12 0.000000 0.440739 0.500000
O O13 0.125805 0.824059 0.431189
O O14 0.000000 0.665336 0.500000
O O15 0.080387 0.982336 0.309625
#
# Coordination Sequence:
#
# PCOD9125360 Si02
#       7
#     4   4   4   4   4   4   2
#     4  11  21  39  69  94 128 175 224 266 327 395
#     4  10  23  38  65  94 130 172 214 266 329 391
#     4  10  23  40  62  98 128 173 218 266 327 393
#     4  10  21  41  62  95 126 165 226 266 322 397
#     4   9  23  36  60  93 128 166 213 270 323 389
#     4  12  23  43  68  96 137 168 225 277 328 391
#     4  10  24  40  60  98 126 180 214 276 338 388
#
# _framework density 23.689444000000002
#
# number of rings (size 3 to 8) (size 9 to 14) (size 15 to 20)
#    0.462    1.231    1.538    2.769    8.615    3.692 
#    0.000    1.538    0.000    0.923    0.000    0.000 
#    0.000    0.000    0.000    0.000    0.000    0.000 
#
# Total GULP energy -72402.249619 kJ/mol
# GULP energy per Si atom -5569.403817 kJ/mol
# Density = 2.363553 g / cm^3
# Si number density = 23.689444 Si / 1000 Ang^3
#
#
#
# Elastic Constant Matrix: (Units=GPa)
#
#
# Indices 1 2 3 4 5 6 
#
# 1 71.7430 46.3138 17.7032 0.0000 28.9129 0.0000
# 2 46.3138 126.6149 5.6893 0.0000 2.4643 0.0000
# 3 17.7032 5.6893 65.5926 0.0000 9.5571 0.0000
# 4 0.0000 0.0000 0.0000 -0.3528 0.0000 0.6577
# 5 28.9129 2.4643 9.5571 0.0000 42.5007 0.0000
# 6 0.0000 0.0000 0.0000 0.6577 0.0000 35.2306
#
#
#
# Elastic Compliance Matrix: (Units=1/GPa)
#
#
# Indices 1 2 3 4 5 6 
#
# 1 0.028633 -0.009933 -0.004251 0.000000 -0.017947 0.000000
# 2 -0.009933 0.011379 0.000833 0.000000 0.005910 0.000000
# 3 -0.004251 0.000833 0.016445 0.000000 -0.000854 0.000000
# 4 0.000000 0.000000 0.000000 -2.738823 0.000000 0.051130
# 5 -0.017947 0.005910 -0.000854 0.000000 0.035587 0.000000
# 6 0.000000 0.000000 0.000000 0.051130 0.000000 0.027430
#
#
# Mechanical properties :
#
#
# Convention : Reuss Voigt Hill
#
# Bulk Modulus (GPa) = 33.60959 44.81812 39.21386
# Shear Modulus (GPa) = -1.93594 28.42529 13.24468
#
# Velocity S-wave (km/s) = -0.90498 3.46774 2.36709
# Velocity P-wave (km/s) = 3.62304 5.91555 4.90510
#
# Compressibility (1/GPa) = 0.02975342
#
# Stress axis : x y z
#
# Youngs Moduli (GPa) = 34.92525 87.88220 60.80770
#
# Poissons Ratio (x) = 0.87294 0.25852
# Poissons Ratio (y) = 0.34691 -0.05064
# Poissons Ratio (z) = 0.14848 -0.07318
#
# Static dielectric constant tensor:
#      x y z
#    x 2.095410 0.000000 -0.078100 
#    y 0.000000 1.976600 0.000000 
#    z -0.078100 0.000000 1.963780 
# 
# From -- ./inp_files/23548.got.cif
#   From: 2010.05.17/outbox.cif.g08.bks.cpg/sg5_12_cif.got.tgz:23548.got - 2010.06.03 18:56:24.
