data_PCOD9125189
_publ_section_title
;
Structure prediction by ZEFSAII (Michael W. Deem and Ramdas Pophale) SiO2 
 PCOD9125189
Probable space group: C 2
;
_chemical_formula_sum "Si O2"
_cell_formula_units_Z 24
_cell_length_a 14.685511
_cell_length_b 13.223255
_cell_length_c 8.480142
_cell_angle_alpha 90.000000
_cell_angle_beta 39.130249
_cell_angle_gamma 90.000000
_cell_volume 1039.246842
_symmetry_space_group_name_H-M "C 2"
_symmetry_group_IT_number 5
_symmetry_cell_setting 'monoclinic'
loop_
_space_group_symop_operation_xyz
x,y,z
-x,y,-z
1/2+x,1/2+y,z
1/2-x,1/2+y,-z
loop_
_atom_site_type_symbol
_atom_site_label
_atom_site_fract_x
_atom_site_fract_y
_atom_site_fract_z
Si Si1 0.500000 0.462670 0.500000
Si Si2 0.887239 0.874308 0.345520
Si Si3 0.063832 0.306638 0.749922
Si Si4 0.000000 0.288973 0.500000
Si Si5 0.021243 0.676786 0.657279
Si Si6 0.269153 0.612677 0.817861
Si Si7 0.815890 0.092646 0.392528
O O1 0.410335 0.399725 0.497639
O O2 0.383868 0.534981 0.739994
O O3 0.729710 0.835111 0.521758
O O4 0.986140 0.773792 0.211082
O O5 0.887409 0.983931 0.262880
O O6 0.067980 0.183753 0.753421
O O7 0.998463 0.342688 0.671920
O O8 0.000000 0.345438 0.000000
O O9 0.856535 0.218641 0.699338
O O10 0.000000 0.699824 0.500000
O O11 0.178439 0.625109 0.471356
O O12 0.883169 0.612264 0.893735
O O13 0.253831 0.584826 0.654372
#
# Coordination Sequence:
#
# PCOD9125189 Si02
#       7
#     2   4   4   2   4   4   4
#     4   9  18  38  64  91 116 174 224 257 324 409
#     4  10  21  40  63  96 127 171 226 263 329 403
#     4  10  22  39  67  94 131 175 221 276 331 394
#     4   9  20  38  60  91 128 164 216 265 330 385
#     4  11  22  37  66  97 129 163 218 273 324 388
#     4   9  19  37  66  85 119 170 210 261 325 386
#     4   9  21  42  61  90 128 168 219 263 333 397
#
# _framework density 23.093648000000002
#
# number of rings (size 3 to 8) (size 9 to 14) (size 15 to 20)
#    0.000    2.333    0.833    1.500    4.667    2.667 
#    1.500    5.000    0.000    0.000    0.000    0.000 
#    0.000    0.000    0.000    0.000    0.000    0.000 
#
# Total GULP energy -66840.359349 kJ/mol
# GULP energy per Si atom -5570.029946 kJ/mol
# Density = 2.304109 g / cm^3
# Si number density = 23.093648 Si / 1000 Ang^3
#
#
#
# Elastic Constant Matrix: (Units=GPa)
#
#
# Indices 1 2 3 4 5 6 
#
# 1 155.6197 22.9911 27.5291 0.0000 12.2601 0.0000
# 2 22.9911 62.7461 -1.2568 0.0000 6.4162 0.0000
# 3 27.5291 -1.2568 74.1829 0.0000 19.3855 0.0000
# 4 0.0000 0.0000 0.0000 -80.7467 0.0000 82.5431
# 5 12.2601 6.4162 19.3855 0.0000 24.6586 0.0000
# 6 0.0000 0.0000 0.0000 82.5431 0.0000 -58.8513
#
#
#
# Elastic Compliance Matrix: (Units=1/GPa)
#
#
# Indices 1 2 3 4 5 6 
#
# 1 0.007337 -0.002638 -0.002509 0.000000 -0.000989 0.000000
# 2 -0.002638 0.017504 0.002672 0.000000 -0.005343 0.000000
# 3 -0.002509 0.002672 0.018013 0.000000 -0.013609 0.000000
# 4 0.000000 0.000000 0.000000 0.028550 0.000000 0.040044
# 5 -0.000989 -0.005343 -0.013609 0.000000 0.053135 0.000000
# 6 0.000000 0.000000 0.000000 0.040044 0.000000 0.039172
#
#
# Mechanical properties :
#
#
# Convention : Reuss Voigt Hill
#
# Bulk Modulus (GPa) = 26.38258 43.45284 34.91771
# Shear Modulus (GPa) = 27.57926 -6.76887 10.40519
#
# Velocity S-wave (km/s) = 3.45952 -1.71389 2.12495
# Velocity P-wave (km/s) = 5.23514 3.86526 4.60146
#
# Compressibility (1/GPa) = 0.03790380
#
# Stress axis : x y z
#
# Youngs Moduli (GPa) = 136.28821 57.13107 55.51626
#
# Poissons Ratio (x) = 0.15069 0.13929
# Poissons Ratio (y) = 0.35948 -0.14832
# Poissons Ratio (z) = 0.34195 -0.15264
#
# Static dielectric constant tensor:
#      x y z
#    x 1.854190 0.000000 0.043340 
#    y 0.000000 1.983860 0.000000 
#    z 0.043340 0.000000 1.865900 
# 
# From -- ./inp_files/24519.got.cif
#   From: 2010.05.17/outbox.cif.g08.bks.cpg/sg5_13_cif.got.tgz:24519.got - 2010.06.03 18:56:24.
