data_PCOD9125820
_publ_section_title
;
Structure prediction by ZEFSAII (Michael W. Deem and Ramdas Pophale) SiO2 
 PCOD9125820
Probable space group: C 2
;
_chemical_formula_sum "Si O2"
_cell_formula_units_Z 28
_cell_length_a 10.709253
_cell_length_b 8.660449
_cell_length_c 14.324806
_cell_angle_alpha 90.000000
_cell_angle_beta 79.636815
_cell_angle_gamma 90.000000
_cell_volume 1306.909102
_symmetry_space_group_name_H-M "C 2"
_symmetry_group_IT_number 5
_symmetry_cell_setting 'monoclinic'
loop_
_space_group_symop_operation_xyz
x,y,z
-x,y,-z
1/2+x,1/2+y,z
1/2-x,1/2+y,-z
loop_
_atom_site_type_symbol
_atom_site_label
_atom_site_fract_x
_atom_site_fract_y
_atom_site_fract_z
Si Si1 0.540034 0.807760 0.897033
Si Si2 0.718621 0.636229 0.116178
Si Si3 0.802002 0.768365 0.923599
Si Si4 0.050900 0.383621 0.393124
Si Si5 0.331373 0.864555 0.308235
Si Si6 0.576809 0.196570 0.276437
Si Si7 0.204849 0.702211 0.680041
O O1 0.419886 0.711195 0.880219
O O2 0.662072 0.706520 0.911114
O O3 0.594837 0.894746 0.799913
O O4 0.500000 0.889816 0.000000
O O5 0.706176 0.453573 0.093080
O O6 0.759531 0.678446 0.215449
O O7 0.811733 0.717999 0.028886
O O8 0.900262 0.697085 0.837954
O O9 0.075220 0.528624 0.322433
O O10 0.182774 0.295088 0.382076
O O11 0.000000 0.433824 0.500000
O O12 0.937322 0.285828 0.359008
O O13 0.300037 0.028310 0.358216
O O14 0.199595 0.782133 0.302620
O O15 0.437366 0.268229 0.311693
#
# Coordination Sequence:
#
# PCOD9125820 Si02
#       7
#     4   4   4   4   4   4   4
#     4   9  18  35  62  87 128 176 208 248 314 373
#     4  11  21  39  63  93 136 177 218 259 314 389
#     4  10  23  39  61  97 133 176 216 257 326 381
#     4  11  26  45  69  96 125 171 223 274 334 385
#     4  10  21  44  66  92 134 170 211 272 324 386
#     4  10  24  43  66  97 134 168 215 272 329 386
#     4  11  23  41  67  96 129 170 223 265 324 391
#
# _framework density 21.424596000000001
#
# number of rings (size 3 to 8) (size 9 to 14) (size 15 to 20)
#    0.000    1.714    4.286    0.000    2.000    7.429 
#    5.143    0.714    0.000    0.000    0.000    0.000 
#    0.000    0.000    0.000    0.000    0.000    0.000 
#
# Total GULP energy -78047.679452 kJ/mol
# GULP energy per Si atom -5574.834247 kJ/mol
# Density = 2.137583 g / cm^3
# Si number density = 21.424596 Si / 1000 Ang^3
#
#
#
# Elastic Constant Matrix: (Units=GPa)
#
#
# Indices 1 2 3 4 5 6 
#
# 1 147.8931 29.7131 6.6191 0.0000 -23.4378 0.0000
# 2 29.7131 63.4236 26.5486 0.0000 -21.6589 0.0000
# 3 6.6191 26.5486 59.4078 0.0000 -19.5039 0.0000
# 4 0.0000 0.0000 0.0000 15.4092 0.0000 -6.1864
# 5 -23.4378 -21.6589 -19.5039 0.0000 28.8705 0.0000
# 6 0.0000 0.0000 0.0000 -6.1864 0.0000 31.6681
#
#
#
# Elastic Compliance Matrix: (Units=1/GPa)
#
#
# Indices 1 2 3 4 5 6 
#
# 1 0.008179 -0.002690 0.002324 0.000000 0.006192 0.000000
# 2 -0.002690 0.023559 -0.006609 0.000000 0.011025 0.000000
# 3 0.002324 -0.006609 0.023797 0.000000 0.013005 0.000000
# 4 0.000000 0.000000 0.000000 0.070419 0.000000 0.013756
# 5 0.006192 0.011025 0.013005 0.000000 0.056721 0.000000
# 6 0.000000 0.000000 0.000000 0.013756 0.000000 0.034265
#
#
# Mechanical properties :
#
#
# Convention : Reuss Voigt Hill
#
# Bulk Modulus (GPa) = 24.04727 44.05402 34.05064
# Shear Modulus (GPa) = 20.42885 29.04581 24.73733
#
# Velocity S-wave (km/s) = 3.09127 3.68601 3.40166
# Velocity P-wave (km/s) = 4.89793 6.22274 5.59966
#
# Compressibility (1/GPa) = 0.04158476
#
# Stress axis : x y z
#
# Youngs Moduli (GPa) = 122.25853 42.44699 42.02241
#
# Poissons Ratio (x) = 0.11419 -0.09765
# Poissons Ratio (y) = 0.32889 0.27771
# Poissons Ratio (z) = -0.28409 0.28052
#
# Static dielectric constant tensor:
#      x y z
#    x 1.857650 0.000000 0.031180 
#    y 0.000000 1.782280 0.000000 
#    z 0.031180 0.000000 1.813200 
# 
# From -- ./inp_files/52233.got.cif
#   From: 2010.05.17/outbox.cif.g08.bks.cpg/sg5_27_cif.got.tgz:52233.got - 2010.06.03 18:56:24.
