data_PCOD9125990
_publ_section_title
;
Structure prediction by ZEFSAII (Michael W. Deem and Ramdas Pophale) SiO2 
 PCOD9125990
Probable space group: C 2
;
_chemical_formula_sum "Si O2"
_cell_formula_units_Z 32
_cell_length_a 11.539594
_cell_length_b 14.537196
_cell_length_c 12.293592
_cell_angle_alpha 90.000000
_cell_angle_beta 142.502124
_cell_angle_gamma 90.000000
_cell_volume 1255.382633
_symmetry_space_group_name_H-M "C 2"
_symmetry_group_IT_number 5
_symmetry_cell_setting 'monoclinic'
loop_
_space_group_symop_operation_xyz
x,y,z
-x,y,-z
1/2+x,1/2+y,z
1/2-x,1/2+y,-z
loop_
_atom_site_type_symbol
_atom_site_label
_atom_site_fract_x
_atom_site_fract_y
_atom_site_fract_z
Si Si1 0.721646 0.959180 0.409453
Si Si2 0.862703 0.142063 0.553147
Si Si3 0.478543 0.204479 0.858958
Si Si4 0.485067 0.826501 0.363440
Si Si5 0.286041 0.188139 0.319868
Si Si6 0.794245 0.379170 0.828760
Si Si7 0.682498 0.069904 0.865678
Si Si8 0.861807 0.892775 0.047216
O O1 0.672315 0.868601 0.442676
O O2 0.777677 0.930076 0.330978
O O3 0.879057 0.032632 0.561905
O O4 0.516917 0.013498 0.266222
O O5 0.705037 0.170437 0.344758
O O6 0.024313 0.215966 0.649753
O O7 0.794244 0.161469 0.624025
O O8 0.653620 0.158635 0.921436
O O9 0.500000 0.175077 0.000000
O O10 0.479493 0.315922 0.856465
O O11 0.500000 0.856312 0.500000
O O12 0.306625 0.860173 0.160087
O O13 0.500000 0.221898 0.500000
O O14 0.179837 0.273910 0.188837
O O15 0.299136 0.105756 0.243304
O O16 0.687971 0.381649 0.863122
O O17 0.000000 0.423084 0.000000
O O18 0.857757 0.002166 0.022591
#
# Coordination Sequence:
#
# PCOD9125990 Si02
#       8
#     4   4   4   4   4   4   4   4
#     4  10  22  36  65  92 120 163 211 245 305 371
#     4  11  23  41  65  94 122 166 209 258 308 368
#     4  11  23  41  63  92 127 161 204 255 314 367
#     4  11  23  41  63  92 127 161 204 255 314 367
#     4  12  21  41  67  93 126 161 212 260 306 368
#     4  12  21  41  67  93 126 161 212 260 306 368
#     4  10  22  36  65  92 120 163 211 245 305 371
#     4  11  23  41  65  94 122 166 209 258 308 368
#
# _framework density 25.490234000000001
#
# number of rings (size 3 to 8) (size 9 to 14) (size 15 to 20)
#    0.000    1.000    7.500    0.750    7.000    0.000 
#    0.000    2.500    0.000    0.000    0.000    0.000 
#    0.000    0.000    0.000    0.000    0.000    0.000 
#
# Total GULP energy -89495.131979 kJ/mol
# GULP energy per Si atom -5593.445749 kJ/mol
# Density = 2.543222 g / cm^3
# Si number density = 25.490234 Si / 1000 Ang^3
#
#
#
# Elastic Constant Matrix: (Units=GPa)
#
#
# Indices 1 2 3 4 5 6 
#
# 1 103.5045 29.2875 58.9946 -0.0004 -59.0128 -0.0004
# 2 29.2875 89.9931 32.2748 -0.0002 -1.6441 -0.0002
# 3 58.9946 32.2748 140.1300 -0.0004 -40.3941 -0.0006
# 4 -0.0004 -0.0002 -0.0004 32.0639 -0.0004 4.1396
# 5 -59.0128 -1.6441 -40.3941 -0.0004 52.6781 -0.0004
# 6 -0.0004 -0.0002 -0.0006 4.1396 -0.0004 21.1300
#
#
#
# Elastic Compliance Matrix: (Units=1/GPa)
#
#
# Indices 1 2 3 4 5 6 
#
# 1 0.034681 -0.010063 -0.001507 0.000001 0.037382 0.000001
# 2 -0.010063 0.015246 -0.003065 0.000000 -0.013147 0.000000
# 3 -0.001507 -0.003065 0.010222 0.000000 0.006054 0.000000
# 4 0.000001 0.000000 0.000000 0.031997 0.000001 -0.006269
# 5 0.037382 -0.013147 0.006054 0.000001 0.065092 0.000002
# 6 0.000001 0.000000 0.000000 -0.006269 0.000002 0.048554
#
#
# Mechanical properties :
#
#
# Convention : Reuss Voigt Hill
#
# Bulk Modulus (GPa) = 32.38517 63.86013 48.12265
# Shear Modulus (GPa) = 20.37866 35.37912 27.87889
#
# Velocity S-wave (km/s) = 2.83056 3.72956 3.31071
# Velocity P-wave (km/s) = 4.83893 6.60707 5.79088
#
# Compressibility (1/GPa) = 0.03087833
#
# Stress axis : x y z
#
# Youngs Moduli (GPa) = 28.83429 65.59159 97.83011
#
# Poissons Ratio (x) = 0.66006 0.14745
# Poissons Ratio (y) = 0.29016 0.29983
# Poissons Ratio (z) = 0.04346 0.20102
#
# Static dielectric constant tensor:
#      x y z
#    x 2.055840 0.000000 0.069370 
#    y 0.000000 2.062440 0.000000 
#    z 0.069370 0.000000 2.176010 
# 
# From -- ./inp_files/43099.got.cif
#   From: 2010.05.17/outbox.cif.g08.bks.cpg/sg5_22_cif.got.tgz:43099.got - 2010.06.03 18:56:24.
