data_PCOD9125263
_publ_section_title
;
Structure prediction by ZEFSAII (Michael W. Deem and Ramdas Pophale) SiO2 
 PCOD9125263
Probable space group: C 2
;
_chemical_formula_sum "Si O2"
_cell_formula_units_Z 30
_cell_length_a 8.477897
_cell_length_b 27.163828
_cell_length_c 8.414230
_cell_angle_alpha 90.000000
_cell_angle_beta 128.122363
_cell_angle_gamma 90.000000
_cell_volume 1524.401598
_symmetry_space_group_name_H-M "C 2"
_symmetry_group_IT_number 5
_symmetry_cell_setting 'monoclinic'
loop_
_space_group_symop_operation_xyz
x,y,z
-x,y,-z
1/2+x,1/2+y,z
1/2-x,1/2+y,-z
loop_
_atom_site_type_symbol
_atom_site_label
_atom_site_fract_x
_atom_site_fract_y
_atom_site_fract_z
Si Si1 0.703103 0.222760 0.547232
Si Si2 0.080515 0.036674 0.837235
Si Si3 0.661508 0.006521 0.731317
Si Si4 0.540020 0.807042 0.211678
Si Si5 0.932285 0.421416 0.769294
Si Si6 0.959974 0.148363 0.284592
Si Si7 0.500000 0.468331 0.500000
Si Si8 0.216614 0.737491 0.179200
O O1 0.500000 0.206206 0.500000
O O2 0.755889 0.276841 0.642694
O O3 0.714047 0.229558 0.365391
O O4 0.867277 0.181352 0.686746
O O5 0.041734 0.093861 0.783101
O O6 0.880457 0.010466 0.785851
O O7 0.280004 0.034263 0.069132
O O8 0.097057 0.005449 0.688497
O O9 0.500000 0.024976 0.500000
O O10 0.571822 0.955318 0.743039
O O11 0.541962 0.864074 0.256605
O O12 0.381884 0.775503 0.217448
O O13 0.500000 0.804326 0.000000
O O14 0.698854 0.435744 0.589367
O O15 0.000000 0.427487 0.000000
O O16 0.765984 0.183186 0.140242
O O17 0.000000 0.144997 0.500000
O O18 0.000000 0.756184 0.000000
#
# Coordination Sequence:
#
# PCOD9125263 Si02
#       8
#     4   4   4   4   4   4   2   4
#     4  10  21  40  66  95 126 165 211 266 326 399
#     4  11  23  43  66  95 130 176 215 272 324 384
#     4  11  24  43  61  94 136 167 222 267 323 387
#     4  10  22  41  66  92 129 163 213 270 328 389
#     4  11  24  44  66  96 128 173 216 273 329 390
#     4   9  20  41  65  90 128 164 215 267 323 383
#     4  12  22  42  72  92 132 168 222 270 326 386
#     4  10  21  43  63  96 127 167 211 265 329 395
#
# _framework density 19.679853000000001
#
# number of rings (size 3 to 8) (size 9 to 14) (size 15 to 20)
#    0.000    1.600    3.333    2.000    0.933    1.600 
#   24.000    0.000    0.000    0.000    0.000    0.000 
#    0.000    0.000    0.000    0.000    0.000    0.000 
#
# Total GULP energy -83507.789316 kJ/mol
# GULP energy per Si atom -5567.185954 kJ/mol
# Density = 1.963506 g / cm^3
# Si number density = 19.679853 Si / 1000 Ang^3
#
#
#
# Elastic Constant Matrix: (Units=GPa)
#
#
# Indices 1 2 3 4 5 6 
#
# 1 77.5763 53.2586 13.7519 0.0000 7.1262 0.0000
# 2 53.2586 133.7395 33.0644 0.0000 3.6923 0.0000
# 3 13.7519 33.0644 97.8493 0.0000 8.6936 0.0000
# 4 0.0000 0.0000 0.0000 58.0342 0.0000 -30.5123
# 5 7.1262 3.6923 8.6936 0.0000 25.0142 0.0000
# 6 0.0000 0.0000 0.0000 -30.5123 0.0000 40.1517
#
#
#
# Elastic Compliance Matrix: (Units=1/GPa)
#
#
# Indices 1 2 3 4 5 6 
#
# 1 0.018160 -0.007176 0.000246 0.000000 -0.004200 0.000000
# 2 -0.007176 0.010996 -0.002832 0.000000 0.001406 0.000000
# 3 0.000246 -0.002832 0.011465 0.000000 -0.003637 0.000000
# 4 0.000000 0.000000 0.000000 0.028697 0.000000 0.021807
# 5 -0.004200 0.001406 -0.003637 0.000000 0.042230 0.000000
# 6 0.000000 0.000000 0.000000 0.021807 0.000000 0.041478
#
#
# Mechanical properties :
#
#
# Convention : Reuss Voigt Hill
#
# Bulk Modulus (GPa) = 47.40207 56.59052 51.99630
# Shear Modulus (GPa) = 27.84223 38.57935 33.21079
#
# Velocity S-wave (km/s) = 3.76541 4.43238 4.11244
# Velocity P-wave (km/s) = 6.56074 7.41705 7.00200
#
# Compressibility (1/GPa) = 0.02109612
#
# Stress axis : x y z
#
# Youngs Moduli (GPa) = 55.06726 90.93827 87.21932
#
# Poissons Ratio (x) = 0.65262 -0.02145
# Poissons Ratio (y) = 0.39519 0.24702
# Poissons Ratio (z) = -0.01354 0.25755
#
# Static dielectric constant tensor:
#      x y z
#    x 1.659330 0.000000 0.042930 
#    y 0.000000 1.656570 0.000000 
#    z 0.042930 0.000000 1.655800 
# 
# From -- ./inp_files/17448.got.cif
#   From: 2010.05.17/outbox.cif.g08.bks.cpg/sg5_9_cif.got.tgz:17448.got - 2010.06.03 18:56:24.
