data_PCOD9125598
_publ_section_title
;
Structure prediction by ZEFSAII (Michael W. Deem and Ramdas Pophale) SiO2 
 PCOD9125598
Probable space group: C 2
;
_chemical_formula_sum "Si O2"
_cell_formula_units_Z 26
_cell_length_a 11.452904
_cell_length_b 15.448922
_cell_length_c 7.765829
_cell_angle_alpha 90.000000
_cell_angle_beta 117.063879
_cell_angle_gamma 90.000000
_cell_volume 1223.588703
_symmetry_space_group_name_H-M "C 2"
_symmetry_group_IT_number 5
_symmetry_cell_setting 'monoclinic'
loop_
_space_group_symop_operation_xyz
x,y,z
-x,y,-z
1/2+x,1/2+y,z
1/2-x,1/2+y,-z
loop_
_atom_site_type_symbol
_atom_site_label
_atom_site_fract_x
_atom_site_fract_y
_atom_site_fract_z
Si Si1 0.300495 0.555280 0.773786
Si Si2 0.736663 0.909456 0.995395
Si Si3 0.657199 0.743884 0.086012
Si Si4 0.000000 0.507932 0.000000
Si Si5 0.588403 0.115944 0.385007
Si Si6 0.016163 0.964724 0.317365
Si Si7 0.362202 0.299023 0.512779
O O1 0.299031 0.643226 0.885715
O O2 0.218749 0.572128 0.545010
O O3 0.443654 0.535231 0.794132
O O4 0.241821 0.473753 0.836367
O O5 0.702021 0.807636 0.961344
O O6 0.880719 0.920706 0.171517
O O7 0.625925 0.948944 0.045943
O O8 0.739010 0.782310 0.305090
O O9 0.500000 0.747792 0.000000
O O10 0.026068 0.565759 0.185585
O O11 0.500000 0.116928 0.500000
O O12 0.622082 0.214714 0.358870
O O13 0.130246 0.891669 0.392806
O O14 0.000000 0.998684 0.500000
O O15 0.500000 0.300779 0.500000
#
# Coordination Sequence:
#
# PCOD9125598 Si02
#       7
#     4   4   4   2   4   4   4
#     4  11  25  44  68  99 141 187 229 296 355 418
#     4  12  23  39  65 100 133 185 237 281 353 413
#     4  11  22  41  68  94 139 185 230 287 360 407
#     4  12  24  40  68 104 134 188 236 288 356 420
#     4  10  21  42  66  96 139 177 229 291 349 413
#     4  11  21  41  68  93 135 183 238 282 348 423
#     4   9  19  39  64  91 131 185 220 291 346 401
#
# _framework density 21.24897
#
# number of rings (size 3 to 8) (size 9 to 14) (size 15 to 20)
#    0.000    1.231    5.385    2.308    0.000    0.000 
#    5.538    0.000    3.385    0.923    0.000    0.000 
#    0.000    0.000    0.000    0.000    0.000    0.000 
#
# Total GULP energy -72519.270456 kJ/mol
# GULP energy per Si atom -5578.405420 kJ/mol
# Density = 2.120061 g / cm^3
# Si number density = 21.248970 Si / 1000 Ang^3
#
#
#
# Elastic Constant Matrix: (Units=GPa)
#
#
# Indices 1 2 3 4 5 6 
#
# 1 82.9607 35.1721 21.2430 0.0000 6.7545 0.0000
# 2 35.1721 137.8537 46.5742 0.0000 -16.7547 0.0000
# 3 21.2430 46.5742 84.3863 0.0000 9.9893 0.0000
# 4 0.0000 0.0000 0.0000 30.4715 0.0000 2.0107
# 5 6.7545 -16.7547 9.9893 0.0000 37.7473 0.0000
# 6 0.0000 0.0000 0.0000 2.0107 0.0000 33.0662
#
#
#
# Elastic Compliance Matrix: (Units=1/GPa)
#
#
# Indices 1 2 3 4 5 6 
#
# 1 0.014235 -0.003758 -0.001043 0.000000 -0.003939 0.000000
# 2 -0.003758 0.011136 -0.006054 0.000000 0.007217 0.000000
# 3 -0.001043 -0.006054 0.016260 0.000000 -0.006803 0.000000
# 4 0.000000 0.000000 0.000000 0.032950 0.000000 -0.002004
# 5 -0.003939 0.007217 -0.006803 0.000000 0.032201 0.000000
# 6 0.000000 0.000000 0.000000 -0.002004 0.000000 0.030364
#
#
# Mechanical properties :
#
#
# Convention : Reuss Voigt Hill
#
# Bulk Modulus (GPa) = 50.20218 56.79769 53.49994
# Shear Modulus (GPa) = 30.21228 33.73776 31.97502
#
# Velocity S-wave (km/s) = 3.77480 3.98896 3.88336
# Velocity P-wave (km/s) = 6.53267 6.92845 6.73347
#
# Compressibility (1/GPa) = 0.01991945
#
# Stress axis : x y z
#
# Youngs Moduli (GPa) = 70.24890 89.80200 61.50240
#
# Poissons Ratio (x) = 0.33752 0.06413
# Poissons Ratio (y) = 0.26403 0.37235
# Poissons Ratio (z) = 0.07325 0.54368
#
# Static dielectric constant tensor:
#      x y z
#    x 1.864140 0.000000 0.055590 
#    y 0.000000 1.854190 0.000000 
#    z 0.055590 0.000000 1.779850 
# 
# From -- ./inp_files/20483.got.cif
#   From: 2010.05.17/outbox.cif.g08.bks.cpg/sg5_11_cif.got.tgz:20483.got - 2010.06.03 18:56:24.
