data_PCOD9125604
_publ_section_title
;
Structure prediction by ZEFSAII (Michael W. Deem and Ramdas Pophale) SiO2 
 PCOD9125604
Probable space group: C 2
;
_chemical_formula_sum "Si O2"
_cell_formula_units_Z 30
_cell_length_a 12.576384
_cell_length_b 8.574392
_cell_length_c 13.405246
_cell_angle_alpha 90.000000
_cell_angle_beta 111.386335
_cell_angle_gamma 90.000000
_cell_volume 1346.015953
_symmetry_space_group_name_H-M "C 2"
_symmetry_group_IT_number 5
_symmetry_cell_setting 'monoclinic'
loop_
_space_group_symop_operation_xyz
x,y,z
-x,y,-z
1/2+x,1/2+y,z
1/2-x,1/2+y,-z
loop_
_atom_site_type_symbol
_atom_site_label
_atom_site_fract_x
_atom_site_fract_y
_atom_site_fract_z
Si Si1 0.328974 0.415830 0.834958
Si Si2 0.531019 0.709074 0.171670
Si Si3 0.222727 0.182498 0.638681
Si Si4 0.657509 0.474392 0.802621
Si Si5 0.089390 0.472868 0.336550
Si Si6 0.969600 0.711939 0.152581
Si Si7 0.339346 0.938222 0.034729
Si Si8 0.500000 0.848990 0.500000
O O1 0.374106 0.594156 0.843011
O O2 0.274279 0.332960 0.717027
O O3 0.445095 0.316117 0.882321
O O4 0.241763 0.402203 0.897230
O O5 0.432366 0.594872 0.179732
O O6 0.450878 0.827875 0.080632
O O7 0.593179 0.806518 0.281176
O O8 0.193639 0.055336 0.713760
O O9 0.302881 0.078055 0.594853
O O10 0.112221 0.243524 0.544674
O O11 0.588034 0.314495 0.780687
O O12 0.765699 0.435775 0.909403
O O13 0.008447 0.448738 0.402773
O O14 0.039313 0.580961 0.233242
O O15 0.878053 0.617450 0.058518
#
# Coordination Sequence:
#
# PCOD9125604 Si02
#       8
#     4   4   4   4   4   4   4   2
#     4  10  22  42  68  93 137 179 221 265 334 390
#     4  10  21  42  66  98 133 177 225 269 324 402
#     4  11  24  46  70  98 133 178 218 292 341 400
#     4  11  21  41  65  95 144 175 219 273 329 385
#     4  10  23  46  67  97 126 171 222 280 351 404
#     4   9  22  39  63  98 134 172 224 263 322 403
#     4  11  21  40  63  98 140 184 220 264 315 390
#     4  12  24  50  74  90 132 166 228 294 352 396
#
# _framework density 22.287997000000001
#
# number of rings (size 3 to 8) (size 9 to 14) (size 15 to 20)
#    0.000    1.600    2.667    1.600    1.867    3.200 
#    9.600    1.333    0.000    0.000    0.000    0.000 
#    0.000    0.000    0.000    0.000    0.000    0.000 
#
# Total GULP energy -83730.629202 kJ/mol
# GULP energy per Si atom -5582.041947 kJ/mol
# Density = 2.223727 g / cm^3
# Si number density = 22.287997 Si / 1000 Ang^3
#
#
#
# Elastic Constant Matrix: (Units=GPa)
#
#
# Indices 1 2 3 4 5 6 
#
# 1 86.4827 32.5638 5.9968 0.0000 -2.0321 0.0000
# 2 32.5638 103.4001 3.3415 0.0000 -0.9897 0.0000
# 3 5.9968 3.3415 21.9351 0.0000 2.0365 0.0000
# 4 0.0000 0.0000 0.0000 -6.1508 0.0000 -6.5946
# 5 -2.0321 -0.9897 2.0365 0.0000 34.8131 0.0000
# 6 0.0000 0.0000 0.0000 -6.5946 0.0000 40.4154
#
#
#
# Elastic Compliance Matrix: (Units=1/GPa)
#
#
# Indices 1 2 3 4 5 6 
#
# 1 0.013339 -0.004093 -0.003102 0.000000 0.000844 0.000000
# 2 -0.004093 0.010979 -0.000564 0.000000 0.000106 0.000000
# 3 -0.003102 -0.000564 0.046795 0.000000 -0.002934 0.000000
# 4 0.000000 0.000000 0.000000 -0.138373 0.000000 -0.022578
# 5 0.000844 0.000106 -0.002934 0.000000 0.028949 0.000000
# 6 0.000000 0.000000 0.000000 -0.022578 0.000000 0.021059
#
#
# Mechanical properties :
#
#
# Convention : Reuss Voigt Hill
#
# Bulk Modulus (GPa) = 17.98623 32.84691 25.41657
# Shear Modulus (GPa) = 297.68813 25.14325 161.41569
#
# Velocity S-wave (km/s) = 11.56954 3.36237 8.51939
# Velocity P-wave (km/s) = 13.65869 5.46293 10.40200
#
# Compressibility (1/GPa) = 0.05559809
#
# Stress axis : x y z
#
# Youngs Moduli (GPa) = 74.96888 91.08082 21.36970
#
# Poissons Ratio (x) = 0.37275 0.06628
# Poissons Ratio (y) = 0.30681 0.01204
# Poissons Ratio (z) = 0.23252 0.05133
#
# Static dielectric constant tensor:
#      x y z
#    x 1.897790 0.000000 0.042570 
#    y 0.000000 1.856530 0.000000 
#    z 0.042570 0.000000 1.842720 
# 
# From -- ./inp_files/52491.got.cif
#   From: 2010.05.17/outbox.cif.g08.bks.cpg/sg5_27_cif.got.tgz:52491.got - 2010.06.03 18:56:24.
