data_PCOD9125090
_publ_section_title
;
Structure prediction by ZEFSAII (Michael W. Deem and Ramdas Pophale) SiO2 
 PCOD9125090
Probable space group: C 2
;
_chemical_formula_sum "Si O2"
_cell_formula_units_Z 32
_cell_length_a 14.905520
_cell_length_b 11.821969
_cell_length_c 16.746753
_cell_angle_alpha 90.000000
_cell_angle_beta 150.760136
_cell_angle_gamma 90.000000
_cell_volume 1441.460308
_symmetry_space_group_name_H-M "C 2"
_symmetry_group_IT_number 5
_symmetry_cell_setting 'monoclinic'
loop_
_space_group_symop_operation_xyz
x,y,z
-x,y,-z
1/2+x,1/2+y,z
1/2-x,1/2+y,-z
loop_
_atom_site_type_symbol
_atom_site_label
_atom_site_fract_x
_atom_site_fract_y
_atom_site_fract_z
Si Si1 0.194670 0.497370 0.744889
Si Si2 0.432816 0.613299 0.180740
Si Si3 0.799259 0.464727 0.881007
Si Si4 0.931240 0.723238 0.742168
Si Si5 0.806209 0.128990 0.319630
Si Si6 0.727479 0.281655 0.108699
Si Si7 0.264018 0.954640 0.406517
Si Si8 0.758730 0.201784 0.886335
O O1 0.276782 0.411971 0.873219
O O2 0.250079 0.458672 0.700384
O O3 0.263914 0.623316 0.813460
O O4 0.975651 0.483460 0.585839
O O5 0.273451 0.533652 0.097721
O O6 0.414765 0.729057 0.217306
O O7 0.621263 0.545019 0.331632
O O8 0.385680 0.649282 0.054200
O O9 0.669859 0.511713 0.709156
O O10 0.794517 0.332721 0.896554
O O11 0.000000 0.492689 0.000000
O O12 0.818311 0.625464 0.698614
O O13 0.801471 0.829098 0.621279
O O14 0.053101 0.690803 0.761991
O O15 0.078753 0.760826 0.924537
O O16 0.716362 0.212719 0.183679
O O17 0.000000 0.175868 0.500000
#
# Coordination Sequence:
#
# PCOD9125090 Si02
#       8
#     4   4   4   4   4   4   4   4
#     4  11  25  40  62  95 129 169 204 259 320 384
#     4  10  23  43  67  92 123 162 212 269 306 378
#     4  11  24  45  64  94 126 165 214 263 313 377
#     4  11  21  41  68  95 122 164 217 267 299 376
#     4  11  22  40  67  95 125 166 211 260 320 373
#     4  10  21  39  68  94 121 160 220 258 311 364
#     4  11  23  42  62  93 132 162 212 257 318 379
#     4  11  25  41  65  93 126 166 211 259 318 371
#
# _framework density 22.199708999999999
#
# number of rings (size 3 to 8) (size 9 to 14) (size 15 to 20)
#    0.000    1.250    2.500    4.125    3.500    4.000 
#    2.250    0.000    0.000    0.000    0.000    0.000 
#    0.000    0.000    0.000    0.000    0.000    0.000 
#
# Total GULP energy -89383.600524 kJ/mol
# GULP energy per Si atom -5586.475033 kJ/mol
# Density = 2.214918 g / cm^3
# Si number density = 22.199709 Si / 1000 Ang^3
#
#
#
# Elastic Constant Matrix: (Units=GPa)
#
#
# Indices 1 2 3 4 5 6 
#
# 1 64.0171 -0.2077 5.2637 0.0000 19.2563 0.0001
# 2 -0.2077 89.4676 4.9917 0.0018 -11.2023 0.0011
# 3 5.2637 4.9917 38.7907 0.0025 7.8814 0.0017
# 4 0.0000 0.0018 0.0025 21.9648 0.0006 1.2785
# 5 19.2563 -11.2023 7.8814 0.0006 27.9932 0.0002
# 6 0.0001 0.0011 0.0017 1.2785 0.0002 23.6974
#
#
#
# Elastic Compliance Matrix: (Units=1/GPa)
#
#
# Indices 1 2 3 4 5 6 
#
# 1 0.019965 -0.001808 0.000489 0.000001 -0.014595 0.000000
# 2 -0.001808 0.012187 -0.002722 -0.000001 0.006888 0.000000
# 3 0.000489 -0.002722 0.027952 -0.000003 -0.009296 -0.000002
# 4 0.000001 -0.000001 -0.000003 0.045671 -0.000001 -0.002464
# 5 -0.014595 0.006888 -0.009296 -0.000001 0.051136 0.000000
# 6 0.000000 0.000000 -0.000002 -0.002464 0.000000 0.042332
#
#
# Mechanical properties :
#
#
# Convention : Reuss Voigt Hill
#
# Bulk Modulus (GPa) = 19.22310 23.59676 21.40993
# Shear Modulus (GPa) = 22.25519 26.87959 24.56739
#
# Velocity S-wave (km/s) = 3.16966 3.48344 3.33025
# Velocity P-wave (km/s) = 4.69826 5.17992 4.94496
#
# Compressibility (1/GPa) = 0.05202075
#
# Stress axis : x y z
#
# Youngs Moduli (GPa) = 50.08775 82.05253 35.77565
#
# Poissons Ratio (x) = 0.14838 -0.01749
# Poissons Ratio (y) = 0.09058 0.09739
# Poissons Ratio (z) = -0.02449 0.22337
#
# Static dielectric constant tensor:
#      x y z
#    x 1.831210 0.000000 0.030550 
#    y 0.000000 1.808500 0.000000 
#    z 0.030550 0.000000 1.836820 
# 
# From -- ./inp_files/23904.got.cif
#   From: 2010.05.17/outbox.cif.g08.bks.cpg/sg5_12_cif.got.tgz:23904.got - 2010.06.03 18:56:24.
