data_PCOD9125670
_publ_section_title
;
Structure prediction by ZEFSAII (Michael W. Deem and Ramdas Pophale) SiO2 
 PCOD9125670
Probable space group: C 2
;
_chemical_formula_sum "Si O2"
_cell_formula_units_Z 32
_cell_length_a 17.506455
_cell_length_b 14.732114
_cell_length_c 11.049659
_cell_angle_alpha 90.000000
_cell_angle_beta 149.018763
_cell_angle_gamma 90.000000
_cell_volume 1466.947971
_symmetry_space_group_name_H-M "C 2"
_symmetry_group_IT_number 5
_symmetry_cell_setting 'monoclinic'
loop_
_space_group_symop_operation_xyz
x,y,z
-x,y,-z
1/2+x,1/2+y,z
1/2-x,1/2+y,-z
loop_
_atom_site_type_symbol
_atom_site_label
_atom_site_fract_x
_atom_site_fract_y
_atom_site_fract_z
Si Si1 0.945808 0.732000 0.231476
Si Si2 0.763825 0.140712 0.645481
Si Si3 0.931991 0.113766 0.635038
Si Si4 0.132713 0.600688 0.081887
Si Si5 0.318340 0.721674 0.965707
Si Si6 0.535596 0.901743 0.904039
Si Si7 0.045012 0.916998 0.867545
Si Si8 0.257936 0.424396 0.639733
O O1 0.845792 0.704512 0.208848
O O2 0.945116 0.840214 0.219534
O O3 0.111148 0.694212 0.449677
O O4 0.871752 0.685015 0.014111
O O5 0.851074 0.159813 0.641276
O O6 0.846848 0.166517 0.880869
O O7 0.740362 0.033134 0.607625
O O8 0.794496 0.094298 0.360831
O O9 0.012488 0.018281 0.776068
O O10 0.061717 0.183190 0.776088
O O11 0.094082 0.504398 0.966978
O O12 0.000000 0.613283 0.000000
O O13 0.346994 0.826100 0.974473
O O14 0.389976 0.886633 0.623205
O O15 0.500000 0.892609 0.000000
O O16 0.898821 0.896084 0.749731
O O17 0.188419 0.908540 0.149924
#
# Coordination Sequence:
#
# PCOD9125670 Si02
#       8
#     4   4   4   4   4   4   4   4
#     4  12  27  44  65 100 144 176 215 268 348 405
#     4  11  21  47  70  97 128 174 229 279 324 394
#     4  11  23  44  74  99 130 172 233 281 321 386
#     4  11  23  44  71  99 131 177 224 280 332 389
#     4  12  28  42  65 103 137 180 217 273 339 396
#     4  11  23  43  68  99 132 171 232 277 328 388
#     4  10  23  40  68 100 131 167 223 278 334 381
#     4  10  21  42  70  97 122 171 228 283 318 380
#
# _framework density 21.813997000000001
#
# number of rings (size 3 to 8) (size 9 to 14) (size 15 to 20)
#    0.000    1.000    3.750    3.750    8.750    1.500 
#    0.000    0.000    0.000    0.000    0.000    0.000 
#    0.000    0.000    0.000    0.000    0.000    0.000 
#
# Total GULP energy -89402.268490 kJ/mol
# GULP energy per Si atom -5587.641781 kJ/mol
# Density = 2.176435 g / cm^3
# Si number density = 21.813997 Si / 1000 Ang^3
#
#
#
# Elastic Constant Matrix: (Units=GPa)
#
#
# Indices 1 2 3 4 5 6 
#
# 1 30.2601 25.3605 16.1335 0.0000 9.8456 0.0000
# 2 25.3605 68.3053 13.6996 0.0000 10.5848 0.0000
# 3 16.1335 13.6996 144.9726 0.0000 0.8454 0.0000
# 4 0.0000 0.0000 0.0000 24.3860 0.0000 -0.3428
# 5 9.8456 10.5848 0.8454 0.0000 22.7537 0.0000
# 6 0.0000 0.0000 0.0000 -0.3428 0.0000 -1.1785
#
#
#
# Elastic Compliance Matrix: (Units=1/GPa)
#
#
# Indices 1 2 3 4 5 6 
#
# 1 0.054730 -0.017022 -0.004391 0.000000 -0.015600 0.000000
# 2 -0.017022 0.021382 -0.000111 0.000000 -0.002577 0.000000
# 3 -0.004391 -0.000111 0.007387 0.000000 0.001677 0.000000
# 4 0.000000 0.000000 0.000000 0.040840 0.000000 -0.011878
# 5 -0.015600 -0.002577 0.001677 0.000000 0.051836 0.000000
# 6 0.000000 0.000000 0.000000 -0.011878 0.000000 -0.845075
#
#
# Mechanical properties :
#
#
# Convention : Reuss Voigt Hill
#
# Bulk Modulus (GPa) = 24.72184 39.32501 32.02343
# Shear Modulus (GPa) = -8.16501 21.74854 6.79176
#
# Velocity S-wave (km/s) = -1.93679 3.16095 1.76642
# Velocity P-wave (km/s) = 2.52113 5.60257 4.34424
#
# Compressibility (1/GPa) = 0.04045007
#
# Stress axis : x y z
#
# Youngs Moduli (GPa) = 18.27163 46.76900 135.36826
#
# Poissons Ratio (x) = 0.79610 0.59442
# Poissons Ratio (y) = 0.31102 0.01505
# Poissons Ratio (z) = 0.08023 0.00520
#
# Static dielectric constant tensor:
#      x y z
#    x 1.846010 0.000000 -0.040310 
#    y 0.000000 1.752140 0.000000 
#    z -0.040310 0.000000 1.858680 
# 
# From -- ./inp_files/44994.got.cif
#   From: 2010.05.17/outbox.cif.g08.bks.cpg/sg5_23_cif.got.tgz:44994.got - 2010.06.03 18:56:24.
