data_PCOD9125362
_publ_section_title
;
Structure prediction by ZEFSAII (Michael W. Deem and Ramdas Pophale) SiO2 
 PCOD9125362
Probable space group: C 2
;
_chemical_formula_sum "Si O2"
_cell_formula_units_Z 28
_cell_length_a 13.371734
_cell_length_b 12.380028
_cell_length_c 9.389201
_cell_angle_alpha 90.000000
_cell_angle_beta 108.655801
_cell_angle_gamma 90.000000
_cell_volume 1472.643581
_symmetry_space_group_name_H-M "C 2"
_symmetry_group_IT_number 5
_symmetry_cell_setting 'monoclinic'
loop_
_space_group_symop_operation_xyz
x,y,z
-x,y,-z
1/2+x,1/2+y,z
1/2-x,1/2+y,-z
loop_
_atom_site_type_symbol
_atom_site_label
_atom_site_fract_x
_atom_site_fract_y
_atom_site_fract_z
Si Si1 0.363220 0.886680 0.546998
Si Si2 0.733112 0.391386 0.047709
Si Si3 0.694643 0.457968 0.712204
Si Si4 0.452592 0.198316 0.726161
Si Si5 0.218906 0.204846 0.713291
Si Si6 0.000000 0.840500 0.500000
Si Si7 0.924540 0.483680 0.292274
Si Si8 0.500000 0.353887 0.000000
O O1 0.277311 0.922721 0.624853
O O2 0.330406 0.780222 0.437292
O O3 0.377062 0.977221 0.429772
O O4 0.482102 0.891446 0.668779
O O5 0.769522 0.278985 0.139958
O O6 0.825184 0.468687 0.145439
O O7 0.731132 0.405141 0.877575
O O8 0.613547 0.413598 0.051704
O O9 0.671986 0.586436 0.713898
O O10 0.582025 0.409103 0.624124
O O11 0.338306 0.172109 0.731279
O O12 0.435771 0.265446 0.576415
O O13 0.506136 0.275886 0.866283
O O14 0.520252 0.094356 0.722708
#
# Coordination Sequence:
#
# PCOD9125362 Si02
#       8
#     4   4   4   4   4   2   4   2
#     4  10  21  41  62  97 132 163 211 272 318 382
#     4  10  24  41  64  93 132 166 220 267 323 382
#     4  12  24  40  65  98 128 173 214 266 332 378
#     4  11  21  38  67  97 123 169 225 266 317 379
#     4  10  23  43  66  92 133 172 212 267 326 385
#     4  12  24  38  64  98 132 162 224 268 312 398
#     4  10  22  38  67  96 127 172 215 267 326 377
#     4  10  22  42  62  92 130 170 206 278 322 380
#
# _framework density 19.013425999999999
#
# number of rings (size 3 to 8) (size 9 to 14) (size 15 to 20)
#    0.000    1.429    4.286    0.857    4.000    2.857 
#    0.000    0.000    0.000    0.000    0.000    0.000 
#    0.000    0.000    0.000    0.000    0.000    0.000 
#
# Total GULP energy -77969.151352 kJ/mol
# GULP energy per Si atom -5569.225097 kJ/mol
# Density = 1.897015 g / cm^3
# Si number density = 19.013426 Si / 1000 Ang^3
#
#
#
# Elastic Constant Matrix: (Units=GPa)
#
#
# Indices 1 2 3 4 5 6 
#
# 1 89.0753 37.4117 38.7666 0.0000 10.5508 0.0000
# 2 37.4117 106.6489 46.5189 0.0000 0.0960 0.0000
# 3 38.7666 46.5189 119.6847 0.0000 6.8419 0.0000
# 4 0.0000 0.0000 0.0000 47.6075 0.0000 38.9947
# 5 10.5508 0.0960 6.8419 0.0000 43.4895 0.0000
# 6 0.0000 0.0000 0.0000 38.9947 0.0000 83.1575
#
#
#
# Elastic Compliance Matrix: (Units=1/GPa)
#
#
# Indices 1 2 3 4 5 6 
#
# 1 0.014491 -0.003743 -0.003066 0.000000 -0.003025 0.000000
# 2 -0.003743 0.012277 -0.003643 0.000000 0.001454 0.000000
# 3 -0.003066 -0.003643 0.010818 0.000000 -0.000950 0.000000
# 4 0.000000 0.000000 0.000000 0.034104 0.000000 -0.015992
# 5 -0.003025 0.001454 -0.000950 0.000000 0.023874 0.000000
# 6 0.000000 0.000000 0.000000 -0.015992 0.000000 0.019525
#
#
# Mechanical properties :
#
#
# Convention : Reuss Voigt Hill
#
# Bulk Modulus (GPa) = 59.94015 62.31151 61.12583
# Shear Modulus (GPa) = 35.32200 47.69834 41.51017
#
# Velocity S-wave (km/s) = 4.31483 5.01409 4.67754
# Velocity P-wave (km/s) = 7.51114 8.14647 7.83525
#
# Compressibility (1/GPa) = 0.01668331
#
# Stress axis : x y z
#
# Youngs Moduli (GPa) = 69.00676 81.45156 92.43482
#
# Poissons Ratio (x) = 0.30491 0.28340
# Poissons Ratio (y) = 0.25832 0.33669
# Poissons Ratio (z) = 0.21157 0.29669
#
# Static dielectric constant tensor:
#      x y z
#    x 1.609120 0.000000 0.015000 
#    y 0.000000 1.682790 0.000000 
#    z 0.015000 0.000000 1.703800 
# 
# From -- ./inp_files/23681.got.cif
#   From: 2010.05.17/outbox.cif.g08.bks.cpg/sg5_12_cif.got.tgz:23681.got - 2010.06.03 18:56:24.
