data_PCOD9125729
_publ_section_title
;
Structure prediction by ZEFSAII (Michael W. Deem and Ramdas Pophale) SiO2 
 PCOD9125729
Probable space group: C 2
;
_chemical_formula_sum "Si O2"
_cell_formula_units_Z 24
_cell_length_a 12.432840
_cell_length_b 8.947470
_cell_length_c 11.297391
_cell_angle_alpha 90.000000
_cell_angle_beta 50.162849
_cell_angle_gamma 90.000000
_cell_volume 965.018191
_symmetry_space_group_name_H-M "C 2"
_symmetry_group_IT_number 5
_symmetry_cell_setting 'monoclinic'
loop_
_space_group_symop_operation_xyz
x,y,z
-x,y,-z
1/2+x,1/2+y,z
1/2-x,1/2+y,-z
loop_
_atom_site_type_symbol
_atom_site_label
_atom_site_fract_x
_atom_site_fract_y
_atom_site_fract_z
Si Si1 0.178386 0.334010 0.235956
Si Si2 0.864940 0.080086 0.158551
Si Si3 0.124272 0.308018 0.543836
Si Si4 0.104849 0.970227 0.596800
Si Si5 0.357371 0.073303 0.022312
Si Si6 0.668881 0.290858 0.184321
O O1 0.308052 0.442781 0.119425
O O2 0.145777 0.369619 0.396480
O O3 0.023211 0.350811 0.291863
O O4 0.238977 0.170072 0.174532
O O5 0.903842 0.020111 0.258882
O O6 0.741026 0.197881 0.238011
O O7 0.000000 0.145644 0.000000
O O8 0.119932 0.130484 0.526286
O O9 0.257326 0.370705 0.518726
O O10 0.966356 0.876306 0.673306
O O11 0.372690 0.172376 0.890635
O O12 0.500000 0.068598 0.000000
O O13 0.285429 0.910851 0.058212
#
# Coordination Sequence:
#
# PCOD9125729 Si02
#       6
#     4   4   4   4   4   4
#     4  10  21  43  66  92 136 177 223 276 337 399
#     4  11  24  45  69 101 135 176 227 284 343 405
#     4  10  23  41  67  95 134 182 224 277 335 400
#     4  11  24  46  67 101 137 180 229 280 338 401
#     4  12  24  43  70 102 135 178 221 281 344 401
#     4  12  26  44  71 103 138 176 227 286 340 402
#
# _framework density 24.869997999999999
#
# number of rings (size 3 to 8) (size 9 to 14) (size 15 to 20)
#    0.000    1.000    1.667    6.000    2.333    1.333 
#    6.000    0.000    0.000    0.000    0.000    0.000 
#    0.000    0.000    0.000    0.000    0.000    0.000 
#
# Total GULP energy -67115.182720 kJ/mol
# GULP energy per Si atom -5592.931893 kJ/mol
# Density = 2.481339 g / cm^3
# Si number density = 24.869998 Si / 1000 Ang^3
#
#
#
# Elastic Constant Matrix: (Units=GPa)
#
#
# Indices 1 2 3 4 5 6 
#
# 1 95.5685 40.5388 42.7376 0.0000 -37.0240 0.0000
# 2 40.5388 114.2791 2.2490 0.0000 -19.3495 0.0000
# 3 42.7376 2.2490 60.0631 0.0000 -23.9215 0.0000
# 4 0.0000 0.0000 0.0000 65.5691 0.0000 95.3427
# 5 -37.0240 -19.3495 -23.9215 0.0000 47.0156 0.0000
# 6 0.0000 0.0000 0.0000 95.3427 0.0000 556.6345
#
#
#
# Elastic Compliance Matrix: (Units=1/GPa)
#
#
# Indices 1 2 3 4 5 6 
#
# 1 0.021536 -0.005961 -0.011693 0.000000 0.008557 0.000000
# 2 -0.005961 0.011164 0.004745 0.000000 0.002315 0.000000
# 3 -0.011693 0.004745 0.027468 0.000000 0.006721 0.000000
# 4 0.000000 0.000000 0.000000 0.020309 0.000000 -0.003479
# 5 0.008557 0.002315 0.006721 0.000000 0.032380 0.000000
# 6 0.000000 0.000000 0.000000 -0.003479 0.000000 0.002392
#
#
# Mechanical properties :
#
#
# Convention : Reuss Voigt Hill
#
# Bulk Modulus (GPa) = 29.11088 48.99573 39.05330
# Shear Modulus (GPa) = 32.78337 146.13619 89.45978
#
# Velocity S-wave (km/s) = 3.63463 7.67383 6.00409
# Velocity P-wave (km/s) = 5.41707 9.91263 7.98764
#
# Compressibility (1/GPa) = 0.03435141
#
# Stress axis : x y z
#
# Youngs Moduli (GPa) = 46.43378 89.57753 36.40585
#
# Poissons Ratio (x) = 0.53394 0.42568
# Poissons Ratio (y) = 0.27678 -0.17275
# Poissons Ratio (z) = 0.54294 -0.42506
#
# Static dielectric constant tensor:
#      x y z
#    x 1.994520 0.000000 -0.074830 
#    y 0.000000 1.959630 0.000000 
#    z -0.074830 0.000000 1.642870 
# 
# From -- ./inp_files/54064.got.cif
#   From: 2010.05.17/outbox.cif.g08.bks.cpg/sg5_28_cif.got.tgz:54064.got - 2010.06.03 18:56:24.
