data_PCOD9125075
_publ_section_title
;
Structure prediction by ZEFSAII (Michael W. Deem and Ramdas Pophale) SiO2 
 PCOD9125075
Probable space group: C 2
;
_chemical_formula_sum "Si O2"
_cell_formula_units_Z 26
_cell_length_a 8.741765
_cell_length_b 20.537308
_cell_length_c 8.858134
_cell_angle_alpha 90.000000
_cell_angle_beta 49.107941
_cell_angle_gamma 90.000000
_cell_volume 1202.194212
_symmetry_space_group_name_H-M "C 2"
_symmetry_group_IT_number 5
_symmetry_cell_setting 'monoclinic'
loop_
_space_group_symop_operation_xyz
x,y,z
-x,y,-z
1/2+x,1/2+y,z
1/2-x,1/2+y,-z
loop_
_atom_site_type_symbol
_atom_site_label
_atom_site_fract_x
_atom_site_fract_y
_atom_site_fract_z
Si Si1 0.324969 0.677020 0.014101
Si Si2 0.042143 0.572024 0.309937
Si Si3 0.000000 0.744821 0.000000
Si Si4 0.079743 0.096369 0.607802
Si Si5 0.278385 0.858702 0.720821
Si Si6 0.884747 0.945260 0.429028
Si Si7 0.947369 0.447627 0.859811
O O1 0.143504 0.708476 0.030773
O O2 0.459491 0.635252 0.811143
O O3 0.500000 0.714692 0.000000
O O4 0.205092 0.629105 0.205417
O O5 0.000000 0.538369 0.500000
O O6 0.821088 0.601868 0.429395
O O7 0.122728 0.520895 0.134326
O O8 0.162652 0.791230 0.812435
O O9 0.000000 0.119590 0.500000
O O10 0.037500 0.018404 0.651241
O O11 0.500000 0.851645 0.500000
O O12 0.136207 0.903806 0.707879
O O13 0.314898 0.894040 0.858813
O O14 0.659182 0.949922 0.636479
O O15 0.000000 0.916457 0.500000
O O16 0.000000 0.436697 0.000000
#
# Coordination Sequence:
#
# PCOD9125075 Si02
#       7
#     4   4   2   4   4   4   4
#     4  12  27  46  69  99 134 187 245 281 344 415
#     4  11  22  41  66 103 143 177 217 283 363 422
#     4  12  30  48  70  96 134 190 254 292 334 396
#     4  10  21  39  67 103 143 167 214 286 354 431
#     4  10  24  48  68  96 140 181 230 291 346 412
#     4   9  20  39  65 106 134 173 219 270 366 425
#     4  10  22  37  69 108 142 172 218 285 353 432
#
# _framework density 21.627122
#
# number of rings (size 3 to 8) (size 9 to 14) (size 15 to 20)
#    0.000    1.538    1.538    3.231    9.692    2.462 
#    2.769    0.000    0.000    0.000    0.000    0.000 
#    0.000    0.000    0.000    0.000    0.000    0.000 
#
# Total GULP energy -72452.073048 kJ/mol
# GULP energy per Si atom -5573.236388 kJ/mol
# Density = 2.157790 g / cm^3
# Si number density = 21.627122 Si / 1000 Ang^3
#
#
#
# Elastic Constant Matrix: (Units=GPa)
#
#
# Indices 1 2 3 4 5 6 
#
# 1 190.9992 54.1334 49.7771 0.0000 13.3593 0.0000
# 2 54.1334 62.0513 32.6774 0.0000 6.4703 0.0000
# 3 49.7771 32.6774 102.0126 0.0000 2.1047 0.0000
# 4 0.0000 0.0000 0.0000 63.3410 0.0000 -11.4241
# 5 13.3593 6.4703 2.1047 0.0000 44.3304 0.0000
# 6 0.0000 0.0000 0.0000 -11.4241 0.0000 28.7963
#
#
#
# Elastic Compliance Matrix: (Units=1/GPa)
#
#
# Indices 1 2 3 4 5 6 
#
# 1 0.007302 -0.005254 -0.001852 0.000000 -0.001346 0.000000
# 2 -0.005254 0.023456 -0.004917 0.000000 -0.001607 0.000000
# 3 -0.001852 -0.004917 0.012267 0.000000 0.000693 0.000000
# 4 0.000000 0.000000 0.000000 0.017004 0.000000 0.006746
# 5 -0.001346 -0.001607 0.000693 0.000000 0.023165 0.000000
# 6 0.000000 0.000000 0.000000 0.006746 0.000000 0.037403
#
#
# Mechanical properties :
#
#
# Convention : Reuss Voigt Hill
#
# Bulk Modulus (GPa) = 52.68983 69.80433 61.24708
# Shear Modulus (GPa) = 33.11933 41.85856 37.48894
#
# Velocity S-wave (km/s) = 3.91753 4.40417 4.16796
# Velocity P-wave (km/s) = 6.69914 7.62946 7.17938
#
# Compressibility (1/GPa) = 0.01897900
#
# Stress axis : x y z
#
# Youngs Moduli (GPa) = 136.95691 42.63243 81.51935
#
# Poissons Ratio (x) = 0.22400 0.15097
# Poissons Ratio (y) = 0.71961 0.40081
# Poissons Ratio (z) = 0.25364 0.20961
#
# Static dielectric constant tensor:
#      x y z
#    x 1.894370 0.000000 0.061990 
#    y 0.000000 1.826850 0.000000 
#    z 0.061990 0.000000 1.789930 
# 
# From -- ./inp_files/16997.got.cif
#   From: 2010.05.17/outbox.cif.g08.bks.cpg/sg5_9_cif.got.tgz:16997.got - 2010.06.03 18:56:24.
