data_PCOD9125918
_publ_section_title
;
Structure prediction by ZEFSAII (Michael W. Deem and Ramdas Pophale) SiO2 
 PCOD9125918
Probable space group: C 2
;
_chemical_formula_sum "Si O2"
_cell_formula_units_Z 22
_cell_length_a 26.888318
_cell_length_b 5.569142
_cell_length_c 6.792847
_cell_angle_alpha 90.000000
_cell_angle_beta 115.726002
_cell_angle_gamma 90.000000
_cell_volume 916.369795
_symmetry_space_group_name_H-M "C 2"
_symmetry_group_IT_number 5
_symmetry_cell_setting 'monoclinic'
loop_
_space_group_symop_operation_xyz
x,y,z
-x,y,-z
1/2+x,1/2+y,z
1/2-x,1/2+y,-z
loop_
_atom_site_type_symbol
_atom_site_label
_atom_site_fract_x
_atom_site_fract_y
_atom_site_fract_z
Si Si1 0.594734 0.370570 0.661255
Si Si2 0.419846 0.756479 0.639301
Si Si3 0.677568 0.990873 0.792815
Si Si4 0.232894 0.946389 0.363416
Si Si5 0.500000 0.006882 0.500000
Si Si6 0.129122 0.202397 0.048268
O O1 0.579763 0.477422 0.423364
O O2 0.656111 0.263201 0.759789
O O3 0.551459 0.170909 0.649969
O O4 0.592989 0.577602 0.819069
O O5 0.408437 0.807865 0.845435
O O6 0.366700 0.864451 0.431202
O O7 0.474851 0.861301 0.638143
O O8 0.735828 0.948166 0.792925
O O9 0.668209 0.883877 0.993681
O O10 0.256240 0.186152 0.517771
O O11 0.168950 0.007522 0.220095
#
# Coordination Sequence:
#
# PCOD9125918 Si02
#       6
#     4   4   4   4   2   4
#     4  10  23  43  70  99 137 187 233 307 354 437
#     4  10  21  47  66 100 140 184 235 300 359 434
#     4  10  24  42  66 101 142 186 244 290 354 428
#     4  12  27  45  74 106 150 207 238 294 366 430
#     4  10  22  44  74  94 142 182 238 296 382 418
#     4  11  25  42  72 102 148 183 245 296 360 431
#
# _framework density 24.007776
#
# number of rings (size 3 to 8) (size 9 to 14) (size 15 to 20)
#    0.000    1.455    1.818    1.636    7.636    2.909 
#    0.000   21.818    0.000    0.000    0.000    0.000 
#    0.000    0.000    0.000    0.000    0.000    0.000 
#
# Total GULP energy -61515.604431 kJ/mol
# GULP energy per Si atom -5592.327676 kJ/mol
# Density = 2.395313 g / cm^3
# Si number density = 24.007776 Si / 1000 Ang^3
#
#
#
# Elastic Constant Matrix: (Units=GPa)
#
#
# Indices 1 2 3 4 5 6 
#
# 1 128.7141 17.0087 34.4541 0.0000 -43.2282 0.0000
# 2 17.0087 78.6468 28.8932 0.0000 -21.9792 0.0000
# 3 34.4541 28.8932 95.9526 0.0000 -45.1529 0.0000
# 4 0.0000 0.0000 0.0000 23.1317 0.0000 6.2684
# 5 -43.2282 -21.9792 -45.1529 0.0000 55.3195 0.0000
# 6 0.0000 0.0000 0.0000 6.2684 0.0000 35.0749
#
#
#
# Elastic Compliance Matrix: (Units=1/GPa)
#
#
# Indices 1 2 3 4 5 6 
#
# 1 0.010535 0.000002 0.000148 0.000000 0.008353 0.000000
# 2 0.000002 0.014731 -0.002730 0.000000 0.003626 0.000000
# 3 0.000148 -0.002730 0.017429 0.000000 0.013257 0.000000
# 4 0.000000 0.000000 0.000000 0.045431 0.000000 -0.008119
# 5 0.008353 0.003626 0.013257 0.000000 0.036865 0.000000
# 6 0.000000 0.000000 0.000000 -0.008119 0.000000 0.029961
#
#
# Mechanical properties :
#
#
# Convention : Reuss Voigt Hill
#
# Bulk Modulus (GPa) = 26.64284 51.55837 39.10060
# Shear Modulus (GPa) = 28.96445 37.56906 33.26676
#
# Velocity S-wave (km/s) = 3.47718 3.96014 3.72649
# Velocity P-wave (km/s) = 5.21946 6.51403 5.90234
#
# Compressibility (1/GPa) = 0.03753354
#
# Stress axis : x y z
#
# Youngs Moduli (GPa) = 94.92271 67.88411 57.37507
#
# Poissons Ratio (x) = -0.00013 -0.00846
# Poissons Ratio (y) = -0.00019 0.15665
# Poissons Ratio (z) = -0.01400 0.18534
#
# Static dielectric constant tensor:
#      x y z
#    x 1.903580 0.000000 0.005920 
#    y 0.000000 2.022400 0.000000 
#    z 0.005920 0.000000 1.923250 
# 
# From -- ./inp_files/10994.got.cif
#   From: 2010.05.17/outbox.cif.g08.bks.cpg/sg5_6_cif.got.tgz:10994.got - 2010.06.03 18:56:24.
