data_PCOD9125199
_publ_section_title
;
Structure prediction by ZEFSAII (Michael W. Deem and Ramdas Pophale) SiO2 
 PCOD9125199
Probable space group: C 2
;
_chemical_formula_sum "Si O2"
_cell_formula_units_Z 20
_cell_length_a 8.020948
_cell_length_b 24.680647
_cell_length_c 9.363975
_cell_angle_alpha 90.000000
_cell_angle_beta 32.997883
_cell_angle_gamma 90.000000
_cell_volume 1009.546996
_symmetry_space_group_name_H-M "C 2"
_symmetry_group_IT_number 5
_symmetry_cell_setting 'monoclinic'
loop_
_space_group_symop_operation_xyz
x,y,z
-x,y,-z
1/2+x,1/2+y,z
1/2-x,1/2+y,-z
loop_
_atom_site_type_symbol
_atom_site_label
_atom_site_fract_x
_atom_site_fract_y
_atom_site_fract_z
Si Si1 0.640448 0.385340 0.243621
Si Si2 0.780354 0.214578 0.411960
Si Si3 0.364144 0.601428 0.254317
Si Si4 0.101315 0.776345 0.089195
Si Si5 0.634392 0.480199 0.746313
O O1 0.500000 0.376110 0.500000
O O2 0.479376 0.435768 0.282495
O O3 0.594780 0.331788 0.181862
O O4 0.000000 0.396168 0.000000
O O5 0.500000 0.215874 0.500000
O O6 0.911883 0.153351 0.319864
O O7 0.055826 0.252399 0.160862
O O8 0.632285 0.235317 0.664819
O O9 0.469230 0.541317 0.222260
O O10 0.000000 0.596615 0.500000
O O11 0.500000 0.613855 0.000000
O O12 0.000000 0.785485 0.000000
O O13 0.000000 0.478199 0.500000
O O14 0.500000 0.469410 0.000000
#
# Coordination Sequence:
#
# PCOD9125199 Si02
#       5
#     4   4   4   4   4
#     4  12  25  41  61  87 118 155 197 244 295 347
#     4  11  21  39  64  89 118 154 196 240 285 347
#     4   9  18  34  61  90 116 151 194 234 283 347
#     4  12  25  40  59  87 120 156 195 242 296 348
#     4  10  21  40  64  89 117 154 197 240 286 345
#
# _framework density 19.810866000000001
#
# number of rings (size 3 to 8) (size 9 to 14) (size 15 to 20)
#    0.000    1.200    0.000    8.400    0.000    1.600 
#    0.000    3.000    0.000    0.000    0.000    0.000 
#    0.000    0.000    0.000    0.000    0.000    0.000 
#
# Total GULP energy -55909.039645 kJ/mol
# GULP energy per Si atom -5590.903965 kJ/mol
# Density = 1.976578 g / cm^3
# Si number density = 19.810866 Si / 1000 Ang^3
#
#
#
# Elastic Constant Matrix: (Units=GPa)
#
#
# Indices 1 2 3 4 5 6 
#
# 1 88.1422 82.4387 53.3180 0.0000 17.4797 0.0000
# 2 82.4387 163.6159 60.3350 0.0000 18.4482 0.0000
# 3 53.3180 60.3350 170.7583 0.0000 11.8122 0.0000
# 4 0.0000 0.0000 0.0000 36.9753 0.0000 2.2505
# 5 17.4797 18.4482 11.8122 0.0000 31.2048 0.0000
# 6 0.0000 0.0000 0.0000 2.2505 0.0000 40.3496
#
#
#
# Elastic Compliance Matrix: (Units=1/GPa)
#
#
# Indices 1 2 3 4 5 6 
#
# 1 0.024289 -0.010232 -0.003539 0.000000 -0.006217 0.000000
# 2 -0.010232 0.011686 -0.000876 0.000000 -0.000845 0.000000
# 3 -0.003539 -0.000876 0.007288 0.000000 -0.000259 0.000000
# 4 0.000000 0.000000 0.000000 0.027137 0.000000 -0.001514
# 5 -0.006217 -0.000845 -0.000259 0.000000 0.036127 0.000000
# 6 0.000000 0.000000 0.000000 -0.001514 0.000000 0.024868
#
#
# Mechanical properties :
#
#
# Convention : Reuss Voigt Hill
#
# Bulk Modulus (GPa) = 71.58059 90.52219 81.05139
# Shear Modulus (GPa) = 30.24003 36.80091 33.52047
#
# Velocity S-wave (km/s) = 3.91120 4.31468 4.11788
# Velocity P-wave (km/s) = 7.52377 8.40323 7.97563
#
# Compressibility (1/GPa) = 0.01397027
#
# Stress axis : x y z
#
# Youngs Moduli (GPa) = 41.17131 85.57561 137.20433
#
# Poissons Ratio (x) = 0.87562 0.48550
# Poissons Ratio (y) = 0.42127 0.12013
# Poissons Ratio (z) = 0.14569 0.07492
#
# Static dielectric constant tensor:
#      x y z
#    x 1.670470 0.000000 -0.007450 
#    y 0.000000 1.736280 0.000000 
#    z -0.007450 0.000000 1.654700 
# 
# From -- ./inp_files/16926.got.cif
#   From: 2010.05.17/outbox.cif.g08.bks.cpg/sg5_9_cif.got.tgz:16926.got - 2010.06.03 18:56:24.
