data_PCOD9125400
_publ_section_title
;
Structure prediction by ZEFSAII (Michael W. Deem and Ramdas Pophale) SiO2 
 PCOD9125400
Probable space group: C 2
;
_chemical_formula_sum "Si O2"
_cell_formula_units_Z 16
_cell_length_a 7.241789
_cell_length_b 13.056099
_cell_length_c 9.810980
_cell_angle_alpha 90.000000
_cell_angle_beta 43.475872
_cell_angle_gamma 90.000000
_cell_volume 638.250394
_symmetry_space_group_name_H-M "C 2"
_symmetry_group_IT_number 5
_symmetry_cell_setting 'monoclinic'
loop_
_space_group_symop_operation_xyz
x,y,z
-x,y,-z
1/2+x,1/2+y,z
1/2-x,1/2+y,-z
loop_
_atom_site_type_symbol
_atom_site_label
_atom_site_fract_x
_atom_site_fract_y
_atom_site_fract_z
Si Si1 0.777740 0.091830 0.496746
Si Si2 0.908646 0.395643 0.731767
Si Si3 0.707915 0.486756 0.115503
Si Si4 0.891078 0.807101 0.373591
O O1 0.576973 0.186243 0.634227
O O2 0.000000 0.092504 0.500000
O O3 0.974993 0.070967 0.260982
O O4 0.581369 0.995283 0.599587
O O5 0.736938 0.342976 0.703388
O O6 0.154261 0.316419 0.612753
O O7 0.749632 0.432935 0.947872
O O8 0.622728 0.391722 0.259916
O O9 0.000000 0.528417 0.000000
#
# Coordination Sequence:
#
# PCOD9125400 Si02
#       4
#     4   4   4   4
#     4  11  21  42  69  97 132 184 224 276 340 405
#     4  10  21  41  65 102 132 178 229 279 335 409
#     4  11  23  40  68 103 139 173 230 287 336 406
#     4  10  23  43  69  95 140 182 223 281 347 403
#
# _framework density 25.068528000000001
#
# number of rings (size 3 to 8) (size 9 to 14) (size 15 to 20)
#    0.000    1.500    5.000    0.750    0.000    2.000 
#    4.500   12.500    0.000    0.000    0.000    0.000 
#    0.000    0.000    0.000    0.000    0.000    0.000 
#
# Total GULP energy -44559.938014 kJ/mol
# GULP energy per Si atom -5569.992252 kJ/mol
# Density = 2.501147 g / cm^3
# Si number density = 25.068528 Si / 1000 Ang^3
#
#
#
# Elastic Constant Matrix: (Units=GPa)
#
#
# Indices 1 2 3 4 5 6 
#
# 1 58.2446 -26.1103 11.9898 -0.0012 12.4758 0.0013
# 2 -26.1103 97.9309 -1.9303 -0.0006 -11.6762 0.0005
# 3 11.9898 -1.9303 155.9251 -0.0031 0.3591 0.0025
# 4 -0.0012 -0.0006 -0.0031 29.6670 0.0014 -1.9956
# 5 12.4758 -11.6762 0.3591 0.0014 44.8547 -0.0009
# 6 0.0013 0.0005 0.0025 -1.9956 -0.0009 19.8989
#
#
#
# Elastic Compliance Matrix: (Units=1/GPa)
#
#
# Indices 1 2 3 4 5 6 
#
# 1 0.020650 0.004946 -0.001516 0.000001 -0.004444 -0.000001
# 2 0.004946 0.011725 -0.000239 0.000000 0.001678 0.000000
# 3 -0.001516 -0.000239 0.006526 0.000001 0.000307 -0.000001
# 4 0.000001 0.000000 0.000001 0.033936 -0.000001 0.003403
# 5 -0.004444 0.001678 0.000307 -0.000001 0.023965 0.000001
# 6 -0.000001 0.000000 -0.000001 0.003403 0.000001 0.050595
#
#
# Mechanical properties :
#
#
# Convention : Reuss Voigt Hill
#
# Bulk Modulus (GPa) = 22.08330 31.11098 26.59714
# Shear Modulus (GPa) = 32.02836 40.76088 36.39462
#
# Velocity S-wave (km/s) = 3.57828 4.03672 3.81439
# Velocity P-wave (km/s) = 5.08924 5.84501 5.48017
#
# Compressibility (1/GPa) = 0.04528309
#
# Stress axis : x y z
#
# Youngs Moduli (GPa) = 48.42555 85.28491 153.22679
#
# Poissons Ratio (x) = -0.42182 0.23236
# Poissons Ratio (y) = -0.23951 0.03663
# Poissons Ratio (z) = 0.07343 0.02039
#
# Static dielectric constant tensor:
#      x y z
#    x 2.185340 0.000000 0.034960 
#    y 0.000000 1.938370 0.000000 
#    z 0.034960 0.000000 2.070840 
# 
# From -- ./inp_files/35089.got.cif
#   From: 2010.05.17/outbox.cif.g08.bks.cpg/sg5_18_cif.got.tgz:35089.got - 2010.06.03 18:56:24.
