data_PCOD9125528
_publ_section_title
;
Structure prediction by ZEFSAII (Michael W. Deem and Ramdas Pophale) SiO2 
 PCOD9125528
Probable space group: C 2
;
_chemical_formula_sum "Si O2"
_cell_formula_units_Z 32
_cell_length_a 12.912372
_cell_length_b 15.201055
_cell_length_c 10.635804
_cell_angle_alpha 90.000000
_cell_angle_beta 135.109068
_cell_angle_gamma 90.000000
_cell_volume 1473.352928
_symmetry_space_group_name_H-M "C 2"
_symmetry_group_IT_number 5
_symmetry_cell_setting 'monoclinic'
loop_
_space_group_symop_operation_xyz
x,y,z
-x,y,-z
1/2+x,1/2+y,z
1/2-x,1/2+y,-z
loop_
_atom_site_type_symbol
_atom_site_label
_atom_site_fract_x
_atom_site_fract_y
_atom_site_fract_z
Si Si1 0.066733 0.801200 0.688036
Si Si2 0.611732 0.779985 0.926439
Si Si3 0.618293 0.450296 0.371705
Si Si4 0.590146 0.284130 0.203032
Si Si5 0.848113 0.202640 0.304202
Si Si6 0.055171 0.075190 0.910471
Si Si7 0.902213 0.446630 0.777991
Si Si8 0.807744 0.533889 0.950961
O O1 0.322502 0.969920 0.841535
O O2 0.000000 0.766732 0.500000
O O3 0.000811 0.900108 0.643907
O O4 0.238365 0.798558 0.867356
O O5 0.635710 0.773328 0.795730
O O6 0.572032 0.679855 0.925726
O O7 0.489587 0.853809 0.849072
O O8 0.608869 0.388333 0.240918
O O9 0.568321 0.547113 0.295678
O O10 0.775814 0.444636 0.567434
O O11 0.748001 0.242649 0.326295
O O12 0.506383 0.252562 0.255326
O O13 0.500000 0.265730 0.000000
O O14 0.000000 0.176414 0.500000
O O15 0.756658 0.122740 0.164495
O O16 0.199445 0.025004 0.978484
O O17 0.000000 0.048783 0.000000
O O18 0.024111 0.522817 0.859376
#
# Coordination Sequence:
#
# PCOD9125528 Si02
#       8
#     4   4   4   4   4   4   4   4
#     4  10  24  42  74 105 148 190 254 298 372 443
#     4  11  25  46  69 108 150 194 239 309 373 442
#     4  10  24  42  71 104 137 195 241 299 364 445
#     4  10  21  41  74 104 146 190 246 302 379 437
#     4  11  23  45  73 111 146 189 246 309 369 438
#     4  11  26  47  71  98 151 196 241 298 378 436
#     4  11  25  43  73 108 147 187 247 308 361 441
#     4  10  27  43  71 104 145 189 244 299 366 426
#
# _framework density 21.719166999999999
#
# number of rings (size 3 to 8) (size 9 to 14) (size 15 to 20)
#    0.750    0.750    1.250    1.875   12.250    1.000 
#    2.250    4.375    0.000    0.000    0.000    0.000 
#    0.000    0.000    0.000    0.000    0.000    0.000 
#
# Total GULP energy -89190.414900 kJ/mol
# GULP energy per Si atom -5574.400931 kJ/mol
# Density = 2.166973 g / cm^3
# Si number density = 21.719167 Si / 1000 Ang^3
#
#
#
# Elastic Constant Matrix: (Units=GPa)
#
#
# Indices 1 2 3 4 5 6 
#
# 1 161.2302 58.1999 56.5384 0.0000 2.0844 0.0000
# 2 58.1999 87.3387 58.1087 0.0000 17.0174 0.0000
# 3 56.5384 58.1087 168.1450 0.0000 23.2315 0.0000
# 4 0.0000 0.0000 0.0000 20.1457 0.0000 9.0828
# 5 2.0844 17.0174 23.2315 0.0000 39.4737 0.0000
# 6 0.0000 0.0000 0.0000 9.0828 0.0000 36.0055
#
#
#
# Elastic Compliance Matrix: (Units=1/GPa)
#
#
# Indices 1 2 3 4 5 6 
#
# 1 0.008576 -0.005286 -0.001425 0.000000 0.002664 0.000000
# 2 -0.005286 0.018635 -0.003909 0.000000 -0.005454 0.000000
# 3 -0.001425 -0.003909 0.008201 0.000000 -0.003066 0.000000
# 4 0.000000 0.000000 0.000000 0.056008 0.000000 -0.014129
# 5 0.002664 -0.005454 -0.003066 0.000000 0.029348 0.000000
# 6 0.000000 0.000000 0.000000 -0.014129 0.000000 0.031338
#
#
# Mechanical properties :
#
#
# Convention : Reuss Voigt Hill
#
# Bulk Modulus (GPa) = 70.56078 84.71201 77.63639
# Shear Modulus (GPa) = 28.07881 35.38279 31.73080
#
# Velocity S-wave (km/s) = 3.59947 4.04060 3.82640
# Velocity P-wave (km/s) = 7.05927 7.80106 7.43942
#
# Compressibility (1/GPa) = 0.01417218
#
# Stress axis : x y z
#
# Youngs Moduli (GPa) = 116.61116 53.66104 121.93558
#
# Poissons Ratio (x) = 0.28363 0.17376
# Poissons Ratio (y) = 0.61635 0.47669
# Poissons Ratio (z) = 0.16617 0.20978
#
# Static dielectric constant tensor:
#      x y z
#    x 1.867340 0.000000 -0.016120 
#    y 0.000000 1.803030 0.000000 
#    z -0.016120 0.000000 1.782400 
# 
# From -- ./inp_files/43101.got.cif
#   From: 2010.05.17/outbox.cif.g08.bks.cpg/sg5_22_cif.got.tgz:43101.got - 2010.06.03 18:56:24.
