data_PCOD9125004
_publ_section_title
;
Structure prediction by ZEFSAII (Michael W. Deem and Ramdas Pophale) SiO2 
 PCOD9125004
Probable space group: C 2
;
_chemical_formula_sum "Si O2"
_cell_formula_units_Z 26
_cell_length_a 6.718220
_cell_length_b 8.975362
_cell_length_c 18.347974
_cell_angle_alpha 90.000000
_cell_angle_beta 63.478155
_cell_angle_gamma 90.000000
_cell_volume 989.926383
_symmetry_space_group_name_H-M "C 2"
_symmetry_group_IT_number 5
_symmetry_cell_setting 'monoclinic'
loop_
_space_group_symop_operation_xyz
x,y,z
-x,y,-z
1/2+x,1/2+y,z
1/2-x,1/2+y,-z
loop_
_atom_site_type_symbol
_atom_site_label
_atom_site_fract_x
_atom_site_fract_y
_atom_site_fract_z
Si Si1 0.500000 0.774261 0.500000
Si Si2 0.651521 0.294570 0.764137
Si Si3 0.556661 0.734663 0.094990
Si Si4 0.848807 0.878937 0.935303
Si Si5 0.737713 0.772025 0.720453
Si Si6 0.175095 0.502730 0.374988
Si Si7 0.369150 0.560484 0.637144
O O1 0.342680 0.655401 0.568035
O O2 0.484938 0.895766 0.436864
O O3 0.557326 0.302959 0.860067
O O4 0.441794 0.266668 0.744688
O O5 0.738953 0.450317 0.718309
O O6 0.834045 0.175873 0.709311
O O7 0.353718 0.814541 0.082862
O O8 0.608367 0.557990 0.072749
O O9 0.472479 0.747393 0.191757
O O10 0.766133 0.825493 0.027866
O O11 0.835901 0.675723 0.637307
O O12 0.706046 0.931186 0.687403
O O13 0.383685 0.491576 0.397018
#
# Coordination Sequence:
#
# PCOD9125004 Si02
#       7
#     2   4   4   4   4   4   4
#     4  10  24  40  60  88 130 164 212 284 356 422
#     4   9  20  40  62  88 134 167 221 268 342 403
#     4  10  22  41  69 100 144 187 242 292 357 420
#     4  10  21  42  67 100 143 190 237 298 351 425
#     4  10  21  39  64  91 130 170 226 273 344 413
#     4  10  21  40  61  90 120 168 212 279 336 418
#     4  10  23  39  63  94 120 167 220 277 344 423
#
# _framework density 26.264579000000001
#
# number of rings (size 3 to 8) (size 9 to 14) (size 15 to 20)
#    0.000    2.154    1.538    0.000    2.154    8.000 
#    0.000    3.077    0.000    0.000    0.000    0.000 
#    0.000    0.000    0.000    0.000    0.000    0.000 
#
# Total GULP energy -72412.180473 kJ/mol
# GULP energy per Si atom -5570.167729 kJ/mol
# Density = 2.620480 g / cm^3
# Si number density = 26.264579 Si / 1000 Ang^3
#
#
#
# Elastic Constant Matrix: (Units=GPa)
#
#
# Indices 1 2 3 4 5 6 
#
# 1 100.2386 1.6094 36.4569 0.0000 -12.4435 0.0000
# 2 1.6094 170.8136 83.7571 0.0000 -2.8747 0.0000
# 3 36.4569 83.7571 244.2051 0.0000 2.3345 0.0000
# 4 0.0000 0.0000 0.0000 52.7368 0.0000 2.7735
# 5 -12.4435 -2.8747 2.3345 0.0000 31.1755 0.0000
# 6 0.0000 0.0000 0.0000 2.7735 0.0000 13.8868
#
#
#
# Elastic Compliance Matrix: (Units=1/GPa)
#
#
# Indices 1 2 3 4 5 6 
#
# 1 0.011305 0.000990 -0.002073 0.000000 0.004759 0.000000
# 2 0.000990 0.007146 -0.002611 0.000000 0.001250 0.000000
# 3 -0.002073 -0.002611 0.005314 0.000000 -0.001466 0.000000
# 4 0.000000 0.000000 0.000000 0.019163 0.000000 -0.003827
# 5 0.004759 0.001250 -0.001466 0.000000 0.034201 0.000000
# 6 0.000000 0.000000 0.000000 -0.003827 0.000000 0.072775
#
#
# Mechanical properties :
#
#
# Convention : Reuss Voigt Hill
#
# Bulk Modulus (GPa) = 61.05809 84.32268 72.69039
# Shear Modulus (GPa) = 30.72181 45.78876 38.25529
#
# Velocity S-wave (km/s) = 3.42381 4.17989 3.82060
# Velocity P-wave (km/s) = 6.23921 7.44783 6.87015
#
# Compressibility (1/GPa) = 0.01637785
#
# Stress axis : x y z
#
# Youngs Moduli (GPa) = 88.45729 139.93496 188.19004
#
# Poissons Ratio (x) = -0.13852 0.39006
# Poissons Ratio (y) = -0.08756 0.49131
# Poissons Ratio (z) = 0.18334 0.36533
#
# Static dielectric constant tensor:
#      x y z
#    x 2.331760 0.000000 0.021970 
#    y 0.000000 2.023080 0.000000 
#    z 0.021970 0.000000 1.988060 
# 
# From -- ./inp_files/64302.got.cif
#   From: 2010.05.17/outbox.cif.g08.bks.cpg/sg5_33_cif.got.tgz:64302.got - 2010.06.03 18:56:24.
