data_PCOD9125157
_publ_section_title
;
Structure prediction by ZEFSAII (Michael W. Deem and Ramdas Pophale) SiO2 
 PCOD9125157
Probable space group: C 2
;
_chemical_formula_sum "Si O2"
_cell_formula_units_Z 32
_cell_length_a 20.404558
_cell_length_b 10.031128
_cell_length_c 15.375096
_cell_angle_alpha 90.000000
_cell_angle_beta 153.482621
_cell_angle_gamma 90.000000
_cell_volume 1405.032427
_symmetry_space_group_name_H-M "C 2"
_symmetry_group_IT_number 5
_symmetry_cell_setting 'monoclinic'
loop_
_space_group_symop_operation_xyz
x,y,z
-x,y,-z
1/2+x,1/2+y,z
1/2-x,1/2+y,-z
loop_
_atom_site_type_symbol
_atom_site_label
_atom_site_fract_x
_atom_site_fract_y
_atom_site_fract_z
Si Si1 0.976783 0.819470 0.599184
Si Si2 0.572843 0.605972 0.739858
Si Si3 0.895671 0.822537 0.703412
Si Si4 0.318074 0.605781 0.577946
Si Si5 0.347063 0.070532 0.173735
Si Si6 0.054669 0.376541 0.473219
Si Si7 0.664073 0.452862 0.111385
Si Si8 0.346293 0.731762 0.801492
O O1 0.968686 0.802060 0.694908
O O2 0.809733 0.802550 0.368283
O O3 0.085902 0.701529 0.701439
O O4 0.038793 0.965353 0.654622
O O5 0.467419 0.610355 0.699814
O O6 0.520271 0.734294 0.625211
O O7 0.741628 0.610777 0.969573
O O8 0.807116 0.689152 0.619537
O O9 0.789392 0.950338 0.561851
O O10 0.017542 0.872987 0.915425
O O11 0.339279 0.680871 0.694013
O O12 0.242950 0.982433 0.112729
O O13 0.487585 0.976122 0.321956
O O14 0.227887 0.377153 0.693480
O O15 0.000000 0.437556 0.500000
O O16 0.643572 0.599074 0.127551
O O17 0.500000 0.807378 0.000000
#
# Coordination Sequence:
#
# PCOD9125157 Si02
#       8
#     4   4   4   4   4   4   4   4
#     4  10  22  38  60  91 123 161 208 255 307 376
#     4  11  22  41  60  91 130 161 198 262 316 368
#     4  10  21  40  62  90 128 162 208 261 304 373
#     4  10  22  38  62  91 123 162 209 254 308 372
#     4  11  20  40  66  88 119 172 208 247 305 382
#     4  10  24  39  62  92 124 158 207 258 309 371
#     4  11  21  40  64  93 120 161 214 258 300 370
#     4  11  20  37  63  90 118 160 208 259 299 362
#
# _framework density 22.775276000000002
#
# number of rings (size 3 to 8) (size 9 to 14) (size 15 to 20)
#    0.000    1.500    5.000    0.750    3.500    0.000 
#    2.250    3.750    0.000    0.000    0.000    0.000 
#    0.000    0.000    0.000    0.000    0.000    0.000 
#
# Total GULP energy -89386.606931 kJ/mol
# GULP energy per Si atom -5586.662933 kJ/mol
# Density = 2.272344 g / cm^3
# Si number density = 22.775276 Si / 1000 Ang^3
#
#
#
# Elastic Constant Matrix: (Units=GPa)
#
#
# Indices 1 2 3 4 5 6 
#
# 1 42.6415 -8.9749 2.7550 0.0000 -0.2248 0.0000
# 2 -8.9749 140.0351 91.1273 0.0000 -0.7553 0.0000
# 3 2.7550 91.1273 215.3816 0.0000 -2.2977 0.0000
# 4 0.0000 0.0000 0.0000 42.3265 0.0000 -8.1466
# 5 -0.2248 -0.7553 -2.2977 0.0000 18.7594 0.0000
# 6 0.0000 0.0000 0.0000 -8.1466 0.0000 22.3181
#
#
#
# Elastic Compliance Matrix: (Units=1/GPa)
#
#
# Indices 1 2 3 4 5 6 
#
# 1 0.024043 0.002402 -0.001321 0.000000 0.000223 0.000000
# 2 0.002402 0.010094 -0.004303 0.000000 -0.000092 0.000000
# 3 -0.001321 -0.004303 0.006487 0.000000 0.000605 0.000000
# 4 0.000000 0.000000 0.000000 0.025411 0.000000 0.009276
# 5 0.000223 -0.000092 0.000605 0.000000 0.053380 0.000000
# 6 0.000000 0.000000 0.000000 0.009276 0.000000 0.048193
#
#
# Mechanical properties :
#
#
# Convention : Reuss Voigt Hill
#
# Bulk Modulus (GPa) = 29.25636 63.09701 46.17669
# Shear Modulus (GPa) = 26.96208 37.55751 32.25979
#
# Velocity S-wave (km/s) = 3.44442 4.06525 3.76764
# Velocity P-wave (km/s) = 5.35651 7.05686 6.26465
#
# Compressibility (1/GPa) = 0.03418060
#
# Stress axis : x y z
#
# Youngs Moduli (GPa) = 41.59133 99.06429 154.16112
#
# Poissons Ratio (x) = -0.23796 0.20372
# Poissons Ratio (y) = -0.09991 0.66330
# Poissons Ratio (z) = 0.05496 0.42624
#
# Static dielectric constant tensor:
#      x y z
#    x 1.927420 0.000000 0.026530 
#    y 0.000000 1.836430 0.000000 
#    z 0.026530 0.000000 1.921700 
# 
# From -- ./inp_files/67605.got.cif
#   From: 2010.05.17/outbox.cif.g08.bks.cpg/sg5_34_cif.got.tgz:67605.got - 2010.06.03 18:56:24.
