data_PCOD9125771
_publ_section_title
;
Structure prediction by ZEFSAII (Michael W. Deem and Ramdas Pophale) SiO2 
 PCOD9125771
Probable space group: C 2
;
_chemical_formula_sum "Si O2"
_cell_formula_units_Z 28
_cell_length_a 5.138268
_cell_length_b 32.065691
_cell_length_c 8.906428
_cell_angle_alpha 90.000000
_cell_angle_beta 119.189966
_cell_angle_gamma 90.000000
_cell_volume 1281.087790
_symmetry_space_group_name_H-M "C 2"
_symmetry_group_IT_number 5
_symmetry_cell_setting 'monoclinic'
loop_
_space_group_symop_operation_xyz
x,y,z
-x,y,-z
1/2+x,1/2+y,z
1/2-x,1/2+y,-z
loop_
_atom_site_type_symbol
_atom_site_label
_atom_site_fract_x
_atom_site_fract_y
_atom_site_fract_z
Si Si1 0.182675 0.488610 0.322320
Si Si2 0.562797 0.531199 0.191846
Si Si3 0.645790 0.616427 0.377594
Si Si4 0.500000 0.850752 0.000000
Si Si5 0.500000 0.825881 0.500000
Si Si6 0.224218 0.281532 0.835182
Si Si7 0.350408 0.708769 0.622524
Si Si8 0.207559 0.396430 0.328551
O O1 0.500000 0.494178 0.500000
O O2 0.309745 0.502420 0.196939
O O3 0.049942 0.441311 0.284068
O O4 0.906378 0.515606 0.305238
O O5 0.537988 0.577374 0.252475
O O6 0.500000 0.532005 0.000000
O O7 0.500000 0.613829 0.500000
O O8 0.578460 0.662671 0.294887
O O9 0.000000 0.613978 0.500000
O O10 0.659184 0.820497 0.926649
O O11 0.282561 0.879329 0.838139
O O12 0.735076 0.798377 0.664238
O O13 0.610997 0.857377 0.403493
O O14 0.966153 0.247236 0.753020
O O15 0.500000 0.261098 0.000000
O O16 0.500000 0.711083 0.500000
O O17 0.000000 0.712171 0.500000
O O18 0.500000 0.408738 0.500000
#
# Coordination Sequence:
#
# PCOD9125771 Si02
#       8
#     4   4   4   2   2   4   4   4
#     4  11  25  43  69  95 132 178 227 270 327 400
#     4  12  25  42  67 100 138 172 216 277 336 391
#     4  10  21  43  69  98 129 177 221 265 326 401
#     4  10  24  40  62  94 134 174 224 280 340 386
#     4  10  22  42  64  92 134 174 232 278 334 396
#     4  11  23  41  67  98 135 177 226 274 344 396
#     4  10  23  43  72  98 134 176 222 276 334 399
#     4  10  23  40  63  92 130 177 230 273 334 390
#
# _framework density 21.856427
#
# number of rings (size 3 to 8) (size 9 to 14) (size 15 to 20)
#    0.000    1.429    0.714    3.857    8.000    2.286 
#    1.286    1.429    0.000    0.000    0.000    0.000 
#    0.000    0.000    0.000    0.000    0.000    0.000 
#
# Total GULP energy -78042.075427 kJ/mol
# GULP energy per Si atom -5574.433959 kJ/mol
# Density = 2.180668 g / cm^3
# Si number density = 21.856427 Si / 1000 Ang^3
#
#
#
# Elastic Constant Matrix: (Units=GPa)
#
#
# Indices 1 2 3 4 5 6 
#
# 1 93.5106 18.0069 26.4699 0.0000 1.6327 0.0000
# 2 18.0069 123.1543 51.6276 0.0000 1.6933 0.0000
# 3 26.4699 51.6276 134.1080 0.0000 -9.6303 0.0000
# 4 0.0000 0.0000 0.0000 14.3736 0.0000 -7.2970
# 5 1.6327 1.6933 -9.6303 0.0000 28.1575 0.0000
# 6 0.0000 0.0000 0.0000 -7.2970 0.0000 33.9652
#
#
#
# Elastic Compliance Matrix: (Units=1/GPa)
#
#
# Indices 1 2 3 4 5 6 
#
# 1 0.011450 -0.000798 -0.002047 0.000000 -0.001316 0.000000
# 2 -0.000798 0.009839 -0.003762 0.000000 -0.001832 0.000000
# 3 -0.002047 -0.003762 0.009569 0.000000 0.003618 0.000000
# 4 0.000000 0.000000 0.000000 0.078089 0.000000 0.016776
# 5 -0.001316 -0.001832 0.003618 0.000000 0.036938 0.000000
# 6 0.000000 0.000000 0.000000 0.016776 0.000000 0.033046
#
#
# Mechanical properties :
#
#
# Convention : Reuss Voigt Hill
#
# Bulk Modulus (GPa) = 56.67720 60.33131 58.50425
# Shear Modulus (GPa) = 25.24921 32.27713 28.76317
#
# Velocity S-wave (km/s) = 3.40256 3.84706 3.63161
# Velocity P-wave (km/s) = 6.43618 6.88451 6.66412
#
# Compressibility (1/GPa) = 0.01764378
#
# Stress axis : x y z
#
# Youngs Moduli (GPa) = 87.33522 101.63970 104.50734
#
# Poissons Ratio (x) = 0.08109 0.21397
# Poissons Ratio (y) = 0.06967 0.39312
# Poissons Ratio (z) = 0.17881 0.38234
#
# Static dielectric constant tensor:
#      x y z
#    x 1.841290 0.000000 -0.010530 
#    y 0.000000 1.867080 0.000000 
#    z -0.010530 0.000000 1.859670 
# 
# From -- ./inp_files/13396.got.cif
#   From: 2010.05.17/outbox.cif.g08.bks.cpg/sg5_7_cif.got.tgz:13396.got - 2010.06.03 18:56:24.
