data_PCOD9125684
_publ_section_title
;
Structure prediction by ZEFSAII (Michael W. Deem and Ramdas Pophale) SiO2 
 PCOD9125684
Probable space group: C 2
;
_chemical_formula_sum "Si O2"
_cell_formula_units_Z 30
_cell_length_a 11.758494
_cell_length_b 9.465067
_cell_length_c 11.590526
_cell_angle_alpha 90.000000
_cell_angle_beta 67.065276
_cell_angle_gamma 90.000000
_cell_volume 1187.994181
_symmetry_space_group_name_H-M "C 2"
_symmetry_group_IT_number 5
_symmetry_cell_setting 'monoclinic'
loop_
_space_group_symop_operation_xyz
x,y,z
-x,y,-z
1/2+x,1/2+y,z
1/2-x,1/2+y,-z
loop_
_atom_site_type_symbol
_atom_site_label
_atom_site_fract_x
_atom_site_fract_y
_atom_site_fract_z
Si Si1 0.593825 0.821090 0.870151
Si Si2 0.236881 0.055094 0.808409
Si Si3 0.500000 0.392234 0.500000
Si Si4 0.496472 0.925270 0.671879
Si Si5 0.717465 0.525758 0.080696
Si Si6 0.480584 0.326581 0.134235
Si Si7 0.376138 0.652298 0.661535
Si Si8 0.862276 0.683619 0.393130
O O1 0.681238 0.700258 0.782999
O O2 0.523369 0.897368 0.795583
O O3 0.674389 0.933444 0.907357
O O4 0.500000 0.752719 0.000000
O O5 0.366646 0.005174 0.708687
O O6 0.136227 0.932764 0.827543
O O7 0.249963 0.079750 0.940989
O O8 0.432464 0.498681 0.614370
O O9 0.400162 0.295300 0.474915
O O10 0.479624 0.770805 0.626926
O O11 0.603138 0.025571 0.582053
O O12 0.599187 0.423571 0.112494
O O13 0.685270 0.645639 0.186873
O O14 0.451999 0.220814 0.249011
O O15 0.500000 0.259497 0.000000
O O16 0.273427 0.685438 0.606549
#
# Coordination Sequence:
#
# PCOD9125684 Si02
#       8
#     4   4   2   4   4   4   4   4
#     4  12  23  40  66 110 160 200 241 293 360 444
#     4  11  23  39  71 111 160 198 235 297 363 454
#     4  12  32  54  76 104 142 190 260 318 366 434
#     4  12  26  44  76 112 146 192 247 300 370 448
#     4  11  22  42  70 106 153 199 243 291 365 439
#     4  10  21  42  72 112 151 194 237 294 369 443
#     4  12  27  51  77 103 143 197 248 311 372 435
#     4  12  27  50  78 111 145 190 248 310 371 436
#
# _framework density 25.252648000000001
#
# number of rings (size 3 to 8) (size 9 to 14) (size 15 to 20)
#    0.000    0.533    5.333    3.600    0.000    4.267 
#    0.000    0.000    0.000    0.000    0.000    0.000 
#    0.000    0.000    0.000    0.000    0.000    0.000 
#
# Total GULP energy -84193.740474 kJ/mol
# GULP energy per Si atom -5612.916032 kJ/mol
# Density = 2.519517 g / cm^3
# Si number density = 25.252648 Si / 1000 Ang^3
#
#
#
# Elastic Constant Matrix: (Units=GPa)
#
#
# Indices 1 2 3 4 5 6 
#
# 1 128.5110 35.2103 15.5460 0.0000 14.1221 0.0000
# 2 35.2103 120.8621 13.2400 0.0000 17.9671 0.0000
# 3 15.5460 13.2400 78.2469 0.0000 16.5693 0.0000
# 4 0.0000 0.0000 0.0000 19.8084 0.0000 3.6976
# 5 14.1221 17.9671 16.5693 0.0000 19.9588 0.0000
# 6 0.0000 0.0000 0.0000 3.6976 0.0000 34.4644
#
#
#
# Elastic Compliance Matrix: (Units=1/GPa)
#
#
# Indices 1 2 3 4 5 6 
#
# 1 0.008817 -0.001904 -0.000572 0.000000 -0.004050 0.000000
# 2 -0.001904 0.009967 0.000372 0.000000 -0.007934 0.000000
# 3 -0.000572 0.000372 0.015549 0.000000 -0.012839 0.000000
# 4 0.000000 0.000000 0.000000 0.051515 0.000000 -0.005527
# 5 -0.004050 -0.007934 -0.012839 0.000000 0.070770 0.000000
# 6 0.000000 0.000000 0.000000 -0.005527 0.000000 0.029608
#
#
# Mechanical properties :
#
#
# Convention : Reuss Voigt Hill
#
# Bulk Modulus (GPa) = 33.19422 50.62363 41.90892
# Shear Modulus (GPa) = 24.94042 32.42124 28.68083
#
# Velocity S-wave (km/s) = 3.14608 3.58701 3.37375
# Velocity P-wave (km/s) = 5.13522 6.10294 5.63987
#
# Compressibility (1/GPa) = 0.03012573
#
# Stress axis : x y z
#
# Youngs Moduli (GPa) = 113.41267 100.32793 64.31080
#
# Poissons Ratio (x) = 0.19102 0.03679
# Poissons Ratio (y) = 0.21594 -0.02391
# Poissons Ratio (z) = 0.06488 -0.03731
#
# Static dielectric constant tensor:
#      x y z
#    x 1.934480 0.000000 -0.028450 
#    y 0.000000 1.962100 0.000000 
#    z -0.028450 0.000000 2.052640 
# 
# From -- ./inp_files/52423.got.cif
#   From: 2010.05.17/outbox.cif.g08.bks.cpg/sg5_27_cif.got.tgz:52423.got - 2010.06.03 18:56:24.
