data_PCOD9125017
_publ_section_title
;
Structure prediction by ZEFSAII (Michael W. Deem and Ramdas Pophale) SiO2 
 PCOD9125017
Probable space group: C 2
;
_chemical_formula_sum "Si O2"
_cell_formula_units_Z 24
_cell_length_a 29.074966
_cell_length_b 5.327454
_cell_length_c 18.625276
_cell_angle_alpha 90.000000
_cell_angle_beta 20.897850
_cell_angle_gamma 90.000000
_cell_volume 1029.078096
_symmetry_space_group_name_H-M "C 2"
_symmetry_group_IT_number 5
_symmetry_cell_setting 'monoclinic'
loop_
_space_group_symop_operation_xyz
x,y,z
-x,y,-z
1/2+x,1/2+y,z
1/2-x,1/2+y,-z
loop_
_atom_site_type_symbol
_atom_site_label
_atom_site_fract_x
_atom_site_fract_y
_atom_site_fract_z
Si Si1 0.320736 0.265940 0.875530
Si Si2 0.535884 0.024932 0.652977
Si Si3 0.170209 0.594232 0.604960
Si Si4 0.306848 0.441208 0.205066
Si Si5 0.093700 0.447021 0.938934
Si Si6 0.325023 0.719816 0.043464
O O1 0.450566 0.211971 0.729483
O O2 0.274811 0.551823 0.952235
O O3 0.303217 0.206637 0.816731
O O4 0.606188 0.138525 0.620117
O O5 0.653745 0.934356 0.432515
O O6 0.441779 0.807209 0.821661
O O7 0.269880 0.359209 0.457263
O O8 0.051944 0.484860 0.824596
O O9 0.359613 0.196768 0.165452
O O10 0.350232 0.480892 0.058123
O O11 0.367812 0.687315 0.153056
O O12 0.178849 0.427772 0.888310
#
# Coordination Sequence:
#
# PCOD9125017 Si02
#       6
#     4   4   4   4   4   4
#     4  10  22  36  63  97 122 169 211 251 313 383
#     4  10  23  42  67  94 128 170 222 262 320 400
#     4  11  24  42  68  91 119 171 216 263 335 381
#     4  10  21  39  64  95 130 167 203 265 324 379
#     4   9  21  40  63  88 132 159 203 266 319 371
#     4   8  21  39  65  87 133 168 200 260 317 373
#
# _framework density 23.321847000000002
#
# number of rings (size 3 to 8) (size 9 to 14) (size 15 to 20)
#    1.000    1.333    0.000    1.000    7.000    6.000 
#    0.000    5.000    3.667    0.000    0.000    0.000 
#    0.000    0.000    0.000    0.000    0.000    0.000 
#
# Total GULP energy -66875.509925 kJ/mol
# GULP energy per Si atom -5572.959160 kJ/mol
# Density = 2.326876 g / cm^3
# Si number density = 23.321847 Si / 1000 Ang^3
#
#
#
# Elastic Constant Matrix: (Units=GPa)
#
#
# Indices 1 2 3 4 5 6 
#
# 1 141.1267 17.2023 21.2077 -0.0017 -40.5227 0.0006
# 2 17.2023 114.9679 11.6628 -0.0150 -6.9903 0.0029
# 3 21.2077 11.6628 89.5804 -0.0100 -11.1635 -0.0034
# 4 -0.0017 -0.0150 -0.0100 23.7430 -0.0016 -12.7388
# 5 -40.5227 -6.9903 -11.1635 -0.0016 33.7044 -0.0003
# 6 0.0006 0.0029 -0.0034 -12.7388 -0.0003 5.2348
#
#
#
# Elastic Compliance Matrix: (Units=1/GPa)
#
#
# Indices 1 2 3 4 5 6 
#
# 1 0.010972 -0.000775 -0.000910 -0.000001 0.012730 -0.000004
# 2 -0.000775 0.008944 -0.000903 -0.000008 0.000623 -0.000024
# 3 -0.000910 -0.000903 0.011825 -0.000030 0.002635 -0.000064
# 4 -0.000001 -0.000008 -0.000030 -0.137803 -0.000022 -0.335341
# 5 0.012730 0.000623 0.002635 -0.000022 0.045976 -0.000052
# 6 -0.000004 -0.000024 -0.000064 -0.335341 -0.000052 -0.625018
#
#
# Mechanical properties :
#
#
# Convention : Reuss Voigt Hill
#
# Bulk Modulus (GPa) = 37.64668 49.53565 43.59116
# Shear Modulus (GPa) = -7.45077 32.24325 12.39624
#
# Velocity S-wave (km/s) = -1.78933 3.72228 2.30799
# Velocity P-wave (km/s) = 3.45085 6.30555 5.08273
#
# Compressibility (1/GPa) = 0.02656277
#
# Stress axis : x y z
#
# Youngs Moduli (GPa) = 91.13864 111.81142 84.56960
#
# Poissons Ratio (x) = 0.08670 0.07699
# Poissons Ratio (y) = 0.07067 0.07638
# Poissons Ratio (z) = 0.08297 0.10098
#
# Static dielectric constant tensor:
#      x y z
#    x 1.933350 0.000000 -0.014490 
#    y 0.000000 1.932620 0.000010 
#    z -0.014490 0.000010 1.882340 
# 
# From -- ./inp_files/67662.got.cif
#   From: 2010.05.17/outbox.cif.g08.bks.cpg/sg5_34_cif.got.tgz:67662.got - 2010.06.03 18:56:24.
