data_PCOD9125273
_publ_section_title
;
Structure prediction by ZEFSAII (Michael W. Deem and Ramdas Pophale) SiO2 
 PCOD9125273
Probable space group: C 2
;
_chemical_formula_sum "Si O2"
_cell_formula_units_Z 30
_cell_length_a 8.542376
_cell_length_b 26.013356
_cell_length_c 8.203456
_cell_angle_alpha 90.000000
_cell_angle_beta 51.253033
_cell_angle_gamma 90.000000
_cell_volume 1421.741533
_symmetry_space_group_name_H-M "C 2"
_symmetry_group_IT_number 5
_symmetry_cell_setting 'monoclinic'
loop_
_space_group_symop_operation_xyz
x,y,z
-x,y,-z
1/2+x,1/2+y,z
1/2-x,1/2+y,-z
loop_
_atom_site_type_symbol
_atom_site_label
_atom_site_fract_x
_atom_site_fract_y
_atom_site_fract_z
Si Si1 0.153403 0.813630 0.770010
Si Si2 0.720528 0.537676 0.822492
Si Si3 0.457158 0.943278 0.724542
Si Si4 0.049567 0.330595 0.694536
Si Si5 0.792127 0.021386 0.556957
Si Si6 0.958435 0.612988 0.214242
Si Si7 0.941765 0.721289 0.723226
Si Si8 0.500000 0.751059 0.000000
O O1 0.361354 0.802882 0.727876
O O2 0.252556 0.840483 0.545634
O O3 0.035230 0.764345 0.780507
O O4 0.000000 0.839645 0.000000
O O5 0.765112 0.480524 0.864060
O O6 0.729242 0.530926 0.622653
O O7 0.879422 0.576503 0.798860
O O8 0.500000 0.556693 0.000000
O O9 0.500000 0.937720 0.500000
O O10 0.459507 0.886437 0.794664
O O11 0.631549 0.976759 0.693480
O O12 0.091434 0.291181 0.809786
O O13 0.735124 0.076632 0.666299
O O14 0.000000 0.005342 0.500000
O O15 0.955357 0.666528 0.309289
O O16 0.000000 0.625066 0.000000
O O17 0.700244 0.718694 0.911461
O O18 0.000000 0.734636 0.500000
#
# Coordination Sequence:
#
# PCOD9125273 Si02
#       8
#     4   4   4   4   4   4   4   2
#     4  11  22  41  69  91 135 171 228 268 329 383
#     4  10  21  40  67  95 129 168 213 267 330 402
#     4   9  19  40  63  90 134 166 216 265 320 382
#     4  11  23  44  64  98 134 180 220 278 322 389
#     4  10  21  43  63  97 130 168 209 268 326 402
#     4  11  24  43  68  92 127 165 218 275 333 392
#     4  12  25  45  65  99 132 175 215 278 331 400
#     4  12  26  44  66  96 138 174 224 272 334 392
#
# _framework density 21.100883
#
# number of rings (size 3 to 8) (size 9 to 14) (size 15 to 20)
#    0.000    1.333    4.000    3.200    0.933    0.533 
#   14.400    0.000    0.000    0.000    0.000    0.000 
#    0.000    0.000    0.000    0.000    0.000    0.000 
#
# Total GULP energy -83577.675309 kJ/mol
# GULP energy per Si atom -5571.845021 kJ/mol
# Density = 2.105286 g / cm^3
# Si number density = 21.100883 Si / 1000 Ang^3
#
#
#
# Elastic Constant Matrix: (Units=GPa)
#
#
# Indices 1 2 3 4 5 6 
#
# 1 80.8314 18.2116 7.5952 0.0000 -14.3047 0.0000
# 2 18.2116 64.2288 -12.4066 0.0000 -3.7408 0.0000
# 3 7.5952 -12.4066 69.7424 0.0000 -7.6911 0.0000
# 4 0.0000 0.0000 0.0000 11.7683 0.0000 0.5328
# 5 -14.3047 -3.7408 -7.6911 0.0000 34.1729 0.0000
# 6 0.0000 0.0000 0.0000 0.5328 0.0000 10.4800
#
#
#
# Elastic Compliance Matrix: (Units=1/GPa)
#
#
# Indices 1 2 3 4 5 6 
#
# 1 0.014376 -0.004108 -0.001725 0.000000 0.005180 0.000000
# 2 -0.004108 0.017503 0.003674 0.000000 0.001023 0.000000
# 3 -0.001725 0.003674 0.015530 0.000000 0.003175 0.000000
# 4 0.000000 0.000000 0.000000 0.085170 0.000000 -0.004330
# 5 0.005180 0.001023 0.003175 0.000000 0.032258 0.000000
# 6 0.000000 0.000000 0.000000 -0.004330 0.000000 0.095640
#
#
# Mechanical properties :
#
#
# Convention : Reuss Voigt Hill
#
# Bulk Modulus (GPa) = 23.20651 26.84478 25.02564
# Shear Modulus (GPa) = 17.91101 24.71107 21.31104
#
# Velocity S-wave (km/s) = 2.91663 3.42583 3.18143
# Velocity P-wave (km/s) = 4.72906 5.32899 5.03797
#
# Compressibility (1/GPa) = 0.04309135
#
# Stress axis : x y z
#
# Youngs Moduli (GPa) = 69.56217 57.13215 64.39119
#
# Poissons Ratio (x) = 0.23468 0.11108
# Poissons Ratio (y) = 0.28574 -0.23657
# Poissons Ratio (z) = 0.12000 -0.20990
#
# Static dielectric constant tensor:
#      x y z
#    x 1.822710 0.000000 0.065420 
#    y 0.000000 1.725840 0.000000 
#    z 0.065420 0.000000 1.882330 
# 
# From -- ./inp_files/17444.got.cif
#   From: 2010.05.17/outbox.cif.g08.bks.cpg/sg5_9_cif.got.tgz:17444.got - 2010.06.03 18:56:24.
