data_PCOD9125313
_publ_section_title
;
Structure prediction by ZEFSAII (Michael W. Deem and Ramdas Pophale) SiO2 
 PCOD9125313
Probable space group: C 2
;
_chemical_formula_sum "Si O2"
_cell_formula_units_Z 30
_cell_length_a 10.304868
_cell_length_b 16.809161
_cell_length_c 10.582021
_cell_angle_alpha 90.000000
_cell_angle_beta 42.877011
_cell_angle_gamma 90.000000
_cell_volume 1247.207057
_symmetry_space_group_name_H-M "C 2"
_symmetry_group_IT_number 5
_symmetry_cell_setting 'monoclinic'
loop_
_space_group_symop_operation_xyz
x,y,z
-x,y,-z
1/2+x,1/2+y,z
1/2-x,1/2+y,-z
loop_
_atom_site_type_symbol
_atom_site_label
_atom_site_fract_x
_atom_site_fract_y
_atom_site_fract_z
Si Si1 0.917196 0.741360 0.285642
Si Si2 0.266686 0.489770 0.923377
Si Si3 0.193946 0.920890 0.667405
Si Si4 0.168862 0.232187 0.117286
Si Si5 0.500000 0.180293 0.500000
Si Si6 0.306350 0.611660 0.106067
Si Si7 0.299239 0.601252 0.693856
Si Si8 0.940298 0.401915 0.737790
O O1 0.818863 0.825001 0.332120
O O2 0.949888 0.731732 0.412332
O O3 0.818725 0.658409 0.314350
O O4 0.108143 0.749928 0.064835
O O5 0.489905 0.461542 0.779919
O O6 0.216234 0.524673 0.823201
O O7 0.213302 0.559439 0.062609
O O8 0.136694 0.420212 0.068107
O O9 0.285579 0.930999 0.742383
O O10 0.360770 0.940673 0.447278
O O11 0.147985 0.162206 0.231960
O O12 0.057518 0.306084 0.255415
O O13 0.123999 0.192564 0.014266
O O14 0.673744 0.127802 0.320463
O O15 0.500000 0.567891 0.000000
O O16 0.500000 0.573226 0.500000
#
# Coordination Sequence:
#
# PCOD9125313 Si02
#       8
#     4   4   4   4   2   4   4   4
#     4  11  22  44  73 103 141 183 244 303 349 428
#     4  11  25  44  65 102 142 187 231 301 363 420
#     4  11  23  40  72 103 141 189 237 296 359 428
#     4  10  21  40  70 105 134 183 243 294 344 422
#     4  10  26  42  70 104 134 188 240 296 354 418
#     4  10  23  41  66  94 141 184 230 288 355 419
#     4  11  24  43  69 102 142 186 241 292 358 425
#     4  11  22  41  70 105 139 188 245 287 356 432
#
# _framework density 24.053743000000001
#
# number of rings (size 3 to 8) (size 9 to 14) (size 15 to 20)
#    0.000    1.333    2.667    2.400    5.600    2.133 
#    8.400    0.000    0.000    0.000    0.000    0.000 
#    0.000    0.000    0.000    0.000    0.000    0.000 
#
# Total GULP energy -83720.881938 kJ/mol
# GULP energy per Si atom -5581.392129 kJ/mol
# Density = 2.399900 g / cm^3
# Si number density = 24.053743 Si / 1000 Ang^3
#
#
#
# Elastic Constant Matrix: (Units=GPa)
#
#
# Indices 1 2 3 4 5 6 
#
# 1 65.3113 18.6040 34.7403 0.0000 5.0762 0.0001
# 2 18.6040 60.7458 18.8600 0.0000 -0.1144 0.0000
# 3 34.7403 18.8600 147.7606 -0.0001 3.3665 0.0001
# 4 0.0000 0.0000 -0.0001 40.9244 0.0001 1.9670
# 5 5.0762 -0.1144 3.3665 0.0001 32.2161 0.0000
# 6 0.0001 0.0000 0.0001 1.9670 0.0000 29.9717
#
#
#
# Elastic Compliance Matrix: (Units=1/GPa)
#
#
# Indices 1 2 3 4 5 6 
#
# 1 0.018834 -0.004599 -0.003782 0.000000 -0.002589 0.000000
# 2 -0.004599 0.018267 -0.001271 0.000000 0.000922 0.000000
# 3 -0.003782 -0.001271 0.007824 0.000000 -0.000226 0.000000
# 4 0.000000 0.000000 0.000000 0.024513 0.000000 -0.001609
# 5 -0.002589 0.000922 -0.000226 0.000000 0.031475 0.000000
# 6 0.000000 0.000000 0.000000 -0.001609 0.000000 0.033470
#
#
# Mechanical properties :
#
#
# Convention : Reuss Voigt Hill
#
# Bulk Modulus (GPa) = 39.03063 46.46960 42.75011
# Shear Modulus (GPa) = 30.82068 34.06334 32.44201
#
# Velocity S-wave (km/s) = 3.58344 3.76724 3.67649
# Velocity P-wave (km/s) = 5.77781 6.18739 5.98610
#
# Compressibility (1/GPa) = 0.02562090
#
# Stress axis : x y z
#
# Youngs Moduli (GPa) = 53.09464 54.74375 127.80576
#
# Poissons Ratio (x) = 0.25175 0.48339
# Poissons Ratio (y) = 0.24417 0.16249
# Poissons Ratio (z) = 0.20081 0.06960
#
# Static dielectric constant tensor:
#      x y z
#    x 2.003970 0.000000 -0.013300 
#    y 0.000000 2.060840 0.000000 
#    z -0.013300 0.000000 1.902860 
# 
# From -- ./inp_files/40440.got.cif
#   From: 2010.05.17/outbox.cif.g08.bks.cpg/sg5_21_cif.got.tgz:40440.got - 2010.06.03 18:56:24.
