data_PCOD9125582
_publ_section_title
;
Structure prediction by ZEFSAII (Michael W. Deem and Ramdas Pophale) SiO2 
 PCOD9125582
Probable space group: C 2
;
_chemical_formula_sum "Si O2"
_cell_formula_units_Z 14
_cell_length_a 5.417615
_cell_length_b 14.627677
_cell_length_c 6.938261
_cell_angle_alpha 90.000000
_cell_angle_beta 110.217376
_cell_angle_gamma 90.000000
_cell_volume 515.960791
_symmetry_space_group_name_H-M "C 2"
_symmetry_group_IT_number 5
_symmetry_cell_setting 'monoclinic'
loop_
_space_group_symop_operation_xyz
x,y,z
-x,y,-z
1/2+x,1/2+y,z
1/2-x,1/2+y,-z
loop_
_atom_site_type_symbol
_atom_site_label
_atom_site_fract_x
_atom_site_fract_y
_atom_site_fract_z
Si Si1 0.500000 0.054410 0.000000
Si Si2 0.796391 0.874759 0.065253
Si Si3 0.215834 0.635017 0.422604
Si Si4 0.296233 0.351025 0.565776
O O1 0.407579 0.122445 0.814737
O O2 0.732866 0.983152 0.021377
O O3 0.868852 0.852812 0.838107
O O4 0.500000 0.829204 0.000000
O O5 0.867389 0.874430 0.336935
O O6 0.500000 0.590090 0.500000
O O7 0.238555 0.741427 0.474428
O O8 0.000000 0.591470 0.500000
O O9 0.000000 0.391652 0.500000
#
# Coordination Sequence:
#
# PCOD9125582 Si02
#       4
#     2   4   4   4
#     4  10  26  44  66  96 136 172 212 272 330 386
#     4  10  23  40  59  98 124 166 217 252 334 382
#     4  10  24  43  68  96 130 171 221 265 326 388
#     4  10  21  42  65  95 123 167 218 271 315 382
#
# _framework density 27.133845000000001
#
# number of rings (size 3 to 8) (size 9 to 14) (size 15 to 20)
#    0.857    1.143    0.000    1.714    6.000    1.143 
#    0.000    0.000    0.000    0.000    0.000    0.000 
#    0.000    0.000    0.000    0.000    0.000    0.000 
#
# Total GULP energy -38983.001389 kJ/mol
# GULP energy per Si atom -5569.000198 kJ/mol
# Density = 2.707209 g / cm^3
# Si number density = 27.133845 Si / 1000 Ang^3
#
#
#
# Elastic Constant Matrix: (Units=GPa)
#
#
# Indices 1 2 3 4 5 6 
#
# 1 366.3105 16.0060 106.8739 0.0000 1.0527 0.0000
# 2 16.0060 92.1946 -23.4756 0.0000 -11.0844 0.0000
# 3 106.8739 -23.4756 245.2600 0.0000 30.2703 0.0000
# 4 0.0000 0.0000 0.0000 73.1772 0.0000 -30.7380
# 5 1.0527 -11.0844 30.2703 0.0000 65.1794 0.0000
# 6 0.0000 0.0000 0.0000 -30.7380 0.0000 159.0077
#
#
#
# Elastic Compliance Matrix: (Units=1/GPa)
#
#
# Indices 1 2 3 4 5 6 
#
# 1 0.003220 -0.000892 -0.001553 0.000000 0.000517 0.000000
# 2 -0.000892 0.011501 0.001322 0.000000 0.001356 0.000000
# 3 -0.001553 0.001322 0.005144 0.000000 -0.002139 0.000000
# 4 0.000000 0.000000 0.000000 0.014873 0.000000 0.002875
# 5 0.000517 0.001356 -0.002139 0.000000 0.016558 0.000000
# 6 0.000000 0.000000 0.000000 0.002875 0.000000 0.006845
#
#
# Mechanical properties :
#
#
# Convention : Reuss Voigt Hill
#
# Bulk Modulus (GPa) = 56.75020 100.28597 78.51808
# Shear Modulus (GPa) = 75.45938 99.76357 87.61148
#
# Velocity S-wave (km/s) = 5.27925 6.07018 5.68847
# Velocity P-wave (km/s) = 7.62371 9.28274 8.49383
#
# Compressibility (1/GPa) = 0.01762108
#
# Stress axis : x y z
#
# Youngs Moduli (GPa) = 310.52087 86.94686 194.38490
#
# Poissons Ratio (x) = 0.07758 0.30179
# Poissons Ratio (y) = 0.27706 -0.25703
# Poissons Ratio (z) = 0.48210 -0.11497
#
# Static dielectric constant tensor:
#      x y z
#    x 2.229430 0.000000 -0.258120 
#    y 0.000000 1.864910 0.000000 
#    z -0.258120 0.000000 2.397710 
# 
# From -- ./inp_files/397.got.cif
#   From: 2010.05.17/outbox.cif.g08.bks.cpg/sg5_1_cif.got.tgz:397.got - 2010.06.03 18:56:24.
