data_PCOD9125607
_publ_section_title
;
Structure prediction by ZEFSAII (Michael W. Deem and Ramdas Pophale) SiO2 
 PCOD9125607
Probable space group: C 2
;
_chemical_formula_sum "Si O2"
_cell_formula_units_Z 28
_cell_length_a 8.351083
_cell_length_b 10.171509
_cell_length_c 20.053458
_cell_angle_alpha 90.000000
_cell_angle_beta 138.236094
_cell_angle_gamma 90.000000
_cell_volume 1134.573371
_symmetry_space_group_name_H-M "C 2"
_symmetry_group_IT_number 5
_symmetry_cell_setting 'monoclinic'
loop_
_space_group_symop_operation_xyz
x,y,z
-x,y,-z
1/2+x,1/2+y,z
1/2-x,1/2+y,-z
loop_
_atom_site_type_symbol
_atom_site_label
_atom_site_fract_x
_atom_site_fract_y
_atom_site_fract_z
Si Si1 0.951646 0.842620 0.243600
Si Si2 0.270574 0.625433 0.882873
Si Si3 0.113338 0.412550 0.929985
Si Si4 0.409229 0.558964 0.544986
Si Si5 0.329258 0.631905 0.089960
Si Si6 0.501926 0.257011 0.594796
Si Si7 0.515542 0.622542 0.286139
O O1 0.934896 0.735354 0.180706
O O2 0.671355 0.888372 0.158050
O O3 0.009156 0.767809 0.329060
O O4 0.103242 0.975476 0.290312
O O5 0.176297 0.491342 0.882847
O O6 0.394405 0.611093 0.849178
O O7 0.500000 0.664152 0.000000
O O8 0.241586 0.271493 0.964310
O O9 0.198019 0.507706 0.015963
O O10 0.500000 0.601565 0.500000
O O11 0.406501 0.400311 0.542879
O O12 0.552013 0.601519 0.657105
O O13 0.158701 0.634436 0.477280
O O14 0.324844 0.649677 0.167962
O O15 0.773968 0.229118 0.656267
#
# Coordination Sequence:
#
# PCOD9125607 Si02
#       7
#     4   4   4   4   4   4   4
#     4  10  23  40  68 102 139 185 239 284 356 419
#     4   9  19  39  63  88 137 184 231 287 337 394
#     4  10  21  42  66  99 145 193 238 291 343 404
#     4  11  26  47  78 104 137 182 232 300 371 433
#     4  10  22  42  68  99 144 194 240 287 344 413
#     4  11  24  51  73 101 143 182 231 300 366 428
#     4  11  23  44  70 105 143 185 232 295 353 426
#
# _framework density 24.678881000000001
#
# number of rings (size 3 to 8) (size 9 to 14) (size 15 to 20)
#    0.000    1.714    2.857    1.286    6.000    4.571 
#   10.286    4.286    0.000    0.000    0.000    0.000 
#    0.000    0.000    0.000    0.000    0.000    0.000 
#
# Total GULP energy -78143.660221 kJ/mol
# GULP energy per Si atom -5581.690016 kJ/mol
# Density = 2.462271 g / cm^3
# Si number density = 24.678881 Si / 1000 Ang^3
#
#
#
# Elastic Constant Matrix: (Units=GPa)
#
#
# Indices 1 2 3 4 5 6 
#
# 1 68.1735 35.5084 29.6379 0.0000 -21.9087 0.0000
# 2 35.5084 159.6306 70.0947 0.0000 -5.6041 0.0000
# 3 29.6379 70.0947 119.4705 0.0000 -16.4395 0.0000
# 4 0.0000 0.0000 0.0000 54.8961 0.0000 -1.7937
# 5 -21.9087 -5.6041 -16.4395 0.0000 41.9174 0.0000
# 6 0.0000 0.0000 0.0000 -1.7937 0.0000 37.1489
#
#
#
# Elastic Compliance Matrix: (Units=1/GPa)
#
#
# Indices 1 2 3 4 5 6 
#
# 1 0.020227 -0.003415 -0.001715 0.000000 0.009443 0.000000
# 2 -0.003415 0.009044 -0.004797 0.000000 -0.002457 0.000000
# 3 -0.001715 -0.004797 0.012049 0.000000 0.003188 0.000000
# 4 0.000000 0.000000 0.000000 0.018245 0.000000 0.000881
# 5 0.009443 -0.002457 0.003188 0.000000 0.029714 0.000000
# 6 0.000000 0.000000 0.000000 0.000881 0.000000 0.026961
#
#
# Mechanical properties :
#
#
# Convention : Reuss Voigt Hill
#
# Bulk Modulus (GPa) = 46.58484 68.63963 57.61224
# Shear Modulus (GPa) = 34.90392 40.92805 37.91599
#
# Velocity S-wave (km/s) = 3.76483 4.07679 3.92391
# Velocity P-wave (km/s) = 6.14947 7.07346 6.62759
#
# Compressibility (1/GPa) = 0.02146621
#
# Stress axis : x y z
#
# Youngs Moduli (GPa) = 49.43818 110.56617 82.99399
#
# Poissons Ratio (x) = 0.37756 0.14234
# Poissons Ratio (y) = 0.16882 0.39816
# Poissons Ratio (z) = 0.08479 0.53043
#
# Static dielectric constant tensor:
#      x y z
#    x 1.996470 0.000000 -0.030070 
#    y 0.000000 1.991070 0.000000 
#    z -0.030070 0.000000 2.004630 
# 
# From -- ./inp_files/68230.got.cif
#   From: 2010.05.17/outbox.cif.g08.bks.cpg/sg5_35_cif.got.tgz:68230.got - 2010.06.03 18:56:24.
