data_PCOD9125826
_publ_section_title
;
Structure prediction by ZEFSAII (Michael W. Deem and Ramdas Pophale) SiO2 
 PCOD9125826
Probable space group: C 2
;
_chemical_formula_sum "Si O2"
_cell_formula_units_Z 24
_cell_length_a 16.525045
_cell_length_b 8.178942
_cell_length_c 22.577735
_cell_angle_alpha 90.000000
_cell_angle_beta 21.083932
_cell_angle_gamma 90.000000
_cell_volume 1097.748959
_symmetry_space_group_name_H-M "C 2"
_symmetry_group_IT_number 5
_symmetry_cell_setting 'monoclinic'
loop_
_space_group_symop_operation_xyz
x,y,z
-x,y,-z
1/2+x,1/2+y,z
1/2-x,1/2+y,-z
loop_
_atom_site_type_symbol
_atom_site_label
_atom_site_fract_x
_atom_site_fract_y
_atom_site_fract_z
Si Si1 0.094909 0.003440 0.492566
Si Si2 0.276356 0.565518 0.129487
Si Si3 0.619974 0.322812 0.599187
Si Si4 0.901333 0.436145 0.867574
Si Si5 0.134588 0.074687 0.156240
Si Si6 0.868819 0.235893 0.723511
O O1 0.917839 0.150710 0.627298
O O2 0.000000 0.913795 0.500000
O O3 0.360433 0.030085 0.301214
O O4 0.088343 0.906790 0.557809
O O5 0.058114 0.677860 0.279606
O O6 0.269755 0.498234 0.066765
O O7 0.248053 0.410637 0.192876
O O8 0.500000 0.653140 0.000000
O O9 0.564198 0.451458 0.689268
O O10 0.874330 0.265372 0.430291
O O11 0.931583 0.243070 0.832179
O O12 0.800383 0.475296 0.000426
O O13 0.234746 0.127693 0.152200
#
# Coordination Sequence:
#
# PCOD9125826 Si02
#       6
#     4   4   4   4   4   4
#     4  11  24  40  67  97 133 176 236 274 331 411
#     4  11  23  40  68 100 134 176 233 278 340 405
#     4  11  20  44  68  91 131 187 224 277 343 400
#     4  11  22  41  61 101 132 175 225 284 342 397
#     4  10  22  37  70  89 129 177 219 277 345 398
#     4  10  21  44  67  92 132 184 221 274 343 410
#
# _framework density 21.862922000000001
#
# number of rings (size 3 to 8) (size 9 to 14) (size 15 to 20)
#    0.000    1.333    5.000    2.000    0.000    5.333 
#    0.000    6.667    0.000    0.000    0.000    0.000 
#    0.000    0.000    0.000    0.000    0.000    0.000 
#
# Total GULP energy -66941.454150 kJ/mol
# GULP energy per Si atom -5578.454513 kJ/mol
# Density = 2.181316 g / cm^3
# Si number density = 21.862922 Si / 1000 Ang^3
#
#
#
# Elastic Constant Matrix: (Units=GPa)
#
#
# Indices 1 2 3 4 5 6 
#
# 1 81.9429 14.6405 51.3012 -0.0030 7.0844 0.0002
# 2 14.6405 57.1428 20.5216 -0.0039 18.2038 -0.0013
# 3 51.3012 20.5216 90.3876 -0.0174 28.2801 0.0027
# 4 -0.0030 -0.0039 -0.0174 34.4291 0.0030 6.5321
# 5 7.0844 18.2038 28.2801 0.0030 43.6991 -0.0014
# 6 0.0002 -0.0013 0.0027 6.5321 -0.0014 12.9118
#
#
#
# Elastic Compliance Matrix: (Units=1/GPa)
#
#
# Indices 1 2 3 4 5 6 
#
# 1 0.020092 -0.002496 -0.012718 -0.000007 0.006013 0.000006
# 2 -0.002496 0.020929 -0.000920 0.000002 -0.007718 0.000000
# 3 -0.012718 -0.000920 0.022226 0.000014 -0.011939 -0.000013
# 4 -0.000007 0.000002 0.000014 0.032129 -0.000011 -0.016254
# 5 0.006013 -0.007718 -0.011939 -0.000011 0.032850 0.000011
# 6 0.000006 0.000000 -0.000013 -0.016254 0.000011 0.085671
#
#
# Mechanical properties :
#
#
# Convention : Reuss Voigt Hill
#
# Bulk Modulus (GPa) = 32.28087 44.71108 38.49598
# Shear Modulus (GPa) = 19.49373 27.74201 23.61787
#
# Velocity S-wave (km/s) = 2.98926 3.56604 3.29031
# Velocity P-wave (km/s) = 5.16831 6.11968 5.66401
#
# Compressibility (1/GPa) = 0.03097810
#
# Stress axis : x y z
#
# Youngs Moduli (GPa) = 49.77060 47.78124 44.99179
#
# Poissons Ratio (x) = 0.11926 0.57222
# Poissons Ratio (y) = 0.12422 0.04140
# Poissons Ratio (z) = 0.63300 0.04397
#
# Static dielectric constant tensor:
#      x y z
#    x 1.786550 0.000000 0.012910 
#    y 0.000000 1.897030 0.000000 
#    z 0.012910 0.000000 1.795620 
# 
# From -- ./inp_files/28656.got.cif
#   From: 2010.05.17/outbox.cif.g08.bks.cpg/sg5_15_cif.got.tgz:28656.got - 2010.06.03 18:56:24.
