data_PCOD9125333
_publ_section_title
;
Structure prediction by ZEFSAII (Michael W. Deem and Ramdas Pophale) SiO2 
 PCOD9125333
Probable space group: C 2
;
_chemical_formula_sum "Si O2"
_cell_formula_units_Z 32
_cell_length_a 12.196295
_cell_length_b 8.247601
_cell_length_c 26.876527
_cell_angle_alpha 90.000000
_cell_angle_beta 25.732576
_cell_angle_gamma 90.000000
_cell_volume 1173.788506
_symmetry_space_group_name_H-M "C 2"
_symmetry_group_IT_number 5
_symmetry_cell_setting 'monoclinic'
loop_
_space_group_symop_operation_xyz
x,y,z
-x,y,-z
1/2+x,1/2+y,z
1/2-x,1/2+y,-z
loop_
_atom_site_type_symbol
_atom_site_label
_atom_site_fract_x
_atom_site_fract_y
_atom_site_fract_z
Si Si1 0.016177 0.019740 0.567118
Si Si2 0.728256 0.198958 0.181170
Si Si3 0.738045 0.180735 0.935522
Si Si4 0.510680 0.895313 0.681777
Si Si5 0.344036 0.277647 0.258887
Si Si6 0.724389 0.235437 0.301095
Si Si7 0.802594 0.572487 0.540567
Si Si8 0.741415 0.058088 0.041330
O O1 0.125467 0.970525 0.577121
O O2 0.899873 0.196198 0.615288
O O3 0.236306 0.990983 0.438479
O O4 0.785183 0.896022 0.660747
O O5 0.547290 0.306810 0.220115
O O6 0.723028 0.250882 0.241456
O O7 0.626026 0.012569 0.223361
O O8 0.016256 0.172502 0.046948
O O9 0.730009 0.372163 0.953793
O O10 0.005018 0.154477 0.799881
O O11 0.500000 0.145275 0.000000
O O12 0.723477 0.067288 0.989384
O O13 0.295120 0.887744 0.725747
O O14 0.622432 0.711925 0.637997
O O15 0.496695 0.144251 0.164080
O O16 0.484835 0.148774 0.423637
O O17 0.000000 0.506860 0.500000
#
# Coordination Sequence:
#
# PCOD9125333 Si02
#       8
#     4   4   4   4   4   4   4   4
#     4  10  21  41  59  89 127 161 217 272 314 398
#     4  11  23  41  67  92 128 174 210 273 332 385
#     4  11  24  45  73  96 137 182 217 279 342 389
#     4  10  23  40  60  97 125 162 224 268 308 408
#     4  11  23  40  68  93 130 172 215 271 333 380
#     4  10  22  42  59  93 130 161 219 270 318 404
#     4  10  22  37  61  90 124 171 211 267 334 382
#     4  11  24  43  69 106 132 170 233 275 323 415
#
# _framework density 27.262152
#
# number of rings (size 3 to 8) (size 9 to 14) (size 15 to 20)
#    0.000    1.500    2.500    1.875    3.500    3.000 
#    0.000    6.875    0.000    0.000    0.000    0.000 
#    0.000    0.000    0.000    0.000    0.000    0.000 
#
# Total GULP energy -89502.346400 kJ/mol
# GULP energy per Si atom -5593.896650 kJ/mol
# Density = 2.720010 g / cm^3
# Si number density = 27.262152 Si / 1000 Ang^3
#
#
#
# Elastic Constant Matrix: (Units=GPa)
#
#
# Indices 1 2 3 4 5 6 
#
# 1 141.0896 8.1103 16.5125 0.0007 -22.0289 0.0009
# 2 8.1103 48.6960 22.0445 -0.0002 -1.3852 -0.0006
# 3 16.5125 22.0445 114.9315 -0.0049 -14.0473 0.0013
# 4 0.0007 -0.0002 -0.0049 31.8826 -0.0055 -3.8975
# 5 -22.0289 -1.3852 -14.0473 -0.0055 48.3580 -0.0021
# 6 0.0009 -0.0006 0.0013 -3.8975 -0.0021 35.4525
#
#
#
# Elastic Compliance Matrix: (Units=1/GPa)
#
#
# Indices 1 2 3 4 5 6 
#
# 1 0.007725 -0.000957 -0.000518 0.000000 0.003341 0.000000
# 2 -0.000957 0.022625 -0.004330 -0.000001 -0.001046 0.000000
# 3 -0.000518 -0.004330 0.009914 0.000002 0.002520 0.000000
# 4 0.000000 -0.000001 0.000002 0.031792 0.000004 0.003495
# 5 0.003341 -0.001046 0.002520 0.000004 0.022903 0.000002
# 6 0.000000 0.000000 0.000000 0.003495 0.000002 0.028591
#
#
# Mechanical properties :
#
#
# Convention : Reuss Voigt Hill
#
# Bulk Modulus (GPa) = 34.89895 44.22796 39.56346
# Shear Modulus (GPa) = 34.55140 40.34193 37.44666
#
# Velocity S-wave (km/s) = 3.56388 3.85096 3.71020
# Velocity P-wave (km/s) = 5.45565 6.00264 5.73566
#
# Compressibility (1/GPa) = 0.02865415
#
# Stress axis : x y z
#
# Youngs Moduli (GPa) = 129.44991 44.19818 100.87008
#
# Poissons Ratio (x) = 0.04230 0.05224
# Poissons Ratio (y) = 0.12389 0.43676
# Poissons Ratio (z) = 0.06705 0.19138
#
# Static dielectric constant tensor:
#      x y z
#    x 2.265670 -0.000010 0.018290 
#    y -0.000010 2.196020 -0.000010 
#    z 0.018290 -0.000010 2.045820 
# 
# From -- ./inp_files/68380.got.cif
#   From: 2010.05.17/outbox.cif.g08.bks.cpg/sg5_35_cif.got.tgz:68380.got - 2010.06.03 18:56:24.
