data_PCOD9125065
_publ_section_title
;
Structure prediction by ZEFSAII (Michael W. Deem and Ramdas Pophale) SiO2 
 PCOD9125065
Probable space group: C 2
;
_chemical_formula_sum "Si O2"
_cell_formula_units_Z 30
_cell_length_a 11.717305
_cell_length_b 8.029207
_cell_length_c 14.887377
_cell_angle_alpha 90.000000
_cell_angle_beta 116.613172
_cell_angle_gamma 90.000000
_cell_volume 1252.221058
_symmetry_space_group_name_H-M "C 2"
_symmetry_group_IT_number 5
_symmetry_cell_setting 'monoclinic'
loop_
_space_group_symop_operation_xyz
x,y,z
-x,y,-z
1/2+x,1/2+y,z
1/2-x,1/2+y,-z
loop_
_atom_site_type_symbol
_atom_site_label
_atom_site_fract_x
_atom_site_fract_y
_atom_site_fract_z
Si Si1 0.958601 0.289550 0.891493
Si Si2 0.292018 0.097179 0.135579
Si Si3 0.000000 0.660840 0.500000
Si Si4 0.527790 0.268372 0.318296
Si Si5 0.139158 0.052622 0.736895
Si Si6 0.021926 0.350336 0.600324
Si Si7 0.840677 0.475023 0.686452
Si Si8 0.730328 0.712992 0.927616
O O1 0.834517 0.178574 0.866421
O O2 0.929851 0.404785 0.796656
O O3 0.084417 0.186361 0.909560
O O4 0.000000 0.374364 0.000000
O O5 0.410121 0.151923 0.240242
O O6 0.265520 0.902547 0.106282
O O7 0.314146 0.179703 0.044848
O O8 0.051255 0.761342 0.433923
O O9 0.914384 0.519057 0.418207
O O10 0.485446 0.451725 0.277352
O O11 0.646323 0.174905 0.316272
O O12 0.100333 0.235036 0.692857
O O13 0.241937 0.078617 0.851993
O O14 0.199821 0.948029 0.675795
O O15 0.000000 0.250452 0.500000
O O16 0.895060 0.403015 0.612020
#
# Coordination Sequence:
#
# PCOD9125065 Si02
#       8
#     4   4   2   4   4   4   4   4
#     4  10  21  39  66  93 133 176 216 268 333 390
#     4  11  22  40  68  97 130 182 219 272 335 400
#     4   8  20  42  66  84 128 178 202 274 336 370
#     4  11  22  40  64  97 132 164 227 274 324 398
#     4  12  24  40  69 101 128 174 223 274 338 404
#     4   9  21  46  64  88 138 167 214 279 330 385
#     4  11  22  44  64  98 130 175 216 273 332 396
#     4  11  23  42  67  94 139 174 220 277 338 393
#
# _framework density 23.957432000000001
#
# number of rings (size 3 to 8) (size 9 to 14) (size 15 to 20)
#    0.400    1.067    4.000    1.600    2.800    1.067 
#    4.800    1.333    0.000    0.000    0.000    0.000 
#    0.000    0.000    0.000    0.000    0.000    0.000 
#
# Total GULP energy -83586.776008 kJ/mol
# GULP energy per Si atom -5572.451734 kJ/mol
# Density = 2.390290 g / cm^3
# Si number density = 23.957432 Si / 1000 Ang^3
#
#
#
# Elastic Constant Matrix: (Units=GPa)
#
#
# Indices 1 2 3 4 5 6 
#
# 1 65.2503 5.6262 -1.6007 0.0000 -19.1232 0.0000
# 2 5.6262 73.7661 35.3236 0.0000 -14.4921 0.0000
# 3 -1.6007 35.3236 108.8268 0.0000 -34.2211 0.0000
# 4 0.0000 0.0000 0.0000 33.1927 0.0000 -3.0880
# 5 -19.1232 -14.4921 -34.2211 0.0000 29.6901 0.0000
# 6 0.0000 0.0000 0.0000 -3.0880 0.0000 28.0405
#
#
#
# Elastic Compliance Matrix: (Units=1/GPa)
#
#
# Indices 1 2 3 4 5 6 
#
# 1 0.022339 -0.000955 0.007868 0.000000 0.022991 0.000000
# 2 -0.000955 0.016249 -0.004686 0.000000 0.001915 0.000000
# 3 0.007868 -0.004686 0.018351 0.000000 0.023932 0.000000
# 4 0.000000 0.000000 0.000000 0.030439 0.000000 0.003352
# 5 0.022991 0.001915 0.023932 0.000000 0.077009 0.000000
# 6 0.000000 0.000000 0.000000 0.003352 0.000000 0.036032
#
#
# Mechanical properties :
#
#
# Convention : Reuss Voigt Hill
#
# Bulk Modulus (GPa) = 16.28803 36.28238 26.28521
# Shear Modulus (GPa) = 23.10213 32.08426 27.59320
#
# Velocity S-wave (km/s) = 3.10869 3.66351 3.39744
# Velocity P-wave (km/s) = 4.43833 5.75086 5.13669
#
# Compressibility (1/GPa) = 0.06139478
#
# Stress axis : x y z
#
# Youngs Moduli (GPa) = 44.76449 61.54055 54.49198
#
# Poissons Ratio (x) = 0.05875 -0.42875
# Poissons Ratio (y) = 0.04274 0.25535
# Poissons Ratio (z) = -0.35222 0.28838
#
# Static dielectric constant tensor:
#      x y z
#    x 1.911580 0.000000 -0.037010 
#    y 0.000000 1.935720 0.000000 
#    z -0.037010 0.000000 1.981520 
# 
# From -- ./inp_files/52486.got.cif
#   From: 2010.05.17/outbox.cif.g08.bks.cpg/sg5_27_cif.got.tgz:52486.got - 2010.06.03 18:56:24.
