data_PCOD9125170
_publ_section_title
;
Structure prediction by ZEFSAII (Michael W. Deem and Ramdas Pophale) SiO2 
 PCOD9125170
Probable space group: C 2
;
_chemical_formula_sum "Si O2"
_cell_formula_units_Z 32
_cell_length_a 21.733954
_cell_length_b 12.792942
_cell_length_c 10.396057
_cell_angle_alpha 90.000000
_cell_angle_beta 146.069494
_cell_angle_gamma 90.000000
_cell_volume 1613.457417
_symmetry_space_group_name_H-M "C 2"
_symmetry_group_IT_number 5
_symmetry_cell_setting 'monoclinic'
loop_
_space_group_symop_operation_xyz
x,y,z
-x,y,-z
1/2+x,1/2+y,z
1/2-x,1/2+y,-z
loop_
_atom_site_type_symbol
_atom_site_label
_atom_site_fract_x
_atom_site_fract_y
_atom_site_fract_z
Si Si1 0.295017 0.599290 0.348410
Si Si2 0.248155 0.810677 0.418706
Si Si3 0.537746 0.566246 0.706464
Si Si4 0.083750 0.686142 0.266642
Si Si5 0.631076 0.982734 0.233823
Si Si6 0.744910 0.430614 0.153563
Si Si7 0.289390 0.721751 0.071970
Si Si8 0.400742 0.129391 0.425798
O O1 0.281868 0.700967 0.415253
O O2 0.422598 0.565352 0.582932
O O3 0.203465 0.514974 0.234779
O O4 0.274326 0.641029 0.166957
O O5 0.154228 0.787676 0.359619
O O6 0.338098 0.873779 0.651746
O O7 0.216262 0.879069 0.240542
O O8 0.500000 0.532138 0.500000
O O9 0.594852 0.681659 0.789396
O O10 0.635419 0.491234 0.920068
O O11 0.154768 0.580238 0.370023
O O12 0.049992 0.675817 0.355511
O O13 0.000000 0.686484 0.000000
O O14 0.500000 0.981694 0.000000
O O15 0.781840 0.337344 0.120419
O O16 0.841178 0.516687 0.335931
O O17 0.193441 0.702943 0.801226
O O18 0.500000 0.119415 0.500000
#
# Coordination Sequence:
#
# PCOD9125170 Si02
#       8
#     4   4   4   4   4   4   4   4
#     4   9  20  39  64  86 125 170 211 264 334 378
#     4  10  21  40  63  86 126 171 215 264 327 394
#     4   9  19  40  61  91 129 165 208 267 327 391
#     4  10  23  43  63  91 130 171 212 273 329 386
#     4  10  21  40  63  88 122 166 221 267 318 394
#     4  10  21  40  64  95 127 169 220 265 324 394
#     4   9  21  40  62  91 129 166 207 267 327 388
#     4  11  24  40  65  97 128 168 218 273 324 390
#
# _framework density 19.833185
#
# number of rings (size 3 to 8) (size 9 to 14) (size 15 to 20)
#    0.000    2.250    1.250    0.000    7.000    4.000 
#   11.250    0.000    0.000    0.000    0.000    0.000 
#    0.000    0.000    0.000    0.000    0.000    0.000 
#
# Total GULP energy -89076.413037 kJ/mol
# GULP energy per Si atom -5567.275815 kJ/mol
# Density = 1.978804 g / cm^3
# Si number density = 19.833185 Si / 1000 Ang^3
#
#
#
# Elastic Constant Matrix: (Units=GPa)
#
#
# Indices 1 2 3 4 5 6 
#
# 1 110.3122 39.9768 54.2389 0.0000 1.4613 0.0000
# 2 39.9768 67.6159 42.7530 0.0000 0.3466 0.0000
# 3 54.2389 42.7530 102.9985 0.0000 10.8852 0.0000
# 4 0.0000 0.0000 0.0000 26.5140 0.0000 -0.5856
# 5 1.4613 0.3466 10.8852 0.0000 22.8826 0.0000
# 6 0.0000 0.0000 0.0000 -0.5856 0.0000 15.7304
#
#
#
# Elastic Compliance Matrix: (Units=1/GPa)
#
#
# Indices 1 2 3 4 5 6 
#
# 1 0.013286 -0.004506 -0.005311 0.000000 0.001746 0.000000
# 2 -0.004506 0.021908 -0.007071 0.000000 0.003320 0.000000
# 3 -0.005311 -0.007071 0.016208 0.000000 -0.007264 0.000000
# 4 0.000000 0.000000 0.000000 0.037747 0.000000 0.001405
# 5 0.001746 0.003320 -0.007264 0.000000 0.046995 0.000000
# 6 0.000000 0.000000 0.000000 0.001405 0.000000 0.063624
#
#
# Mechanical properties :
#
#
# Convention : Reuss Voigt Hill
#
# Bulk Modulus (GPa) = 56.73494 61.65156 59.19325
# Shear Modulus (GPa) = 20.88379 22.62258 21.75319
#
# Velocity S-wave (km/s) = 3.24847 3.38100 3.31540
# Velocity P-wave (km/s) = 6.53745 6.81132 6.67579
#
# Compressibility (1/GPa) = 0.01762582
#
# Stress axis : x y z
#
# Youngs Moduli (GPa) = 75.26559 45.64552 61.69687
#
# Poissons Ratio (x) = 0.20570 0.32764
# Poissons Ratio (y) = 0.33918 0.43628
# Poissons Ratio (z) = 0.39970 0.32278
#
# Static dielectric constant tensor:
#      x y z
#    x 1.757210 0.000000 0.004670 
#    y 0.000000 1.725840 0.000000 
#    z 0.004670 0.000000 1.703780 
# 
# From -- ./inp_files/47510.got.cif
#   From: 2010.05.17/outbox.cif.g08.bks.cpg/sg5_24_cif.got.tgz:47510.got - 2010.06.03 18:56:24.
