data_PCOD9125129
_publ_section_title
;
Structure prediction by ZEFSAII (Michael W. Deem and Ramdas Pophale) SiO2 
 PCOD9125129
Probable space group: C 2
;
_chemical_formula_sum "Si O2"
_cell_formula_units_Z 30
_cell_length_a 8.875278
_cell_length_b 14.892108
_cell_length_c 11.992315
_cell_angle_alpha 90.000000
_cell_angle_beta 73.016628
_cell_angle_gamma 90.000000
_cell_volume 1515.919011
_symmetry_space_group_name_H-M "C 2"
_symmetry_group_IT_number 5
_symmetry_cell_setting 'monoclinic'
loop_
_space_group_symop_operation_xyz
x,y,z
-x,y,-z
1/2+x,1/2+y,z
1/2-x,1/2+y,-z
loop_
_atom_site_type_symbol
_atom_site_label
_atom_site_fract_x
_atom_site_fract_y
_atom_site_fract_z
Si Si1 0.900113 0.105160 0.725244
Si Si2 0.912566 0.488368 0.745577
Si Si3 0.934577 0.008719 0.123452
Si Si4 0.051559 0.647014 0.863175
Si Si5 0.500000 0.726619 0.500000
Si Si6 0.763124 0.387789 0.578734
Si Si7 0.747388 0.919575 0.673813
Si Si8 0.461544 0.337489 0.792576
O O1 0.742395 0.149368 0.812138
O O2 0.034858 0.076614 0.782414
O O3 0.976666 0.164427 0.612344
O O4 0.830486 0.011040 0.695672
O O5 0.746520 0.479367 0.844457
O O6 0.983730 0.581479 0.779705
O O7 0.861690 0.462315 0.628731
O O8 0.059732 0.422529 0.733550
O O9 0.043039 0.921061 0.121393
O O10 0.000000 0.054604 0.000000
O O11 0.983302 0.744939 0.851076
O O12 0.000000 0.618445 0.000000
O O13 0.356030 0.795877 0.536029
O O14 0.719856 0.418511 0.464735
O O15 0.614692 0.361801 0.685588
O O16 0.820844 0.841888 0.733962
#
# Coordination Sequence:
#
# PCOD9125129 Si02
#       8
#     4   4   4   4   2   4   4   4
#     4  10  24  38  63  91 122 167 209 252 322 371
#     4  10  22  38  62  88 119 162 209 252 315 374
#     4  10  21  41  64  88 122 169 209 250 310 381
#     4  11  22  42  63  91 126 160 213 272 307 365
#     4  12  22  38  62  88 124 160 200 266 308 370
#     4  11  21  41  59  84 126 164 199 256 314 385
#     4  10  21  40  60  89 127 162 203 254 313 385
#     4  10  22  38  61  92 120 165 211 251 314 374
#
# _framework density 19.789974000000001
#
# number of rings (size 3 to 8) (size 9 to 14) (size 15 to 20)
#    0.000    1.600    2.667    1.600    5.600    1.067 
#    0.000    1.333    0.000    0.000    0.000    0.000 
#    0.000    0.000    0.000    0.000    0.000    0.000 
#
# Total GULP energy -83571.951904 kJ/mol
# GULP energy per Si atom -5571.463460 kJ/mol
# Density = 1.974493 g / cm^3
# Si number density = 19.789974 Si / 1000 Ang^3
#
#
#
# Elastic Constant Matrix: (Units=GPa)
#
#
# Indices 1 2 3 4 5 6 
#
# 1 83.5104 7.1713 28.8108 0.0000 2.2920 0.0000
# 2 7.1713 57.7440 20.9403 0.0000 14.3189 0.0000
# 3 28.8108 20.9403 94.7405 0.0000 -3.3370 0.0000
# 4 0.0000 0.0000 0.0000 14.3862 0.0000 -4.2856
# 5 2.2920 14.3189 -3.3370 0.0000 24.7981 0.0000
# 6 0.0000 0.0000 0.0000 -4.2856 0.0000 19.6965
#
#
#
# Elastic Compliance Matrix: (Units=1/GPa)
#
#
# Indices 1 2 3 4 5 6 
#
# 1 0.013464 0.000372 -0.004248 0.000000 -0.002031 0.000000
# 2 0.000372 0.022774 -0.005638 0.000000 -0.013943 0.000000
# 3 -0.004248 -0.005638 0.013285 0.000000 0.005436 0.000000
# 4 0.000000 0.000000 0.000000 0.074329 0.000000 0.016173
# 5 -0.002031 -0.013943 0.005436 0.000000 0.049296 0.000000
# 6 0.000000 0.000000 0.000000 0.016173 0.000000 0.054289
#
#
# Mechanical properties :
#
#
# Convention : Reuss Voigt Hill
#
# Bulk Modulus (GPa) = 32.79310 38.87109 35.83210
# Shear Modulus (GPa) = 19.48339 23.71433 21.59886
#
# Velocity S-wave (km/s) = 3.14109 3.46540 3.30722
# Velocity P-wave (km/s) = 5.45544 5.97465 5.72094
#
# Compressibility (1/GPa) = 0.03049422
#
# Stress axis : x y z
#
# Youngs Moduli (GPa) = 74.27230 43.91050 75.27499
#
# Poissons Ratio (x) = -0.01634 0.31978
# Poissons Ratio (y) = -0.02764 0.42439
# Poissons Ratio (z) = 0.31552 0.24756
#
# Static dielectric constant tensor:
#      x y z
#    x 1.739700 0.000000 0.019550 
#    y 0.000000 1.697490 0.000000 
#    z 0.019550 0.000000 1.742980 
# 
# From -- ./inp_files/36361.got.cif
#   From: 2010.05.17/outbox.cif.g08.bks.cpg/sg5_19_cif.got.tgz:36361.got - 2010.06.03 18:56:24.
