data_PCOD9125808
_publ_section_title
;
Structure prediction by ZEFSAII (Michael W. Deem and Ramdas Pophale) SiO2 
 PCOD9125808
Probable space group: C 2
;
_chemical_formula_sum "Si O2"
_cell_formula_units_Z 24
_cell_length_a 8.745240
_cell_length_b 12.898544
_cell_length_c 10.922585
_cell_angle_alpha 90.000000
_cell_angle_beta 81.729340
_cell_angle_gamma 90.000000
_cell_volume 1219.262896
_symmetry_space_group_name_H-M "C 2"
_symmetry_group_IT_number 5
_symmetry_cell_setting 'monoclinic'
loop_
_space_group_symop_operation_xyz
x,y,z
-x,y,-z
1/2+x,1/2+y,z
1/2-x,1/2+y,-z
loop_
_atom_site_type_symbol
_atom_site_label
_atom_site_fract_x
_atom_site_fract_y
_atom_site_fract_z
Si Si1 0.532374 0.568240 0.860933
Si Si2 0.114324 0.091995 0.380934
Si Si3 0.623743 0.031300 0.131335
Si Si4 0.000000 0.285027 0.500000
Si Si5 0.863598 0.417063 0.299787
Si Si6 0.201820 0.885390 0.076027
Si Si7 0.500000 0.213318 0.000000
O O1 0.459465 0.609868 0.745031
O O2 0.715279 0.563599 0.826723
O O3 0.450914 0.454831 0.880197
O O4 0.500000 0.617399 0.000000
O O5 0.000000 0.045764 0.500000
O O6 0.130478 0.208163 0.429080
O O7 0.256257 0.014754 0.348222
O O8 0.522435 0.131870 0.107633
O O9 0.522108 0.959360 0.226504
O O10 0.682224 0.963915 0.007171
O O11 0.911437 0.350219 0.409302
O O12 0.776607 0.358184 0.198000
O O13 0.147647 0.788748 0.999765
#
# Coordination Sequence:
#
# PCOD9125808 Si02
#       7
#     4   4   4   2   4   4   2
#     4   9  19  41  68  90 139 172 204 278 335 373
#     4   9  23  45  65  91 132 178 221 269 335 399
#     4  11  22  39  66 104 132 164 222 278 316 399
#     4  10  26  44  68  92 124 184 230 262 342 390
#     4  11  23  44  67  94 137 166 228 283 315 387
#     4  10  21  44  61 100 139 171 208 271 335 401
#     4  12  22  36  68  98 140 176 210 246 364 396
#
# _framework density 19.684023
#
# number of rings (size 3 to 8) (size 9 to 14) (size 15 to 20)
#    0.500    1.333    4.167    0.000    4.667    1.333 
#    0.000    0.000    0.000    0.000    0.000    0.000 
#    0.000    0.000    0.000    0.000    0.000    0.000 
#
# Total GULP energy -66805.899578 kJ/mol
# GULP energy per Si atom -5567.158298 kJ/mol
# Density = 1.963922 g / cm^3
# Si number density = 19.684023 Si / 1000 Ang^3
#
#
#
# Elastic Constant Matrix: (Units=GPa)
#
#
# Indices 1 2 3 4 5 6 
#
# 1 99.1940 46.7010 46.7561 0.0000 8.5968 0.0000
# 2 46.7010 89.5530 63.2520 0.0000 23.0039 0.0000
# 3 46.7561 63.2520 102.8564 0.0000 14.9535 0.0000
# 4 0.0000 0.0000 0.0000 226.7843 0.0000 -54.0893
# 5 8.5968 23.0039 14.9535 0.0000 16.7365 0.0000
# 6 0.0000 0.0000 0.0000 -54.0893 0.0000 35.9768
#
#
#
# Elastic Compliance Matrix: (Units=1/GPa)
#
#
# Indices 1 2 3 4 5 6 
#
# 1 0.014145 -0.006116 -0.003258 0.000000 0.004052 0.000000
# 2 -0.006116 0.029267 -0.011293 0.000000 -0.026995 0.000000
# 3 -0.003258 -0.011293 0.017984 0.000000 0.001127 0.000000
# 4 0.000000 0.000000 0.000000 0.006875 0.000000 0.010336
# 5 0.004052 -0.026995 0.001127 0.000000 0.093766 0.000000
# 6 0.000000 0.000000 0.000000 0.010336 0.000000 0.043335
#
#
# Mechanical properties :
#
#
# Convention : Reuss Voigt Hill
#
# Bulk Modulus (GPa) = 49.84563 67.22460 58.53512
# Shear Modulus (GPa) = 19.73228 64.89248 42.31238
#
# Velocity S-wave (km/s) = 3.16959 5.74793 4.64139
# Velocity P-wave (km/s) = 6.22679 8.84746 7.65018
#
# Compressibility (1/GPa) = 0.02006194
#
# Stress axis : x y z
#
# Youngs Moduli (GPa) = 70.69453 34.16862 55.60519
#
# Poissons Ratio (x) = 0.20899 0.18116
# Poissons Ratio (y) = 0.43239 0.62793
# Poissons Ratio (z) = 0.23032 0.38586
#
# Static dielectric constant tensor:
#      x y z
#    x 1.688550 0.000000 0.016590 
#    y 0.000000 1.712410 0.000000 
#    z 0.016590 0.000000 1.706190 
# 
# From -- ./inp_files/35457.got.cif
#   From: 2010.05.17/outbox.cif.g08.bks.cpg/sg5_18_cif.got.tgz:35457.got - 2010.06.03 18:56:24.
