data_PCOD9125873
_publ_section_title
;
Structure prediction by ZEFSAII (Michael W. Deem and Ramdas Pophale) SiO2 
 PCOD9125873
Probable space group: C 2
;
_chemical_formula_sum "Si O2"
_cell_formula_units_Z 26
_cell_length_a 8.415827
_cell_length_b 11.419430
_cell_length_c 19.103484
_cell_angle_alpha 90.000000
_cell_angle_beta 37.983544
_cell_angle_gamma 90.000000
_cell_volume 1129.889789
_symmetry_space_group_name_H-M "C 2"
_symmetry_group_IT_number 5
_symmetry_cell_setting 'monoclinic'
loop_
_space_group_symop_operation_xyz
x,y,z
-x,y,-z
1/2+x,1/2+y,z
1/2-x,1/2+y,-z
loop_
_atom_site_type_symbol
_atom_site_label
_atom_site_fract_x
_atom_site_fract_y
_atom_site_fract_z
Si Si1 0.582364 0.982050 0.649134
Si Si2 0.408904 0.575785 0.775720
Si Si3 0.490031 0.142255 0.806959
Si Si4 0.986535 0.900360 0.852391
Si Si5 0.147174 0.753013 0.381825
Si Si6 0.500000 0.473946 0.000000
Si Si7 0.226438 0.910629 0.562575
O O1 0.286723 0.940413 0.739925
O O2 0.721169 0.873465 0.638824
O O3 0.716505 0.987846 0.526972
O O4 0.598464 0.092089 0.695713
O O5 0.189174 0.626016 0.802065
O O6 0.324521 0.504599 0.873210
O O7 0.622618 0.671467 0.723160
O O8 0.558334 0.483548 0.674828
O O9 0.430356 0.279772 0.831956
O O10 0.243640 0.059049 0.904141
O O11 0.948459 0.896835 0.948937
O O12 0.000000 0.699012 0.500000
O O13 0.929699 0.795028 0.404526
O O14 0.500000 0.879300 0.500000
#
# Coordination Sequence:
#
# PCOD9125873 Si02
#       7
#     4   4   4   4   4   2   4
#     4  10  21  45  65 104 143 182 231 279 336 408
#     4  12  24  42  71 105 138 186 237 276 347 418
#     4  11  25  48  73 101 138 182 224 304 358 409
#     4  11  25  47  72 102 133 176 240 286 362 423
#     4  10  22  40  67  97 148 190 227 276 327 398
#     4  10  28  50  70 102 136 170 236 304 368 428
#     4  11  22  41  66 105 150 192 236 273 331 412
#
# _framework density 23.011094
#
# number of rings (size 3 to 8) (size 9 to 14) (size 15 to 20)
#    0.000    1.231    4.615    0.462    0.000    5.538 
#    2.769    1.538    0.000    0.000    0.000    0.000 
#    0.000    0.000    0.000    0.000    0.000    0.000 
#
# Total GULP energy -72747.989351 kJ/mol
# GULP energy per Si atom -5595.999181 kJ/mol
# Density = 2.295872 g / cm^3
# Si number density = 23.011094 Si / 1000 Ang^3
#
#
#
# Elastic Constant Matrix: (Units=GPa)
#
#
# Indices 1 2 3 4 5 6 
#
# 1 89.1758 43.1145 27.3252 0.0001 9.1191 0.0002
# 2 43.1145 105.1029 16.1906 -0.0005 18.2770 0.0001
# 3 27.3252 16.1906 52.4382 -0.0008 15.6209 0.0016
# 4 0.0001 -0.0005 -0.0008 16.7837 0.0001 5.9193
# 5 9.1191 18.2770 15.6209 0.0001 49.7665 -0.0005
# 6 0.0002 0.0001 0.0016 5.9193 -0.0005 44.0824
#
#
#
# Elastic Compliance Matrix: (Units=1/GPa)
#
#
# Indices 1 2 3 4 5 6 
#
# 1 0.015972 -0.005715 -0.006963 -0.000001 0.001358 0.000000
# 2 -0.005715 0.012452 0.000203 0.000001 -0.003589 0.000000
# 3 -0.006963 0.000203 0.024576 0.000002 -0.006513 -0.000001
# 4 -0.000001 0.000001 0.000002 0.062543 -0.000001 -0.008398
# 5 0.001358 -0.003589 -0.006513 -0.000001 0.023207 0.000001
# 6 0.000000 0.000000 -0.000001 -0.008398 0.000001 0.023812
#
#
# Mechanical properties :
#
#
# Convention : Reuss Voigt Hill
#
# Bulk Modulus (GPa) = 35.65168 46.66417 41.15793
# Shear Modulus (GPa) = 25.39847 32.79897 29.09872
#
# Velocity S-wave (km/s) = 3.32588 3.77948 3.55991
# Velocity P-wave (km/s) = 5.50232 6.27447 5.90104
#
# Compressibility (1/GPa) = 0.02804917
#
# Stress axis : x y z
#
# Youngs Moduli (GPa) = 62.61095 80.30886 40.69079
#
# Poissons Ratio (x) = 0.45899 0.28331
# Poissons Ratio (y) = 0.35784 -0.00826
# Poissons Ratio (z) = 0.43593 -0.01629
#
# Static dielectric constant tensor:
#      x y z
#    x 1.890440 0.000000 0.021970 
#    y 0.000000 1.847370 0.000000 
#    z 0.021970 0.000000 1.859690 
# 
# From -- ./inp_files/50231.got.cif
#   From: 2010.05.17/outbox.cif.g08.bks.cpg/sg5_26_cif.got.tgz:50231.got - 2010.06.03 18:56:24.
