data_PCOD9125795
_publ_section_title
;
Structure prediction by ZEFSAII (Michael W. Deem and Ramdas Pophale) SiO2 
 PCOD9125795
Probable space group: C 2
;
_chemical_formula_sum "Si O2"
_cell_formula_units_Z 30
_cell_length_a 8.871380
_cell_length_b 10.417826
_cell_length_c 13.706783
_cell_angle_alpha 90.000000
_cell_angle_beta 83.246736
_cell_angle_gamma 90.000000
_cell_volume 1257.998368
_symmetry_space_group_name_H-M "C 2"
_symmetry_group_IT_number 5
_symmetry_cell_setting 'monoclinic'
loop_
_space_group_symop_operation_xyz
x,y,z
-x,y,-z
1/2+x,1/2+y,z
1/2-x,1/2+y,-z
loop_
_atom_site_type_symbol
_atom_site_label
_atom_site_fract_x
_atom_site_fract_y
_atom_site_fract_z
Si Si1 0.403669 0.513580 0.836710
Si Si2 0.669711 0.273044 0.353311
Si Si3 0.333212 0.040258 0.779901
Si Si4 0.617254 0.427248 0.661875
Si Si5 0.675896 0.631117 0.493765
Si Si6 0.152105 0.738951 0.056915
Si Si7 0.318191 0.038249 0.287758
Si Si8 0.000000 0.192841 0.000000
O O1 0.497056 0.516160 0.729230
O O2 0.384020 0.366706 0.874843
O O3 0.244279 0.573069 0.814988
O O4 0.489594 0.598644 0.908083
O O5 0.723259 0.160993 0.278399
O O6 0.492486 0.308485 0.354930
O O7 0.719887 0.228334 0.455170
O O8 0.762915 0.395675 0.315072
O O9 0.336246 0.100079 0.888269
O O10 0.504069 0.030289 0.731777
O O11 0.242618 0.919609 0.739468
O O12 0.672557 0.499579 0.559867
O O13 0.500000 0.671567 0.500000
O O14 0.746810 0.615765 0.382292
O O15 0.331638 0.760498 0.011138
O O16 0.000000 0.733433 0.000000
#
# Coordination Sequence:
#
# PCOD9125795 Si02
#       8
#     4   4   4   4   4   4   4   2
#     4  11  22  47  71 102 143 187 235 298 362 427
#     4  10  23  44  65  97 137 183 236 293 342 421
#     4  11  23  44  70 103 138 184 237 294 358 433
#     4  10  21  43  74  92 140 191 224 292 360 408
#     4  11  22  42  71 101 139 191 245 293 351 421
#     4  12  25  47  74 112 145 186 249 301 365 443
#     4  11  24  44  71 103 142 189 243 287 362 431
#     4  12  26  48  80 100 150 190 234 314 370 426
#
# _framework density 23.847405999999999
#
# number of rings (size 3 to 8) (size 9 to 14) (size 15 to 20)
#    0.000    1.067    7.333    0.800    0.000    4.267 
#   13.200    0.000    0.000    0.000    0.000    0.000 
#    0.000    0.000    0.000    0.000    0.000    0.000 
#
# Total GULP energy -83599.049408 kJ/mol
# GULP energy per Si atom -5573.269961 kJ/mol
# Density = 2.379313 g / cm^3
# Si number density = 23.847406 Si / 1000 Ang^3
#
#
#
# Elastic Constant Matrix: (Units=GPa)
#
#
# Indices 1 2 3 4 5 6 
#
# 1 168.0978 36.3480 39.8092 0.0000 11.0744 0.0000
# 2 36.3480 55.5231 12.9063 0.0000 7.7398 0.0000
# 3 39.8092 12.9063 73.2101 0.0000 27.4945 0.0000
# 4 0.0000 0.0000 0.0000 26.2990 0.0000 6.0399
# 5 11.0744 7.7398 27.4945 0.0000 47.6833 0.0000
# 6 0.0000 0.0000 0.0000 6.0399 0.0000 21.9834
#
#
#
# Elastic Compliance Matrix: (Units=1/GPa)
#
#
# Indices 1 2 3 4 5 6 
#
# 1 0.007723 -0.004315 -0.003865 0.000000 0.001135 0.000000
# 2 -0.004315 0.021271 -0.000617 0.000000 -0.002095 0.000000
# 3 -0.003865 -0.000617 0.019778 0.000000 -0.010406 0.000000
# 4 0.000000 0.000000 0.000000 0.040585 0.000000 -0.011151
# 5 0.001135 -0.002095 -0.010406 0.000000 0.027048 0.000000
# 6 0.000000 0.000000 0.000000 -0.011151 0.000000 0.048553
#
#
# Mechanical properties :
#
#
# Convention : Reuss Voigt Hill
#
# Bulk Modulus (GPa) = 32.07446 52.77310 42.42378
# Shear Modulus (GPa) = 25.91432 33.04431 29.47932
#
# Velocity S-wave (km/s) = 3.30005 3.72648 3.51973
# Velocity P-wave (km/s) = 5.29145 6.37911 5.86057
#
# Compressibility (1/GPa) = 0.03117745
#
# Stress axis : x y z
#
# Youngs Moduli (GPa) = 129.49126 47.01256 50.56184
#
# Poissons Ratio (x) = 0.20288 0.19542
# Poissons Ratio (y) = 0.55881 0.03117
# Poissons Ratio (z) = 0.50047 0.02899
#
# Static dielectric constant tensor:
#      x y z
#    x 2.014070 0.000000 0.075530 
#    y 0.000000 1.931180 0.000000 
#    z 0.075530 0.000000 1.986190 
# 
# From -- ./inp_files/50320.got.cif
#   From: 2010.05.17/outbox.cif.g08.bks.cpg/sg5_26_cif.got.tgz:50320.got - 2010.06.03 18:56:24.
