data_PCOD9125442
_publ_section_title
;
Structure prediction by ZEFSAII (Michael W. Deem and Ramdas Pophale) SiO2 
 PCOD9125442
Probable space group: C 2
;
_chemical_formula_sum "Si O2"
_cell_formula_units_Z 18
_cell_length_a 5.531677
_cell_length_b 18.619781
_cell_length_c 7.658303
_cell_angle_alpha 90.000000
_cell_angle_beta 115.547519
_cell_angle_gamma 90.000000
_cell_volume 711.672512
_symmetry_space_group_name_H-M "C 2"
_symmetry_group_IT_number 5
_symmetry_cell_setting 'monoclinic'
loop_
_space_group_symop_operation_xyz
x,y,z
-x,y,-z
1/2+x,1/2+y,z
1/2-x,1/2+y,-z
loop_
_atom_site_type_symbol
_atom_site_label
_atom_site_fract_x
_atom_site_fract_y
_atom_site_fract_z
Si Si1 0.988816 0.597770 0.787767
Si Si2 0.692660 0.457622 0.706901
Si Si3 0.000000 0.157852 0.000000
Si Si4 0.294544 0.741066 0.276480
Si Si5 0.293511 0.904098 0.269486
O O1 0.784875 0.536682 0.667057
O O2 0.902212 0.678627 0.722511
O O3 0.298173 0.603745 0.836228
O O4 0.000000 0.586573 0.000000
O O5 0.500000 0.422077 0.500000
O O6 0.476569 0.451181 0.795063
O O7 0.984822 0.421282 0.809474
O O8 0.108322 0.209400 0.879720
O O9 0.500000 0.745554 0.500000
O O10 0.197417 0.822109 0.225232
O O11 0.500000 0.913292 0.500000
#
# Coordination Sequence:
#
# PCOD9125442 Si02
#       5
#     4   4   2   4   4
#     4  10  23  41  62  93 135 173 230 274 332 404
#     4  10  21  41  66  97 130 172 226 281 336 406
#     4  10  24  42  66 100 138 176 230 290 326 412
#     4  10  22  43  69  98 130 179 225 281 344 404
#     4   9  21  39  66  98 131 168 225 281 337 407
#
# _framework density 25.292531
#
# number of rings (size 3 to 8) (size 9 to 14) (size 15 to 20)
#    0.000    2.222    0.000    0.667    9.333    0.889 
#    6.000    0.000    0.000    0.000    0.000    0.000 
#    0.000    0.000    0.000    0.000    0.000    0.000 
#
# Total GULP energy -50105.650187 kJ/mol
# GULP energy per Si atom -5567.294465 kJ/mol
# Density = 2.523496 g / cm^3
# Si number density = 25.292531 Si / 1000 Ang^3
#
#
#
# Elastic Constant Matrix: (Units=GPa)
#
#
# Indices 1 2 3 4 5 6 
#
# 1 135.1585 86.7338 12.8712 0.0000 32.0213 0.0000
# 2 86.7338 183.9936 2.2586 0.0000 24.9516 0.0000
# 3 12.8712 2.2586 79.1347 0.0000 -7.0011 0.0000
# 4 0.0000 0.0000 0.0000 72.7224 0.0000 42.5125
# 5 32.0213 24.9516 -7.0011 0.0000 39.6980 0.0000
# 6 0.0000 0.0000 0.0000 42.5125 0.0000 57.4337
#
#
#
# Elastic Compliance Matrix: (Units=1/GPa)
#
#
# Indices 1 2 3 4 5 6 
#
# 1 0.012544 -0.004863 -0.002566 0.000000 -0.007514 0.000000
# 2 -0.004863 0.007847 0.000485 0.000000 -0.000924 0.000000
# 3 -0.002566 0.000485 0.013406 0.000000 0.004129 0.000000
# 4 0.000000 0.000000 0.000000 0.024240 0.000000 -0.017942
# 5 -0.007514 -0.000924 0.004129 0.000000 0.032560 0.000000
# 6 0.000000 0.000000 0.000000 -0.017942 0.000000 0.030692
#
#
# Mechanical properties :
#
#
# Convention : Reuss Voigt Hill
#
# Bulk Modulus (GPa) = 50.22952 66.89046 58.55999
# Shear Modulus (GPa) = 35.25803 53.73236 44.49519
#
# Velocity S-wave (km/s) = 3.73769 4.61416 4.19886
# Velocity P-wave (km/s) = 6.20723 7.40888 6.83451
#
# Compressibility (1/GPa) = 0.01990861
#
# Stress axis : x y z
#
# Youngs Moduli (GPa) = 79.72069 127.44531 74.59599
#
# Poissons Ratio (x) = 0.61971 0.19143
# Poissons Ratio (y) = 0.38765 -0.03619
# Poissons Ratio (z) = 0.20458 -0.06184
#
# Static dielectric constant tensor:
#      x y z
#    x 2.215850 0.000000 0.034090 
#    y 0.000000 2.048070 0.000000 
#    z 0.034090 0.000000 2.089590 
# 
# From -- ./inp_files/11889.got.cif
#   From: 2010.05.17/outbox.cif.g08.bks.cpg/sg5_6_cif.got.tgz:11889.got - 2010.06.03 18:56:24.
