data_PCOD9125268
_publ_section_title
;
Structure prediction by ZEFSAII (Michael W. Deem and Ramdas Pophale) SiO2 
 PCOD9125268
Probable space group: C 2
;
_chemical_formula_sum "Si O2"
_cell_formula_units_Z 24
_cell_length_a 18.607699
_cell_length_b 5.289757
_cell_length_c 12.497314
_cell_angle_alpha 90.000000
_cell_angle_beta 98.360019
_cell_angle_gamma 90.000000
_cell_volume 1217.042045
_symmetry_space_group_name_H-M "C 2"
_symmetry_group_IT_number 5
_symmetry_cell_setting 'monoclinic'
loop_
_space_group_symop_operation_xyz
x,y,z
-x,y,-z
1/2+x,1/2+y,z
1/2-x,1/2+y,-z
loop_
_atom_site_type_symbol
_atom_site_label
_atom_site_fract_x
_atom_site_fract_y
_atom_site_fract_z
Si Si1 0.556867 0.873650 0.743659
Si Si2 0.338649 0.174774 0.095221
Si Si3 0.080999 0.649099 0.224382
Si Si4 0.015400 0.866149 0.627165
Si Si5 0.300777 0.915970 0.870524
Si Si6 0.077015 0.026152 0.029302
O O1 0.556115 0.604357 0.687709
O O2 0.619195 0.941761 0.842130
O O3 0.477119 0.921394 0.778543
O O4 0.558952 0.106118 0.658974
O O5 0.277531 0.292472 0.157574
O O6 0.397242 0.383762 0.072378
O O7 0.299859 0.096974 0.975056
O O8 0.059316 0.818074 0.321819
O O9 0.162791 0.555068 0.222512
O O10 0.064383 0.808519 0.114538
O O11 0.000000 0.906046 0.500000
O O12 0.359105 0.702951 0.915746
O O13 0.000000 0.161153 0.000000
#
# Coordination Sequence:
#
# PCOD9125268 Si02
#       6
#     4   4   4   4   4   4
#     4  10  22  38  63  95 121 166 206 269 321 378
#     4  11  23  36  55  90 132 177 211 251 305 389
#     4   9  22  35  57  91 119 163 205 258 319 369
#     4  10  21  40  66  99 121 151 217 283 334 369
#     4  11  23  35  56  89 134 180 208 251 304 380
#     4  11  20  35  53  84 126 167 210 250 301 369
#
# _framework density 19.719942
#
# number of rings (size 3 to 8) (size 9 to 14) (size 15 to 20)
#    1.000    0.667    3.333    1.500    7.000    0.000 
#    0.000    0.000    0.000    0.000    8.667    0.000 
#    0.000    0.000    0.000    0.000    0.000    0.000 
#
# Total GULP energy -66945.144240 kJ/mol
# GULP energy per Si atom -5578.762020 kJ/mol
# Density = 1.967506 g / cm^3
# Si number density = 19.719942 Si / 1000 Ang^3
#
#
#
# Elastic Constant Matrix: (Units=GPa)
#
#
# Indices 1 2 3 4 5 6 
#
# 1 120.5064 26.1306 30.0008 0.0000 -14.6542 0.0000
# 2 26.1306 91.3057 31.8803 0.0000 -9.0307 0.0000
# 3 30.0008 31.8803 89.6019 0.0000 -17.6953 0.0000
# 4 0.0000 0.0000 0.0000 26.1779 0.0000 5.4105
# 5 -14.6542 -9.0307 -17.6953 0.0000 11.6303 0.0000
# 6 0.0000 0.0000 0.0000 5.4105 0.0000 26.0499
#
#
#
# Elastic Compliance Matrix: (Units=1/GPa)
#
#
# Indices 1 2 3 4 5 6 
#
# 1 0.010090 -0.001598 -0.000778 0.000000 0.010289 0.000000
# 2 -0.001598 0.012904 -0.003538 0.000000 0.002623 0.000000
# 3 -0.000778 -0.003538 0.017074 0.000000 0.022251 0.000000
# 4 0.000000 0.000000 0.000000 0.039914 0.000000 -0.008290
# 5 0.010289 0.002623 0.022251 0.000000 0.134837 0.000000
# 6 0.000000 0.000000 0.000000 -0.008290 0.000000 0.040110
#
#
# Mechanical properties :
#
#
# Convention : Reuss Voigt Hill
#
# Bulk Modulus (GPa) = 35.41146 53.04861 44.23004
# Shear Modulus (GPa) = 18.10481 26.99844 22.55162
#
# Velocity S-wave (km/s) = 3.03330 3.70414 3.38538
# Velocity P-wave (km/s) = 5.50128 6.72708 6.14482
#
# Compressibility (1/GPa) = 0.02823944
#
# Stress axis : x y z
#
# Youngs Moduli (GPa) = 99.11132 77.49248 58.56854
#
# Poissons Ratio (x) = 0.12386 0.04555
# Poissons Ratio (y) = 0.15842 0.20723
# Poissons Ratio (z) = 0.07707 0.27419
#
# Static dielectric constant tensor:
#      x y z
#    x 1.706240 0.000000 -0.011010 
#    y 0.000000 1.771830 0.000000 
#    z -0.011010 0.000000 1.677860 
# 
# From -- ./inp_files/43801.got.cif
#   From: 2010.05.17/outbox.cif.g08.bks.cpg/sg5_22_cif.got.tgz:43801.got - 2010.06.03 18:56:24.
