data_PCOD9125098
_publ_section_title
;
Structure prediction by ZEFSAII (Michael W. Deem and Ramdas Pophale) SiO2 
 PCOD9125098
Probable space group: C 2
;
_chemical_formula_sum "Si O2"
_cell_formula_units_Z 28
_cell_length_a 13.887949
_cell_length_b 8.079200
_cell_length_c 16.182236
_cell_angle_alpha 90.000000
_cell_angle_beta 133.764869
_cell_angle_gamma 90.000000
_cell_volume 1311.273108
_symmetry_space_group_name_H-M "C 2"
_symmetry_group_IT_number 5
_symmetry_cell_setting 'monoclinic'
loop_
_space_group_symop_operation_xyz
x,y,z
-x,y,-z
1/2+x,1/2+y,z
1/2-x,1/2+y,-z
loop_
_atom_site_type_symbol
_atom_site_label
_atom_site_fract_x
_atom_site_fract_y
_atom_site_fract_z
Si Si1 0.238649 0.060580 0.095895
Si Si2 0.609023 0.404444 0.864247
Si Si3 0.993067 0.381097 0.752283
Si Si4 0.185287 0.057427 0.744763
Si Si5 0.899739 0.274248 0.866188
Si Si6 0.435666 0.738277 0.541607
Si Si7 0.343796 0.218523 0.709938
O O1 0.839815 0.107641 0.868163
O O2 0.143248 0.977821 0.972740
O O3 0.305264 0.234393 0.102082
O O4 0.356449 0.931266 0.176824
O O5 0.655283 0.536868 0.823112
O O6 0.453179 0.360018 0.763459
O O7 0.973154 0.269830 0.822077
O O8 0.936326 0.317444 0.632383
O O9 0.923068 0.551446 0.737098
O O10 0.271106 0.892846 0.777017
O O11 0.280384 0.199922 0.763975
O O12 0.041437 0.085583 0.615746
O O13 0.000000 0.336473 0.000000
O O14 0.500000 0.832525 0.500000
O O15 0.283407 0.715736 0.425467
#
# Coordination Sequence:
#
# PCOD9125098 Si02
#       7
#     4   4   4   4   4   4   4
#     4  10  22  41  65  97 137 175 215 267 343 398
#     4  10  21  39  69  95 134 172 216 271 332 395
#     4  10  21  41  64  92 137 168 214 285 325 388
#     4   9  20  38  64  85 125 172 210 263 333 377
#     4  10  21  41  62  96 129 168 219 261 328 413
#     4  10  22  41  63  88 126 172 221 273 330 387
#     4   9  21  41  63  96 121 174 227 260 331 405
#
# _framework density 21.353292
#
# number of rings (size 3 to 8) (size 9 to 14) (size 15 to 20)
#    0.000    2.286    0.000    1.714    6.000    0.000 
#    7.714    0.000    0.000    0.000    0.000    0.000 
#    0.000    0.000    0.000    0.000    0.000    0.000 
#
# Total GULP energy -78047.699766 kJ/mol
# GULP energy per Si atom -5574.835698 kJ/mol
# Density = 2.130469 g / cm^3
# Si number density = 21.353292 Si / 1000 Ang^3
#
#
#
# Elastic Constant Matrix: (Units=GPa)
#
#
# Indices 1 2 3 4 5 6 
#
# 1 138.6986 42.6975 50.6693 0.0000 -15.5279 0.0000
# 2 42.6975 57.8615 24.7732 0.0000 -1.1146 0.0000
# 3 50.6693 24.7732 90.1257 0.0000 11.6658 0.0000
# 4 0.0000 0.0000 0.0000 20.3453 0.0000 7.6107
# 5 -15.5279 -1.1146 11.6658 0.0000 48.7315 0.0000
# 6 0.0000 0.0000 0.0000 7.6107 0.0000 24.7923
#
#
#
# Elastic Compliance Matrix: (Units=1/GPa)
#
#
# Indices 1 2 3 4 5 6 
#
# 1 0.011661 -0.006157 -0.005496 0.000000 0.004891 0.000000
# 2 -0.006157 0.022992 -0.002758 0.000000 -0.000776 0.000000
# 3 -0.005496 -0.002758 0.015664 0.000000 -0.005564 0.000000
# 4 0.000000 0.000000 0.000000 0.055528 0.000000 -0.017046
# 5 0.004891 -0.000776 -0.005564 0.000000 0.023393 0.000000
# 6 0.000000 0.000000 0.000000 -0.017046 0.000000 0.045568
#
#
# Mechanical properties :
#
#
# Convention : Reuss Voigt Hill
#
# Bulk Modulus (GPa) = 46.52472 58.10730 52.31601
# Shear Modulus (GPa) = 23.71990 30.01020 26.86505
#
# Velocity S-wave (km/s) = 3.33653 3.75295 3.55085
# Velocity P-wave (km/s) = 6.05629 6.78608 6.43155
#
# Compressibility (1/GPa) = 0.02149395
#
# Stress axis : x y z
#
# Youngs Moduli (GPa) = 85.75718 43.49314 63.84088
#
# Poissons Ratio (x) = 0.26780 0.35089
# Poissons Ratio (y) = 0.52804 0.17606
# Poissons Ratio (z) = 0.47135 0.11994
#
# Static dielectric constant tensor:
#      x y z
#    x 1.831350 0.000000 0.035730 
#    y 0.000000 1.801960 0.000000 
#    z 0.035730 0.000000 1.786700 
# 
# From -- ./inp_files/61469.got.cif
#   From: 2010.05.17/outbox.cif.g08.bks.cpg/sg5_31_cif.got.tgz:61469.got - 2010.06.03 18:56:24.
