data_PCOD9125084
_publ_section_title
;
Structure prediction by ZEFSAII (Michael W. Deem and Ramdas Pophale) SiO2 
 PCOD9125084
Probable space group: C 2
;
_chemical_formula_sum "Si O2"
_cell_formula_units_Z 24
_cell_length_a 26.016026
_cell_length_b 7.416884
_cell_length_c 11.820908
_cell_angle_alpha 90.000000
_cell_angle_beta 28.651347
_cell_angle_gamma 90.000000
_cell_volume 1093.660211
_symmetry_space_group_name_H-M "C 2"
_symmetry_group_IT_number 5
_symmetry_cell_setting 'monoclinic'
loop_
_space_group_symop_operation_xyz
x,y,z
-x,y,-z
1/2+x,1/2+y,z
1/2-x,1/2+y,-z
loop_
_atom_site_type_symbol
_atom_site_label
_atom_site_fract_x
_atom_site_fract_y
_atom_site_fract_z
Si Si1 0.383631 0.106060 0.709595
Si Si2 0.518686 0.605050 0.089194
Si Si3 0.677618 0.883396 0.525075
Si Si4 0.753979 0.763878 0.616145
Si Si5 0.267633 0.773884 0.822895
Si Si6 0.607133 0.443014 0.475369
O O1 0.500000 0.020005 0.500000
O O2 0.400756 0.273819 0.591506
O O3 0.303167 0.958188 0.814851
O O4 0.333622 0.186927 0.920215
O O5 0.432118 0.769508 0.259854
O O6 0.489599 0.479159 0.251053
O O7 0.500000 0.521472 0.000000
O O8 0.637752 0.681675 0.868021
O O9 0.742525 0.848560 0.514565
O O10 0.741647 0.818285 0.291380
O O11 0.663274 0.097418 0.543247
O O12 0.792768 0.903773 0.634075
O O13 0.362953 0.625630 0.647807
#
# Coordination Sequence:
#
# PCOD9125084 Si02
#       6
#     4   4   4   4   4   4
#     4  12  27  45  69  96 133 183 233 278 339 387
#     4   9  21  40  63 100 138 171 218 269 330 406
#     4  10  21  39  67  98 135 174 222 266 337 402
#     4  11  21  42  68  99 142 176 211 284 336 402
#     4  11  24  48  66  99 136 172 235 284 320 405
#     4  11  24  44  72  99 134 178 227 276 344 402
#
# _framework density 21.944659999999999
#
# number of rings (size 3 to 8) (size 9 to 14) (size 15 to 20)
#    0.000    1.333    3.333    3.000    2.333    3.333 
#    0.000    9.167    0.000    0.000    0.000    0.000 
#    0.000    0.000    0.000    0.000    0.000    0.000 
#
# Total GULP energy -67096.965288 kJ/mol
# GULP energy per Si atom -5591.413774 kJ/mol
# Density = 2.189471 g / cm^3
# Si number density = 21.944660 Si / 1000 Ang^3
#
#
#
# Elastic Constant Matrix: (Units=GPa)
#
#
# Indices 1 2 3 4 5 6 
#
# 1 42.8280 -7.3938 20.9602 0.0000 8.7165 0.0000
# 2 -7.3938 83.3926 -0.9772 0.0000 11.1040 0.0000
# 3 20.9602 -0.9772 105.6394 0.0000 18.2662 0.0000
# 4 0.0000 0.0000 0.0000 21.1067 0.0000 5.1315
# 5 8.7165 11.1040 18.2662 0.0000 29.0494 0.0000
# 6 0.0000 0.0000 0.0000 5.1315 0.0000 27.1337
#
#
#
# Elastic Compliance Matrix: (Units=1/GPa)
#
#
# Indices 1 2 3 4 5 6 
#
# 1 0.027369 0.003284 -0.004222 0.000000 -0.006813 0.000000
# 2 0.003284 0.013137 0.000571 0.000000 -0.006366 0.000000
# 3 -0.004222 0.000571 0.011363 0.000000 -0.006096 0.000000
# 4 0.000000 0.000000 0.000000 0.049662 0.000000 -0.009392
# 5 -0.006813 -0.006366 -0.006096 0.000000 0.042735 0.000000
# 6 0.000000 0.000000 0.000000 -0.009392 0.000000 0.038631
#
#
# Mechanical properties :
#
#
# Convention : Reuss Voigt Hill
#
# Bulk Modulus (GPa) = 19.55596 28.55981 24.05789
# Shear Modulus (GPa) = 24.91576 30.07601 27.49589
#
# Velocity S-wave (km/s) = 3.37321 3.70610 3.54356
# Velocity P-wave (km/s) = 4.90940 5.59966 5.26586
#
# Compressibility (1/GPa) = 0.05113530
#
# Stress axis : x y z
#
# Youngs Moduli (GPa) = 36.53762 76.12095 88.00274
#
# Poissons Ratio (x) = -0.25001 0.37154
# Poissons Ratio (y) = -0.12000 -0.05021
# Poissons Ratio (z) = 0.15426 -0.04343
#
# Static dielectric constant tensor:
#      x y z
#    x 1.793060 0.000000 0.004770 
#    y 0.000000 1.811250 0.000000 
#    z 0.004770 0.000000 1.821140 
# 
# From -- ./inp_files/47851.got.cif
#   From: 2010.05.17/outbox.cif.g08.bks.cpg/sg5_24_cif.got.tgz:47851.got - 2010.06.03 18:56:24.
