data_PCOD9125443
_publ_section_title
;
Structure prediction by ZEFSAII (Michael W. Deem and Ramdas Pophale) SiO2 
 PCOD9125443
Probable space group: C 2
;
_chemical_formula_sum "Si O2"
_cell_formula_units_Z 28
_cell_length_a 9.552931
_cell_length_b 11.091193
_cell_length_c 12.513013
_cell_angle_alpha 90.000000
_cell_angle_beta 124.654917
_cell_angle_gamma 90.000000
_cell_volume 1090.589053
_symmetry_space_group_name_H-M "C 2"
_symmetry_group_IT_number 5
_symmetry_cell_setting 'monoclinic'
loop_
_space_group_symop_operation_xyz
x,y,z
-x,y,-z
1/2+x,1/2+y,z
1/2-x,1/2+y,-z
loop_
_atom_site_type_symbol
_atom_site_label
_atom_site_fract_x
_atom_site_fract_y
_atom_site_fract_z
Si Si1 0.469903 0.024370 0.883416
Si Si2 0.830269 0.160343 0.147819
Si Si3 0.797004 0.441796 0.602817
Si Si4 0.139799 0.722959 0.644458
Si Si5 0.187121 0.098742 0.082578
Si Si6 0.896785 0.343233 0.360141
Si Si7 0.054246 0.936526 0.318583
O O1 0.359625 0.127853 0.896502
O O2 0.648015 0.032746 0.896961
O O3 0.334389 0.998074 0.732194
O O4 0.500000 0.939489 0.000000
O O5 0.884306 0.264821 0.249478
O O6 0.837841 0.194338 0.026107
O O7 0.940109 0.038415 0.214854
O O8 0.752670 0.303819 0.613203
O O9 0.644912 0.489957 0.464438
O O10 0.969838 0.447793 0.611122
O O11 0.254095 0.645041 0.775605
O O12 0.000000 0.672141 0.500000
O O13 0.047924 0.819464 0.684088
O O14 0.000000 0.036676 0.000000
O O15 0.712668 0.388369 0.317073
O O16 0.000000 0.277115 0.500000
#
# Coordination Sequence:
#
# PCOD9125443 Si02
#       7
#     4   4   4   4   4   4   4
#     4  10  23  41  64  91 134 180 229 286 349 429
#     4  11  23  43  69  98 139 187 235 285 364 431
#     4  10  21  41  66  97 133 180 230 286 360 412
#     4  10  21  43  71  98 133 182 230 288 352 425
#     4  11  25  44  64 104 138 175 239 283 355 436
#     4  10  23  39  64 101 142 178 233 296 356 419
#     4  10  22  42  68 103 137 182 239 288 356 435
#
# _framework density 25.674196999999999
#
# number of rings (size 3 to 8) (size 9 to 14) (size 15 to 20)
#    0.000    1.714    1.429    1.714    4.000    1.714 
#    2.571    0.000    0.000    0.000    0.000    0.000 
#    0.000    0.000    0.000    0.000    0.000    0.000 
#
# Total GULP energy -78113.022729 kJ/mol
# GULP energy per Si atom -5579.501623 kJ/mol
# Density = 2.561576 g / cm^3
# Si number density = 25.674197 Si / 1000 Ang^3
#
#
#
# Elastic Constant Matrix: (Units=GPa)
#
#
# Indices 1 2 3 4 5 6 
#
# 1 121.3938 30.2256 25.8013 0.0000 22.9368 0.0000
# 2 30.2256 51.4910 26.1443 0.0000 4.5837 0.0000
# 3 25.8013 26.1443 173.5310 0.0000 1.5935 0.0000
# 4 0.0000 0.0000 0.0000 69.5790 0.0000 -5.4447
# 5 22.9368 4.5837 1.5935 0.0000 53.6781 0.0000
# 6 0.0000 0.0000 0.0000 -5.4447 0.0000 9.0176
#
#
#
# Elastic Compliance Matrix: (Units=1/GPa)
#
#
# Indices 1 2 3 4 5 6 
#
# 1 0.010500 -0.005450 -0.000703 0.000000 -0.004000 0.000000
# 2 -0.005450 0.024015 -0.002811 0.000000 0.000362 0.000000
# 3 -0.000703 -0.002811 0.006288 0.000000 0.000354 0.000000
# 4 0.000000 0.000000 0.000000 0.015085 0.000000 0.009108
# 5 -0.004000 0.000362 0.000354 0.000000 0.020298 0.000000
# 6 0.000000 0.000000 0.000000 0.009108 0.000000 0.116393
#
#
# Mechanical properties :
#
#
# Convention : Reuss Voigt Hill
#
# Bulk Modulus (GPa) = 43.71898 56.75091 50.23495
# Shear Modulus (GPa) = 22.92184 44.07126 33.49655
#
# Velocity S-wave (km/s) = 2.99121 4.14763 3.61595
# Velocity P-wave (km/s) = 5.38471 6.71486 6.08624
#
# Compressibility (1/GPa) = 0.02287336
#
# Stress axis : x y z
#
# Youngs Moduli (GPa) = 95.23740 41.63985 159.04562
#
# Poissons Ratio (x) = 0.22695 0.11186
# Poissons Ratio (y) = 0.51908 0.44710
# Poissons Ratio (z) = 0.06698 0.11705
#
# Static dielectric constant tensor:
#      x y z
#    x 2.050770 0.000000 0.095120 
#    y 0.000000 2.102560 0.000000 
#    z 0.095120 0.000000 2.312720 
# 
# From -- ./inp_files/36497.got.cif
#   From: 2010.05.17/outbox.cif.g08.bks.cpg/sg5_19_cif.got.tgz:36497.got - 2010.06.03 18:56:24.
