data_PCOD9125849
_publ_section_title
;
Structure prediction by ZEFSAII (Michael W. Deem and Ramdas Pophale) SiO2 
 PCOD9125849
Probable space group: C 2
;
_chemical_formula_sum "Si O2"
_cell_formula_units_Z 30
_cell_length_a 15.137686
_cell_length_b 10.296038
_cell_length_c 8.737488
_cell_angle_alpha 90.000000
_cell_angle_beta 86.160080
_cell_angle_gamma 90.000000
_cell_volume 1358.751875
_symmetry_space_group_name_H-M "C 2"
_symmetry_group_IT_number 5
_symmetry_cell_setting 'monoclinic'
loop_
_space_group_symop_operation_xyz
x,y,z
-x,y,-z
1/2+x,1/2+y,z
1/2-x,1/2+y,-z
loop_
_atom_site_type_symbol
_atom_site_label
_atom_site_fract_x
_atom_site_fract_y
_atom_site_fract_z
Si Si1 0.644321 0.250000 0.206994
Si Si2 0.179598 0.360010 0.394401
Si Si3 0.888929 0.020769 0.862586
Si Si4 0.766890 0.110684 0.426367
Si Si5 0.920621 0.995552 0.214439
Si Si6 0.500000 0.992332 0.500000
Si Si7 0.446736 0.201163 0.256032
Si Si8 0.263365 0.229433 0.117704
O O1 0.631756 0.400742 0.244677
O O2 0.684671 0.169247 0.340229
O O3 0.545800 0.201201 0.171079
O O4 0.713809 0.250723 0.061147
O O5 0.200756 0.218389 0.459298
O O6 0.232624 0.470048 0.482728
O O7 0.077293 0.402983 0.416608
O O8 0.224484 0.351144 0.219952
O O9 0.813720 0.125076 0.865855
O O10 0.985642 0.068638 0.803138
O O11 0.897659 0.969513 0.037787
O O12 0.847763 0.080893 0.303892
O O13 0.933142 0.855415 0.295356
O O14 0.455981 0.092027 0.384081
O O15 0.355869 0.177269 0.176312
#
# Coordination Sequence:
#
# PCOD9125849 Si02
#       8
#     4   4   4   4   4   2   4   4
#     4  11  23  42  73 104 136 185 240 300 351 429
#     4  12  29  47  70 102 149 192 240 299 357 440
#     4  10  22  40  69 107 139 176 235 295 361 423
#     4  12  25  48  71 101 143 187 239 293 362 426
#     4  10  21  44  70 102 141 181 235 294 352 436
#     4  12  28  50  66 106 154 192 246 298 368 432
#     4  11  23  44  74 101 143 187 245 294 353 430
#     4  12  24  44  72 106 141 188 235 304 358 427
#
# _framework density 22.079084999999999
#
# number of rings (size 3 to 8) (size 9 to 14) (size 15 to 20)
#    0.000    0.800    5.333    1.200    5.600    0.000 
#    2.400    0.000    0.000    0.000    0.000    0.000 
#    0.000    0.000    0.000    0.000    0.000    0.000 
#
# Total GULP energy -83747.589139 kJ/mol
# GULP energy per Si atom -5583.172609 kJ/mol
# Density = 2.202883 g / cm^3
# Si number density = 22.079085 Si / 1000 Ang^3
#
#
#
# Elastic Constant Matrix: (Units=GPa)
#
#
# Indices 1 2 3 4 5 6 
#
# 1 146.2238 28.2907 21.8387 0.0000 -17.1499 0.0000
# 2 28.2907 68.0756 12.1363 0.0000 -3.7628 0.0000
# 3 21.8387 12.1363 47.3728 0.0000 -10.5391 0.0000
# 4 0.0000 0.0000 0.0000 26.1431 0.0000 -4.0358
# 5 -17.1499 -3.7628 -10.5391 0.0000 34.3407 0.0000
# 6 0.0000 0.0000 0.0000 -4.0358 0.0000 41.1973
#
#
#
# Elastic Compliance Matrix: (Units=1/GPa)
#
#
# Indices 1 2 3 4 5 6 
#
# 1 0.008079 -0.002773 -0.002344 0.000000 0.003011 0.000000
# 2 -0.002773 0.016353 -0.003027 0.000000 -0.000522 0.000000
# 3 -0.002344 -0.003027 0.024289 0.000000 0.005952 0.000000
# 4 0.000000 0.000000 0.000000 0.038838 0.000000 0.003805
# 5 0.003011 -0.000522 0.005952 0.000000 0.032393 0.000000
# 6 0.000000 0.000000 0.000000 0.003805 0.000000 0.024646
#
#
# Mechanical properties :
#
#
# Convention : Reuss Voigt Hill
#
# Bulk Modulus (GPa) = 30.83309 42.91153 36.87231
# Shear Modulus (GPa) = 29.12098 33.62998 31.37548
#
# Velocity S-wave (km/s) = 3.63566 3.90700 3.77377
# Velocity P-wave (km/s) = 5.62309 6.31114 5.97702
#
# Compressibility (1/GPa) = 0.03243269
#
# Stress axis : x y z
#
# Youngs Moduli (GPa) = 123.78417 61.15177 41.17028
#
# Poissons Ratio (x) = 0.16957 0.09650
# Poissons Ratio (y) = 0.34325 0.12463
# Poissons Ratio (z) = 0.29013 0.18512
#
# Static dielectric constant tensor:
#      x y z
#    x 1.821820 0.000000 -0.004750 
#    y 0.000000 1.815480 0.000000 
#    z -0.004750 0.000000 1.862940 
# 
# From -- ./inp_files/23640.got.cif
#   From: 2010.05.17/outbox.cif.g08.bks.cpg/sg5_12_cif.got.tgz:23640.got - 2010.06.03 18:56:24.
