data_PCOD9125912
_publ_section_title
;
Structure prediction by ZEFSAII (Michael W. Deem and Ramdas Pophale) SiO2 
 PCOD9125912
Probable space group: C 2
;
_chemical_formula_sum "Si O2"
_cell_formula_units_Z 18
_cell_length_a 15.480444
_cell_length_b 8.854508
_cell_length_c 16.538726
_cell_angle_alpha 90.000000
_cell_angle_beta 162.533263
_cell_angle_gamma 90.000000
_cell_volume 680.442203
_symmetry_space_group_name_H-M "C 2"
_symmetry_group_IT_number 5
_symmetry_cell_setting 'monoclinic'
loop_
_space_group_symop_operation_xyz
x,y,z
-x,y,-z
1/2+x,1/2+y,z
1/2-x,1/2+y,-z
loop_
_atom_site_type_symbol
_atom_site_label
_atom_site_fract_x
_atom_site_fract_y
_atom_site_fract_z
Si Si1 0.725394 0.134070 0.070158
Si Si2 0.261541 0.528630 0.670943
Si Si3 0.000000 0.802373 0.000000
Si Si4 0.749349 0.371632 0.655074
Si Si5 0.800211 0.802388 0.568154
O O1 0.551390 0.224041 0.843715
O O2 0.048150 0.179109 0.334079
O O3 0.735705 0.190748 0.173866
O O4 0.515763 0.987659 0.890466
O O5 0.477482 0.413288 0.905103
O O6 0.362301 0.699957 0.766018
O O7 0.189856 0.445423 0.523039
O O8 0.000000 0.519848 0.500000
O O9 0.500000 0.398068 0.500000
O O10 0.613769 0.361623 0.443644
#
# Coordination Sequence:
#
# PCOD9125912 Si02
#       5
#     4   4   2   4   4
#     4  11  26  46  78 109 158 202 264 322 398 476
#     4  10  21  46  74 106 150 204 265 317 386 480
#     4  10  22  42  74 106 148 210 254 310 402 470
#     4  11  27  48  79 120 163 201 274 343 400 461
#     4  11  25  51  75 108 155 214 259 313 403 484
#
# _framework density 26.453385000000001
#
# number of rings (size 3 to 8) (size 9 to 14) (size 15 to 20)
#    0.000    1.333    2.222    1.333    3.111    6.222 
#   12.000    0.000    0.000    0.000    0.000    0.000 
#    0.000    0.000    0.000    0.000    0.000    0.000 
#
# Total GULP energy -50175.479030 kJ/mol
# GULP energy per Si atom -5575.053226 kJ/mol
# Density = 2.639318 g / cm^3
# Si number density = 26.453385 Si / 1000 Ang^3
#
#
#
# Elastic Constant Matrix: (Units=GPa)
#
#
# Indices 1 2 3 4 5 6 
#
# 1 193.8722 85.8829 46.1254 -0.0046 14.6025 -0.0027
# 2 85.8829 158.9619 40.2749 0.0488 -1.4853 0.0179
# 3 46.1254 40.2749 115.4805 0.0236 -7.5945 0.0100
# 4 -0.0046 0.0488 0.0236 9.6010 0.0077 -6.9910
# 5 14.6025 -1.4853 -7.5945 0.0077 36.1439 0.0015
# 6 -0.0027 0.0179 0.0100 -6.9910 0.0015 42.0541
#
#
#
# Elastic Compliance Matrix: (Units=1/GPa)
#
#
# Indices 1 2 3 4 5 6 
#
# 1 0.007482 -0.003575 -0.001978 0.000036 -0.003585 0.000009
# 2 -0.003575 0.008610 -0.001477 -0.000052 0.001488 -0.000012
# 3 -0.001978 -0.001477 0.010153 -0.000025 0.002872 -0.000006
# 4 0.000036 -0.000052 -0.000025 0.118500 -0.000048 0.019699
# 5 -0.003585 0.001488 0.002872 -0.000048 0.029780 -0.000011
# 6 0.000009 -0.000012 -0.000006 0.019699 -0.000011 0.027054
#
#
# Mechanical properties :
#
#
# Convention : Reuss Voigt Hill
#
# Bulk Modulus (GPa) = 82.05698 90.32013 86.18856
# Shear Modulus (GPa) = 22.75811 37.29521 30.02666
#
# Velocity S-wave (km/s) = 2.93629 3.75887 3.37275
# Velocity P-wave (km/s) = 6.52553 7.28396 6.91515
#
# Compressibility (1/GPa) = 0.01218665
#
# Stress axis : x y z
#
# Youngs Moduli (GPa) = 133.65008 116.13811 98.48910
#
# Poissons Ratio (x) = 0.41518 0.19477
# Poissons Ratio (y) = 0.47779 0.14549
# Poissons Ratio (z) = 0.26430 0.17156
#
# Static dielectric constant tensor:
#      x y z
#    x 2.190350 0.000030 -0.051510 
#    y 0.000030 2.215850 -0.000090 
#    z -0.051510 -0.000090 2.223750 
# 
# From -- ./inp_files/61550.got.cif
#   From: 2010.05.17/outbox.cif.g08.bks.cpg/sg5_31_cif.got.tgz:61550.got - 2010.06.03 18:56:24.
