data_PCOD9125233
_publ_section_title
;
Structure prediction by ZEFSAII (Michael W. Deem and Ramdas Pophale) SiO2 
 PCOD9125233
Probable space group: C 2
;
_chemical_formula_sum "Si O2"
_cell_formula_units_Z 32
_cell_length_a 7.998467
_cell_length_b 13.284804
_cell_length_c 21.189539
_cell_angle_alpha 90.000000
_cell_angle_beta 41.054994
_cell_angle_gamma 90.000000
_cell_volume 1478.786228
_symmetry_space_group_name_H-M "C 2"
_symmetry_group_IT_number 5
_symmetry_cell_setting 'monoclinic'
loop_
_space_group_symop_operation_xyz
x,y,z
-x,y,-z
1/2+x,1/2+y,z
1/2-x,1/2+y,-z
loop_
_atom_site_type_symbol
_atom_site_label
_atom_site_fract_x
_atom_site_fract_y
_atom_site_fract_z
Si Si1 0.545707 0.776190 0.832900
Si Si2 0.151951 0.099986 0.717223
Si Si3 0.778972 0.941553 0.197882
Si Si4 0.244145 0.796812 0.034956
Si Si5 0.572419 0.611796 0.356598
Si Si6 0.355834 0.138036 0.840805
Si Si7 0.276204 0.395702 0.663295
Si Si8 0.104156 0.704843 0.539529
O O1 0.502770 0.695115 0.789639
O O2 0.716025 0.714911 0.833813
O O3 0.694069 0.868519 0.758786
O O4 0.305760 0.803888 0.943371
O O5 0.060474 0.086995 0.672409
O O6 0.450163 0.133469 0.631311
O O7 0.128795 0.004616 0.768089
O O8 0.502288 0.891789 0.290221
O O9 0.995097 0.861568 0.120430
O O10 0.730849 0.025943 0.156119
O O11 0.202225 0.682392 0.073179
O O12 0.500000 0.833832 0.000000
O O13 0.613146 0.505309 0.378472
O O14 0.402042 0.685512 0.447659
O O15 0.848977 0.649785 0.259138
O O16 0.488186 0.314568 0.584772
O O17 0.000000 0.677841 0.500000
#
# Coordination Sequence:
#
# PCOD9125233 Si02
#       8
#     4   4   4   4   4   4   4   4
#     4   9  20  42  58  87 129 163 214 260 321 387
#     4   9  20  40  61  87 130 160 209 264 319 374
#     4  10  22  41  65  92 125 176 213 269 325 386
#     4  10  22  40  65  93 126 169 218 267 328 390
#     4  10  21  40  65  96 124 167 209 264 324 382
#     4   9  21  42  62  91 134 165 213 273 321 379
#     4  10  22  40  64  92 125 168 211 267 313 389
#     4   9  20  39  62  91 126 160 209 258 313 389
#
# _framework density 21.639368000000001
#
# number of rings (size 3 to 8) (size 9 to 14) (size 15 to 20)
#    0.000    2.500    0.000    0.000    8.750    1.500 
#   20.250   10.625    0.000    3.000    0.000    0.000 
#    0.000    0.000    0.000    0.000    0.000    0.000 
#
# Total GULP energy -89227.776097 kJ/mol
# GULP energy per Si atom -5576.736006 kJ/mol
# Density = 2.159012 g / cm^3
# Si number density = 21.639368 Si / 1000 Ang^3
#
#
#
# Elastic Constant Matrix: (Units=GPa)
#
#
# Indices 1 2 3 4 5 6 
#
# 1 39.4184 18.3881 30.6820 -0.0008 -8.4806 -0.0016
# 2 18.3881 71.4771 54.5797 0.0003 -14.3473 -0.0013
# 3 30.6820 54.5797 129.2959 0.0021 -15.6136 -0.0035
# 4 -0.0008 0.0003 0.0021 28.0724 0.0008 -12.9102
# 5 -8.4806 -14.3473 -15.6136 0.0008 35.6539 0.0005
# 6 -0.0016 -0.0013 -0.0035 -12.9102 0.0005 11.0954
#
#
#
# Elastic Compliance Matrix: (Units=1/GPa)
#
#
# Indices 1 2 3 4 5 6 
#
# 1 0.032197 -0.002995 -0.005910 0.000005 0.003865 0.000008
# 2 -0.002995 0.021712 -0.007904 0.000000 0.004564 -0.000001
# 3 -0.005910 -0.007904 0.012585 0.000000 0.000925 0.000002
# 4 0.000005 0.000000 0.000000 0.076625 -0.000002 0.089159
# 5 0.003865 0.004564 0.000925 -0.000002 0.031208 -0.000003
# 6 0.000008 -0.000001 0.000002 0.089159 -0.000003 0.193870
#
#
# Mechanical properties :
#
#
# Convention : Reuss Voigt Hill
#
# Bulk Modulus (GPa) = 30.41513 49.72121 40.06817
# Shear Modulus (GPa) = 12.11322 24.06713 18.09017
#
# Velocity S-wave (km/s) = 2.36853 3.33857 2.89448
# Velocity P-wave (km/s) = 4.64391 6.15536 5.45226
#
# Compressibility (1/GPa) = 0.03287838
#
# Stress axis : x y z
#
# Youngs Moduli (GPa) = 31.05864 46.05723 79.46229
#
# Poissons Ratio (x) = 0.13792 0.46958
# Poissons Ratio (y) = 0.09301 0.62804
# Poissons Ratio (z) = 0.18354 0.36402
#
# Static dielectric constant tensor:
#      x y z
#    x 1.839080 0.000000 -0.008620 
#    y 0.000000 1.816520 0.000000 
#    z -0.008620 0.000000 1.851900 
# 
# From -- ./inp_files/68027.got.cif
#   From: 2010.05.17/outbox.cif.g08.bks.cpg/sg5_35_cif.got.tgz:68027.got - 2010.06.03 18:56:24.
