data_PCOD9125848
_publ_section_title
;
Structure prediction by ZEFSAII (Michael W. Deem and Ramdas Pophale) SiO2 
 PCOD9125848
Probable space group: C 2
;
_chemical_formula_sum "Si O2"
_cell_formula_units_Z 28
_cell_length_a 17.085888
_cell_length_b 9.219304
_cell_length_c 10.953320
_cell_angle_alpha 90.000000
_cell_angle_beta 48.396975
_cell_angle_gamma 90.000000
_cell_volume 1290.165606
_symmetry_space_group_name_H-M "C 2"
_symmetry_group_IT_number 5
_symmetry_cell_setting 'monoclinic'
loop_
_space_group_symop_operation_xyz
x,y,z
-x,y,-z
1/2+x,1/2+y,z
1/2-x,1/2+y,-z
loop_
_atom_site_type_symbol
_atom_site_label
_atom_site_fract_x
_atom_site_fract_y
_atom_site_fract_z
Si Si1 0.015251 0.001450 0.219435
Si Si2 0.114477 0.482072 0.910419
Si Si3 0.500000 0.377127 0.500000
Si Si4 0.331622 0.138319 0.721718
Si Si5 0.500000 0.905450 0.500000
Si Si6 0.163743 0.743242 0.005883
Si Si7 0.113318 0.295061 0.158853
Si Si8 0.115069 0.184012 0.817300
O O1 0.102282 0.127505 0.134714
O O2 0.912858 0.075864 0.264787
O O3 0.067677 0.858491 0.101976
O O4 0.995128 0.963073 0.380075
O O5 0.138307 0.358606 0.783896
O O6 0.175986 0.626185 0.884569
O O7 0.107079 0.388506 0.042855
O O8 0.000000 0.539934 0.000000
O O9 0.394696 0.280899 0.612515
O O10 0.343301 0.156570 0.856742
O O11 0.215428 0.131757 0.788718
O O12 0.399652 0.008734 0.596585
O O13 0.522617 0.821748 0.351521
O O14 0.273472 0.825944 0.901778
O O15 0.000000 0.178443 0.000000
#
# Coordination Sequence:
#
# PCOD9125848 Si02
#       8
#     4   4   2   4   2   4   4   4
#     4  11  23  43  69 103 141 178 236 293 353 416
#     4  11  22  43  65 100 138 177 229 294 351 407
#     4   9  23  42  70 100 134 186 230 280 350 432
#     4  10  21  44  70 101 139 184 235 287 347 422
#     4  11  25  40  70 102 142 180 234 284 362 420
#     4  11  23  40  76 102 131 184 246 286 343 423
#     4  12  22  41  70 103 135 181 229 294 343 421
#     4  11  22  41  71  99 137 182 226 300 349 401
#
# _framework density 21.702641
#
# number of rings (size 3 to 8) (size 9 to 14) (size 15 to 20)
#    0.000    1.143    5.714    1.286    4.000    0.571 
#    2.571    0.000    0.000    0.000    0.000    0.000 
#    0.000    0.000    0.000    0.000    0.000    0.000 
#
# Total GULP energy -78004.533264 kJ/mol
# GULP energy per Si atom -5571.752376 kJ/mol
# Density = 2.165325 g / cm^3
# Si number density = 21.702641 Si / 1000 Ang^3
#
#
#
# Elastic Constant Matrix: (Units=GPa)
#
#
# Indices 1 2 3 4 5 6 
#
# 1 136.7393 50.8609 21.9677 0.0000 -12.3634 0.0000
# 2 50.8609 108.2651 31.7031 0.0000 10.8735 0.0000
# 3 21.9677 31.7031 67.5261 0.0000 -3.3794 0.0000
# 4 0.0000 0.0000 0.0000 32.2762 0.0000 3.7285
# 5 -12.3634 10.8735 -3.3794 0.0000 23.4330 0.0000
# 6 0.0000 0.0000 0.0000 3.7285 0.0000 22.8523
#
#
#
# Elastic Compliance Matrix: (Units=1/GPa)
#
#
# Indices 1 2 3 4 5 6 
#
# 1 0.010089 -0.005420 -0.000348 0.000000 0.007788 0.000000
# 2 -0.005420 0.014445 -0.005537 0.000000 -0.010361 0.000000
# 3 -0.000348 -0.005537 0.017769 0.000000 0.004948 0.000000
# 4 0.000000 0.000000 0.000000 0.031578 0.000000 -0.005152
# 5 0.007788 -0.010361 0.004948 0.000000 0.052305 0.000000
# 6 0.000000 0.000000 0.000000 -0.005152 0.000000 0.044600
#
#
# Mechanical properties :
#
#
# Convention : Reuss Voigt Hill
#
# Bulk Modulus (GPa) = 50.77747 57.95488 54.36617
# Shear Modulus (GPa) = 25.00489 29.57888 27.29189
#
# Velocity S-wave (km/s) = 3.39803 3.69577 3.55002
# Velocity P-wave (km/s) = 6.23243 6.70624 6.47367
#
# Compressibility (1/GPa) = 0.01969378
#
# Stress axis : x y z
#
# Youngs Moduli (GPa) = 99.11520 69.22884 56.27628
#
# Poissons Ratio (x) = 0.37523 0.01957
# Poissons Ratio (y) = 0.53721 0.31160
# Poissons Ratio (z) = 0.03447 0.38332
#
# Static dielectric constant tensor:
#      x y z
#    x 1.802020 0.000000 0.057240 
#    y 0.000000 1.870770 0.000000 
#    z 0.057240 0.000000 1.873550 
# 
# From -- ./inp_files/41897.got.cif
#   From: 2010.05.17/outbox.cif.g08.bks.cpg/sg5_21_cif.got.tgz:41897.got - 2010.06.03 18:56:24.
