data_PCOD9125956
_publ_section_title
;
Structure prediction by ZEFSAII (Michael W. Deem and Ramdas Pophale) SiO2 
 PCOD9125956
Probable space group: C 2
;
_chemical_formula_sum "Si O2"
_cell_formula_units_Z 22
_cell_length_a 6.030388
_cell_length_b 19.695517
_cell_length_c 9.085570
_cell_angle_alpha 90.000000
_cell_angle_beta 91.075551
_cell_angle_gamma 90.000000
_cell_volume 1078.917646
_symmetry_space_group_name_H-M "C 2"
_symmetry_group_IT_number 5
_symmetry_cell_setting 'monoclinic'
loop_
_space_group_symop_operation_xyz
x,y,z
-x,y,-z
1/2+x,1/2+y,z
1/2-x,1/2+y,-z
loop_
_atom_site_type_symbol
_atom_site_label
_atom_site_fract_x
_atom_site_fract_y
_atom_site_fract_z
Si Si1 0.170372 0.667180 0.250431
Si Si2 0.000000 0.137113 0.000000
Si Si3 0.396921 0.290941 0.163342
Si Si4 0.000000 0.328469 0.000000
Si Si5 0.284437 0.062983 0.254689
Si Si6 0.635484 0.421804 0.145635
Si Si7 0.500000 0.631550 0.500000
O O1 0.340295 0.671575 0.387281
O O2 0.993500 0.728092 0.252656
O O3 0.030259 0.596360 0.252164
O O4 0.315436 0.671608 0.103094
O O5 0.851113 0.095086 0.883287
O O6 0.474264 0.365554 0.219538
O O7 0.500000 0.285741 0.000000
O O8 0.137212 0.288271 0.125358
O O9 0.167169 0.376825 0.916588
O O10 0.162685 0.087359 0.400414
O O11 0.244002 0.982767 0.236894
O O12 0.500000 0.448080 0.000000
#
# Coordination Sequence:
#
# PCOD9125956 Si02
#       7
#     4   2   4   2   4   4   2
#     4  11  23  39  63  89 124 163 212 253 312 363
#     4  10  22  35  62  96 121 150 198 260 305 370
#     4   9  19  36  57  94 124 157 196 251 314 375
#     4   8  18  31  56  92 133 148 186 262 313 362
#     4  11  21  38  62  92 121 162 205 255 304 368
#     4   9  19  34  58  93 126 156 196 246 316 373
#     4  10  26  42  58  82 130 166 206 258 302 360
#
# _framework density 20.390805
#
# number of rings (size 3 to 8) (size 9 to 14) (size 15 to 20)
#    0.000    2.545    0.909    2.182    2.545   10.909 
#    0.000    0.000    8.000    0.000    0.000    0.000 
#    0.000    0.000    0.000    0.000    0.000    0.000 
#
# Total GULP energy -61328.043291 kJ/mol
# GULP energy per Si atom -5575.276663 kJ/mol
# Density = 2.034439 g / cm^3
# Si number density = 20.390805 Si / 1000 Ang^3
#
#
#
# Elastic Constant Matrix: (Units=GPa)
#
#
# Indices 1 2 3 4 5 6 
#
# 1 123.8387 48.9494 35.5263 0.0000 15.0300 0.0000
# 2 48.9494 119.2605 36.8895 0.0000 18.7508 0.0000
# 3 35.5263 36.8895 83.9473 0.0000 3.9753 0.0000
# 4 0.0000 0.0000 0.0000 15.1591 0.0000 9.0022
# 5 15.0300 18.7508 3.9753 0.0000 31.8149 0.0000
# 6 0.0000 0.0000 0.0000 9.0022 0.0000 24.2647
#
#
#
# Elastic Compliance Matrix: (Units=1/GPa)
#
#
# Indices 1 2 3 4 5 6 
#
# 1 0.010429 -0.002906 -0.003002 0.000000 -0.002840 0.000000
# 2 -0.002906 0.011458 -0.003572 0.000000 -0.004934 0.000000
# 3 -0.003002 -0.003572 0.014672 0.000000 0.001690 0.000000
# 4 0.000000 0.000000 0.000000 0.084607 0.000000 -0.031389
# 5 -0.002840 -0.004934 0.001690 0.000000 0.035470 0.000000
# 6 0.000000 0.000000 0.000000 -0.031389 0.000000 0.052858
#
#
# Mechanical properties :
#
#
# Convention : Reuss Voigt Hill
#
# Bulk Modulus (GPa) = 56.81704 63.30854 60.06279
# Shear Modulus (GPa) = 21.33822 27.95983 24.64902
#
# Velocity S-wave (km/s) = 3.23842 3.70699 3.48060
# Velocity P-wave (km/s) = 6.47361 7.03117 6.75814
#
# Compressibility (1/GPa) = 0.01760035
#
# Stress axis : x y z
#
# Youngs Moduli (GPa) = 95.88257 87.27397 68.15503
#
# Poissons Ratio (x) = 0.25357 0.20463
# Poissons Ratio (y) = 0.27859 0.24344
# Poissons Ratio (z) = 0.28788 0.31173
#
# Static dielectric constant tensor:
#      x y z
#    x 1.796020 0.000000 0.016940 
#    y 0.000000 1.789460 0.000000 
#    z 0.016940 0.000000 1.707640 
# 
# From -- ./inp_files/12552.got.cif
#   From: 2010.05.17/outbox.cif.g08.bks.cpg/sg5_7_cif.got.tgz:12552.got - 2010.06.03 18:56:24.
