data_PCOD9125366
_publ_section_title
;
Structure prediction by ZEFSAII (Michael W. Deem and Ramdas Pophale) SiO2 
 PCOD9125366
Probable space group: C 2
;
_chemical_formula_sum "Si O2"
_cell_formula_units_Z 24
_cell_length_a 12.726091
_cell_length_b 6.518894
_cell_length_c 18.496613
_cell_angle_alpha 90.000000
_cell_angle_beta 45.086161
_cell_angle_gamma 90.000000
_cell_volume 1086.671467
_symmetry_space_group_name_H-M "C 2"
_symmetry_group_IT_number 5
_symmetry_cell_setting 'monoclinic'
loop_
_space_group_symop_operation_xyz
x,y,z
-x,y,-z
1/2+x,1/2+y,z
1/2-x,1/2+y,-z
loop_
_atom_site_type_symbol
_atom_site_label
_atom_site_fract_x
_atom_site_fract_y
_atom_site_fract_z
Si Si1 0.443864 0.075170 0.860823
Si Si2 0.287638 0.348519 0.207079
Si Si3 0.170095 0.602159 0.939148
Si Si4 0.864376 0.208342 0.262695
Si Si5 0.951228 0.878396 0.737749
Si Si6 0.606929 0.518284 0.382772
O O1 0.562924 0.232012 0.839574
O O2 0.451881 0.158241 0.775474
O O3 0.501843 0.844775 0.832176
O O4 0.312943 0.094032 0.982876
O O5 0.292694 0.318326 0.118312
O O6 0.294062 0.576554 0.232319
O O7 0.164065 0.218206 0.310785
O O8 0.289237 0.460089 0.841306
O O9 0.000000 0.543555 0.000000
O O10 0.743360 0.377881 0.345135
O O11 0.929349 0.040537 0.286879
O O12 0.969246 0.884866 0.643445
O O13 0.500000 0.571891 0.500000
#
# Coordination Sequence:
#
# PCOD9125366 Si02
#       6
#     4   4   4   4   4   4
#     4   9  19  36  57  90 127 159 209 256 310 392
#     4   8  18  39  60  85 126 159 209 266 307 385
#     4   9  18  36  58  87 125 167 212 254 315 382
#     4  10  21  41  63  90 129 169 211 266 333 380
#     4  10  22  39  58  92 130 163 214 271 319 384
#     4  10  22  43  64  91 124 165 221 271 326 391
#
# _framework density 22.085791
#
# number of rings (size 3 to 8) (size 9 to 14) (size 15 to 20)
#    0.000    2.667    0.000    1.000    2.333    3.333 
#    9.000   24.167    0.000    0.000    0.000    0.000 
#    0.000    0.000    0.000    0.000    0.000    0.000 
#
# Total GULP energy -66881.483889 kJ/mol
# GULP energy per Si atom -5573.456991 kJ/mol
# Density = 2.203552 g / cm^3
# Si number density = 22.085791 Si / 1000 Ang^3
#
#
#
# Elastic Constant Matrix: (Units=GPa)
#
#
# Indices 1 2 3 4 5 6 
#
# 1 59.1568 10.8305 21.8859 0.0000 12.9625 0.0000
# 2 10.8305 89.1013 20.8630 0.0000 3.9030 0.0000
# 3 21.8859 20.8630 119.0609 0.0000 27.5345 0.0000
# 4 0.0000 0.0000 0.0000 12.1591 0.0000 -1.6334
# 5 12.9625 3.9030 27.5345 0.0000 32.4866 0.0000
# 6 0.0000 0.0000 0.0000 -1.6334 0.0000 33.6677
#
#
#
# Elastic Compliance Matrix: (Units=1/GPa)
#
#
# Indices 1 2 3 4 5 6 
#
# 1 0.019185 -0.001634 -0.001885 0.000000 -0.005861 0.000000
# 2 -0.001634 0.011847 -0.001987 0.000000 0.000912 0.000000
# 3 -0.001885 -0.001987 0.011026 0.000000 -0.008354 0.000000
# 4 0.000000 0.000000 0.000000 0.082782 0.000000 0.004016
# 5 -0.005861 0.000912 -0.008354 0.000000 0.040092 0.000000
# 6 0.000000 0.000000 0.000000 0.004016 0.000000 0.029897
#
#
# Mechanical properties :
#
#
# Convention : Reuss Voigt Hill
#
# Bulk Modulus (GPa) = 32.20922 41.60864 36.90893
# Shear Modulus (GPa) = 23.12802 29.91200 26.52001
#
# Velocity S-wave (km/s) = 3.23954 3.68415 3.46898
# Velocity P-wave (km/s) = 5.34866 6.08093 5.72651
#
# Compressibility (1/GPa) = 0.03104701
#
# Stress axis : x y z
#
# Youngs Moduli (GPa) = 52.12409 84.40970 90.69744
#
# Poissons Ratio (x) = 0.13792 0.17095
# Poissons Ratio (y) = 0.08517 0.18018
# Poissons Ratio (z) = 0.09824 0.16769
#
# Static dielectric constant tensor:
#      x y z
#    x 2.020790 0.000000 0.017390 
#    y 0.000000 1.837990 0.000000 
#    z 0.017390 0.000000 1.777430 
# 
# From -- ./inp_files/65624.got.cif
#   From: 2010.05.17/outbox.cif.g08.bks.cpg/sg5_33_cif.got.tgz:65624.got - 2010.06.03 18:56:24.
