data_PCOD9125094
_publ_section_title
;
Structure prediction by ZEFSAII (Michael W. Deem and Ramdas Pophale) SiO2 
 PCOD9125094
Probable space group: C 2
;
_chemical_formula_sum "Si O2"
_cell_formula_units_Z 16
_cell_length_a 10.211914
_cell_length_b 16.064172
_cell_length_c 5.068395
_cell_angle_alpha 90.000000
_cell_angle_beta 120.846953
_cell_angle_gamma 90.000000
_cell_volume 713.832769
_symmetry_space_group_name_H-M "C 2"
_symmetry_group_IT_number 5
_symmetry_cell_setting 'monoclinic'
loop_
_space_group_symop_operation_xyz
x,y,z
-x,y,-z
1/2+x,1/2+y,z
1/2-x,1/2+y,-z
loop_
_atom_site_type_symbol
_atom_site_label
_atom_site_fract_x
_atom_site_fract_y
_atom_site_fract_z
Si Si1 0.388092 0.129350 0.634828
Si Si2 0.675500 0.955212 0.599711
Si Si3 0.890542 0.863932 0.139718
Si Si4 0.174376 0.271398 0.607209
O O1 0.500000 0.141931 0.500000
O O2 0.264669 0.201451 0.546125
O O3 0.300337 0.040897 0.523786
O O4 0.500000 0.126969 0.000000
O O5 0.500000 0.959655 0.500000
O O6 0.684983 0.863220 0.477883
O O7 0.788638 0.945161 0.966074
O O8 0.000000 0.866889 0.500000
O O9 0.768455 0.790014 0.975312
O O10 0.000000 0.853611 0.000000
O O11 0.000000 0.253240 0.500000
#
# Coordination Sequence:
#
# PCOD9125094 Si02
#       4
#     4   4   4   4
#     4  11  24  46  74 106 148 189 238 294 363 432
#     4   8  20  45  70 106 138 195 232 295 356 429
#     4  10  21  39  69 103 134 178 239 289 344 413
#     4   9  21  46  73 109 141 191 240 299 356 425
#
# _framework density 22.414214999999999
#
# number of rings (size 3 to 8) (size 9 to 14) (size 15 to 20)
#    1.500    1.000    0.000    0.750    0.000    8.000 
#    0.000   12.500    0.000    6.000    0.000    0.000 
#    0.000    0.000    0.000    0.000    0.000    0.000 
#
# Total GULP energy -44594.519127 kJ/mol
# GULP energy per Si atom -5574.314891 kJ/mol
# Density = 2.236320 g / cm^3
# Si number density = 22.414215 Si / 1000 Ang^3
#
#
#
# Elastic Constant Matrix: (Units=GPa)
#
#
# Indices 1 2 3 4 5 6 
#
# 1 115.4337 74.4824 99.4139 0.0000 18.5170 0.0000
# 2 74.4824 218.0220 51.1675 0.0000 4.4977 0.0000
# 3 99.4139 51.1675 184.5307 0.0000 13.4276 0.0000
# 4 0.0000 0.0000 0.0000 -70.2051 0.0000 -52.4591
# 5 18.5170 4.4977 13.4276 0.0000 42.1595 0.0000
# 6 0.0000 0.0000 0.0000 -52.4591 0.0000 5.6267
#
#
#
# Elastic Compliance Matrix: (Units=1/GPa)
#
#
# Indices 1 2 3 4 5 6 
#
# 1 0.020798 -0.004766 -0.009475 0.000000 -0.005608 0.000000
# 2 -0.004766 0.005998 0.000817 0.000000 0.001193 0.000000
# 3 -0.009475 0.000817 0.010238 0.000000 0.000814 0.000000
# 4 0.000000 0.000000 0.000000 -0.001788 0.000000 -0.016670
# 5 -0.005608 0.001193 0.000814 0.000000 0.025796 0.000000
# 6 0.000000 0.000000 0.000000 -0.016670 0.000000 0.022309
#
#
# Mechanical properties :
#
#
# Convention : Reuss Voigt Hill
#
# Bulk Modulus (GPa) = 98.16079 107.56822 102.86450
# Shear Modulus (GPa) = 44.01667 15.04439 29.53053
#
# Velocity S-wave (km/s) = 4.43627 2.59356 3.63366
# Velocity P-wave (km/s) = 8.37435 7.55407 7.97476
#
# Compressibility (1/GPa) = 0.01018737
#
# Stress axis : x y z
#
# Youngs Moduli (GPa) = 48.08219 166.71277 97.67693
#
# Poissons Ratio (x) = 0.79450 0.92549
# Poissons Ratio (y) = 0.22915 -0.07984
# Poissons Ratio (z) = 0.45558 -0.13627
#
# Static dielectric constant tensor:
#      x y z
#    x 1.884470 0.000000 -0.058160 
#    y 0.000000 1.914740 0.000000 
#    z -0.058160 0.000000 1.882320 
# 
# From -- ./inp_files/5085.got.cif
#   From: 2010.05.17/outbox.cif.g08.bks.cpg/sg5_3_cif.got.tgz:5085.got - 2010.06.03 18:56:24.
