data_PCOD9125225
_publ_section_title
;
Structure prediction by ZEFSAII (Michael W. Deem and Ramdas Pophale) SiO2 
 PCOD9125225
Probable space group: C 2
;
_chemical_formula_sum "Si O2"
_cell_formula_units_Z 28
_cell_length_a 15.379953
_cell_length_b 13.237141
_cell_length_c 12.156036
_cell_angle_alpha 90.000000
_cell_angle_beta 31.066212
_cell_angle_gamma 90.000000
_cell_volume 1277.069964
_symmetry_space_group_name_H-M "C 2"
_symmetry_group_IT_number 5
_symmetry_cell_setting 'monoclinic'
loop_
_space_group_symop_operation_xyz
x,y,z
-x,y,-z
1/2+x,1/2+y,z
1/2-x,1/2+y,-z
loop_
_atom_site_type_symbol
_atom_site_label
_atom_site_fract_x
_atom_site_fract_y
_atom_site_fract_z
Si Si1 0.859049 0.432380 0.331093
Si Si2 0.159952 0.768063 0.971117
Si Si3 0.888681 0.076472 0.726717
Si Si4 0.772588 0.816551 0.338487
Si Si5 0.804152 0.244766 0.246653
Si Si6 0.676091 0.623449 0.560779
Si Si7 0.246542 0.360363 0.899051
O O1 0.781052 0.414986 0.536772
O O2 0.771496 0.350467 0.346537
O O3 0.812097 0.547920 0.358862
O O4 0.051808 0.398155 0.113472
O O5 0.232535 0.654306 0.900142
O O6 0.244095 0.819858 0.773321
O O7 0.204555 0.824779 0.033697
O O8 0.961302 0.780716 0.164722
O O9 0.000000 0.106631 0.500000
O O10 0.994237 0.077542 0.727184
O O11 0.839811 0.961051 0.761790
O O12 0.661033 0.728477 0.511632
O O13 0.776683 0.156697 0.366220
O O14 0.719788 0.267015 0.220701
O O15 0.000000 0.235583 0.000000
#
# Coordination Sequence:
#
# PCOD9125225 Si02
#       7
#     4   4   4   4   4   4   4
#     4  10  21  40  65  91 130 168 216 261 330 387
#     4  11  23  41  65  92 131 164 223 270 322 382
#     4  12  23  39  67  99 128 169 223 270 320 392
#     4  10  22  41  65  94 122 174 215 272 324 383
#     4   9  20  39  62  90 125 167 205 259 321 386
#     4  11  21  40  65  92 130 170 212 264 334 387
#     4  11  24  41  65  98 127 170 219 271 322 391
#
# _framework density 21.925189
#
# number of rings (size 3 to 8) (size 9 to 14) (size 15 to 20)
#    0.000    1.429    1.429    5.143    0.000    1.143 
#    7.714    0.000    3.143    0.000    0.000    0.000 
#    0.000    0.000    0.000    0.000    0.000    0.000 
#
# Total GULP energy -78103.875981 kJ/mol
# GULP energy per Si atom -5578.848284 kJ/mol
# Density = 2.187529 g / cm^3
# Si number density = 21.925189 Si / 1000 Ang^3
#
#
#
# Elastic Constant Matrix: (Units=GPa)
#
#
# Indices 1 2 3 4 5 6 
#
# 1 111.6511 12.4675 14.5827 0.0000 17.7621 0.0000
# 2 12.4675 60.9659 9.6755 0.0000 -1.9542 0.0000
# 3 14.5827 9.6755 52.7930 0.0000 8.0630 0.0000
# 4 0.0000 0.0000 0.0000 35.0212 0.0000 3.0354
# 5 17.7621 -1.9542 8.0630 0.0000 27.9765 0.0000
# 6 0.0000 0.0000 0.0000 3.0354 0.0000 24.0888
#
#
#
# Elastic Compliance Matrix: (Units=1/GPa)
#
#
# Indices 1 2 3 4 5 6 
#
# 1 0.010391 -0.002085 -0.001526 0.000000 -0.006303 0.000000
# 2 -0.002085 0.017439 -0.003147 0.000000 0.003449 0.000000
# 3 -0.001526 -0.003147 0.020739 0.000000 -0.005228 0.000000
# 4 0.000000 0.000000 0.000000 0.028869 0.000000 -0.003638
# 5 -0.006303 0.003449 -0.005228 0.000000 0.041494 0.000000
# 6 0.000000 0.000000 0.000000 -0.003638 0.000000 0.041972
#
#
# Mechanical properties :
#
#
# Convention : Reuss Voigt Hill
#
# Bulk Modulus (GPa) = 28.52737 33.20683 30.86710
# Shear Modulus (GPa) = 26.86683 29.99624 28.43154
#
# Velocity S-wave (km/s) = 3.50435 3.70282 3.60495
# Velocity P-wave (km/s) = 5.42342 5.78442 5.60683
#
# Compressibility (1/GPa) = 0.03505406
#
# Stress axis : x y z
#
# Youngs Moduli (GPa) = 96.23422 57.34286 48.21941
#
# Poissons Ratio (x) = 0.11956 0.07356
# Poissons Ratio (y) = 0.20065 0.15174
# Poissons Ratio (z) = 0.14681 0.18045
#
# Static dielectric constant tensor:
#      x y z
#    x 1.880350 0.000000 -0.007380 
#    y 0.000000 1.799190 0.000000 
#    z -0.007380 0.000000 1.849370 
# 
# From -- ./inp_files/42911.got.cif
#   From: 2010.05.17/outbox.cif.g08.bks.cpg/sg5_22_cif.got.tgz:42911.got - 2010.06.03 18:56:24.
