data_PCOD9125787
_publ_section_title
;
Structure prediction by ZEFSAII (Michael W. Deem and Ramdas Pophale) SiO2 
 PCOD9125787
Probable space group: C 2
;
_chemical_formula_sum "Si O2"
_cell_formula_units_Z 16
_cell_length_a 8.476772
_cell_length_b 10.810264
_cell_length_c 8.632526
_cell_angle_alpha 90.000000
_cell_angle_beta 118.331550
_cell_angle_gamma 90.000000
_cell_volume 696.296218
_symmetry_space_group_name_H-M "C 2"
_symmetry_group_IT_number 5
_symmetry_cell_setting 'monoclinic'
loop_
_space_group_symop_operation_xyz
x,y,z
-x,y,-z
1/2+x,1/2+y,z
1/2-x,1/2+y,-z
loop_
_atom_site_type_symbol
_atom_site_label
_atom_site_fract_x
_atom_site_fract_y
_atom_site_fract_z
Si Si1 0.001814 0.008930 0.326845
Si Si2 0.195253 0.664764 0.666232
Si Si3 0.659334 0.296947 0.957919
Si Si4 0.521051 0.788548 0.682200
O O1 0.910930 0.144720 0.299399
O O2 0.000000 0.959893 0.500000
O O3 0.193881 0.045771 0.342474
O O4 0.909363 0.912706 0.173033
O O5 0.193528 0.687546 0.849435
O O6 0.323989 0.774459 0.661701
O O7 0.000000 0.666036 0.500000
O O8 0.500000 0.261785 0.000000
O O9 0.834914 0.340668 0.133013
O O10 0.500000 0.838997 0.500000
#
# Coordination Sequence:
#
# PCOD9125787 Si02
#       4
#     4   4   4   4
#     4   9  23  45  73 102 139 184 236 287 347 416
#     4  10  21  43  72  98 143 185 225 291 343 410
#     4  12  24  38  74 107 142 181 234 286 349 419
#     4   9  21  44  71  98 143 185 230 290 346 411
#
# _framework density 22.978725000000001
#
# number of rings (size 3 to 8) (size 9 to 14) (size 15 to 20)
#    1.500    0.500    0.000    3.000    3.500    0.000 
#    0.000   11.250    0.000    0.000    0.000    0.000 
#    0.000    0.000    0.000    0.000    0.000    0.000 
#
# Total GULP energy -44662.298658 kJ/mol
# GULP energy per Si atom -5582.787332 kJ/mol
# Density = 2.292642 g / cm^3
# Si number density = 22.978725 Si / 1000 Ang^3
#
#
#
# Elastic Constant Matrix: (Units=GPa)
#
#
# Indices 1 2 3 4 5 6 
#
# 1 128.0041 42.7005 120.6846 0.0000 7.2651 0.0000
# 2 42.7005 61.9001 44.7644 0.0000 -0.0542 0.0000
# 3 120.6846 44.7644 225.0677 0.0000 0.2330 0.0000
# 4 0.0000 0.0000 0.0000 26.3537 0.0000 -0.3751
# 5 7.2651 -0.0542 0.2330 0.0000 50.5547 0.0000
# 6 0.0000 0.0000 0.0000 -0.3751 0.0000 17.6345
#
#
#
# Elastic Compliance Matrix: (Units=1/GPa)
#
#
# Indices 1 2 3 4 5 6 
#
# 1 0.017961 -0.006341 -0.008367 0.000000 -0.002549 0.000000
# 2 -0.006341 0.021108 -0.000799 0.000000 0.000938 0.000000
# 3 -0.008367 -0.000799 0.009087 0.000000 0.001160 0.000000
# 4 0.000000 0.000000 0.000000 0.037957 0.000000 0.000807
# 5 -0.002549 0.000938 0.001160 0.000000 0.020143 0.000000
# 6 0.000000 0.000000 0.000000 0.000807 0.000000 0.056724
#
#
# Mechanical properties :
#
#
# Convention : Reuss Voigt Hill
#
# Bulk Modulus (GPa) = 58.33715 92.36345 75.35030
# Shear Modulus (GPa) = 25.03648 32.69673 28.86660
#
# Velocity S-wave (km/s) = 3.30441 3.77624 3.54818
# Velocity P-wave (km/s) = 6.32467 7.70038 7.04618
#
# Compressibility (1/GPa) = 0.01714173
#
# Stress axis : x y z
#
# Youngs Moduli (GPa) = 55.67631 47.37520 110.04350
#
# Poissons Ratio (x) = 0.30043 0.92074
# Poissons Ratio (y) = 0.35307 0.08791
# Poissons Ratio (z) = 0.46585 0.03785
#
# Static dielectric constant tensor:
#      x y z
#    x 1.856790 0.000000 -0.021590 
#    y 0.000000 1.920220 0.000000 
#    z -0.021590 0.000000 1.847360 
# 
# From -- ./inp_files/13879.got.cif
#   From: 2010.05.17/outbox.cif.g08.bks.cpg/sg5_7_cif.got.tgz:13879.got - 2010.06.03 18:56:24.
