data_PCOD9125161
_publ_section_title
;
Structure prediction by ZEFSAII (Michael W. Deem and Ramdas Pophale) SiO2 
 PCOD9125161
Probable space group: C 2
;
_chemical_formula_sum "Si O2"
_cell_formula_units_Z 32
_cell_length_a 9.277028
_cell_length_b 5.280625
_cell_length_c 26.945669
_cell_angle_alpha 90.000000
_cell_angle_beta 81.692808
_cell_angle_gamma 90.000000
_cell_volume 1306.177885
_symmetry_space_group_name_H-M "C 2"
_symmetry_group_IT_number 5
_symmetry_cell_setting 'monoclinic'
loop_
_space_group_symop_operation_xyz
x,y,z
-x,y,-z
1/2+x,1/2+y,z
1/2-x,1/2+y,-z
loop_
_atom_site_type_symbol
_atom_site_label
_atom_site_fract_x
_atom_site_fract_y
_atom_site_fract_z
Si Si1 0.259942 0.966230 0.638396
Si Si2 0.173755 0.407586 0.481209
Si Si3 0.173948 0.093569 0.982014
Si Si4 0.675864 0.301734 0.886569
Si Si5 0.298828 0.039694 0.787595
Si Si6 0.889511 0.909129 0.867765
Si Si7 0.490245 0.648748 0.231145
Si Si8 0.586892 0.466353 0.325459
O O1 0.300311 0.937866 0.578624
O O2 0.322475 0.713684 0.662058
O O3 0.083900 0.986207 0.650954
O O4 0.341171 0.216864 0.655010
O O5 0.248790 0.649527 0.504042
O O6 0.000000 0.399630 0.500000
O O7 0.192516 0.041681 0.921711
O O8 0.239691 0.836627 0.002555
O O9 0.000000 0.117687 0.000000
O O10 0.729174 0.318167 0.826539
O O11 0.504457 0.248396 0.893303
O O12 0.777472 0.081878 0.901952
O O13 0.451559 0.929309 0.762050
O O14 0.179497 0.103146 0.753115
O O15 0.318500 0.249159 0.828012
O O16 0.989625 0.098481 0.828743
O O17 0.578551 0.477421 0.265539
#
# Coordination Sequence:
#
# PCOD9125161 Si02
#       8
#     4   4   4   4   4   4   4   4
#     4  12  26  47  68 105 140 187 236 282 357 414
#     4  12  24  44  74 104 138 181 233 300 350 413
#     4  12  28  49  73 106 140 183 227 280 347 428
#     4  10  23  39  65  93 126 169 217 279 336 391
#     4  10  21  40  62  92 123 165 225 277 327 397
#     4  10  21  40  64  92 124 165 223 276 329 395
#     4  10  23  37  60  93 124 174 224 269 335 389
#     4  12  26  44  69  98 145 189 227 287 337 427
#
# _framework density 24.498961000000001
#
# number of rings (size 3 to 8) (size 9 to 14) (size 15 to 20)
#    0.000    1.000    0.000    6.000    7.000    0.000 
#    0.000    0.000    0.000    0.000    0.000    0.000 
#    0.000    0.000    0.000    0.000    0.000    0.000 
#
# Total GULP energy -89487.742332 kJ/mol
# GULP energy per Si atom -5592.983896 kJ/mol
# Density = 2.444320 g / cm^3
# Si number density = 24.498961 Si / 1000 Ang^3
#
#
#
# Elastic Constant Matrix: (Units=GPa)
#
#
# Indices 1 2 3 4 5 6 
#
# 1 172.9118 58.4424 5.3444 0.0000 3.8814 0.0000
# 2 58.4424 118.7538 -7.1943 0.0000 8.5671 0.0000
# 3 5.3444 -7.1943 93.7709 0.0000 2.5026 0.0000
# 4 0.0000 0.0000 0.0000 36.1543 0.0000 15.8049
# 5 3.8814 8.5671 2.5026 0.0000 28.7227 0.0000
# 6 0.0000 0.0000 0.0000 15.8049 0.0000 39.4328
#
#
#
# Elastic Compliance Matrix: (Units=1/GPa)
#
#
# Indices 1 2 3 4 5 6 
#
# 1 0.006979 -0.003486 -0.000669 0.000000 0.000155 0.000000
# 2 -0.003486 0.010398 0.001069 0.000000 -0.002723 0.000000
# 3 -0.000669 0.001069 0.010816 0.000000 -0.001171 0.000000
# 4 0.000000 0.000000 0.000000 0.033535 0.000000 -0.013441
# 5 0.000155 -0.002723 -0.001171 0.000000 0.035709 0.000000
# 6 0.000000 0.000000 0.000000 -0.013441 0.000000 0.030747
#
#
# Mechanical properties :
#
#
# Convention : Reuss Voigt Hill
#
# Bulk Modulus (GPa) = 45.41478 55.40240 50.40859
# Shear Modulus (GPa) = 35.28686 42.78489 39.03587
#
# Velocity S-wave (km/s) = 3.79930 4.18352 3.99603
# Velocity P-wave (km/s) = 6.15011 6.78226 6.47391
#
# Compressibility (1/GPa) = 0.02201926
#
# Stress axis : x y z
#
# Youngs Moduli (GPa) = 143.29086 96.17506 92.45811
#
# Poissons Ratio (x) = 0.33529 0.06189
# Poissons Ratio (y) = 0.49955 -0.09885
# Poissons Ratio (z) = 0.09591 -0.10282
#
# Static dielectric constant tensor:
#      x y z
#    x 2.017910 0.000000 -0.041070 
#    y 0.000000 1.996860 0.000000 
#    z -0.041070 0.000000 1.953050 
# 
# From -- ./inp_files/71515.got.cif
#   From: 2010.05.17/outbox.cif.g08.bks.cpg/sg5_36_cif.got.tgz:71515.got - 2010.06.03 18:56:24.
