data_PCOD9125812
_publ_section_title
;
Structure prediction by ZEFSAII (Michael W. Deem and Ramdas Pophale) SiO2 
 PCOD9125812
Probable space group: C 2
;
_chemical_formula_sum "Si O2"
_cell_formula_units_Z 24
_cell_length_a 27.151307
_cell_length_b 6.508088
_cell_length_c 13.785188
_cell_angle_alpha 90.000000
_cell_angle_beta 153.153893
_cell_angle_gamma 90.000000
_cell_volume 1100.035307
_symmetry_space_group_name_H-M "C 2"
_symmetry_group_IT_number 5
_symmetry_cell_setting 'monoclinic'
loop_
_space_group_symop_operation_xyz
x,y,z
-x,y,-z
1/2+x,1/2+y,z
1/2-x,1/2+y,-z
loop_
_atom_site_type_symbol
_atom_site_label
_atom_site_fract_x
_atom_site_fract_y
_atom_site_fract_z
Si Si1 0.226456 0.817090 0.352531
Si Si2 0.739939 0.657290 0.216519
Si Si3 0.582868 0.037311 0.228892
Si Si4 0.259084 0.283445 0.929906
Si Si5 0.879386 0.911364 0.329964
Si Si6 0.386164 0.050346 0.007734
O O1 0.144859 0.735182 0.292665
O O2 0.198797 0.651799 0.219577
O O3 0.226710 0.034472 0.294512
O O4 0.340585 0.848110 0.607299
O O5 0.740401 0.484212 0.135116
O O6 0.843796 0.800333 0.367799
O O7 0.637907 0.810179 0.031868
O O8 0.500000 0.966717 0.000000
O O9 0.506505 0.099229 0.183833
O O10 0.149166 0.154033 0.718217
O O11 0.356299 0.145009 0.057550
O O12 0.291019 0.334134 0.095019
O O13 0.000000 0.874907 0.500000
#
# Coordination Sequence:
#
# PCOD9125812 Si02
#       6
#     4   4   4   4   4   4
#     4  10  23  43  67  98 132 169 226 277 324 406
#     4  10  22  45  69  94 140 176 223 279 324 397
#     4  10  23  45  65  95 132 173 219 274 338 389
#     4  10  21  44  63  99 137 168 226 278 317 402
#     4  11  23  40  69  97 134 183 220 268 337 385
#     4   9  22  45  63  96 133 174 221 274 334 392
#
# _framework density 21.817481000000001
#
# number of rings (size 3 to 8) (size 9 to 14) (size 15 to 20)
#    0.000    2.000    1.667    0.000    7.000    0.667 
#   21.000    0.000    0.000    0.000    0.000    0.000 
#    0.000    0.000    0.000    0.000    0.000    0.000 
#
# Total GULP energy -66830.874363 kJ/mol
# GULP energy per Si atom -5569.239530 kJ/mol
# Density = 2.176782 g / cm^3
# Si number density = 21.817481 Si / 1000 Ang^3
#
#
#
# Elastic Constant Matrix: (Units=GPa)
#
#
# Indices 1 2 3 4 5 6 
#
# 1 120.7987 38.7088 23.6253 0.0000 24.7926 0.0000
# 2 38.7088 103.6975 32.9562 0.0000 3.8419 0.0000
# 3 23.6253 32.9562 73.7221 0.0000 10.9494 0.0000
# 4 0.0000 0.0000 0.0000 27.4705 0.0000 1.1282
# 5 24.7926 3.8419 10.9494 0.0000 29.2108 0.0000
# 6 0.0000 0.0000 0.0000 1.1282 0.0000 31.0112
#
#
#
# Elastic Compliance Matrix: (Units=1/GPa)
#
#
# Indices 1 2 3 4 5 6 
#
# 1 0.011445 -0.003727 -0.000669 0.000000 -0.008973 0.000000
# 2 -0.003727 0.012459 -0.004873 0.000000 0.003351 0.000000
# 3 -0.000669 -0.004873 0.016708 0.000000 -0.005054 0.000000
# 4 0.000000 0.000000 0.000000 0.036457 0.000000 -0.001326
# 5 -0.008973 0.003351 -0.005054 0.000000 0.043303 0.000000
# 6 0.000000 0.000000 0.000000 -0.001326 0.000000 0.032295
#
#
# Mechanical properties :
#
#
# Convention : Reuss Voigt Hill
#
# Bulk Modulus (GPa) = 45.30229 54.31101 49.80665
# Shear Modulus (GPa) = 28.00122 31.06704 29.53413
#
# Velocity S-wave (km/s) = 3.58639 3.77762 3.68325
# Velocity P-wave (km/s) = 6.16108 6.63134 6.40053
#
# Compressibility (1/GPa) = 0.02207394
#
# Stress axis : x y z
#
# Youngs Moduli (GPa) = 87.37425 80.26127 59.85211
#
# Poissons Ratio (x) = 0.29916 0.04003
# Poissons Ratio (y) = 0.32567 0.29166
# Poissons Ratio (z) = 0.05844 0.39112
#
# Static dielectric constant tensor:
#      x y z
#    x 1.855030 0.000000 -0.023890 
#    y 0.000000 1.822640 0.000000 
#    z -0.023890 0.000000 1.831790 
# 
# From -- ./inp_files/58260.got.cif
#   From: 2010.05.17/outbox.cif.g08.bks.cpg/sg5_30_cif.got.tgz:58260.got - 2010.06.03 18:56:24.
