data_PCOD9125140
_publ_section_title
;
Structure prediction by ZEFSAII (Michael W. Deem and Ramdas Pophale) SiO2 
 PCOD9125140
Probable space group: C 2
;
_chemical_formula_sum "Si O2"
_cell_formula_units_Z 32
_cell_length_a 22.673058
_cell_length_b 8.378775
_cell_length_c 22.290219
_cell_angle_alpha 90.000000
_cell_angle_beta 161.072855
_cell_angle_gamma 90.000000
_cell_volume 1373.535104
_symmetry_space_group_name_H-M "C 2"
_symmetry_group_IT_number 5
_symmetry_cell_setting 'monoclinic'
loop_
_space_group_symop_operation_xyz
x,y,z
-x,y,-z
1/2+x,1/2+y,z
1/2-x,1/2+y,-z
loop_
_atom_site_type_symbol
_atom_site_label
_atom_site_fract_x
_atom_site_fract_y
_atom_site_fract_z
Si Si1 0.871158 0.123270 0.064980
Si Si2 0.555979 0.861521 0.411053
Si Si3 0.659595 0.143183 0.294797
Si Si4 0.876566 0.601550 0.326863
Si Si5 0.489420 0.720286 0.051567
Si Si6 0.287690 0.247859 0.969279
Si Si7 0.280362 0.128909 0.505785
Si Si8 0.151784 0.813435 0.544700
O O1 0.069030 0.127681 0.285671
O O2 0.833444 0.936760 0.015711
O O3 0.889445 0.230332 0.021771
O O4 0.730789 0.185926 0.980024
O O5 0.720271 0.794053 0.608799
O O6 0.442276 0.991708 0.336688
O O7 0.635066 0.958405 0.430918
O O8 0.409760 0.729877 0.250945
O O9 0.444612 0.161313 0.082265
O O10 0.687178 0.150820 0.393367
O O11 0.754370 0.985066 0.361818
O O12 0.659617 0.597858 0.120421
O O13 0.000000 0.544809 0.500000
O O14 0.959588 0.777727 0.391031
O O15 0.500000 0.829151 0.000000
O O16 0.696052 0.703939 0.274591
O O17 0.360746 0.259361 0.536727
#
# Coordination Sequence:
#
# PCOD9125140 Si02
#       8
#     4   4   4   4   4   4   4   4
#     4  11  24  39  65  99 135 175 216 264 334 386
#     4  11  23  42  62  95 132 172 215 264 325 389
#     4  12  24  39  63  94 142 171 205 260 328 397
#     4  11  23  44  75  91 117 168 230 279 318 379
#     4  11  23  43  70  95 126 168 228 278 310 380
#     4  12  25  39  63 100 137 176 210 265 332 398
#     4  10  21  40  61  90 131 170 215 254 309 383
#     4  10  25  40  64  98 124 171 214 266 323 380
#
# _framework density 23.297547999999999
#
# number of rings (size 3 to 8) (size 9 to 14) (size 15 to 20)
#    0.000    1.000    5.000    1.500    7.000    1.000 
#    0.000    0.625    2.750    0.000    0.000    0.000 
#    0.000    0.000    0.000    0.000    0.000    0.000 
#
# Total GULP energy -89138.901685 kJ/mol
# GULP energy per Si atom -5571.181355 kJ/mol
# Density = 2.324452 g / cm^3
# Si number density = 23.297548 Si / 1000 Ang^3
#
#
#
# Elastic Constant Matrix: (Units=GPa)
#
#
# Indices 1 2 3 4 5 6 
#
# 1 52.7757 7.5119 15.8459 0.0007 3.5222 0.0008
# 2 7.5119 62.5561 -0.2671 0.0008 19.8515 0.0005
# 3 15.8459 -0.2671 115.0213 -0.0004 18.8529 0.0003
# 4 0.0007 0.0008 -0.0004 20.3171 -0.0005 4.2873
# 5 3.5222 19.8515 18.8529 -0.0005 41.7943 0.0001
# 6 0.0008 0.0005 0.0003 4.2873 0.0001 8.9220
#
#
#
# Elastic Compliance Matrix: (Units=1/GPa)
#
#
# Indices 1 2 3 4 5 6 
#
# 1 0.020155 -0.002724 -0.002934 0.000000 0.000919 -0.000002
# 2 -0.002724 0.019478 0.002051 -0.000001 -0.009947 0.000000
# 3 -0.002934 0.002051 0.009958 0.000000 -0.005219 0.000000
# 4 0.000000 -0.000001 0.000000 0.054774 0.000001 -0.026321
# 5 0.000919 -0.009947 -0.005219 0.000001 0.030928 0.000000
# 6 -0.000002 0.000000 0.000000 -0.026321 0.000000 0.124730
#
#
# Mechanical properties :
#
#
# Convention : Reuss Voigt Hill
#
# Bulk Modulus (GPa) = 23.59715 30.72607 27.16161
# Shear Modulus (GPa) = 17.77055 28.02417 22.89736
#
# Velocity S-wave (km/s) = 2.76482 3.47202 3.13840
# Velocity P-wave (km/s) = 4.51031 5.41206 4.98163
#
# Compressibility (1/GPa) = 0.04237800
#
# Stress axis : x y z
#
# Youngs Moduli (GPa) = 49.61449 51.33931 100.41775
#
# Poissons Ratio (x) = 0.13987 0.29459
# Poissons Ratio (y) = 0.13517 -0.20596
# Poissons Ratio (z) = 0.14555 -0.10530
#
# Static dielectric constant tensor:
#      x y z
#    x 2.000630 0.000000 0.036970 
#    y 0.000000 1.937660 0.000000 
#    z 0.036970 0.000000 1.942890 
# 
# From -- ./inp_files/69683.got.cif
#   From: 2010.05.17/outbox.cif.g08.bks.cpg/sg5_35_cif.got.tgz:69683.got - 2010.06.03 18:56:24.
