data_PCOD9125306
_publ_section_title
;
Structure prediction by ZEFSAII (Michael W. Deem and Ramdas Pophale) SiO2 
 PCOD9125306
Probable space group: C 2
;
_chemical_formula_sum "Si O2"
_cell_formula_units_Z 30
_cell_length_a 17.825511
_cell_length_b 8.207379
_cell_length_c 29.478604
_cell_angle_alpha 90.000000
_cell_angle_beta 18.636544
_cell_angle_gamma 90.000000
_cell_volume 1378.195699
_symmetry_space_group_name_H-M "C 2"
_symmetry_group_IT_number 5
_symmetry_cell_setting 'monoclinic'
loop_
_space_group_symop_operation_xyz
x,y,z
-x,y,-z
1/2+x,1/2+y,z
1/2-x,1/2+y,-z
loop_
_atom_site_type_symbol
_atom_site_label
_atom_site_fract_x
_atom_site_fract_y
_atom_site_fract_z
Si Si1 0.263282 0.563930 0.868066
Si Si2 0.083601 0.265880 0.136313
Si Si3 0.000000 0.262056 0.500000
Si Si4 0.263474 0.689903 0.107146
Si Si5 0.467742 0.507984 0.904515
Si Si6 0.470439 0.910727 0.615294
Si Si7 0.167253 0.489157 0.649311
Si Si8 0.304852 0.716350 0.435449
O O1 0.271009 0.667539 0.909365
O O2 0.324597 0.375313 0.842735
O O3 0.461064 0.640754 0.722118
O O4 0.000000 0.570402 0.000000
O O5 0.962227 0.133748 0.174545
O O6 0.903755 0.374669 0.267726
O O7 0.270889 0.377913 0.002646
O O8 0.946909 0.367830 0.575304
O O9 0.803611 0.138610 0.593501
O O10 0.067075 0.567495 0.237921
O O11 0.500000 0.687119 0.000000
O O12 0.337774 0.616202 0.016525
O O13 0.704151 0.422869 0.786062
O O14 0.619328 0.776799 0.558140
O O15 0.605894 0.079685 0.546354
O O16 0.273808 0.372754 0.549725
#
# Coordination Sequence:
#
# PCOD9125306 Si02
#       8
#     4   4   2   4   4   4   4   4
#     4  10  21  40  69  97 132 176 229 277 342 403
#     4  10  23  39  65  94 134 169 220 284 341 410
#     4  12  28  44  68 100 140 184 234 290 352 414
#     4  10  21  41  67  97 130 175 222 287 340 409
#     4  11  24  40  65  99 135 174 224 282 348 412
#     4  12  28  44  72  98 142 184 236 282 350 410
#     4  10  24  43  68  94 137 177 229 285 348 412
#     4  11  25  47  68 100 137 186 235 283 337 424
#
# _framework density 21.767590999999999
#
# number of rings (size 3 to 8) (size 9 to 14) (size 15 to 20)
#    0.000    1.333    0.000    4.000   11.200    5.867 
#    4.800    0.000    0.000    0.000    0.000    0.000 
#    0.000    0.000    0.000    0.000    0.000    0.000 
#
# Total GULP energy -83834.573255 kJ/mol
# GULP energy per Si atom -5588.971550 kJ/mol
# Density = 2.171805 g / cm^3
# Si number density = 21.767591 Si / 1000 Ang^3
#
#
#
# Elastic Constant Matrix: (Units=GPa)
#
#
# Indices 1 2 3 4 5 6 
#
# 1 74.4476 34.5843 13.0378 0.0161 3.8601 0.0021
# 2 34.5843 99.4085 12.5736 0.0627 5.0516 -0.0252
# 3 13.0378 12.5736 29.4888 0.0445 -1.7311 -0.0636
# 4 0.0161 0.0627 0.0445 14.2987 -0.0093 12.1031
# 5 3.8601 5.0516 -1.7311 -0.0093 21.1320 0.0087
# 6 0.0021 -0.0252 -0.0636 12.1031 0.0087 33.2380
#
#
#
# Elastic Compliance Matrix: (Units=1/GPa)
#
#
# Indices 1 2 3 4 5 6 
#
# 1 0.016853 -0.005059 -0.005430 0.000045 -0.002314 -0.000031
# 2 -0.005059 0.012335 -0.003157 -0.000063 -0.002283 0.000027
# 3 -0.005430 -0.003157 0.037944 -0.000222 0.004855 0.000150
# 4 0.000045 -0.000063 -0.000222 0.101099 0.000048 -0.036814
# 5 -0.002314 -0.002283 0.004855 0.000048 0.048688 -0.000023
# 6 -0.000031 0.000027 0.000150 -0.036814 -0.000023 0.043492
#
#
# Mechanical properties :
#
#
# Convention : Reuss Voigt Hill
#
# Bulk Modulus (GPa) = 25.10021 35.97070 30.53545
# Shear Modulus (GPa) = 16.61230 23.27702 19.94466
#
# Velocity S-wave (km/s) = 2.76554 3.27363 3.03025
# Velocity P-wave (km/s) = 4.66408 5.55424 5.12851
#
# Compressibility (1/GPa) = 0.03984031
#
# Stress axis : x y z
#
# Youngs Moduli (GPa) = 59.33558 81.07131 26.35488
#
# Poissons Ratio (x) = 0.41013 0.14311
# Poissons Ratio (y) = 0.30017 0.08319
# Poissons Ratio (z) = 0.32221 0.25591
#
# Static dielectric constant tensor:
#      x y z
#    x 1.824040 -0.000010 -0.007220 
#    y -0.000010 1.806940 0.000010 
#    z -0.007220 0.000010 1.797240 
# 
# From -- ./inp_files/44297.got.cif
#   From: 2010.05.17/outbox.cif.g08.bks.cpg/sg5_23_cif.got.tgz:44297.got - 2010.06.03 18:56:24.
