data_PCOD9125536
_publ_section_title
;
Structure prediction by ZEFSAII (Michael W. Deem and Ramdas Pophale) SiO2 
 PCOD9125536
Probable space group: C 2
;
_chemical_formula_sum "Si O2"
_cell_formula_units_Z 24
_cell_length_a 8.454618
_cell_length_b 11.832064
_cell_length_c 23.693310
_cell_angle_alpha 90.000000
_cell_angle_beta 33.274308
_cell_angle_gamma 90.000000
_cell_volume 1300.391195
_symmetry_space_group_name_H-M "C 2"
_symmetry_group_IT_number 5
_symmetry_cell_setting 'monoclinic'
loop_
_space_group_symop_operation_xyz
x,y,z
-x,y,-z
1/2+x,1/2+y,z
1/2-x,1/2+y,-z
loop_
_atom_site_type_symbol
_atom_site_label
_atom_site_fract_x
_atom_site_fract_y
_atom_site_fract_z
Si Si1 0.369005 0.965300 0.684780
Si Si2 0.180841 0.647334 0.396507
Si Si3 0.000000 0.864150 0.500000
Si Si4 0.809605 0.719747 0.248492
Si Si5 0.730193 0.564843 0.844634
Si Si6 0.211777 0.256523 0.986334
Si Si7 0.000000 0.897681 0.000000
O O1 0.710828 0.937331 0.585486
O O2 0.225336 0.844041 0.714419
O O3 0.317993 0.067982 0.657526
O O4 0.232333 0.000728 0.785236
O O5 0.499455 0.673782 0.323534
O O6 0.000000 0.587065 0.500000
O O7 0.030712 0.772448 0.439191
O O8 0.979860 0.637603 0.238997
O O9 0.005965 0.724479 0.133645
O O10 0.465312 0.650127 0.935844
O O11 0.715090 0.475557 0.899771
O O12 0.316794 0.329716 0.007964
O O13 0.000000 0.306863 0.000000
#
# Coordination Sequence:
#
# PCOD9125536 Si02
#       7
#     4   4   2   4   4   4   2
#     4  11  22  40  65  90 120 172 204 257 331 364
#     4   9  22  42  60  88 122 159 207 262 319 369
#     4   8  22  40  60  86 130 148 212 272 294 384
#     4  10  21  42  58  91 129 152 212 270 291 389
#     4  11  24  41  62  95 127 165 215 257 313 386
#     4  10  23  42  61  97 133 166 223 259 302 398
#     4  12  22  42  66  88 136 178 202 264 330 354
#
# _framework density 18.455983
#
# number of rings (size 3 to 8) (size 9 to 14) (size 15 to 20)
#    0.500    1.333    4.167    0.000    4.667    2.667 
#    4.500    0.000    0.000    0.000    0.000    0.000 
#    0.000    0.000    0.000    0.000    0.000    0.000 
#
# Total GULP energy -66822.534468 kJ/mol
# GULP energy per Si atom -5568.544539 kJ/mol
# Density = 1.841398 g / cm^3
# Si number density = 18.455983 Si / 1000 Ang^3
#
#
#
# Elastic Constant Matrix: (Units=GPa)
#
#
# Indices 1 2 3 4 5 6 
#
# 1 65.4992 41.5933 20.3531 0.0002 4.6126 -0.0013
# 2 41.5933 76.7018 8.5075 -0.0005 -6.0000 -0.0001
# 3 20.3531 8.5075 80.7337 -0.0045 -12.9329 -0.0075
# 4 0.0002 -0.0005 -0.0045 26.6910 -0.0009 4.3538
# 5 4.6126 -6.0000 -12.9329 -0.0009 26.7562 0.0021
# 6 -0.0013 -0.0001 -0.0075 4.3538 0.0021 28.0540
#
#
#
# Elastic Compliance Matrix: (Units=1/GPa)
#
#
# Indices 1 2 3 4 5 6 
#
# 1 0.028166 -0.015384 -0.007382 -0.000002 -0.011874 0.000001
# 2 -0.015384 0.021747 0.003027 0.000001 0.008992 -0.000001
# 3 -0.007382 0.003027 0.015436 0.000003 0.009413 0.000003
# 4 -0.000002 0.000001 0.000003 0.038439 0.000004 -0.005965
# 5 -0.011874 0.008992 0.009413 0.000004 0.045987 -0.000002
# 6 0.000001 -0.000001 0.000003 -0.005965 -0.000002 0.036571
#
#
# Mechanical properties :
#
#
# Convention : Reuss Voigt Hill
#
# Bulk Modulus (GPa) = 38.65048 40.42693 39.53870
# Shear Modulus (GPa) = 21.32659 26.46564 23.89612
#
# Velocity S-wave (km/s) = 3.40301 3.79091 3.60218
# Velocity P-wave (km/s) = 6.03557 6.41197 6.22661
#
# Compressibility (1/GPa) = 0.02587290
#
# Stress axis : x y z
#
# Youngs Moduli (GPa) = 35.50332 45.98242 64.78285
#
# Poissons Ratio (x) = 0.70739 0.47821
# Poissons Ratio (y) = 0.54618 -0.19610
# Poissons Ratio (z) = 0.26208 -0.13919
#
# Static dielectric constant tensor:
#      x y z
#    x 1.647600 0.000000 0.004610 
#    y 0.000000 1.652100 0.000000 
#    z 0.004610 0.000000 1.646880 
# 
# From -- ./inp_files/50007.got.cif
#   From: 2010.05.17/outbox.cif.g08.bks.cpg/sg5_26_cif.got.tgz:50007.got - 2010.06.03 18:56:24.
