data_PCOD9125761
_publ_section_title
;
Structure prediction by ZEFSAII (Michael W. Deem and Ramdas Pophale) SiO2 
 PCOD9125761
Probable space group: C 2
;
_chemical_formula_sum "Si O2"
_cell_formula_units_Z 28
_cell_length_a 18.386133
_cell_length_b 12.042709
_cell_length_c 12.840239
_cell_angle_alpha 90.000000
_cell_angle_beta 157.781149
_cell_angle_gamma 90.000000
_cell_volume 1075.094168
_symmetry_space_group_name_H-M "C 2"
_symmetry_group_IT_number 5
_symmetry_cell_setting 'monoclinic'
loop_
_space_group_symop_operation_xyz
x,y,z
-x,y,-z
1/2+x,1/2+y,z
1/2-x,1/2+y,-z
loop_
_atom_site_type_symbol
_atom_site_label
_atom_site_fract_x
_atom_site_fract_y
_atom_site_fract_z
Si Si1 0.827439 0.878080 0.903539
Si Si2 0.136218 0.873936 0.814033
Si Si3 0.461889 0.131734 0.101255
Si Si4 0.455797 0.827270 0.657954
Si Si5 0.081259 0.102725 0.499021
Si Si6 0.455142 0.139467 0.560471
Si Si7 0.297739 0.515720 0.620285
O O1 0.198042 0.577395 0.181414
O O2 0.770124 0.876212 0.946906
O O3 0.940111 0.760711 0.042300
O O4 0.984301 0.976060 0.098955
O O5 0.989314 0.771995 0.605091
O O6 0.025809 0.987523 0.656658
O O7 0.334189 0.854248 0.016411
O O8 0.739383 0.088634 0.646791
O O9 0.679121 0.089954 0.381173
O O10 0.413634 0.110518 0.161882
O O11 0.458883 0.696559 0.639661
O O12 0.351092 0.873408 0.411740
O O13 0.312113 0.897167 0.539527
O O14 0.000000 0.153573 0.500000
O O15 0.500000 0.102733 0.500000
#
# Coordination Sequence:
#
# PCOD9125761 Si02
#       7
#     4   4   4   4   4   4   4
#     4  10  21  43  68  97 140 182 236 278 347 426
#     4  11  23  39  70 105 137 184 230 300 354 406
#     4   8  20  40  67  95 138 183 228 284 342 420
#     4  11  23  40  67 100 133 187 235 289 346 411
#     4  11  21  39  65 100 136 176 234 288 344 414
#     4   9  20  40  68 103 147 175 230 289 357 421
#     4  10  22  41  70  99 140 181 228 290 349 418
#
# _framework density 26.044229999999999
#
# number of rings (size 3 to 8) (size 9 to 14) (size 15 to 20)
#    0.857    1.143    0.000    4.714    2.000    2.857 
#    0.000    2.143    9.429    0.000    0.000    0.000 
#    0.000    0.000    0.000    0.000    0.000    0.000 
#
# Total GULP energy -77972.418937 kJ/mol
# GULP energy per Si atom -5569.458496 kJ/mol
# Density = 2.598495 g / cm^3
# Si number density = 26.044230 Si / 1000 Ang^3
#
#
#
# Elastic Constant Matrix: (Units=GPa)
#
#
# Indices 1 2 3 4 5 6 
#
# 1 87.6849 3.2619 11.4415 0.0000 -16.3850 0.0000
# 2 3.2619 135.3403 74.9147 0.0000 -3.6148 0.0000
# 3 11.4415 74.9147 163.0479 0.0000 -8.4597 0.0000
# 4 0.0000 0.0000 0.0000 -54.5125 0.0000 -123.1151
# 5 -16.3850 -3.6148 -8.4597 0.0000 33.0415 0.0000
# 6 0.0000 0.0000 0.0000 -123.1151 0.0000 -139.9014
#
#
#
# Elastic Compliance Matrix: (Units=1/GPa)
#
#
# Indices 1 2 3 4 5 6 
#
# 1 0.012626 0.000233 -0.000676 0.000000 0.006114 0.000000
# 2 0.000233 0.009913 -0.004570 0.000000 0.000030 0.000000
# 3 -0.000676 -0.004570 0.008348 0.000000 0.001302 0.000000
# 4 0.000000 0.000000 0.000000 0.018577 0.000000 -0.016348
# 5 0.006114 0.000030 0.001302 0.000000 0.033633 0.000000
# 6 0.000000 0.000000 0.000000 -0.016348 0.000000 0.007238
#
#
# Mechanical properties :
#
#
# Convention : Reuss Voigt Hill
#
# Bulk Modulus (GPa) = 47.93247 62.81213 55.37230
# Shear Modulus (GPa) = 46.59161 -12.51081 17.04040
#
# Velocity S-wave (km/s) = 4.23418 -2.19411 2.56068
# Velocity P-wave (km/s) = 6.50758 4.21320 5.48177
#
# Compressibility (1/GPa) = 0.02086269
#
# Stress axis : x y z
#
# Youngs Moduli (GPa) = 79.19889 100.87358 119.79275
#
# Poissons Ratio (x) = -0.02352 0.08097
# Poissons Ratio (y) = -0.01846 0.54741
# Poissons Ratio (z) = 0.05353 0.46096
#
# Static dielectric constant tensor:
#      x y z
#    x 2.304200 0.000000 0.103430 
#    y 0.000000 2.091530 0.000000 
#    z 0.103430 0.000000 2.286920 
# 
# From -- ./inp_files/63372.got.cif
#   From: 2010.05.17/outbox.cif.g08.bks.cpg/sg5_32_cif.got.tgz:63372.got - 2010.06.03 18:56:24.
