data_PCOD9125357
_publ_section_title
;
Structure prediction by ZEFSAII (Michael W. Deem and Ramdas Pophale) SiO2 
 PCOD9125357
Probable space group: C 2
;
_chemical_formula_sum "Si O2"
_cell_formula_units_Z 26
_cell_length_a 20.337259
_cell_length_b 7.145034
_cell_length_c 15.797770
_cell_angle_alpha 90.000000
_cell_angle_beta 31.624020
_cell_angle_gamma 90.000000
_cell_volume 1203.671342
_symmetry_space_group_name_H-M "C 2"
_symmetry_group_IT_number 5
_symmetry_cell_setting 'monoclinic'
loop_
_space_group_symop_operation_xyz
x,y,z
-x,y,-z
1/2+x,1/2+y,z
1/2-x,1/2+y,-z
loop_
_atom_site_type_symbol
_atom_site_label
_atom_site_fract_x
_atom_site_fract_y
_atom_site_fract_z
Si Si1 0.642549 0.291610 0.142451
Si Si2 0.500000 0.691530 0.000000
Si Si3 0.707937 0.882486 0.660003
Si Si4 0.118462 0.505481 0.419722
Si Si5 0.945021 0.950412 0.475899
Si Si6 0.104475 0.563527 0.612020
Si Si7 0.178752 0.041316 0.941639
O O1 0.558116 0.442775 0.285556
O O2 0.539160 0.130218 0.240115
O O3 0.674894 0.381488 0.017210
O O4 0.753407 0.213386 0.081250
O O5 0.619488 0.803844 0.831524
O O6 0.448728 0.588478 0.970419
O O7 0.813699 0.017741 0.583498
O O8 0.792234 0.728382 0.516251
O O9 0.624032 0.977713 0.681396
O O10 0.092446 0.731334 0.460329
O O11 0.129217 0.434436 0.503166
O O12 0.000000 0.432945 0.500000
O O13 0.233259 0.481882 0.232255
O O14 0.000000 0.034157 0.500000
#
# Coordination Sequence:
#
# PCOD9125357 Si02
#       7
#     4   2   4   4   4   4   4
#     4  10  23  37  65  92 129 161 216 259 314 368
#     4  12  24  36  64  94 128 174 206 258 328 378
#     4  10  22  37  64  89 125 160 218 252 322 373
#     4   9  15  35  63  78 110 161 206 234 311 374
#     4   9  15  37  61  82 110 166 204 242 301 384
#     4  10  21  41  62  92 119 172 205 266 303 385
#     4  12  22  39  63  96 126 170 212 261 314 379
#
# _framework density 21.600581999999999
#
# number of rings (size 3 to 8) (size 9 to 14) (size 15 to 20)
#    0.000    2.154    7.692    0.000    6.462    0.000 
#    0.000    2.308    0.000    0.000    0.000    0.000 
#    0.000    0.000    0.000    0.000    0.000    0.000 
#
# Total GULP energy -72383.189406 kJ/mol
# GULP energy per Si atom -5567.937647 kJ/mol
# Density = 2.155142 g / cm^3
# Si number density = 21.600582 Si / 1000 Ang^3
#
#
#
# Elastic Constant Matrix: (Units=GPa)
#
#
# Indices 1 2 3 4 5 6 
#
# 1 176.7122 16.0049 16.3417 0.0001 5.6027 -0.0002
# 2 16.0049 43.1742 13.1550 0.0003 0.0540 -0.0004
# 3 16.3417 13.1550 76.5379 0.0001 15.6890 0.0000
# 4 0.0001 0.0003 0.0001 10.4625 -0.0001 5.8012
# 5 5.6027 0.0540 15.6890 -0.0001 42.4181 0.0001
# 6 -0.0002 -0.0004 0.0000 5.8012 0.0001 46.1591
#
#
#
# Elastic Compliance Matrix: (Units=1/GPa)
#
#
# Indices 1 2 3 4 5 6 
#
# 1 0.005927 -0.001942 -0.000835 0.000000 -0.000472 0.000000
# 2 -0.001942 0.025185 -0.004285 -0.000001 0.001809 0.000000
# 3 -0.000835 -0.004285 0.015101 0.000000 -0.005470 0.000000
# 4 0.000000 -0.000001 0.000000 0.102739 0.000000 -0.012912
# 5 -0.000472 0.001809 -0.005470 0.000000 0.025658 0.000000
# 6 0.000000 0.000000 0.000000 -0.012912 0.000000 0.023287
#
#
# Mechanical properties :
#
#
# Convention : Reuss Voigt Hill
#
# Bulk Modulus (GPa) = 31.16291 43.04750 37.10521
# Shear Modulus (GPa) = 22.44994 36.53613 29.49304
#
# Velocity S-wave (km/s) = 3.22735 4.11718 3.69912
# Velocity P-wave (km/s) = 5.32409 6.52485 5.95481
#
# Compressibility (1/GPa) = 0.03208943
#
# Stress axis : x y z
#
# Youngs Moduli (GPa) = 168.71969 39.70576 66.21907
#
# Poissons Ratio (x) = 0.07711 0.05529
# Poissons Ratio (y) = 0.32768 0.28375
# Poissons Ratio (z) = 0.14088 0.17014
#
# Static dielectric constant tensor:
#      x y z
#    x 1.852360 0.000000 -0.057300 
#    y 0.000000 1.914720 0.000000 
#    z -0.057300 0.000000 1.743530 
# 
# From -- ./inp_files/56793.got.cif
#   From: 2010.05.17/outbox.cif.g08.bks.cpg/sg5_29_cif.got.tgz:56793.got - 2010.06.03 18:56:24.
