data_PCOD9125875
_publ_section_title
;
Structure prediction by ZEFSAII (Michael W. Deem and Ramdas Pophale) SiO2 
 PCOD9125875
Probable space group: C 2
;
_chemical_formula_sum "Si O2"
_cell_formula_units_Z 30
_cell_length_a 11.533733
_cell_length_b 8.600682
_cell_length_c 13.707795
_cell_angle_alpha 90.000000
_cell_angle_beta 115.645928
_cell_angle_gamma 90.000000
_cell_volume 1225.827368
_symmetry_space_group_name_H-M "C 2"
_symmetry_group_IT_number 5
_symmetry_cell_setting 'monoclinic'
loop_
_space_group_symop_operation_xyz
x,y,z
-x,y,-z
1/2+x,1/2+y,z
1/2-x,1/2+y,-z
loop_
_atom_site_type_symbol
_atom_site_label
_atom_site_fract_x
_atom_site_fract_y
_atom_site_fract_z
Si Si1 0.025346 0.270030 0.185884
Si Si2 0.606047 0.083815 0.143161
Si Si3 0.629885 0.491941 0.652469
Si Si4 0.231812 0.103458 0.138527
Si Si5 0.000000 0.261083 0.500000
Si Si6 0.497809 0.201887 0.294955
Si Si7 0.665501 0.930294 0.418097
Si Si8 0.740992 0.274191 0.043067
O O1 0.024057 0.426869 0.119446
O O2 0.114347 0.143416 0.166135
O O3 0.090342 0.328649 0.308801
O O4 0.878248 0.223358 0.137873
O O5 0.547963 0.204150 0.201517
O O6 0.635497 0.162051 0.051753
O O7 0.743235 0.028106 0.238369
O O8 0.553584 0.647301 0.602255
O O9 0.543533 0.363204 0.673214
O O10 0.689534 0.434464 0.569596
O O11 0.366292 0.099473 0.245391
O O12 0.213828 0.947963 0.069485
O O13 0.248368 0.244921 0.067725
O O14 0.880194 0.360491 0.496620
O O15 0.606711 0.104040 0.390401
#
# Coordination Sequence:
#
# PCOD9125875 Si02
#       8
#     4   4   4   4   2   4   4   4
#     4  10  21  46  64  87 131 172 207 264 319 381
#     4  10  22  42  68  91 128 172 213 257 322 376
#     4  10  23  43  66  96 126 166 208 265 321 382
#     4  12  23  41  65  93 128 173 216 261 313 367
#     4  12  26  40  68 102 124 154 216 274 312 384
#     4  10  21  45  67  88 130 178 206 253 321 385
#     4  10  23  44  67  93 128 169 209 257 330 383
#     4  12  25  39  62  97 132 167 217 271 307 363
#
# _framework density 24.473268999999998
#
# number of rings (size 3 to 8) (size 9 to 14) (size 15 to 20)
#    0.000    1.600    5.333    2.000    0.000    6.400 
#    2.400    0.000    0.000    0.000    0.000    0.000 
#    0.000    0.000    0.000    0.000    0.000    0.000 
#
# Total GULP energy -83960.900357 kJ/mol
# GULP energy per Si atom -5597.393357 kJ/mol
# Density = 2.441757 g / cm^3
# Si number density = 24.473269 Si / 1000 Ang^3
#
#
#
# Elastic Constant Matrix: (Units=GPa)
#
#
# Indices 1 2 3 4 5 6 
#
# 1 130.0046 41.6317 7.6028 0.0000 -24.2376 0.0000
# 2 41.6317 52.0701 12.1358 0.0000 -30.3557 0.0000
# 3 7.6028 12.1358 31.0026 0.0000 -4.7382 0.0000
# 4 0.0000 0.0000 0.0000 30.1966 0.0000 -14.8011
# 5 -24.2376 -30.3557 -4.7382 0.0000 32.5186 0.0000
# 6 0.0000 0.0000 0.0000 -14.8011 0.0000 60.8455
#
#
#
# Elastic Compliance Matrix: (Units=1/GPa)
#
#
# Indices 1 2 3 4 5 6 
#
# 1 0.010356 -0.008548 0.000784 0.000000 -0.000147 0.000000
# 2 -0.008548 0.052989 -0.012335 0.000000 0.041296 0.000000
# 3 0.000784 -0.012335 0.036023 0.000000 -0.005681 0.000000
# 4 0.000000 0.000000 0.000000 0.037599 0.000000 0.009146
# 5 -0.000147 0.041296 -0.005681 0.000000 0.068364 0.000000
# 6 0.000000 0.000000 0.000000 0.009146 0.000000 0.018660
#
#
# Mechanical properties :
#
#
# Convention : Reuss Voigt Hill
#
# Bulk Modulus (GPa) = 16.90028 37.31310 27.10669
# Shear Modulus (GPa) = 17.61105 34.82594 26.21849
#
# Velocity S-wave (km/s) = 2.68545 3.77639 3.27664
# Velocity P-wave (km/s) = 4.06647 5.85614 5.04135
#
# Compressibility (1/GPa) = 0.05917063
#
# Stress axis : x y z
#
# Youngs Moduli (GPa) = 96.55925 18.87190 27.75994
#
# Poissons Ratio (x) = 0.16132 -0.02177
# Poissons Ratio (y) = 0.82543 0.34241
# Poissons Ratio (z) = -0.07572 0.23278
#
# Static dielectric constant tensor:
#      x y z
#    x 1.958430 0.000000 -0.010500 
#    y 0.000000 1.919780 0.000000 
#    z -0.010500 0.000000 1.986610 
# 
# From -- ./inp_files/52270.got.cif
#   From: 2010.05.17/outbox.cif.g08.bks.cpg/sg5_27_cif.got.tgz:52270.got - 2010.06.03 18:56:24.
