data_PCOD9125967
_publ_section_title
;
Structure prediction by ZEFSAII (Michael W. Deem and Ramdas Pophale) SiO2 
 PCOD9125967
Probable space group: C 2
;
_chemical_formula_sum "Si O2"
_cell_formula_units_Z 24
_cell_length_a 10.005694
_cell_length_b 9.750361
_cell_length_c 10.605305
_cell_angle_alpha 90.000000
_cell_angle_beta 78.370880
_cell_angle_gamma 90.000000
_cell_volume 1013.406095
_symmetry_space_group_name_H-M "C 2"
_symmetry_group_IT_number 5
_symmetry_cell_setting 'monoclinic'
loop_
_space_group_symop_operation_xyz
x,y,z
-x,y,-z
1/2+x,1/2+y,z
1/2-x,1/2+y,-z
loop_
_atom_site_type_symbol
_atom_site_label
_atom_site_fract_x
_atom_site_fract_y
_atom_site_fract_z
Si Si1 0.034100 0.993890 0.168034
Si Si2 0.722661 0.591224 0.635400
Si Si3 0.570608 0.883944 0.285699
Si Si4 0.500000 0.242803 0.000000
Si Si5 0.298491 0.727299 0.972885
Si Si6 0.500000 0.650576 0.500000
Si Si7 0.722004 0.874358 0.751564
O O1 0.001582 0.845802 0.117918
O O2 0.148645 0.971263 0.253168
O O3 0.108276 0.094659 0.057289
O O4 0.894505 0.056880 0.240847
O O5 0.847458 0.493213 0.646128
O O6 0.635715 0.573623 0.523966
O O7 0.760162 0.749590 0.650558
O O8 0.654889 0.830968 0.147533
O O9 0.542924 0.751838 0.378019
O O10 0.421857 0.935370 0.267727
O O11 0.355101 0.171601 0.020787
O O12 0.304358 0.805762 0.104721
#
# Coordination Sequence:
#
# PCOD9125967 Si02
#       7
#     4   4   4   2   4   2   4
#     4  11  21  39  63  90 133 168 209 255 313 379
#     4  11  23  45  69  91 127 170 218 274 319 379
#     4  11  23  44  68  92 130 169 216 268 323 376
#     4  10  22  36  58 102 128 172 206 244 324 390
#     4  11  21  39  65  97 138 166 204 261 319 390
#     4  10  24  44  64  96 120 174 224 270 326 366
#     4  10  24  38  65 102 130 169 209 253 333 395
#
# _framework density 23.682509
#
# number of rings (size 3 to 8) (size 9 to 14) (size 15 to 20)
#    0.000    1.333    5.000    1.500    2.333    5.333 
#    0.000    0.000    0.000    0.000    0.000    0.000 
#    0.000    0.000    0.000    0.000    0.000    0.000 
#
# Total GULP energy -67114.003373 kJ/mol
# GULP energy per Si atom -5592.833614 kJ/mol
# Density = 2.362861 g / cm^3
# Si number density = 23.682509 Si / 1000 Ang^3
#
#
#
# Elastic Constant Matrix: (Units=GPa)
#
#
# Indices 1 2 3 4 5 6 
#
# 1 182.1758 42.7586 2.3311 0.0000 48.2953 0.0000
# 2 42.7586 55.4360 -1.2808 0.0000 16.1916 0.0000
# 3 2.3311 -1.2808 73.7895 0.0000 31.8615 0.0000
# 4 0.0000 0.0000 0.0000 11.7081 0.0000 2.4934
# 5 48.2953 16.1916 31.8615 0.0000 42.4928 0.0000
# 6 0.0000 0.0000 0.0000 2.4934 0.0000 22.2431
#
#
#
# Elastic Compliance Matrix: (Units=1/GPa)
#
#
# Indices 1 2 3 4 5 6 
#
# 1 0.010081 -0.003366 0.005940 0.000000 -0.014629 0.000000
# 2 -0.003366 0.023027 0.003908 0.000000 -0.007879 0.000000
# 3 0.005940 0.003908 0.025125 0.000000 -0.027079 0.000000
# 4 0.000000 0.000000 0.000000 0.087500 0.000000 -0.009808
# 5 -0.014629 -0.007879 -0.027079 0.000000 0.063467 0.000000
# 6 0.000000 0.000000 0.000000 -0.009808 0.000000 0.046057
#
#
# Mechanical properties :
#
#
# Convention : Reuss Voigt Hill
#
# Bulk Modulus (GPa) = 14.04555 44.33545 29.19050
# Shear Modulus (GPa) = 18.79528 33.12830 25.96179
#
# Velocity S-wave (km/s) = 2.82021 3.74418 3.31455
# Velocity P-wave (km/s) = 4.06798 6.11990 5.19623
#
# Compressibility (1/GPa) = 0.07119691
#
# Stress axis : x y z
#
# Youngs Moduli (GPa) = 99.19165 43.42821 39.80164
#
# Poissons Ratio (x) = 0.14617 -0.23642
# Poissons Ratio (y) = 0.33386 -0.15555
# Poissons Ratio (z) = -0.58919 -0.16972
#
# Static dielectric constant tensor:
#      x y z
#    x 1.908760 0.000000 0.043980 
#    y 0.000000 1.871540 0.000000 
#    z 0.043980 0.000000 1.962790 
# 
# From -- ./inp_files/35437.got.cif
#   From: 2010.05.17/outbox.cif.g08.bks.cpg/sg5_18_cif.got.tgz:35437.got - 2010.06.03 18:56:24.
