data_PCOD9125202
_publ_section_title
;
Structure prediction by ZEFSAII (Michael W. Deem and Ramdas Pophale) SiO2 
 PCOD9125202
Probable space group: C 2
;
_chemical_formula_sum "Si O2"
_cell_formula_units_Z 30
_cell_length_a 26.221485
_cell_length_b 8.908500
_cell_length_c 9.526270
_cell_angle_alpha 90.000000
_cell_angle_beta 41.332359
_cell_angle_gamma 90.000000
_cell_volume 1469.632749
_symmetry_space_group_name_H-M "C 2"
_symmetry_group_IT_number 5
_symmetry_cell_setting 'monoclinic'
loop_
_space_group_symop_operation_xyz
x,y,z
-x,y,-z
1/2+x,1/2+y,z
1/2-x,1/2+y,-z
loop_
_atom_site_type_symbol
_atom_site_label
_atom_site_fract_x
_atom_site_fract_y
_atom_site_fract_z
Si Si1 0.353173 0.251720 0.973718
Si Si2 0.500000 0.370440 0.000000
Si Si3 0.916165 0.997416 0.647069
Si Si4 0.672330 0.449379 0.706591
Si Si5 0.295405 0.761258 0.918761
Si Si6 0.418578 0.005828 0.667812
Si Si7 0.923276 0.743815 0.412073
Si Si8 0.257561 0.239153 0.653610
O O1 0.329089 0.317258 0.172843
O O2 0.278477 0.248808 0.026877
O O3 0.407205 0.377992 0.791504
O O4 0.393978 0.092068 0.861592
O O5 0.418083 0.458475 0.155391
O O6 0.488983 0.268257 0.161026
O O7 0.910721 0.904418 0.513984
O O8 0.000000 0.066656 0.500000
O O9 0.847621 0.114410 0.796640
O O10 0.730027 0.386218 0.467924
O O11 0.705060 0.606202 0.698527
O O12 0.347954 0.902228 0.770182
O O13 0.271661 0.776255 0.130117
O O14 0.500000 0.920445 0.500000
O O15 0.434199 0.131566 0.517904
O O16 0.846484 0.688567 0.491268
#
# Coordination Sequence:
#
# PCOD9125202 Si02
#       8
#     4   2   4   4   4   4   4   4
#     4  11  21  39  67  89 120 165 211 255 305 378
#     4  10  22  42  68  88 126 170 214 252 310 384
#     4  11  21  37  63  91 122 161 209 258 306 365
#     4  11  24  42  66  93 126 166 214 260 313 372
#     4  12  23  39  63  94 130 160 207 262 319 367
#     4  11  22  36  60  93 126 156 204 256 315 361
#     4  10  21  40  64  90 118 166 211 256 303 380
#     4  11  24  41  63  93 127 165 212 258 313 379
#
# _framework density 20.413264000000002
#
# number of rings (size 3 to 8) (size 9 to 14) (size 15 to 20)
#    0.000    1.067    4.000    5.200    1.867    1.067 
#    0.000    0.000    0.000    0.800    0.000    0.000 
#    0.000    0.000    0.000    0.000    0.000    0.000 
#
# Total GULP energy -83738.969548 kJ/mol
# GULP energy per Si atom -5582.597970 kJ/mol
# Density = 2.036680 g / cm^3
# Si number density = 20.413264 Si / 1000 Ang^3
#
#
#
# Elastic Constant Matrix: (Units=GPa)
#
#
# Indices 1 2 3 4 5 6 
#
# 1 96.7125 18.5244 31.1482 0.0000 -17.8556 0.0000
# 2 18.5244 51.3005 23.5405 0.0000 -11.0349 0.0000
# 3 31.1482 23.5405 110.1334 0.0000 -3.3476 0.0000
# 4 0.0000 0.0000 0.0000 220.4849 0.0000 -134.2668
# 5 -17.8556 -11.0349 -3.3476 0.0000 43.6210 0.0000
# 6 0.0000 0.0000 0.0000 -134.2668 0.0000 110.9866
#
#
#
# Elastic Compliance Matrix: (Units=1/GPa)
#
#
# Indices 1 2 3 4 5 6 
#
# 1 0.012512 -0.002243 -0.002928 0.000000 0.004329 0.000000
# 2 -0.002243 0.023222 -0.004188 0.000000 0.004635 0.000000
# 3 -0.002928 -0.004188 0.010760 0.000000 -0.001432 0.000000
# 4 0.000000 0.000000 0.000000 0.017225 0.000000 0.020838
# 5 0.004329 0.004635 -0.001432 0.000000 0.025759 0.000000
# 6 0.000000 0.000000 0.000000 0.020838 0.000000 0.034219
#
#
# Mechanical properties :
#
#
# Convention : Reuss Voigt Hill
#
# Bulk Modulus (GPa) = 36.00351 44.95250 40.47801
# Shear Modulus (GPa) = 32.96552 87.34738 60.15645
#
# Velocity S-wave (km/s) = 4.02295 6.54847 5.43445
# Velocity P-wave (km/s) = 6.26534 8.90200 7.69740
#
# Compressibility (1/GPa) = 0.02777507
#
# Stress axis : x y z
#
# Youngs Moduli (GPa) = 79.92462 43.06283 92.94071
#
# Poissons Ratio (x) = 0.09660 0.27209
# Poissons Ratio (y) = 0.17930 0.38926
# Poissons Ratio (z) = 0.23398 0.18036
#
# Static dielectric constant tensor:
#      x y z
#    x 1.151820 0.000000 0.015560 
#    y 0.000000 1.713200 0.000000 
#    z 0.015560 0.000000 1.750440 
# 
# From -- ./inp_files/31760.got.cif
#   From: 2010.05.17/outbox.cif.g08.bks.cpg/sg5_16_cif.got.tgz:31760.got - 2010.06.03 18:56:24.
