data_PCOD9125135
_publ_section_title
;
Structure prediction by ZEFSAII (Michael W. Deem and Ramdas Pophale) SiO2 
 PCOD9125135
Probable space group: C 2
;
_chemical_formula_sum "Si O2"
_cell_formula_units_Z 24
_cell_length_a 9.255342
_cell_length_b 5.415531
_cell_length_c 23.129817
_cell_angle_alpha 90.000000
_cell_angle_beta 55.840121
_cell_angle_gamma 90.000000
_cell_volume 959.312390
_symmetry_space_group_name_H-M "C 2"
_symmetry_group_IT_number 5
_symmetry_cell_setting 'monoclinic'
loop_
_space_group_symop_operation_xyz
x,y,z
-x,y,-z
1/2+x,1/2+y,z
1/2-x,1/2+y,-z
loop_
_atom_site_type_symbol
_atom_site_label
_atom_site_fract_x
_atom_site_fract_y
_atom_site_fract_z
Si Si1 0.853422 0.377780 0.582482
Si Si2 0.167316 0.294735 0.108321
Si Si3 0.063303 0.151670 0.931972
Si Si4 0.154180 0.919494 0.208870
Si Si5 0.880595 0.374763 0.369401
Si Si6 0.102074 0.547322 0.758108
O O1 0.733299 0.623009 0.601595
O O2 0.000000 0.382072 0.500000
O O3 0.964344 0.380790 0.617951
O O4 0.741024 0.123969 0.599674
O O5 0.339392 0.438124 0.055146
O O6 0.009699 0.479735 0.159799
O O7 0.194481 0.152658 0.161139
O O8 0.097383 0.116817 0.074693
O O9 0.218968 0.222003 0.851776
O O10 0.000000 0.324199 0.000000
O O11 0.207158 0.969750 0.262878
O O12 0.956849 0.824139 0.244022
O O13 0.947252 0.398690 0.288307
#
# Coordination Sequence:
#
# PCOD9125135 Si02
#       6
#     4   4   4   4   4   4
#     4  12  26  47  71 106 147 187 234 287 344 407
#     4  10  22  39  61  84 124 161 204 277 330 382
#     4  10  23  38  57  90 114 162 217 257 329 402
#     4  10  21  40  61  85 127 160 208 277 334 382
#     4  12  26  44  75 105 140 191 236 285 346 416
#     4  10  23  38  62  94 123 165 221 269 333 399
#
# _framework density 25.017918999999999
#
# number of rings (size 3 to 8) (size 9 to 14) (size 15 to 20)
#    0.000    1.333    0.000    4.500    7.000    0.667 
#    0.000    0.000    0.000    0.000    0.000    0.000 
#    0.000    0.000    0.000    0.000    0.000    0.000 
#
# Total GULP energy -66934.201623 kJ/mol
# GULP energy per Si atom -5577.850135 kJ/mol
# Density = 2.496098 g / cm^3
# Si number density = 25.017919 Si / 1000 Ang^3
#
#
#
# Elastic Constant Matrix: (Units=GPa)
#
#
# Indices 1 2 3 4 5 6 
#
# 1 130.0161 48.9872 16.3519 0.0000 17.9059 0.0000
# 2 48.9872 119.5470 5.8238 0.0000 -9.8870 0.0000
# 3 16.3519 5.8238 94.2112 0.0000 6.7114 0.0000
# 4 0.0000 0.0000 0.0000 19.5759 0.0000 -3.4511
# 5 17.9059 -9.8870 6.7114 0.0000 44.4537 0.0000
# 6 0.0000 0.0000 0.0000 -3.4511 0.0000 33.0943
#
#
#
# Elastic Compliance Matrix: (Units=1/GPa)
#
#
# Indices 1 2 3 4 5 6 
#
# 1 0.010231 -0.004547 -0.001141 0.000000 -0.004960 0.000000
# 2 -0.004547 0.010584 -0.000165 0.000000 0.004211 0.000000
# 3 -0.001141 -0.000165 0.010910 0.000000 -0.001224 0.000000
# 4 0.000000 0.000000 0.000000 0.052040 0.000000 0.005427
# 5 -0.004960 0.004211 -0.001224 0.000000 0.025615 0.000000
# 6 0.000000 0.000000 0.000000 0.005427 0.000000 0.030783
#
#
# Mechanical properties :
#
#
# Convention : Reuss Voigt Hill
#
# Bulk Modulus (GPa) = 49.95335 54.01113 51.98224
# Shear Modulus (GPa) = 31.53722 37.59886 34.56804
#
# Velocity S-wave (km/s) = 3.55432 3.88090 3.72120
# Velocity P-wave (km/s) = 6.07080 6.45892 6.26787
#
# Compressibility (1/GPa) = 0.02001868
#
# Stress axis : x y z
#
# Youngs Moduli (GPa) = 97.73937 94.47796 91.65936
#
# Poissons Ratio (x) = 0.42960 0.10462
# Poissons Ratio (y) = 0.44443 0.01513
# Poissons Ratio (z) = 0.11156 0.01559
#
# Static dielectric constant tensor:
#      x y z
#    x 2.053840 0.000000 -0.085990 
#    y 0.000000 2.094660 0.000000 
#    z -0.085990 0.000000 2.120240 
# 
# From -- ./inp_files/67837.got.cif
#   From: 2010.05.17/outbox.cif.g08.bks.cpg/sg5_34_cif.got.tgz:67837.got - 2010.06.03 18:56:24.
