data_PCOD9125183
_publ_section_title
;
Structure prediction by ZEFSAII (Michael W. Deem and Ramdas Pophale) SiO2 
 PCOD9125183
Probable space group: C 2
;
_chemical_formula_sum "Si O2"
_cell_formula_units_Z 30
_cell_length_a 5.328721
_cell_length_b 32.775826
_cell_length_c 7.498734
_cell_angle_alpha 90.000000
_cell_angle_beta 103.015076
_cell_angle_gamma 90.000000
_cell_volume 1276.033601
_symmetry_space_group_name_H-M "C 2"
_symmetry_group_IT_number 5
_symmetry_cell_setting 'monoclinic'
loop_
_space_group_symop_operation_xyz
x,y,z
-x,y,-z
1/2+x,1/2+y,z
1/2-x,1/2+y,-z
loop_
_atom_site_type_symbol
_atom_site_label
_atom_site_fract_x
_atom_site_fract_y
_atom_site_fract_z
Si Si1 0.898294 0.417320 0.785657
Si Si2 0.891818 0.878308 0.781858
Si Si3 0.795892 0.499603 0.613427
Si Si4 0.077328 0.662493 0.806030
Si Si5 0.601137 0.791754 0.718786
Si Si6 0.408322 0.253497 0.285437
Si Si7 0.000000 0.104940 0.000000
Si Si8 0.229446 0.087821 0.679373
O O1 0.648793 0.388502 0.708529
O O2 0.810258 0.464180 0.762850
O O3 0.154271 0.408824 0.711042
O O4 0.000000 0.407797 0.000000
O O5 0.746772 0.834926 0.750179
O O6 0.000000 0.882439 0.000000
O O7 0.500000 0.500941 0.500000
O O8 0.882008 0.545966 0.669461
O O9 0.000000 0.485858 0.500000
O O10 0.141725 0.705316 0.727551
O O11 0.325384 0.634306 0.854102
O O12 0.867904 0.631714 0.689445
O O13 0.000000 0.670003 0.000000
O O14 0.500000 0.786887 0.500000
O O15 0.345961 0.780662 0.792061
O O16 0.837252 0.761006 0.791813
O O17 0.500000 0.264343 0.500000
O O18 0.152920 0.081340 0.874376
O O19 0.000000 0.088522 0.500000
#
# Coordination Sequence:
#
# PCOD9125183 Si02
#       8
#     4   4   4   4   4   4   2   4
#     4  10  22  41  65  94 129 171 214 269 332 403
#     4  10  21  40  63  92 127 167 216 263 335 402
#     4  11  25  44  66 102 136 172 229 277 338 408
#     4  10  24  42  63  96 130 172 230 278 339 413
#     4  10  22  40  60  93 124 166 215 271 329 401
#     4  10  23  39  64  91 126 167 218 268 336 397
#     4  10  24  44  64 100 132 176 242 276 346 414
#     4  10  25  43  70  97 138 185 231 293 345 412
#
# _framework density 23.510352000000001
#
# number of rings (size 3 to 8) (size 9 to 14) (size 15 to 20)
#    0.000    1.867    0.000    1.600    9.333    4.267 
#    3.600    0.000    0.000    0.000    0.000    0.000 
#    0.000    0.000    0.000    0.000    0.000    0.000 
#
# Total GULP energy -83690.453585 kJ/mol
# GULP energy per Si atom -5579.363572 kJ/mol
# Density = 2.345684 g / cm^3
# Si number density = 23.510352 Si / 1000 Ang^3
#
#
#
# Elastic Constant Matrix: (Units=GPa)
#
#
# Indices 1 2 3 4 5 6 
#
# 1 145.4552 39.4419 31.1851 0.0000 18.2529 0.0000
# 2 39.4419 118.6113 23.2727 0.0000 19.8866 0.0000
# 3 31.1851 23.2727 51.9967 0.0000 26.1413 0.0000
# 4 0.0000 0.0000 0.0000 101.8015 0.0000 106.2676
# 5 18.2529 19.8866 26.1413 0.0000 24.8602 0.0000
# 6 0.0000 0.0000 0.0000 106.2676 0.0000 187.0558
#
#
#
# Elastic Compliance Matrix: (Units=1/GPa)
#
#
# Indices 1 2 3 4 5 6 
#
# 1 0.008284 -0.001915 -0.003869 0.000000 -0.000483 0.000000
# 2 -0.001915 0.010201 -0.000046 0.000000 -0.006706 0.000000
# 3 -0.003869 -0.000046 0.042700 0.000000 -0.042023 0.000000
# 4 0.000000 0.000000 0.000000 0.024137 0.000000 -0.013712
# 5 -0.000483 -0.006706 -0.042023 0.000000 0.090132 0.000000
# 6 0.000000 0.000000 0.000000 -0.013712 0.000000 0.013136
#
#
# Mechanical properties :
#
#
# Convention : Reuss Voigt Hill
#
# Bulk Modulus (GPa) = 20.19151 55.98476 38.08814
# Shear Modulus (GPa) = 23.06724 77.55439 50.31082
#
# Velocity S-wave (km/s) = 3.13573 5.74969 4.63097
# Velocity P-wave (km/s) = 4.66020 8.24276 6.69554
#
# Compressibility (1/GPa) = 0.04952576
#
# Stress axis : x y z
#
# Youngs Moduli (GPa) = 120.71171 98.03005 23.41929
#
# Poissons Ratio (x) = 0.18770 0.09061
# Poissons Ratio (y) = 0.23113 0.00108
# Poissons Ratio (z) = 0.46702 0.00451
#
# Static dielectric constant tensor:
#      x y z
#    x 1.953210 0.000000 -0.041480 
#    y 0.000000 1.883100 0.000000 
#    z -0.041480 0.000000 1.821850 
# 
# From -- ./inp_files/13370.got.cif
#   From: 2010.05.17/outbox.cif.g08.bks.cpg/sg5_7_cif.got.tgz:13370.got - 2010.06.03 18:56:24.
