data_PCOD9125892
_publ_section_title
;
Structure prediction by ZEFSAII (Michael W. Deem and Ramdas Pophale) SiO2 
 PCOD9125892
Probable space group: C 2
;
_chemical_formula_sum "Si O2"
_cell_formula_units_Z 26
_cell_length_a 28.315695
_cell_length_b 5.249278
_cell_length_c 19.056342
_cell_angle_alpha 90.000000
_cell_angle_beta 154.486022
_cell_angle_gamma 90.000000
_cell_volume 1220.036293
_symmetry_space_group_name_H-M "C 2"
_symmetry_group_IT_number 5
_symmetry_cell_setting 'monoclinic'
loop_
_space_group_symop_operation_xyz
x,y,z
-x,y,-z
1/2+x,1/2+y,z
1/2-x,1/2+y,-z
loop_
_atom_site_type_symbol
_atom_site_label
_atom_site_fract_x
_atom_site_fract_y
_atom_site_fract_z
Si Si1 0.668649 0.843570 0.666168
Si Si2 0.285672 0.732200 0.730027
Si Si3 0.954485 0.979620 0.581118
Si Si4 0.000000 0.694849 0.500000
Si Si5 0.847079 0.493108 0.942450
Si Si6 0.183970 0.131707 0.388586
Si Si7 0.950575 0.001907 0.143001
O O1 0.578895 0.762082 0.488171
O O2 0.722120 0.597879 0.774271
O O3 0.761819 0.989002 0.747334
O O4 0.607643 0.019685 0.639103
O O5 0.163981 0.855501 0.557732
O O6 0.329791 0.665715 0.713292
O O7 0.360787 0.914280 0.878861
O O8 0.999511 0.852035 0.571077
O O9 0.033448 0.968428 0.752684
O O10 0.871083 0.238654 0.018398
O O11 0.915833 0.732596 0.062508
O O12 0.239419 0.387940 0.493056
O O13 0.067941 0.083502 0.269196
#
# Coordination Sequence:
#
# PCOD9125892 Si02
#       7
#     4   4   4   2   4   4   4
#     4  10  21  45  72  98 136 183 235 280 347 419
#     4  10  22  44  69  94 142 189 225 288 340 410
#     4  10  22  41  74 102 134 180 236 292 341 410
#     4  10  22  40  80 104 128 180 250 280 344 420
#     4  11  25  45  66  99 144 188 219 283 361 411
#     4  12  25  42  68 107 136 182 248 288 327 402
#     4  12  25  44  70 104 143 185 229 290 351 402
#
# _framework density 21.310842000000001
#
# number of rings (size 3 to 8) (size 9 to 14) (size 15 to 20)
#    0.000    1.231    3.077    2.308    6.462    0.615 
#    2.769    0.000   13.538    0.000    0.000    0.000 
#    0.000    0.000    0.000    0.000    0.000    0.000 
#
# Total GULP energy -72631.392640 kJ/mol
# GULP energy per Si atom -5587.030203 kJ/mol
# Density = 2.126234 g / cm^3
# Si number density = 21.310842 Si / 1000 Ang^3
#
#
#
# Elastic Constant Matrix: (Units=GPa)
#
#
# Indices 1 2 3 4 5 6 
#
# 1 134.3463 41.6556 46.8436 0.0000 -25.9825 -0.0002
# 2 41.6556 136.0922 57.1427 0.0003 -27.8145 -0.0001
# 3 46.8436 57.1427 104.6070 0.0000 -44.7602 -0.0001
# 4 0.0000 0.0003 0.0000 50.1997 0.0001 3.0063
# 5 -25.9825 -27.8145 -44.7602 0.0001 26.7646 -0.0001
# 6 -0.0002 -0.0001 -0.0001 3.0063 -0.0001 19.5384
#
#
#
# Elastic Compliance Matrix: (Units=1/GPa)
#
#
# Indices 1 2 3 4 5 6 
#
# 1 0.009347 -0.001215 -0.000631 0.000000 0.006755 0.000000
# 2 -0.001215 0.009830 -0.003373 0.000000 0.003396 0.000000
# 3 -0.000631 -0.003373 0.034888 0.000000 0.054229 0.000000
# 4 0.000000 0.000000 0.000000 0.020106 0.000000 -0.003094
# 5 0.006755 0.003396 0.054229 0.000000 0.138139 0.000001
# 6 0.000000 0.000000 0.000000 -0.003094 0.000001 0.051657
#
#
# Mechanical properties :
#
#
# Convention : Reuss Voigt Hill
#
# Bulk Modulus (GPa) = 22.92166 74.03660 48.47913
# Shear Modulus (GPa) = 17.30414 34.59412 25.94913
#
# Velocity S-wave (km/s) = 2.85263 4.03340 3.49327
# Velocity P-wave (km/s) = 4.65072 7.51717 6.25048
#
# Compressibility (1/GPa) = 0.04362686
#
# Stress axis : x y z
#
# Youngs Moduli (GPa) = 106.98874 101.72911 28.66278
#
# Poissons Ratio (x) = 0.12363 0.01810
# Poissons Ratio (y) = 0.13002 0.09667
# Poissons Ratio (z) = 0.06755 0.34309
#
# Static dielectric constant tensor:
#      x y z
#    x 1.729660 0.000000 0.002270 
#    y 0.000000 1.832760 0.000000 
#    z 0.002270 0.000000 1.814680 
# 
# From -- ./inp_files/55373.got.cif
#   From: 2010.05.17/outbox.cif.g08.bks.cpg/sg5_28_cif.got.tgz:55373.got - 2010.06.03 18:56:24.
