data_PCOD9125676
_publ_section_title
;
Structure prediction by ZEFSAII (Michael W. Deem and Ramdas Pophale) SiO2 
 PCOD9125676
Probable space group: C 2
;
_chemical_formula_sum "Si O2"
_cell_formula_units_Z 20
_cell_length_a 10.201533
_cell_length_b 9.607328
_cell_length_c 7.862290
_cell_angle_alpha 90.000000
_cell_angle_beta 92.280045
_cell_angle_gamma 90.000000
_cell_volume 769.968846
_symmetry_space_group_name_H-M "C 2"
_symmetry_group_IT_number 5
_symmetry_cell_setting 'monoclinic'
loop_
_space_group_symop_operation_xyz
x,y,z
-x,y,-z
1/2+x,1/2+y,z
1/2-x,1/2+y,-z
loop_
_atom_site_type_symbol
_atom_site_label
_atom_site_fract_x
_atom_site_fract_y
_atom_site_fract_z
Si Si1 0.500000 0.562920 0.000000
Si Si2 0.000000 0.475736 0.000000
Si Si3 0.748723 0.383173 0.124632
Si Si4 0.918214 0.986541 0.328974
Si Si5 0.150725 0.478845 0.503989
Si Si6 0.435168 0.197612 0.728470
O O1 0.634487 0.478095 0.043366
O O2 0.458823 0.603540 0.190995
O O3 0.996669 0.573063 0.166208
O O4 0.871609 0.382940 0.006866
O O5 0.784975 0.439237 0.314335
O O6 0.684658 0.234762 0.153322
O O7 0.000000 0.026839 0.500000
O O8 0.979901 0.836709 0.278218
O O9 0.766937 0.954624 0.371331
O O10 0.122570 0.640817 0.452020
O O11 0.000000 0.418649 0.500000
#
# Coordination Sequence:
#
# PCOD9125676 Si02
#       6
#     2   2   4   4   4   4
#     4  10  21  42  71 100 142 190 233 296 361 412
#     4  12  25  46  77 104 150 194 251 306 369 436
#     4  11  25  45  73 112 143 195 249 306 361 443
#     4  11  22  44  74 105 147 190 249 296 357 443
#     4  12  24  43  75 107 145 196 242 302 366 437
#     4  11  24  46  76 101 146 201 241 301 380 429
#
# _framework density 25.975078
#
# number of rings (size 3 to 8) (size 9 to 14) (size 15 to 20)
#    0.000    0.800    6.000    4.200    0.000    0.000 
#    0.000    7.000    0.000    0.000    0.000    0.000 
#    0.000    0.000    0.000    0.000    0.000    0.000 
#
# Total GULP energy -55764.561093 kJ/mol
# GULP energy per Si atom -5576.456109 kJ/mol
# Density = 2.591596 g / cm^3
# Si number density = 25.975078 Si / 1000 Ang^3
#
#
#
# Elastic Constant Matrix: (Units=GPa)
#
#
# Indices 1 2 3 4 5 6 
#
# 1 200.4588 8.6768 8.9781 0.0000 -27.6686 0.0000
# 2 8.6768 43.2968 -6.7015 0.0000 -8.3293 0.0000
# 3 8.9781 -6.7015 117.9755 0.0000 3.8910 0.0000
# 4 0.0000 0.0000 0.0000 85.3154 0.0000 0.0586
# 5 -27.6686 -8.3293 3.8910 0.0000 53.2313 0.0000
# 6 0.0000 0.0000 0.0000 0.0586 0.0000 47.2839
#
#
#
# Elastic Compliance Matrix: (Units=1/GPa)
#
#
# Indices 1 2 3 4 5 6 
#
# 1 0.005421 -0.000640 -0.000540 0.000000 0.002757 0.000000
# 2 -0.000640 0.024069 0.001306 0.000000 0.003338 0.000000
# 3 -0.000540 0.001306 0.008615 0.000000 -0.000706 0.000000
# 4 0.000000 0.000000 0.000000 0.011721 0.000000 -0.000015
# 5 0.002757 0.003338 -0.000706 0.000000 0.020793 0.000000
# 6 0.000000 0.000000 0.000000 -0.000015 0.000000 0.021149
#
#
# Mechanical properties :
#
#
# Convention : Reuss Voigt Hill
#
# Bulk Modulus (GPa) = 26.07044 42.62645 34.34845
# Shear Modulus (GPa) = 47.93829 60.55130 54.24480
#
# Velocity S-wave (km/s) = 4.30065 4.83342 4.57479
# Velocity P-wave (km/s) = 5.89230 6.89894 6.41540
#
# Compressibility (1/GPa) = 0.03835762
#
# Stress axis : x y z
#
# Youngs Moduli (GPa) = 184.46894 41.54743 116.07836
#
# Poissons Ratio (x) = 0.02657 0.06266
# Poissons Ratio (y) = 0.11797 -0.15157
# Poissons Ratio (z) = 0.09958 -0.05425
#
# Static dielectric constant tensor:
#      x y z
#    x 2.014450 0.000000 -0.138320 
#    y 0.000000 2.027670 0.000000 
#    z -0.138320 0.000000 2.110050 
# 
# From -- ./inp_files/14355.got.cif
#   From: 2010.05.17/outbox.cif.g08.bks.cpg/sg5_8_cif.got.tgz:14355.got - 2010.06.03 18:56:24.
