data_PCOD9125815
_publ_section_title
;
Structure prediction by ZEFSAII (Michael W. Deem and Ramdas Pophale) SiO2 
 PCOD9125815
Probable space group: C 2
;
_chemical_formula_sum "Si O2"
_cell_formula_units_Z 26
_cell_length_a 5.387427
_cell_length_b 30.191874
_cell_length_c 7.079777
_cell_angle_alpha 90.000000
_cell_angle_beta 112.683792
_cell_angle_gamma 90.000000
_cell_volume 1062.494582
_symmetry_space_group_name_H-M "C 2"
_symmetry_group_IT_number 5
_symmetry_cell_setting 'monoclinic'
loop_
_space_group_symop_operation_xyz
x,y,z
-x,y,-z
1/2+x,1/2+y,z
1/2-x,1/2+y,-z
loop_
_atom_site_type_symbol
_atom_site_label
_atom_site_fract_x
_atom_site_fract_y
_atom_site_fract_z
Si Si1 0.252846 0.824820 0.787532
Si Si2 0.821134 0.729999 0.134611
Si Si3 0.516301 0.514909 0.275860
Si Si4 0.970130 0.914838 0.719417
Si Si5 0.741996 0.134524 0.783254
Si Si6 0.000000 0.570514 0.000000
Si Si7 0.500000 0.864577 0.500000
Si Si8 0.500000 0.069005 0.500000
O O1 0.099434 0.778035 0.759821
O O2 0.335460 0.834252 0.595575
O O3 0.128260 0.870893 0.822259
O O4 0.500000 0.818877 0.000000
O O5 0.847882 0.685030 0.261804
O O6 0.500000 0.731073 0.000000
O O7 0.000000 0.723495 0.000000
O O8 0.500000 0.517553 0.500000
O O9 0.474652 0.464158 0.201601
O O10 0.272151 0.542894 0.116182
O O11 0.820401 0.532226 0.327790
O O12 0.670278 0.898647 0.675556
O O13 0.000000 0.916526 0.500000
O O14 0.744528 0.106576 0.590860
O O15 0.528881 0.103802 0.832237
O O16 0.000000 0.133497 0.000000
#
# Coordination Sequence:
#
# PCOD9125815 Si02
#       8
#     4   4   4   4   4   2   2   2
#     4  10  23  41  70  99 133 186 236 288 358 431
#     4  10  23  43  72 102 138 187 236 296 366 428
#     4  11  23  39  66  98 135 180 232 294 351 427
#     4   9  21  40  62  93 136 174 226 286 358 417
#     4  11  23  43  65  96 136 178 229 295 356 420
#     4  12  22  40  68  94 132 182 228 284 358 418
#     4  10  21  44  64  94 144 184 218 303 354 422
#     4  12  23  40  64 102 130 180 236 283 356 424
#
# _framework density 24.470711999999999
#
# number of rings (size 3 to 8) (size 9 to 14) (size 15 to 20)
#    0.000    1.538    3.846    0.462    5.385    0.000 
#    4.154    1.538    0.000    0.000    0.000    0.000 
#    0.000    0.000    0.000    0.000    0.000    0.000 
#
# Total GULP energy -72367.987183 kJ/mol
# GULP energy per Si atom -5566.768245 kJ/mol
# Density = 2.441502 g / cm^3
# Si number density = 24.470712 Si / 1000 Ang^3
#
#
#
# Elastic Constant Matrix: (Units=GPa)
#
#
# Indices 1 2 3 4 5 6 
#
# 1 68.7769 29.7954 30.0679 0.0000 12.4130 0.0000
# 2 29.7954 260.5499 55.6446 0.0000 24.5566 0.0000
# 3 30.0679 55.6446 129.9153 0.0000 10.8497 0.0000
# 4 0.0000 0.0000 0.0000 182.9705 0.0000 -105.6093
# 5 12.4130 24.5566 10.8497 0.0000 41.3585 0.0000
# 6 0.0000 0.0000 0.0000 -105.6093 0.0000 125.3957
#
#
#
# Elastic Compliance Matrix: (Units=1/GPa)
#
#
# Indices 1 2 3 4 5 6 
#
# 1 0.017020 -0.000903 -0.003241 0.000000 -0.003722 0.000000
# 2 -0.000903 0.004455 -0.001534 0.000000 -0.001971 0.000000
# 3 -0.003241 -0.001534 0.009148 0.000000 -0.000516 0.000000
# 4 0.000000 0.000000 0.000000 0.010635 0.000000 0.008957
# 5 -0.003722 -0.001971 -0.000516 0.000000 0.026602 0.000000
# 6 0.000000 0.000000 0.000000 0.008957 0.000000 0.015519
#
#
# Mechanical properties :
#
#
# Convention : Reuss Voigt Hill
#
# Bulk Modulus (GPa) = 51.90951 76.69533 64.30242
# Shear Modulus (GPa) = 49.42776 92.86056 71.14416
#
# Velocity S-wave (km/s) = 4.49918 6.16685 5.39781
# Velocity P-wave (km/s) = 6.94616 9.06181 8.07358
#
# Compressibility (1/GPa) = 0.01926429
#
# Stress axis : x y z
#
# Youngs Moduli (GPa) = 58.75493 224.47555 109.31597
#
# Poissons Ratio (x) = 0.20277 0.35434
# Poissons Ratio (y) = 0.05307 0.16773
# Poissons Ratio (z) = 0.19045 0.34443
#
# Static dielectric constant tensor:
#      x y z
#    x 1.822640 0.000000 0.188270 
#    y 0.000000 1.942330 0.000000 
#    z 0.188270 0.000000 1.486800 
# 
# From -- ./inp_files/13266.got.cif
#   From: 2010.05.17/outbox.cif.g08.bks.cpg/sg5_7_cif.got.tgz:13266.got - 2010.06.03 18:56:24.
