data_PCOD9125601
_publ_section_title
;
Structure prediction by ZEFSAII (Michael W. Deem and Ramdas Pophale) SiO2 
 PCOD9125601
Probable space group: C 2
;
_chemical_formula_sum "Si O2"
_cell_formula_units_Z 20
_cell_length_a 14.485849
_cell_length_b 4.960477
_cell_length_c 20.178073
_cell_angle_alpha 90.000000
_cell_angle_beta 148.476551
_cell_angle_gamma 90.000000
_cell_volume 758.092321
_symmetry_space_group_name_H-M "C 2"
_symmetry_group_IT_number 5
_symmetry_cell_setting 'monoclinic'
loop_
_space_group_symop_operation_xyz
x,y,z
-x,y,-z
1/2+x,1/2+y,z
1/2-x,1/2+y,-z
loop_
_atom_site_type_symbol
_atom_site_label
_atom_site_fract_x
_atom_site_fract_y
_atom_site_fract_z
Si Si1 0.325257 0.533760 0.510684
Si Si2 0.396353 0.036397 0.741193
Si Si3 0.875074 0.665143 0.362304
Si Si4 0.239844 0.177316 0.036141
Si Si5 0.913971 0.886271 0.883250
O O1 0.201437 0.275764 0.453898
O O2 0.241343 0.662012 0.393485
O O3 0.512509 0.403655 0.604842
O O4 0.587540 0.047983 0.824902
O O5 0.424266 0.197697 0.825596
O O6 0.298695 0.768225 0.704986
O O7 0.787136 0.490131 0.249544
O O8 0.000000 0.568024 0.500000
O O9 0.273433 0.485443 0.037561
O O10 0.060330 0.123739 0.964653
O O11 0.000000 0.744513 0.000000
#
# Coordination Sequence:
#
# PCOD9125601 Si02
#       5
#     4   4   4   4   4
#     4  11  28  46  75 111 143 198 252 313 369 440
#     4  10  24  45  70 104 150 196 245 304 373 441
#     4  10  24  46  72 104 150 197 246 310 368 447
#     4  10  21  42  66  97 140 189 237 292 357 426
#     4  11  25  43  72 111 149 200 244 306 371 446
#
# _framework density 26.382013000000001
#
# number of rings (size 3 to 8) (size 9 to 14) (size 15 to 20)
#    0.000    1.600    2.000    0.000   11.200    1.600 
#    0.000    0.000    0.000    0.000    0.000    0.000 
#    0.000    0.000    0.000    0.000    0.000    0.000 
#
# Total GULP energy -55752.681356 kJ/mol
# GULP energy per Si atom -5575.268136 kJ/mol
# Density = 2.632197 g / cm^3
# Si number density = 26.382013 Si / 1000 Ang^3
#
#
#
# Elastic Constant Matrix: (Units=GPa)
#
#
# Indices 1 2 3 4 5 6 
#
# 1 91.1795 34.6265 52.1717 0.0000 -13.3794 0.0005
# 2 34.6265 100.5289 48.4906 0.0001 3.3489 0.0049
# 3 52.1717 48.4906 193.3531 0.0002 3.2630 0.0005
# 4 0.0000 0.0001 0.0002 39.3891 -0.0005 13.3351
# 5 -13.3794 3.3489 3.2630 -0.0005 48.9474 0.0002
# 6 0.0005 0.0049 0.0005 13.3351 0.0002 40.1114
#
#
#
# Elastic Compliance Matrix: (Units=1/GPa)
#
#
# Indices 1 2 3 4 5 6 
#
# 1 0.014855 -0.003751 -0.003144 0.000000 0.004527 0.000000
# 2 -0.003751 0.012280 -0.002038 0.000000 -0.001730 -0.000002
# 3 -0.003144 -0.002038 0.006551 0.000000 -0.001157 0.000000
# 4 0.000000 0.000000 0.000000 0.028607 0.000000 -0.009511
# 5 0.004527 -0.001730 -0.001157 0.000000 0.021863 0.000000
# 6 0.000000 -0.000002 0.000000 -0.009511 0.000000 0.028092
#
#
# Mechanical properties :
#
#
# Convention : Reuss Voigt Hill
#
# Bulk Modulus (GPa) = 63.21339 72.84879 68.03109
# Shear Modulus (GPa) = 36.93063 42.34109 39.63586
#
# Velocity S-wave (km/s) = 3.74550 4.01049 3.88026
# Velocity P-wave (km/s) = 6.53589 7.00845 6.77629
#
# Compressibility (1/GPa) = 0.01581943
#
# Stress axis : x y z
#
# Youngs Moduli (GPa) = 67.31722 81.43151 152.64985
#
# Poissons Ratio (x) = 0.30545 0.47993
# Poissons Ratio (y) = 0.25251 0.31117
# Poissons Ratio (z) = 0.21164 0.16599
#
# Static dielectric constant tensor:
#      x y z
#    x 2.238800 0.000000 -0.007660 
#    y 0.000000 2.124650 0.000000 
#    z -0.007660 0.000000 2.154400 
# 
# From -- ./inp_files/26005.got.cif
#   From: 2010.05.17/outbox.cif.g08.bks.cpg/sg5_14_cif.got.tgz:26005.got - 2010.06.03 18:56:24.
