data_PCOD9125644
_publ_section_title
;
Structure prediction by ZEFSAII (Michael W. Deem and Ramdas Pophale) SiO2 
 PCOD9125644
Probable space group: C 2
;
_chemical_formula_sum "Si O2"
_cell_formula_units_Z 24
_cell_length_a 12.913390
_cell_length_b 7.452662
_cell_length_c 23.811845
_cell_angle_alpha 90.000000
_cell_angle_beta 27.424171
_cell_angle_gamma 90.000000
_cell_volume 1055.466423
_symmetry_space_group_name_H-M "C 2"
_symmetry_group_IT_number 5
_symmetry_cell_setting 'monoclinic'
loop_
_space_group_symop_operation_xyz
x,y,z
-x,y,-z
1/2+x,1/2+y,z
1/2-x,1/2+y,-z
loop_
_atom_site_type_symbol
_atom_site_label
_atom_site_fract_x
_atom_site_fract_y
_atom_site_fract_z
Si Si1 0.552831 0.849980 0.802173
Si Si2 0.444152 0.531991 0.792065
Si Si3 0.620952 0.568321 0.502055
Si Si4 0.529879 0.300442 0.330876
Si Si5 0.579249 0.260278 0.017988
Si Si6 0.790607 0.746420 0.262152
O O1 0.557797 0.728258 0.743830
O O2 0.719637 0.760095 0.766970
O O3 0.622067 0.052395 0.759364
O O4 0.292365 0.849436 0.945747
O O5 0.444034 0.444820 0.731470
O O6 0.586878 0.400334 0.762562
O O7 0.199779 0.578092 0.936523
O O8 0.500000 0.538785 0.500000
O O9 0.582819 0.399366 0.561215
O O10 0.876056 0.639316 0.382119
O O11 0.473264 0.733354 0.599586
O O12 0.371915 0.249487 0.159061
O O13 0.500000 0.359974 0.000000
#
# Coordination Sequence:
#
# PCOD9125644 Si02
#       6
#     4   4   4   4   4   4
#     4   9  24  41  65 102 133 173 228 272 347 404
#     4  10  23  42  72  95 138 181 218 294 331 409
#     4  11  25  42  68  98 139 176 231 285 326 417
#     4  11  24  46  67 104 133 187 227 281 350 394
#     4  10  21  42  69 100 138 179 220 290 344 403
#     4  11  21  44  67 100 143 169 238 280 335 418
#
# _framework density 22.738765000000001
#
# number of rings (size 3 to 8) (size 9 to 14) (size 15 to 20)
#    1.000    0.667    1.667    3.000    2.333    2.667 
#    3.000    0.833    0.000    0.000    0.000    0.000 
#    0.000    0.000    0.000    0.000    0.000    0.000 
#
# Total GULP energy -66908.838855 kJ/mol
# GULP energy per Si atom -5575.736571 kJ/mol
# Density = 2.268701 g / cm^3
# Si number density = 22.738765 Si / 1000 Ang^3
#
#
#
# Elastic Constant Matrix: (Units=GPa)
#
#
# Indices 1 2 3 4 5 6 
#
# 1 131.8794 21.9150 24.8996 -0.0001 2.3233 0.0002
# 2 21.9150 42.3219 -9.7869 -0.0003 -6.1076 0.0000
# 3 24.8996 -9.7869 33.1711 -0.0048 1.8383 0.0005
# 4 -0.0001 -0.0003 -0.0048 12.8124 0.0001 -0.3379
# 5 2.3233 -6.1076 1.8383 0.0001 48.5665 0.0000
# 6 0.0002 0.0000 0.0005 -0.3379 0.0000 37.8248
#
#
#
# Elastic Compliance Matrix: (Units=1/GPa)
#
#
# Indices 1 2 3 4 5 6 
#
# 1 0.010997 -0.008325 -0.010646 -0.000004 -0.001170 0.000000
# 2 -0.008325 0.032079 0.015501 0.000006 0.003846 0.000000
# 3 -0.010646 0.015501 0.042665 0.000016 0.000844 0.000000
# 4 -0.000004 0.000006 0.000016 0.078068 0.000000 0.000697
# 5 -0.001170 0.003846 0.000844 0.000000 0.021098 0.000000
# 6 0.000000 0.000000 0.000000 0.000697 0.000000 0.026444
#
#
# Mechanical properties :
#
#
# Convention : Reuss Voigt Hill
#
# Bulk Modulus (GPa) = 12.69049 31.26974 21.98012
# Shear Modulus (GPa) = 20.44514 31.19705 25.82109
#
# Velocity S-wave (km/s) = 3.00180 3.70804 3.37345
# Velocity P-wave (km/s) = 4.19614 5.66695 4.98607
#
# Compressibility (1/GPa) = 0.07879914
#
# Stress axis : x y z
#
# Youngs Moduli (GPa) = 90.93628 31.17337 23.43865
#
# Poissons Ratio (x) = 0.25952 0.24953
# Poissons Ratio (y) = 0.75704 -0.36331
# Poissons Ratio (z) = 0.96810 -0.48320
#
# Static dielectric constant tensor:
#      x y z
#    x 1.878700 0.000000 -0.002150 
#    y 0.000000 1.829490 0.000000 
#    z -0.002150 0.000000 2.002990 
# 
# From -- ./inp_files/68244.got.cif
#   From: 2010.05.17/outbox.cif.g08.bks.cpg/sg5_35_cif.got.tgz:68244.got - 2010.06.03 18:56:24.
