data_PCOD9125969
_publ_section_title
;
Structure prediction by ZEFSAII (Michael W. Deem and Ramdas Pophale) SiO2 
 PCOD9125969
Probable space group: C 2
;
_chemical_formula_sum "Si O2"
_cell_formula_units_Z 24
_cell_length_a 22.596897
_cell_length_b 5.017456
_cell_length_c 19.679212
_cell_angle_alpha 90.000000
_cell_angle_beta 150.272068
_cell_angle_gamma 90.000000
_cell_volume 1106.416109
_symmetry_space_group_name_H-M "C 2"
_symmetry_group_IT_number 5
_symmetry_cell_setting 'monoclinic'
loop_
_space_group_symop_operation_xyz
x,y,z
-x,y,-z
1/2+x,1/2+y,z
1/2-x,1/2+y,-z
loop_
_atom_site_type_symbol
_atom_site_label
_atom_site_fract_x
_atom_site_fract_y
_atom_site_fract_z
Si Si1 0.555568 0.243710 0.417511
Si Si2 0.821439 0.361001 0.722392
Si Si3 0.960744 0.013184 0.039550
Si Si4 0.176512 0.700681 0.406651
Si Si5 0.319776 0.011880 0.878525
Si Si6 0.556069 0.740707 0.630780
O O1 0.689450 0.232837 0.583002
O O2 0.565963 0.179617 0.348073
O O3 0.514053 0.543689 0.388928
O O4 0.468907 0.039897 0.369437
O O5 0.834340 0.592935 0.679793
O O6 0.833507 0.480675 0.810338
O O7 0.925165 0.146188 0.811877
O O8 0.850642 0.219605 0.937304
O O9 0.914979 0.716625 0.005516
O O10 0.000000 0.015968 0.000000
O O11 0.273919 0.496843 0.535596
O O12 0.191038 0.137854 0.763093
O O13 0.500000 0.710331 0.500000
#
# Coordination Sequence:
#
# PCOD9125969 Si02
#       6
#     4   4   4   4   4   4
#     4  11  23  39  61  94 122 161 204 245 311 364
#     4  10  22  41  63  92 125 156 202 259 308 362
#     4  10  22  36  58  86 120 158 197 249 301 357
#     4  10  22  38  61  92 125 161 199 254 306 362
#     4  11  23  38  57  89 123 158 202 240 306 363
#     4  12  24  37  61  86 130 165 196 250 304 366
#
# _framework density 21.691658
#
# number of rings (size 3 to 8) (size 9 to 14) (size 15 to 20)
#    0.000    1.333    1.667    5.000    4.667    6.667 
#    0.000    0.000    0.000    4.000    0.000    0.000 
#    0.000    0.000    0.000    0.000    0.000    0.000 
#
# Total GULP energy -67079.406655 kJ/mol
# GULP energy per Si atom -5589.950555 kJ/mol
# Density = 2.164229 g / cm^3
# Si number density = 21.691658 Si / 1000 Ang^3
#
#
#
# Elastic Constant Matrix: (Units=GPa)
#
#
# Indices 1 2 3 4 5 6 
#
# 1 58.6183 2.6961 0.9419 0.0010 0.1905 0.0004
# 2 2.6961 75.9869 9.6170 0.0025 -2.6206 0.0015
# 3 0.9419 9.6170 76.4152 0.0016 10.4286 0.0013
# 4 0.0010 0.0025 0.0016 36.2969 0.0006 6.3476
# 5 0.1905 -2.6206 10.4286 0.0006 24.3486 0.0002
# 6 0.0004 0.0015 0.0013 6.3476 0.0002 34.4189
#
#
#
# Elastic Compliance Matrix: (Units=1/GPa)
#
#
# Indices 1 2 3 4 5 6 
#
# 1 0.017089 -0.000597 -0.000115 0.000000 -0.000149 0.000000
# 2 -0.000597 0.013516 -0.002010 -0.000001 0.002320 0.000000
# 3 -0.000115 -0.002010 0.014200 0.000000 -0.006298 0.000000
# 4 0.000000 -0.000001 0.000000 0.028469 -0.000001 -0.005250
# 5 -0.000149 0.002320 -0.006298 -0.000001 0.044018 0.000000
# 6 0.000000 0.000000 0.000000 -0.005250 0.000000 0.030022
#
#
# Mechanical properties :
#
#
# Convention : Reuss Voigt Hill
#
# Bulk Modulus (GPa) = 25.40615 26.39224 25.89919
# Shear Modulus (GPa) = 30.14237 32.19724 31.16980
#
# Velocity S-wave (km/s) = 3.73176 3.85686 3.79482
# Velocity P-wave (km/s) = 5.50507 5.65926 5.58270
#
# Compressibility (1/GPa) = 0.03936055
#
# Stress axis : x y z
#
# Youngs Moduli (GPa) = 58.51610 73.98752 70.42123
#
# Poissons Ratio (x) = 0.04416 0.00812
# Poissons Ratio (y) = 0.03493 0.14157
# Poissons Ratio (z) = 0.00674 0.14874
#
# Static dielectric constant tensor:
#      x y z
#    x 1.789080 0.000000 -0.012080 
#    y 0.000000 1.784820 0.000000 
#    z -0.012080 0.000000 1.839510 
# 
# From -- ./inp_files/66941.got.cif
#   From: 2010.05.17/outbox.cif.g08.bks.cpg/sg5_34_cif.got.tgz:66941.got - 2010.06.03 18:56:24.
