data_PCOD9125546
_publ_section_title
;
Structure prediction by ZEFSAII (Michael W. Deem and Ramdas Pophale) SiO2 
 PCOD9125546
Probable space group: C 2
;
_chemical_formula_sum "Si O2"
_cell_formula_units_Z 26
_cell_length_a 7.959015
_cell_length_b 24.190146
_cell_length_c 8.325848
_cell_angle_alpha 90.000000
_cell_angle_beta 128.778611
_cell_angle_gamma 90.000000
_cell_volume 1249.632831
_symmetry_space_group_name_H-M "C 2"
_symmetry_group_IT_number 5
_symmetry_cell_setting 'monoclinic'
loop_
_space_group_symop_operation_xyz
x,y,z
-x,y,-z
1/2+x,1/2+y,z
1/2-x,1/2+y,-z
loop_
_atom_site_type_symbol
_atom_site_label
_atom_site_fract_x
_atom_site_fract_y
_atom_site_fract_z
Si Si1 0.231177 0.829490 0.554616
Si Si2 0.721982 0.208899 0.053169
Si Si3 0.264604 0.455765 0.442055
Si Si4 0.733230 0.057895 0.664051
Si Si5 0.804809 0.084657 0.067039
Si Si6 0.000000 0.283861 0.000000
Si Si7 0.500000 0.750742 0.500000
Si Si8 0.500000 0.997663 0.000000
O O1 0.233808 0.892655 0.497085
O O2 0.310905 0.788787 0.462305
O O3 0.000000 0.818161 0.500000
O O4 0.404941 0.820228 0.800085
O O5 0.700764 0.144712 0.994018
O O6 0.901320 0.214857 0.298612
O O7 0.811667 0.244915 0.959680
O O8 0.500000 0.228346 0.000000
O O9 0.500000 0.463595 0.500000
O O10 0.235993 0.501105 0.564854
O O11 0.069300 0.461989 0.195722
O O12 0.500000 0.084531 0.500000
O O13 0.944727 0.091625 0.741121
O O14 0.767789 0.053667 0.875247
O O15 0.696273 0.041571 0.119969
#
# Coordination Sequence:
#
# PCOD9125546 Si02
#       8
#     4   4   4   4   4   2   2   2
#     4  10  22  41  63  91 125 161 205 259 310 367
#     4  11  23  42  67  92 123 164 206 258 311 373
#     4  11  23  39  63  90 125 166 206 248 315 366
#     4  11  23  40  60  89 129 164 200 257 305 370
#     4  11  24  39  60  92 124 161 209 249 311 366
#     4  10  21  42  62  92 126 156 209 262 308 360
#     4  10  24  40  66  92 120 160 214 254 314 368
#     4  12  21  38  60  90 124 160 203 254 290 378
#
# _framework density 20.806113
#
# number of rings (size 3 to 8) (size 9 to 14) (size 15 to 20)
#    0.000    1.231    3.846    2.308    1.077    2.462 
#    0.000    3.846    3.385    0.000    0.000    0.000 
#    0.000    0.000    0.000    0.000    0.000    0.000 
#
# Total GULP energy -72501.666171 kJ/mol
# GULP energy per Si atom -5577.051244 kJ/mol
# Density = 2.075876 g / cm^3
# Si number density = 20.806113 Si / 1000 Ang^3
#
#
#
# Elastic Constant Matrix: (Units=GPa)
#
#
# Indices 1 2 3 4 5 6 
#
# 1 91.6074 21.5126 0.5420 0.0000 17.1975 0.0000
# 2 21.5126 63.1285 24.9695 0.0000 -15.6876 0.0000
# 3 0.5420 24.9695 70.1828 0.0000 2.8768 0.0000
# 4 0.0000 0.0000 0.0000 37.8849 0.0000 3.9189
# 5 17.1975 -15.6876 2.8768 0.0000 39.2461 0.0000
# 6 0.0000 0.0000 0.0000 3.9189 0.0000 1.2119
#
#
#
# Elastic Compliance Matrix: (Units=1/GPa)
#
#
# Indices 1 2 3 4 5 6 
#
# 1 0.015007 -0.009129 0.003562 0.000000 -0.010486 0.000000
# 2 -0.009129 0.026781 -0.010091 0.000000 0.015445 0.000000
# 3 0.003562 -0.010091 0.018095 0.000000 -0.006921 0.000000
# 4 0.000000 0.000000 0.000000 0.039663 0.000000 -0.128254
# 5 -0.010486 0.015445 -0.006921 0.000000 0.036756 0.000000
# 6 0.000000 0.000000 0.000000 -0.128254 0.000000 1.239865
#
#
# Mechanical properties :
#
#
# Convention : Reuss Voigt Hill
#
# Bulk Modulus (GPa) = 35.00466 35.44076 35.22271
# Shear Modulus (GPa) = 3.52857 27.52823 15.52840
#
# Velocity S-wave (km/s) = 1.30369 3.64137 2.73488
# Velocity P-wave (km/s) = 4.37343 5.89493 5.19024
#
# Compressibility (1/GPa) = 0.02856762
#
# Stress axis : x y z
#
# Youngs Moduli (GPa) = 66.63362 37.34009 55.26488
#
# Poissons Ratio (x) = 0.34087 -0.19684
# Poissons Ratio (y) = 0.60829 0.55766
# Poissons Ratio (z) = -0.23733 0.37678
#
# Static dielectric constant tensor:
#      x y z
#    x 1.810170 0.000000 0.020100 
#    y 0.000000 1.686730 0.000000 
#    z 0.020100 0.000000 1.740180 
# 
# From -- ./inp_files/17105.got.cif
#   From: 2010.05.17/outbox.cif.g08.bks.cpg/sg5_9_cif.got.tgz:17105.got - 2010.06.03 18:56:24.
