data_PCOD9125739
_publ_section_title
;
Structure prediction by ZEFSAII (Michael W. Deem and Ramdas Pophale) SiO2 
 PCOD9125739
Probable space group: C 2
;
_chemical_formula_sum "Si O2"
_cell_formula_units_Z 32
_cell_length_a 9.514294
_cell_length_b 14.239192
_cell_length_c 11.643692
_cell_angle_alpha 90.000000
_cell_angle_beta 74.409903
_cell_angle_gamma 90.000000
_cell_volume 1519.403662
_symmetry_space_group_name_H-M "C 2"
_symmetry_group_IT_number 5
_symmetry_cell_setting 'monoclinic'
loop_
_space_group_symop_operation_xyz
x,y,z
-x,y,-z
1/2+x,1/2+y,z
1/2-x,1/2+y,-z
loop_
_atom_site_type_symbol
_atom_site_label
_atom_site_fract_x
_atom_site_fract_y
_atom_site_fract_z
Si Si1 0.538480 0.356020 0.221986
Si Si2 0.334098 0.543128 0.901432
Si Si3 0.755614 0.961303 0.373744
Si Si4 0.663858 0.184650 0.780515
Si Si5 0.056334 0.290990 0.373623
Si Si6 0.849694 0.614769 0.470436
Si Si7 0.831902 0.095466 0.165285
Si Si8 0.764041 0.265682 0.324828
O O1 0.635344 0.431714 0.128498
O O2 0.402518 0.409053 0.308367
O O3 0.462869 0.265323 0.173488
O O4 0.635595 0.329484 0.309753
O O5 0.210073 0.600760 0.858027
O O6 0.496555 0.584698 0.841462
O O7 0.308319 0.563451 0.041128
O O8 0.632136 0.883958 0.404156
O O9 0.756454 0.026713 0.485046
O O10 0.736676 0.031597 0.270768
O O11 0.817472 0.238083 0.723663
O O12 0.625087 0.139622 0.666154
O O13 0.000000 0.236494 0.500000
O O14 0.916521 0.310760 0.326583
O O15 0.787627 0.703130 0.555779
O O16 0.000000 0.589112 0.500000
O O17 0.791166 0.200242 0.207644
#
# Coordination Sequence:
#
# PCOD9125739 Si02
#       8
#     4   4   4   4   4   4   4   4
#     4  10  23  42  62  97 130 165 220 271 316 400
#     4  10  21  43  67  91 125 172 219 264 331 390
#     4   9  22  40  62  92 123 167 210 258 325 383
#     4  11  22  41  64  99 126 167 219 260 326 395
#     4  11  21  36  62  93 125 162 207 259 319 395
#     4  11  21  39  64  89 132 164 202 265 324 385
#     4   9  20  43  65  87 126 167 210 267 323 386
#     4  11  21  40  64  91 127 163 208 266 328 379
#
# _framework density 21.060894000000001
#
# number of rings (size 3 to 8) (size 9 to 14) (size 15 to 20)
#    0.000    1.750    3.750    0.375    0.000    2.000 
#   13.500    0.000    0.000    0.000    0.000    0.000 
#    0.000    0.000    0.000    0.000    0.000    0.000 
#
# Total GULP energy -89212.774678 kJ/mol
# GULP energy per Si atom -5575.798417 kJ/mol
# Density = 2.101296 g / cm^3
# Si number density = 21.060894 Si / 1000 Ang^3
#
#
#
# Elastic Constant Matrix: (Units=GPa)
#
#
# Indices 1 2 3 4 5 6 
#
# 1 75.3401 22.1839 23.2796 0.0000 25.0499 0.0000
# 2 22.1839 82.4398 37.3745 0.0000 15.7679 0.0000
# 3 23.2796 37.3745 67.6839 0.0000 13.9129 0.0000
# 4 0.0000 0.0000 0.0000 9.4762 0.0000 -5.5274
# 5 25.0499 15.7679 13.9129 0.0000 29.5455 0.0000
# 6 0.0000 0.0000 0.0000 -5.5274 0.0000 12.9377
#
#
#
# Elastic Compliance Matrix: (Units=1/GPa)
#
#
# Indices 1 2 3 4 5 6 
#
# 1 0.019315 -0.001038 -0.003120 0.000000 -0.014353 0.000000
# 2 -0.001038 0.016904 -0.008087 0.000000 -0.004334 0.000000
# 3 -0.003120 -0.008087 0.020906 0.000000 -0.002884 0.000000
# 4 0.000000 0.000000 0.000000 0.140554 0.000000 0.060050
# 5 -0.014353 -0.004334 -0.002884 0.000000 0.049686 0.000000
# 6 0.000000 0.000000 0.000000 0.060050 0.000000 0.102949
#
#
# Mechanical properties :
#
#
# Convention : Reuss Voigt Hill
#
# Bulk Modulus (GPa) = 30.64068 43.45999 37.05033
# Shear Modulus (GPa) = 12.96406 19.90027 16.43217
#
# Velocity S-wave (km/s) = 2.48372 3.07724 2.79628
# Velocity P-wave (km/s) = 4.77550 5.77114 5.29677
#
# Compressibility (1/GPa) = 0.03263635
#
# Stress axis : x y z
#
# Youngs Moduli (GPa) = 51.77322 59.15643 47.83370
#
# Poissons Ratio (x) = 0.06140 0.14923
# Poissons Ratio (y) = 0.05374 0.38681
# Poissons Ratio (z) = 0.16152 0.47838
#
# Static dielectric constant tensor:
#      x y z
#    x 1.778820 0.000000 -0.013160 
#    y 0.000000 1.825890 0.000000 
#    z -0.013160 0.000000 1.734040 
# 
# From -- ./inp_files/36407.got.cif
#   From: 2010.05.17/outbox.cif.g08.bks.cpg/sg5_19_cif.got.tgz:36407.got - 2010.06.03 18:56:24.
