data_PCOD9125741
_publ_section_title
;
Structure prediction by ZEFSAII (Michael W. Deem and Ramdas Pophale) SiO2 
 PCOD9125741
Probable space group: C 2
;
_chemical_formula_sum "Si O2"
_cell_formula_units_Z 26
_cell_length_a 5.076734
_cell_length_b 18.112415
_cell_length_c 13.601266
_cell_angle_alpha 90.000000
_cell_angle_beta 74.551964
_cell_angle_gamma 90.000000
_cell_volume 1205.479030
_symmetry_space_group_name_H-M "C 2"
_symmetry_group_IT_number 5
_symmetry_cell_setting 'monoclinic'
loop_
_space_group_symop_operation_xyz
x,y,z
-x,y,-z
1/2+x,1/2+y,z
1/2-x,1/2+y,-z
loop_
_atom_site_type_symbol
_atom_site_label
_atom_site_fract_x
_atom_site_fract_y
_atom_site_fract_z
Si Si1 0.620269 0.988010 0.206137
Si Si2 0.309101 0.821113 0.779631
Si Si3 0.000000 0.531670 0.000000
Si Si4 0.972120 0.117745 0.871181
Si Si5 0.059153 0.178220 0.328671
Si Si6 0.718143 0.773128 0.894040
Si Si7 0.486021 0.091189 0.391556
O O1 0.716757 0.908042 0.231523
O O2 0.458687 0.027783 0.310944
O O3 0.868477 0.044687 0.173040
O O4 0.506857 0.987622 0.103700
O O5 0.367185 0.764905 0.684438
O O6 0.589464 0.812043 0.812356
O O7 0.036909 0.794062 0.866723
O O8 0.252642 0.587536 0.968977
O O9 0.822868 0.148072 0.787914
O O10 0.162397 0.186231 0.882598
O O11 0.224965 0.142079 0.399560
O O12 0.750475 0.146175 0.355061
O O13 0.500000 0.794663 0.000000
O O14 0.500000 0.060133 0.500000
#
# Coordination Sequence:
#
# PCOD9125741 Si02
#       7
#     4   4   2   4   4   4   4
#     4  11  25  41  63  97 139 177 224 273 339 408
#     4  11  25  40  62  90 136 176 218 278 336 401
#     4  12  22  38  66  98 138 182 228 274 332 400
#     4  10  23  38  64  90 132 174 231 271 325 393
#     4  10  21  43  67  98 128 170 224 280 337 396
#     4  11  24  38  59  90 128 184 234 272 317 387
#     4  11  23  45  74 100 126 169 228 287 340 404
#
# _framework density 21.568189
#
# number of rings (size 3 to 8) (size 9 to 14) (size 15 to 20)
#    0.000    1.231    1.538    5.077    9.692    1.231 
#    0.000    1.538    0.000    0.000    0.000    0.000 
#    0.000    0.000    0.000    0.000    0.000    0.000 
#
# Total GULP energy -72444.553033 kJ/mol
# GULP energy per Si atom -5572.657926 kJ/mol
# Density = 2.151910 g / cm^3
# Si number density = 21.568189 Si / 1000 Ang^3
#
#
#
# Elastic Constant Matrix: (Units=GPa)
#
#
# Indices 1 2 3 4 5 6 
#
# 1 81.5204 19.4145 10.2888 0.0000 -0.4729 0.0000
# 2 19.4145 151.6771 27.8381 0.0000 -4.4273 0.0000
# 3 10.2888 27.8381 99.3771 0.0000 11.2441 0.0000
# 4 0.0000 0.0000 0.0000 10.3402 0.0000 2.0387
# 5 -0.4729 -4.4273 11.2441 0.0000 34.2325 0.0000
# 6 0.0000 0.0000 0.0000 2.0387 0.0000 20.7512
#
#
#
# Elastic Compliance Matrix: (Units=1/GPa)
#
#
# Indices 1 2 3 4 5 6 
#
# 1 0.012733 -0.001447 -0.000947 0.000000 0.000300 0.000000
# 2 -0.001447 0.007200 -0.002046 0.000000 0.001583 0.000000
# 3 -0.000947 -0.002046 0.011181 0.000000 -0.003950 0.000000
# 4 0.000000 0.000000 0.000000 0.098620 0.000000 -0.009689
# 5 0.000300 0.001583 -0.003950 0.000000 0.030718 0.000000
# 6 0.000000 0.000000 0.000000 -0.009689 0.000000 0.049142
#
#
# Mechanical properties :
#
#
# Convention : Reuss Voigt Hill
#
# Bulk Modulus (GPa) = 44.97791 49.73971 47.35881
# Shear Modulus (GPa) = 22.13514 31.40034 26.76774
#
# Velocity S-wave (km/s) = 3.20705 3.81972 3.52671
# Velocity P-wave (km/s) = 5.88325 6.52421 6.21200
#
# Compressibility (1/GPa) = 0.02223314
#
# Stress axis : x y z
#
# Youngs Moduli (GPa) = 78.53751 138.88953 89.43872
#
# Poissons Ratio (x) = 0.20101 0.08468
# Poissons Ratio (y) = 0.11367 0.18301
# Poissons Ratio (z) = 0.07436 0.28420
#
# Static dielectric constant tensor:
#      x y z
#    x 1.817690 0.000000 0.012950 
#    y 0.000000 1.778770 0.000000 
#    z 0.012950 0.000000 1.906220 
# 
# From -- ./inp_files/49086.got.cif
#   From: 2010.05.17/outbox.cif.g08.bks.cpg/sg5_25_cif.got.tgz:49086.got - 2010.06.03 18:56:24.
