data_PCOD9125983
_publ_section_title
;
Structure prediction by ZEFSAII (Michael W. Deem and Ramdas Pophale) SiO2 
 PCOD9125983
Probable space group: C 2
;
_chemical_formula_sum "Si O2"
_cell_formula_units_Z 26
_cell_length_a 17.198817
_cell_length_b 8.180906
_cell_length_c 20.739105
_cell_angle_alpha 90.000000
_cell_angle_beta 25.872786
_cell_angle_gamma 90.000000
_cell_volume 1273.354494
_symmetry_space_group_name_H-M "C 2"
_symmetry_group_IT_number 5
_symmetry_cell_setting 'monoclinic'
loop_
_space_group_symop_operation_xyz
x,y,z
-x,y,-z
1/2+x,1/2+y,z
1/2-x,1/2+y,-z
loop_
_atom_site_type_symbol
_atom_site_label
_atom_site_fract_x
_atom_site_fract_y
_atom_site_fract_z
Si Si1 0.440063 0.712130 0.788536
Si Si2 0.211001 0.535682 0.458012
Si Si3 0.866797 0.557356 0.907425
Si Si4 0.000000 0.419221 0.500000
Si Si5 0.248144 0.619585 0.684466
Si Si6 0.960285 0.034844 0.640973
Si Si7 0.963016 0.756717 0.317122
O O1 0.636439 0.669911 0.668712
O O2 0.446883 0.676200 0.706305
O O3 0.378957 0.886971 0.860215
O O4 0.303631 0.581436 0.920801
O O5 0.061435 0.521508 0.515612
O O6 0.126280 0.592904 0.588358
O O7 0.317914 0.366180 0.387427
O O8 0.046193 0.593127 0.814528
O O9 0.875263 0.699954 0.847469
O O10 0.170502 0.300433 0.360970
O O11 0.294236 0.528053 0.716474
O O12 0.373673 0.561673 0.531398
O O13 0.983076 0.869909 0.663811
#
# Coordination Sequence:
#
# PCOD9125983 Si02
#       7
#     4   4   4   2   4   4   4
#     4  11  24  40  66  92 125 170 209 260 305 381
#     4  11  22  38  62  93 124 159 211 256 314 356
#     4  12  24  41  64  90 130 165 216 250 317 372
#     4  10  22  36  62  92 128 152 206 258 310 354
#     4  10  22  39  66  91 127 164 202 261 319 371
#     4   9  21  41  64  93 124 159 216 250 322 362
#     4  11  22  36  64  93 121 164 208 264 298 373
#
# _framework density 20.418507999999999
#
# number of rings (size 3 to 8) (size 9 to 14) (size 15 to 20)
#    0.000    1.538    1.538    5.538    8.615    3.077 
#    0.000    0.000    0.000    2.769    0.000    0.000 
#    0.000    0.000    0.000    0.000    0.000    0.000 
#
# Total GULP energy -72572.835053 kJ/mol
# GULP energy per Si atom -5582.525773 kJ/mol
# Density = 2.037204 g / cm^3
# Si number density = 20.418508 Si / 1000 Ang^3
#
#
#
# Elastic Constant Matrix: (Units=GPa)
#
#
# Indices 1 2 3 4 5 6 
#
# 1 138.6469 33.0810 25.9473 0.0000 13.4674 0.0000
# 2 33.0810 71.4562 9.2114 0.0002 12.6805 -0.0001
# 3 25.9473 9.2114 80.4335 0.0002 12.2053 -0.0002
# 4 0.0000 0.0002 0.0002 31.9486 -0.0001 1.7735
# 5 13.4674 12.6805 12.2053 -0.0001 19.4612 0.0001
# 6 0.0000 -0.0001 -0.0002 1.7735 0.0001 37.8720
#
#
#
# Elastic Compliance Matrix: (Units=1/GPa)
#
#
# Indices 1 2 3 4 5 6 
#
# 1 0.008621 -0.003276 -0.002016 0.000000 -0.002567 0.000000
# 2 -0.003276 0.017074 0.000492 0.000000 -0.009167 0.000000
# 3 -0.002016 0.000492 0.014217 0.000000 -0.007842 0.000000
# 4 0.000000 0.000000 0.000000 0.031382 0.000000 -0.001470
# 5 -0.002567 -0.009167 -0.007842 0.000000 0.064052 0.000000
# 6 0.000000 0.000000 0.000000 -0.001470 0.000000 0.026474
#
#
# Mechanical properties :
#
#
# Convention : Reuss Voigt Hill
#
# Bulk Modulus (GPa) = 32.98961 47.44622 40.21791
# Shear Modulus (GPa) = 27.54482 32.67617 30.11049
#
# Velocity S-wave (km/s) = 3.67687 4.00474 3.84430
# Velocity P-wave (km/s) = 5.84959 6.68366 6.28048
#
# Compressibility (1/GPa) = 0.03031258
#
# Stress axis : x y z
#
# Youngs Moduli (GPa) = 115.99840 58.56724 70.34018
#
# Poissons Ratio (x) = 0.19184 0.14183
# Poissons Ratio (y) = 0.37997 -0.03463
# Poissons Ratio (z) = 0.23390 -0.02884
#
# Static dielectric constant tensor:
#      x y z
#    x 1.777080 0.000000 -0.004050 
#    y 0.000000 1.797670 0.000000 
#    z -0.004050 0.000000 1.708780 
# 
# From -- ./inp_files/66510.got.cif
#   From: 2010.05.17/outbox.cif.g08.bks.cpg/sg5_34_cif.got.tgz:66510.got - 2010.06.03 18:56:24.
