data_PCOD9125557
_publ_section_title
;
Structure prediction by ZEFSAII (Michael W. Deem and Ramdas Pophale) SiO2 
 PCOD9125557
Probable space group: C 2
;
_chemical_formula_sum "Si O2"
_cell_formula_units_Z 20
_cell_length_a 20.641016
_cell_length_b 8.398856
_cell_length_c 5.113615
_cell_angle_alpha 90.000000
_cell_angle_beta 85.172865
_cell_angle_gamma 90.000000
_cell_volume 883.356692
_symmetry_space_group_name_H-M "C 2"
_symmetry_group_IT_number 5
_symmetry_cell_setting 'monoclinic'
loop_
_space_group_symop_operation_xyz
x,y,z
-x,y,-z
1/2+x,1/2+y,z
1/2-x,1/2+y,-z
loop_
_atom_site_type_symbol
_atom_site_label
_atom_site_fract_x
_atom_site_fract_y
_atom_site_fract_z
Si Si1 0.876066 0.914280 0.110273
Si Si2 0.042560 0.643264 0.718075
Si Si3 0.500000 0.632466 0.000000
Si Si4 0.500000 0.842561 0.500000
Si Si5 0.721526 0.267041 0.188097
Si Si6 0.740462 0.927688 0.323300
O O1 0.895551 0.747245 0.236150
O O2 0.815487 0.989762 0.280032
O O3 0.844481 0.866734 0.843181
O O4 0.938747 0.021856 0.082962
O O5 0.000000 0.723730 0.500000
O O6 0.053376 0.467577 0.594720
O O7 0.000000 0.631136 0.000000
O O8 0.481849 0.737518 0.753986
O O9 0.764710 0.348457 0.395714
O O10 0.702704 0.086508 0.261470
O O11 0.759631 0.291907 0.900682
#
# Coordination Sequence:
#
# PCOD9125557 Si02
#       6
#     4   4   2   2   4   4
#     4  10  26  40  74  92 135 182 208 271 326 412
#     4  10  21  42  63  94 133 174 212 252 329 399
#     4  12  24  42  66 102 138 158 228 254 346 376
#     4  10  24  40  60  94 140 166 206 282 294 402
#     4  10  23  44  65  98 127 174 224 268 330 373
#     4  10  23  44  67  96 128 173 224 274 321 380
#
# _framework density 22.640913000000001
#
# number of rings (size 3 to 8) (size 9 to 14) (size 15 to 20)
#    1.800    0.000    2.000    1.200    7.000    0.000 
#    3.600    2.000    0.000    0.000    0.000    0.000 
#    0.000    0.000    0.000    0.000    0.000    0.000 
#
# Total GULP energy -55730.240112 kJ/mol
# GULP energy per Si atom -5573.024011 kJ/mol
# Density = 2.258938 g / cm^3
# Si number density = 22.640913 Si / 1000 Ang^3
#
#
#
# Elastic Constant Matrix: (Units=GPa)
#
#
# Indices 1 2 3 4 5 6 
#
# 1 32.9768 4.8554 2.5377 0.0000 -8.2310 0.0000
# 2 4.8554 90.2871 28.4895 0.0000 7.8441 0.0000
# 3 2.5377 28.4895 153.0238 0.0000 19.0133 0.0000
# 4 0.0000 0.0000 0.0000 36.4928 0.0000 12.1727
# 5 -8.2310 7.8441 19.0133 0.0000 15.2544 0.0000
# 6 0.0000 0.0000 0.0000 12.1727 0.0000 6.1820
#
#
#
# Elastic Compliance Matrix: (Units=1/GPa)
#
#
# Indices 1 2 3 4 5 6 
#
# 1 0.037534 -0.003251 -0.003244 0.000000 0.025967 0.000000
# 2 -0.003251 0.012251 -0.001451 0.000000 -0.006245 0.000000
# 3 -0.003244 -0.001451 0.008263 0.000000 -0.011304 0.000000
# 4 0.000000 0.000000 0.000000 0.079846 0.000000 -0.157222
# 5 0.025967 -0.006245 -0.011304 0.000000 0.096867 0.000000
# 6 0.000000 0.000000 0.000000 -0.157222 0.000000 0.471339
#
#
# Mechanical properties :
#
#
# Convention : Reuss Voigt Hill
#
# Bulk Modulus (GPa) = 23.72068 38.67252 31.19660
# Shear Modulus (GPa) = 6.79306 27.61283 17.20295
#
# Velocity S-wave (km/s) = 1.73403 3.49606 2.75947
# Velocity P-wave (km/s) = 3.80904 5.78053 4.89506
#
# Compressibility (1/GPa) = 0.04215730
#
# Stress axis : x y z
#
# Youngs Moduli (GPa) = 26.64242 81.62566 121.01632
#
# Poissons Ratio (x) = 0.26536 0.39254
# Poissons Ratio (y) = 0.08661 0.17559
# Poissons Ratio (z) = 0.08642 0.11843
#
# Static dielectric constant tensor:
#      x y z
#    x 1.913860 0.000000 0.019750 
#    y 0.000000 1.840510 0.000000 
#    z 0.019750 0.000000 1.864540 
# 
# From -- ./inp_files/10055.got.cif
#   From: 2010.05.17/outbox.cif.g08.bks.cpg/sg5_6_cif.got.tgz:10055.got - 2010.06.03 18:56:24.
