data_PCOD9125723
_publ_section_title
;
Structure prediction by ZEFSAII (Michael W. Deem and Ramdas Pophale) SiO2 
 PCOD9125723
Probable space group: C 2
;
_chemical_formula_sum "Si O2"
_cell_formula_units_Z 30
_cell_length_a 11.753497
_cell_length_b 14.460432
_cell_length_c 8.747954
_cell_angle_alpha 90.000000
_cell_angle_beta 81.723310
_cell_angle_gamma 90.000000
_cell_volume 1471.321955
_symmetry_space_group_name_H-M "C 2"
_symmetry_group_IT_number 5
_symmetry_cell_setting 'monoclinic'
loop_
_space_group_symop_operation_xyz
x,y,z
-x,y,-z
1/2+x,1/2+y,z
1/2-x,1/2+y,-z
loop_
_atom_site_type_symbol
_atom_site_label
_atom_site_fract_x
_atom_site_fract_y
_atom_site_fract_z
Si Si1 0.418104 0.164130 0.874115
Si Si2 0.617376 0.574948 0.560886
Si Si3 0.192372 0.232388 0.752859
Si Si4 0.998370 0.815455 0.678339
Si Si5 0.500000 0.800046 0.000000
Si Si6 0.597291 0.448812 0.852617
Si Si7 0.161750 0.467172 0.030839
Si Si8 0.221335 0.930802 0.298646
O O1 0.288646 0.204269 0.863726
O O2 0.478892 0.208640 0.715655
O O3 0.407505 0.055077 0.894857
O O4 0.500000 0.196533 0.000000
O O5 0.500000 0.605251 0.500000
O O6 0.690869 0.658928 0.615906
O O7 0.578851 0.521318 0.720688
O O8 0.685036 0.502747 0.437194
O O9 0.071237 0.240035 0.864894
O O10 0.215374 0.333851 0.675490
O O11 0.893995 0.883645 0.750576
O O12 0.000000 0.832791 0.500000
O O13 0.100534 0.851516 0.762017
O O14 0.408370 0.871845 0.944083
O O15 0.720329 0.464734 0.901258
O O16 0.500000 0.453922 0.000000
O O17 0.200939 0.478131 0.846290
#
# Coordination Sequence:
#
# PCOD9125723 Si02
#       8
#     4   4   4   4   2   4   4   4
#     4  11  24  43  66 101 130 172 233 275 336 402
#     4  12  22  42  66  98 137 181 226 273 338 406
#     4  10  25  43  67  98 138 170 226 282 333 402
#     4  11  21  40  64  99 136 166 218 283 334 397
#     4  10  24  46  64  96 138 170 214 288 344 392
#     4  12  21  37  70 102 126 175 232 273 332 394
#     4  11  22  43  70  93 133 179 219 283 336 401
#     4  10  21  43  65  95 135 177 215 284 339 390
#
# _framework density 20.389825999999999
#
# number of rings (size 3 to 8) (size 9 to 14) (size 15 to 20)
#    0.000    1.067    6.000    0.400    4.667    1.067 
#    7.200    0.000    0.000    0.000    0.000    0.000 
#    0.000    0.000    0.000    0.000    0.000    0.000 
#
# Total GULP energy -83539.171537 kJ/mol
# GULP energy per Si atom -5569.278102 kJ/mol
# Density = 2.034342 g / cm^3
# Si number density = 20.389826 Si / 1000 Ang^3
#
#
#
# Elastic Constant Matrix: (Units=GPa)
#
#
# Indices 1 2 3 4 5 6 
#
# 1 79.8028 12.6159 34.7193 0.0000 22.4705 0.0000
# 2 12.6159 99.8208 39.5820 0.0000 2.2829 0.0000
# 3 34.7193 39.5820 80.3425 0.0000 14.2186 0.0000
# 4 0.0000 0.0000 0.0000 37.1451 0.0000 -4.8802
# 5 22.4705 2.2829 14.2186 0.0000 21.0271 0.0000
# 6 0.0000 0.0000 0.0000 -4.8802 0.0000 23.7691
#
#
#
# Elastic Compliance Matrix: (Units=1/GPa)
#
#
# Indices 1 2 3 4 5 6 
#
# 1 0.019842 0.000081 -0.005521 0.000000 -0.017479 0.000000
# 2 0.000081 0.012640 -0.006820 0.000000 0.003153 0.000000
# 3 -0.005521 -0.006820 0.019331 0.000000 -0.006431 0.000000
# 4 0.000000 0.000000 0.000000 0.027668 0.000000 0.005681
# 5 -0.017479 0.003153 -0.006431 0.000000 0.070243 0.000000
# 6 0.000000 0.000000 0.000000 0.005681 0.000000 0.043238
#
#
# Mechanical properties :
#
#
# Convention : Reuss Voigt Hill
#
# Bulk Modulus (GPa) = 36.64030 48.20006 42.42018
# Shear Modulus (GPa) = 22.06731 27.92485 24.99608
#
# Velocity S-wave (km/s) = 3.29336 3.70476 3.50510
# Velocity P-wave (km/s) = 5.69829 6.48004 6.10170
#
# Compressibility (1/GPa) = 0.02729235
#
# Stress axis : x y z
#
# Youngs Moduli (GPa) = 50.39868 79.11335 51.73051
#
# Poissons Ratio (x) = -0.00644 0.28561
# Poissons Ratio (y) = -0.00410 0.35283
# Poissons Ratio (z) = 0.27826 0.53959
#
# Static dielectric constant tensor:
#      x y z
#    x 1.811560 0.000000 0.002460 
#    y 0.000000 1.785710 0.000000 
#    z 0.002460 0.000000 1.700500 
# 
# From -- ./inp_files/20379.got.cif
#   From: 2010.05.17/outbox.cif.g08.bks.cpg/sg5_11_cif.got.tgz:20379.got - 2010.06.03 18:56:24.
