data_PCOD9125077
_publ_section_title
;
Structure prediction by ZEFSAII (Michael W. Deem and Ramdas Pophale) SiO2 
 PCOD9125077
Probable space group: C 2
;
_chemical_formula_sum "Si O2"
_cell_formula_units_Z 26
_cell_length_a 15.112147
_cell_length_b 11.494223
_cell_length_c 8.568982
_cell_angle_alpha 90.000000
_cell_angle_beta 57.763108
_cell_angle_gamma 90.000000
_cell_volume 1259.007479
_symmetry_space_group_name_H-M "C 2"
_symmetry_group_IT_number 5
_symmetry_cell_setting 'monoclinic'
loop_
_space_group_symop_operation_xyz
x,y,z
-x,y,-z
1/2+x,1/2+y,z
1/2-x,1/2+y,-z
loop_
_atom_site_type_symbol
_atom_site_label
_atom_site_fract_x
_atom_site_fract_y
_atom_site_fract_z
Si Si1 0.141837 0.545880 0.704558
Si Si2 0.600419 0.423725 0.018671
Si Si3 0.550710 0.660253 0.208771
Si Si4 0.500000 0.852582 0.000000
Si Si5 0.344977 0.666178 0.569242
Si Si6 0.773468 0.881365 0.397007
Si Si7 0.971898 0.761590 0.346028
O O1 0.084497 0.441419 0.846567
O O2 0.238948 0.597664 0.710365
O O3 0.208824 0.495480 0.497556
O O4 0.063623 0.646219 0.716786
O O5 0.612747 0.549701 0.083653
O O6 0.569454 0.325720 0.172287
O O7 0.500000 0.435787 0.000000
O O8 0.689890 0.386056 0.815999
O O9 0.436540 0.612712 0.374717
O O10 0.603561 0.702907 0.317402
O O11 0.540680 0.764269 0.095246
O O12 0.305448 0.775364 0.508949
O O13 0.872717 0.849078 0.412985
O O14 0.000000 0.740006 0.500000
#
# Coordination Sequence:
#
# PCOD9125077 Si02
#       7
#     4   4   4   2   4   4   4
#     4  11  25  43  67  95 136 172 216 273 327 388
#     4  10  21  39  67  91 127 169 216 265 316 390
#     4  11  23  42  68  96 130 171 221 266 325 387
#     4  12  26  44  68  96 130 178 216 274 332 382
#     4  10  23  42  64  96 132 172 213 268 327 386
#     4  10  22  43  63  93 135 169 215 268 327 383
#     4  10  24  42  71  97 129 173 222 267 327 386
#
# _framework density 20.651187
#
# number of rings (size 3 to 8) (size 9 to 14) (size 15 to 20)
#    0.000    1.538    2.308    1.846    9.692    2.462 
#    2.769    0.000    0.000    0.000    0.000    0.000 
#    0.000    0.000    0.000    0.000    0.000    0.000 
#
# Total GULP energy -72499.479003 kJ/mol
# GULP energy per Si atom -5576.883000 kJ/mol
# Density = 2.060418 g / cm^3
# Si number density = 20.651187 Si / 1000 Ang^3
#
#
#
# Elastic Constant Matrix: (Units=GPa)
#
#
# Indices 1 2 3 4 5 6 
#
# 1 71.0406 39.2979 44.9402 0.0000 7.1872 0.0000
# 2 39.2979 111.0578 39.0254 0.0000 -2.1753 0.0000
# 3 44.9402 39.0254 92.9983 0.0000 6.7988 0.0000
# 4 0.0000 0.0000 0.0000 39.1003 0.0000 -5.6366
# 5 7.1872 -2.1753 6.7988 0.0000 24.8468 0.0000
# 6 0.0000 0.0000 0.0000 -5.6366 0.0000 -4.4784
#
#
#
# Elastic Compliance Matrix: (Units=1/GPa)
#
#
# Indices 1 2 3 4 5 6 
#
# 1 0.022790 -0.005170 -0.008498 0.000000 -0.004720 0.000000
# 2 -0.005170 0.011852 -0.002714 0.000000 0.003276 0.000000
# 3 -0.008498 -0.002714 0.016160 0.000000 -0.002201 0.000000
# 4 0.000000 0.000000 0.000000 0.021648 0.000000 -0.027246
# 5 -0.004720 0.003276 -0.002201 0.000000 0.042501 0.000000
# 6 0.000000 0.000000 0.000000 -0.027246 0.000000 -0.189002
#
#
# Mechanical properties :
#
#
# Convention : Reuss Voigt Hill
#
# Bulk Modulus (GPa) = 55.44699 57.95818 56.70258
# Shear Modulus (GPa) = -141.74544 22.01597 -59.86474
#
# Velocity S-wave (km/s) = -8.29379 3.26864 -5.38994
# Velocity P-wave (km/s) = 8.05036 6.50935 3.34938
#
# Compressibility (1/GPa) = 0.01803524
#
# Stress axis : x y z
#
# Youngs Moduli (GPa) = 43.87871 84.37464 61.88301
#
# Poissons Ratio (x) = 0.43626 0.52590
# Poissons Ratio (y) = 0.22687 0.16798
# Poissons Ratio (z) = 0.37289 0.22903
#
# Static dielectric constant tensor:
#      x y z
#    x 1.722770 0.000000 -0.024680 
#    y 0.000000 1.783820 0.000000 
#    z -0.024680 0.000000 1.759880 
# 
# From -- ./inp_files/23518.got.cif
#   From: 2010.05.17/outbox.cif.g08.bks.cpg/sg5_12_cif.got.tgz:23518.got - 2010.06.03 18:56:24.
