data_PCOD9125640
_publ_section_title
;
Structure prediction by ZEFSAII (Michael W. Deem and Ramdas Pophale) SiO2 
 PCOD9125640
Probable space group: C 2
;
_chemical_formula_sum "Si O2"
_cell_formula_units_Z 32
_cell_length_a 9.814711
_cell_length_b 27.037505
_cell_length_c 12.787169
_cell_angle_alpha 90.000000
_cell_angle_beta 24.211026
_cell_angle_gamma 90.000000
_cell_volume 1391.575495
_symmetry_space_group_name_H-M "C 2"
_symmetry_group_IT_number 5
_symmetry_cell_setting 'monoclinic'
loop_
_space_group_symop_operation_xyz
x,y,z
-x,y,-z
1/2+x,1/2+y,z
1/2-x,1/2+y,-z
loop_
_atom_site_type_symbol
_atom_site_label
_atom_site_fract_x
_atom_site_fract_y
_atom_site_fract_z
Si Si1 0.597211 0.046010 0.541856
Si Si2 0.764925 0.978188 0.906341
Si Si3 0.632181 0.315313 0.291575
Si Si4 0.282127 0.686850 0.875950
Si Si5 0.233347 0.884402 0.592704
Si Si6 0.195777 0.206215 0.769936
Si Si7 0.788816 0.625647 0.371628
Si Si8 0.673599 0.954119 0.182405
O O1 0.500000 0.069825 0.500000
O O2 0.554423 0.085847 0.661634
O O3 0.366388 0.997306 0.703343
O O4 0.962386 0.020973 0.299242
O O5 0.944263 0.925656 0.812467
O O6 0.500000 0.973998 0.000000
O O7 0.595763 0.986472 0.135503
O O8 0.500000 0.331206 0.500000
O O9 0.402253 0.333629 0.357890
O O10 0.660299 0.256040 0.279658
O O11 0.000000 0.333629 0.000000
O O12 0.450644 0.720105 0.846610
O O13 0.571379 0.663473 0.598747
O O14 0.000000 0.710354 0.000000
O O15 0.067942 0.648221 0.098053
O O16 0.500000 0.881128 0.500000
O O17 0.408686 0.911184 0.372418
O O18 0.500000 0.179769 0.500000
O O19 0.000000 0.179473 0.000000
O O20 0.500000 0.603482 0.500000
O O21 0.000000 0.929084 0.000000
#
# Coordination Sequence:
#
# PCOD9125640 Si02
#       8
#     4   4   4   4   4   4   4   4
#     4  11  24  39  58  90 127 172 224 276 325 381
#     4  11  24  38  61  88 123 176 227 272 325 382
#     4  10  24  43  65  97 132 164 209 272 330 389
#     4  10  22  43  67  97 129 171 216 264 329 403
#     4  11  23  39  61  91 126 173 223 274 327 390
#     4  10  21  42  68  97 130 164 207 265 328 398
#     4  10  24  40  64  98 134 170 217 273 327 387
#     4  11  21  40  61  86 125 175 229 274 317 386
#
# _framework density 22.995515999999999
#
# number of rings (size 3 to 8) (size 9 to 14) (size 15 to 20)
#    0.000    1.500    2.500    1.875    7.000    3.000 
#    0.000    5.000    0.000    0.000    0.000    0.000 
#    0.000    0.000    0.000    0.000    0.000    0.000 
#
# Total GULP energy -89108.079396 kJ/mol
# GULP energy per Si atom -5569.254962 kJ/mol
# Density = 2.294318 g / cm^3
# Si number density = 22.995516 Si / 1000 Ang^3
#
#
#
# Elastic Constant Matrix: (Units=GPa)
#
#
# Indices 1 2 3 4 5 6 
#
# 1 144.6272 17.1179 10.4807 -0.0004 -2.5494 0.0000
# 2 17.1179 55.0206 -6.2545 -0.0004 -8.3372 0.0001
# 3 10.4807 -6.2545 81.9304 0.0042 19.6522 -0.0039
# 4 -0.0004 -0.0004 0.0042 13.9797 -0.0015 16.5994
# 5 -2.5494 -8.3372 19.6522 -0.0015 34.8772 0.0013
# 6 0.0000 0.0001 -0.0039 16.5994 0.0013 7.8299
#
#
#
# Elastic Compliance Matrix: (Units=1/GPa)
#
#
# Indices 1 2 3 4 5 6 
#
# 1 0.007292 -0.002308 -0.001277 -0.000001 0.000701 0.000001
# 2 -0.002308 0.019601 0.000819 -0.000001 0.004055 0.000001
# 3 -0.001277 0.000819 0.014346 0.000010 -0.007981 -0.000013
# 4 -0.000001 -0.000001 0.000010 -0.047146 -0.000012 0.099948
# 5 0.000701 0.004055 -0.007981 -0.000012 0.034190 0.000015
# 6 0.000001 0.000001 -0.000013 0.099948 0.000015 -0.084175
#
#
# Mechanical properties :
#
#
# Convention : Reuss Voigt Hill
#
# Bulk Modulus (GPa) = 28.00623 36.02959 32.01791
# Shear Modulus (GPa) = -130.01400 28.68631 -50.66384
#
# Velocity S-wave (km/s) = -7.52739 3.53579 -4.69892
# Velocity P-wave (km/s) = 7.95885 5.68957 3.93523
#
# Compressibility (1/GPa) = 0.03570634
#
# Stress axis : x y z
#
# Youngs Moduli (GPa) = 137.12946 51.01892 69.70722
#
# Poissons Ratio (x) = 0.11774 0.08903
# Poissons Ratio (y) = 0.31646 -0.05707
# Poissons Ratio (z) = 0.17514 -0.04177
#
# Static dielectric constant tensor:
#      x y z
#    x 1.759380 0.000000 0.085600 
#    y 0.000000 1.822050 0.000000 
#    z 0.085600 0.000000 2.183450 
# 
# From -- ./inp_files/22224.got.cif
#   From: 2010.05.17/outbox.cif.g08.bks.cpg/sg5_12_cif.got.tgz:22224.got - 2010.06.03 18:56:24.
