data_PCOD9125778
_publ_section_title
;
Structure prediction by ZEFSAII (Michael W. Deem and Ramdas Pophale) SiO2 
 PCOD9125778
Probable space group: C 2
;
_chemical_formula_sum "Si O2"
_cell_formula_units_Z 32
_cell_length_a 10.694869
_cell_length_b 8.876926
_cell_length_c 19.934741
_cell_angle_alpha 90.000000
_cell_angle_beta 133.231155
_cell_angle_gamma 90.000000
_cell_volume 1378.909054
_symmetry_space_group_name_H-M "C 2"
_symmetry_group_IT_number 5
_symmetry_cell_setting 'monoclinic'
loop_
_space_group_symop_operation_xyz
x,y,z
-x,y,-z
1/2+x,1/2+y,z
1/2-x,1/2+y,-z
loop_
_atom_site_type_symbol
_atom_site_label
_atom_site_fract_x
_atom_site_fract_y
_atom_site_fract_z
Si Si1 0.159449 0.998210 0.018231
Si Si2 0.495598 0.678940 0.285871
Si Si3 0.024906 0.767260 0.431596
Si Si4 0.773694 0.455542 0.748900
Si Si5 0.456014 0.942981 0.362170
Si Si6 0.327069 0.376280 0.642883
Si Si7 0.076396 0.619701 0.780235
Si Si8 0.057372 0.260567 0.887537
O O1 0.283684 0.868739 0.037840
O O2 0.275229 0.101315 0.110589
O O3 0.000000 0.930278 0.000000
O O4 0.081874 0.104380 0.933195
O O5 0.333206 0.588876 0.256339
O O6 0.550438 0.813156 0.355037
O O7 0.640267 0.552812 0.336237
O O8 0.449745 0.733862 0.194985
O O9 0.854969 0.845217 0.337277
O O10 0.040800 0.586404 0.429218
O O11 0.171545 0.833096 0.435153
O O12 0.000000 0.804641 0.500000
O O13 0.912353 0.531162 0.750745
O O14 0.884033 0.352124 0.840094
O O15 0.339620 0.853946 0.373041
O O16 0.364491 0.033325 0.266016
O O17 0.489064 0.280652 0.731773
#
# Coordination Sequence:
#
# PCOD9125778 Si02
#       8
#     4   4   4   4   4   4   4   4
#     4  11  27  40  61  94 133 176 223 286 325 381
#     4  11  22  38  69  94 125 176 226 265 329 401
#     4  10  24  46  68 103 138 168 216 279 336 403
#     4  10  21  43  70  93 132 177 217 278 332 406
#     4  11  21  41  68  98 127 172 222 263 332 401
#     4  10  23  40  71  96 124 178 211 271 334 403
#     4  10  22  42  64  95 131 174 228 270 332 397
#     4  11  26  42  61  98 130 178 226 278 331 390
#
# _framework density 23.206752000000002
#
# number of rings (size 3 to 8) (size 9 to 14) (size 15 to 20)
#    0.000    1.500    3.750    0.750    8.750    2.000 
#    4.500    2.500    0.000    0.000    0.000    0.000 
#    0.000    0.000    0.000    0.000    0.000    0.000 
#
# Total GULP energy -89398.032989 kJ/mol
# GULP energy per Si atom -5587.377062 kJ/mol
# Density = 2.315393 g / cm^3
# Si number density = 23.206752 Si / 1000 Ang^3
#
#
#
# Elastic Constant Matrix: (Units=GPa)
#
#
# Indices 1 2 3 4 5 6 
#
# 1 64.9361 -0.9473 8.7729 0.0000 -13.8342 0.0000
# 2 -0.9473 85.7601 2.5722 0.0000 1.8645 0.0000
# 3 8.7729 2.5722 39.2664 0.0000 1.2761 0.0000
# 4 0.0000 0.0000 0.0000 24.6624 0.0000 -2.0499
# 5 -13.8342 1.8645 1.2761 0.0000 26.7631 0.0000
# 6 0.0000 0.0000 0.0000 -2.0499 0.0000 36.4227
#
#
#
# Elastic Compliance Matrix: (Units=1/GPa)
#
#
# Indices 1 2 3 4 5 6 
#
# 1 0.018014 0.000122 -0.004342 0.000000 0.009510 0.000000
# 2 0.000122 0.011700 -0.000771 0.000000 -0.000715 0.000000
# 3 -0.004342 -0.000771 0.026600 0.000000 -0.003459 0.000000
# 4 0.000000 0.000000 0.000000 0.040738 0.000000 0.002293
# 5 0.009510 -0.000715 -0.003459 0.000000 0.042496 0.000000
# 6 0.000000 0.000000 0.000000 0.002293 0.000000 0.027584
#
#
# Mechanical properties :
#
#
# Convention : Reuss Voigt Hill
#
# Bulk Modulus (GPa) = 21.58206 23.41758 22.49982
# Shear Modulus (GPa) = 25.96626 29.54063 27.75344
#
# Velocity S-wave (km/s) = 3.34864 3.57169 3.46196
# Velocity P-wave (km/s) = 4.92659 5.20788 5.06919
#
# Compressibility (1/GPa) = 0.04633478
#
# Stress axis : x y z
#
# Youngs Moduli (GPa) = 55.51164 85.46679 37.59403
#
# Poissons Ratio (x) = -0.01046 0.16323
# Poissons Ratio (y) = -0.00680 0.02897
# Poissons Ratio (z) = 0.24102 0.06586
#
# Static dielectric constant tensor:
#      x y z
#    x 1.904390 0.000000 0.010190 
#    y 0.000000 1.866180 0.000000 
#    z 0.010190 0.000000 1.870120 
# 
# From -- ./inp_files/65148.got.cif
#   From: 2010.05.17/outbox.cif.g08.bks.cpg/sg5_33_cif.got.tgz:65148.got - 2010.06.03 18:56:24.
