data_PCOD9125298
_publ_section_title
;
Structure prediction by ZEFSAII (Michael W. Deem and Ramdas Pophale) SiO2 
 PCOD9125298
Probable space group: C 2
;
_chemical_formula_sum "Si O2"
_cell_formula_units_Z 30
_cell_length_a 20.233677
_cell_length_b 12.238802
_cell_length_c 10.964237
_cell_angle_alpha 90.000000
_cell_angle_beta 154.103578
_cell_angle_gamma 90.000000
_cell_volume 1185.825231
_symmetry_space_group_name_H-M "C 2"
_symmetry_group_IT_number 5
_symmetry_cell_setting 'monoclinic'
loop_
_space_group_symop_operation_xyz
x,y,z
-x,y,-z
1/2+x,1/2+y,z
1/2-x,1/2+y,-z
loop_
_atom_site_type_symbol
_atom_site_label
_atom_site_fract_x
_atom_site_fract_y
_atom_site_fract_z
Si Si1 0.648210 0.110670 0.612360
Si Si2 0.176850 0.928978 0.771155
Si Si3 0.500000 0.102923 0.000000
Si Si4 0.023867 0.006971 0.176027
Si Si5 0.742404 0.890555 0.832203
Si Si6 0.797365 0.191679 0.612720
Si Si7 0.325858 0.911277 0.783837
Si Si8 0.199442 0.661121 0.984166
O O1 0.754286 0.133990 0.671361
O O2 0.710797 0.150192 0.851097
O O3 0.483379 0.159770 0.311305
O O4 0.627317 0.977987 0.585195
O O5 0.000000 0.905232 0.500000
O O6 0.269131 0.898695 0.042668
O O7 0.253640 0.867047 0.787576
O O8 0.206926 0.058053 0.809910
O O9 0.359689 0.175308 0.722441
O O10 0.445471 0.008791 0.006090
O O11 0.063687 0.134937 0.226911
O O12 0.185130 0.970898 0.490067
O O13 0.899007 0.950745 0.052717
O O14 0.000000 0.964262 0.000000
O O15 0.749565 0.760138 0.840064
O O16 0.847402 0.313551 0.725333
#
# Coordination Sequence:
#
# PCOD9125298 Si02
#       8
#     4   4   2   4   4   4   4   4
#     4  10  21  40  68  99 135 182 236 280 348 435
#     4  11  23  44  68 103 141 178 243 290 350 432
#     4  10  26  44  64 106 138 176 248 288 334 442
#     4  11  23  41  63  99 133 176 240 280 343 433
#     4  11  22  42  70  98 140 185 232 293 353 420
#     4  11  23  43  68  94 140 188 225 293 354 408
#     4  11  24  43  71  98 139 187 229 298 352 411
#     4  10  23  41  69 102 138 182 229 295 358 416
#
# _framework density 25.298838
#
# number of rings (size 3 to 8) (size 9 to 14) (size 15 to 20)
#    0.000    1.333    2.667    2.400    3.733    0.000 
#    7.200    0.000    2.933    0.000    0.000    0.000 
#    0.000    0.000    0.000    0.000    0.000    0.000 
#
# Total GULP energy -83630.940273 kJ/mol
# GULP energy per Si atom -5575.396018 kJ/mol
# Density = 2.524126 g / cm^3
# Si number density = 25.298838 Si / 1000 Ang^3
#
#
#
# Elastic Constant Matrix: (Units=GPa)
#
#
# Indices 1 2 3 4 5 6 
#
# 1 55.8488 11.6796 23.3243 0.0000 5.1337 0.0000
# 2 11.6796 67.3220 -3.3180 0.0000 -2.1700 0.0000
# 3 23.3243 -3.3180 66.7858 0.0000 3.1337 0.0000
# 4 0.0000 0.0000 0.0000 27.6383 0.0000 -14.4615
# 5 5.1337 -2.1700 3.1337 0.0000 35.8945 0.0000
# 6 0.0000 0.0000 0.0000 -14.4615 0.0000 35.7675
#
#
#
# Elastic Compliance Matrix: (Units=1/GPa)
#
#
# Indices 1 2 3 4 5 6 
#
# 1 0.022371 -0.004360 -0.007899 0.000000 -0.002774 0.000000
# 2 -0.004360 0.015765 0.002241 0.000000 0.001381 0.000000
# 3 -0.007899 0.002241 0.017857 0.000000 -0.000294 0.000000
# 4 0.000000 0.000000 0.000000 0.045890 0.000000 0.018554
# 5 -0.002774 0.001381 -0.000294 0.000000 0.028365 0.000000
# 6 0.000000 0.000000 0.000000 0.018554 0.000000 0.035460
#
#
# Mechanical properties :
#
#
# Convention : Reuss Voigt Hill
#
# Bulk Modulus (GPa) = 27.81072 28.14760 27.97916
# Shear Modulus (GPa) = 25.28682 30.41145 27.84913
#
# Velocity S-wave (km/s) = 3.16496 3.47088 3.32144
# Velocity P-wave (km/s) = 4.93687 5.21659 5.07866
#
# Compressibility (1/GPa) = 0.03595736
#
# Stress axis : x y z
#
# Youngs Moduli (GPa) = 44.70018 63.43027 55.99988
#
# Poissons Ratio (x) = 0.27655 0.44237
# Poissons Ratio (y) = 0.19489 -0.12550
# Poissons Ratio (z) = 0.35311 -0.14215
#
# Static dielectric constant tensor:
#      x y z
#    x 2.034020 0.000000 0.045040 
#    y 0.000000 2.241610 0.000000 
#    z 0.045040 0.000000 1.972820 
# 
# From -- ./inp_files/46512.got.cif
#   From: 2010.05.17/outbox.cif.g08.bks.cpg/sg5_24_cif.got.tgz:46512.got - 2010.06.03 18:56:24.
