data_PCOD9125336
_publ_section_title
;
Structure prediction by ZEFSAII (Michael W. Deem and Ramdas Pophale) SiO2 
 PCOD9125336
Probable space group: C 2
;
_chemical_formula_sum "Si O2"
_cell_formula_units_Z 26
_cell_length_a 7.960688
_cell_length_b 9.261532
_cell_length_c 15.910592
_cell_angle_alpha 90.000000
_cell_angle_beta 60.928982
_cell_angle_gamma 90.000000
_cell_volume 1025.274622
_symmetry_space_group_name_H-M "C 2"
_symmetry_group_IT_number 5
_symmetry_cell_setting 'monoclinic'
loop_
_space_group_symop_operation_xyz
x,y,z
-x,y,-z
1/2+x,1/2+y,z
1/2-x,1/2+y,-z
loop_
_atom_site_type_symbol
_atom_site_label
_atom_site_fract_x
_atom_site_fract_y
_atom_site_fract_z
Si Si1 0.294458 0.755330 0.231652
Si Si2 0.209122 0.276165 0.956291
Si Si3 0.243548 0.744258 0.875462
Si Si4 0.729313 0.756306 0.442109
Si Si5 0.782910 0.420159 0.392047
Si Si6 0.500000 0.061585 0.000000
Si Si7 0.236681 0.428816 0.279751
O O1 0.215002 0.766001 0.156221
O O2 0.528972 0.752218 0.170774
O O3 0.218329 0.874128 0.315038
O O4 0.251337 0.599254 0.281465
O O5 0.156739 0.438311 0.996852
O O6 0.330812 0.222987 0.007806
O O7 0.000000 0.198401 0.000000
O O8 0.131480 0.599823 0.878836
O O9 0.180393 0.870658 0.829154
O O10 0.500000 0.781742 0.500000
O O11 0.756524 0.586545 0.422231
O O12 0.799085 0.820692 0.513455
O O13 0.810846 0.843568 0.342661
O O14 0.011209 0.392345 0.331811
#
# Coordination Sequence:
#
# PCOD9125336 Si02
#       7
#     4   4   4   4   4   2   4
#     4  10  21  41  60  88 124 156 200 249 296 352
#     4   8  20  37  55  79 117 155 195 243 287 342
#     4  10  22  38  59  84 121 160 201 247 292 349
#     4  10  22  41  63  90 120 153 196 242 296 359
#     4  10  22  40  64  88 123 153 194 248 294 356
#     4  10  22  38  58  82 120 158 206 244 296 342
#     4  10  23  39  59  91 120 155 201 244 295 358
#
# _framework density 25.359058000000001
#
# number of rings (size 3 to 8) (size 9 to 14) (size 15 to 20)
#    0.462    1.846    0.000    0.923    4.308    2.462 
#    4.154    0.000    0.000    0.000    0.000    0.000 
#    0.000    0.000    0.000    0.000    0.000    0.000 
#
# Total GULP energy -72481.868693 kJ/mol
# GULP energy per Si atom -5575.528361 kJ/mol
# Density = 2.530134 g / cm^3
# Si number density = 25.359058 Si / 1000 Ang^3
#
#
#
# Elastic Constant Matrix: (Units=GPa)
#
#
# Indices 1 2 3 4 5 6 
#
# 1 113.9313 -2.5624 41.3288 0.0000 11.3158 0.0000
# 2 -2.5624 121.5740 70.2936 0.0000 26.4365 0.0000
# 3 41.3288 70.2936 187.7247 0.0000 37.7730 0.0000
# 4 0.0000 0.0000 0.0000 58.4691 0.0000 -4.9605
# 5 11.3158 26.4365 37.7730 0.0000 32.7868 0.0000
# 6 0.0000 0.0000 0.0000 -4.9605 0.0000 20.9072
#
#
#
# Elastic Compliance Matrix: (Units=1/GPa)
#
#
# Indices 1 2 3 4 5 6 
#
# 1 0.009979 0.002180 -0.002560 0.000000 -0.002253 0.000000
# 2 0.002180 0.011681 -0.003654 0.000000 -0.005960 0.000000
# 3 -0.002560 -0.003654 0.008446 0.000000 -0.005901 0.000000
# 4 0.000000 0.000000 0.000000 0.017454 0.000000 0.004141
# 5 -0.002253 -0.005960 -0.005901 0.000000 0.042881 0.000000
# 6 0.000000 0.000000 0.000000 0.004141 0.000000 0.048813
#
#
# Mechanical properties :
#
#
# Convention : Reuss Voigt Hill
#
# Bulk Modulus (GPa) = 45.37790 71.26112 58.31951
# Shear Modulus (GPa) = 32.32725 43.37728 37.85226
#
# Velocity S-wave (km/s) = 3.57428 4.14034 3.86768
# Velocity P-wave (km/s) = 5.91329 7.14271 6.55688
#
# Compressibility (1/GPa) = 0.02203716
#
# Stress axis : x y z
#
# Youngs Moduli (GPa) = 100.21388 85.61268 118.39572
#
# Poissons Ratio (x) = -0.18667 0.30310
# Poissons Ratio (y) = -0.21850 0.43267
# Poissons Ratio (z) = 0.25655 0.31287
#
# Static dielectric constant tensor:
#      x y z
#    x 2.049950 0.000000 0.007340 
#    y 0.000000 1.995660 0.000000 
#    z 0.007340 0.000000 2.100010 
# 
# From -- ./inp_files/52207.got.cif
#   From: 2010.05.17/outbox.cif.g08.bks.cpg/sg5_27_cif.got.tgz:52207.got - 2010.06.03 18:56:24.
