data_PCOD9125064
_publ_section_title
;
Structure prediction by ZEFSAII (Michael W. Deem and Ramdas Pophale) SiO2 
 PCOD9125064
Probable space group: C 2
;
_chemical_formula_sum "Si O2"
_cell_formula_units_Z 22
_cell_length_a 11.261797
_cell_length_b 14.671077
_cell_length_c 7.636732
_cell_angle_alpha 90.000000
_cell_angle_beta 68.363687
_cell_angle_gamma 90.000000
_cell_volume 1172.861473
_symmetry_space_group_name_H-M "C 2"
_symmetry_group_IT_number 5
_symmetry_cell_setting 'monoclinic'
loop_
_space_group_symop_operation_xyz
x,y,z
-x,y,-z
1/2+x,1/2+y,z
1/2-x,1/2+y,-z
loop_
_atom_site_type_symbol
_atom_site_label
_atom_site_fract_x
_atom_site_fract_y
_atom_site_fract_z
Si Si1 0.858043 0.331740 0.614895
Si Si2 0.385496 0.259558 0.746613
Si Si3 0.721298 0.980923 0.630189
Si Si4 0.000000 0.927429 0.500000
Si Si5 0.142021 0.687816 0.636218
Si Si6 0.140336 0.354328 0.987978
O O1 0.829501 0.409370 0.486584
O O2 0.748606 0.254510 0.660585
O O3 0.000000 0.293486 0.500000
O O4 0.138708 0.375344 0.193969
O O5 0.452382 0.358131 0.676931
O O6 0.497135 0.204725 0.780626
O O7 0.361130 0.216400 0.568058
O O8 0.248853 0.277305 0.904490
O O9 0.874376 0.982694 0.523591
O O10 0.671610 0.082274 0.638289
O O11 0.681698 0.937014 0.838227
O O12 0.000000 0.324749 0.000000
#
# Coordination Sequence:
#
# PCOD9125064 Si02
#       6
#     4   4   4   2   4   4
#     4  12  23  41  65  88 124 173 207 255 328 362
#     4   9  18  40  62  89 124 164 205 257 308 366
#     4  11  22  42  64  93 126 163 212 261 304 375
#     4   8  16  38  62  78 128 160 190 258 306 350
#     4  10  21  39  66  92 125 166 207 259 313 367
#     4  11  22  41  65  87 127 167 211 257 310 373
#
# _framework density 18.757543999999999
#
# number of rings (size 3 to 8) (size 9 to 14) (size 15 to 20)
#    0.000    1.818    7.273    0.000    3.818    0.727 
#    6.545    0.000    0.000    0.000    0.000    0.000 
#    0.000    0.000    0.000    0.000    0.000    0.000 
#
# Total GULP energy -61314.261014 kJ/mol
# GULP energy per Si atom -5574.023729 kJ/mol
# Density = 1.871485 g / cm^3
# Si number density = 18.757544 Si / 1000 Ang^3
#
#
#
# Elastic Constant Matrix: (Units=GPa)
#
#
# Indices 1 2 3 4 5 6 
#
# 1 146.9870 52.8207 37.4903 0.0000 -32.8172 0.0000
# 2 52.8207 103.9630 18.0785 0.0000 -7.9949 0.0000
# 3 37.4903 18.0785 87.6666 0.0000 4.1122 0.0000
# 4 0.0000 0.0000 0.0000 7.9609 0.0000 -8.4425
# 5 -32.8172 -7.9949 4.1122 0.0000 44.8642 0.0000
# 6 0.0000 0.0000 0.0000 -8.4425 0.0000 26.6538
#
#
#
# Elastic Compliance Matrix: (Units=1/GPa)
#
#
# Indices 1 2 3 4 5 6 
#
# 1 0.011193 -0.004347 -0.004256 0.000000 0.007803 0.000000
# 2 -0.004347 0.011842 -0.000535 0.000000 -0.001020 0.000000
# 3 -0.004256 -0.000535 0.013546 0.000000 -0.004450 0.000000
# 4 0.000000 0.000000 0.000000 0.189153 0.000000 0.059914
# 5 0.007803 -0.001020 -0.004450 0.000000 0.028223 0.000000
# 6 0.000000 0.000000 0.000000 0.059914 0.000000 0.056496
#
#
# Mechanical properties :
#
#
# Convention : Reuss Voigt Hill
#
# Bulk Modulus (GPa) = 54.63139 61.71062 58.17100
# Shear Modulus (GPa) = 14.93287 31.24424 23.08855
#
# Velocity S-wave (km/s) = 2.82458 4.08571 3.51222
# Velocity P-wave (km/s) = 6.31078 7.43155 6.89398
#
# Compressibility (1/GPa) = 0.01830450
#
# Stress axis : x y z
#
# Youngs Moduli (GPa) = 89.34083 84.44610 73.82144
#
# Poissons Ratio (x) = 0.36706 0.31421
# Poissons Ratio (y) = 0.38834 0.03952
# Poissons Ratio (z) = 0.38026 0.04521
#
# Static dielectric constant tensor:
#      x y z
#    x 1.689420 0.000000 -0.024380 
#    y 0.000000 1.616360 0.000000 
#    z -0.024380 0.000000 1.689840 
# 
# From -- ./inp_files/19653.got.cif
#   From: 2010.05.17/outbox.cif.g08.bks.cpg/sg5_10_cif.got.tgz:19653.got - 2010.06.03 18:56:24.
