data_PCOD9125125
_publ_section_title
;
Structure prediction by ZEFSAII (Michael W. Deem and Ramdas Pophale) SiO2 
 PCOD9125125
Probable space group: C 2
;
_chemical_formula_sum "Si O2"
_cell_formula_units_Z 28
_cell_length_a 18.866943
_cell_length_b 5.487889
_cell_length_c 10.965373
_cell_angle_alpha 90.000000
_cell_angle_beta 106.806807
_cell_angle_gamma 90.000000
_cell_volume 1086.854952
_symmetry_space_group_name_H-M "C 2"
_symmetry_group_IT_number 5
_symmetry_cell_setting 'monoclinic'
loop_
_space_group_symop_operation_xyz
x,y,z
-x,y,-z
1/2+x,1/2+y,z
1/2-x,1/2+y,-z
loop_
_atom_site_type_symbol
_atom_site_label
_atom_site_fract_x
_atom_site_fract_y
_atom_site_fract_z
Si Si1 0.333902 0.575170 0.115581
Si Si2 0.665328 0.080210 0.982100
Si Si3 0.048595 0.191643 0.423097
Si Si4 0.816179 0.540945 0.539333
Si Si5 0.392019 0.244295 0.796941
Si Si6 0.667796 0.418506 0.610222
Si Si7 0.469617 0.745614 0.848035
O O1 0.370628 0.322710 0.091759
O O2 0.323996 0.539676 0.254662
O O3 0.367231 0.831900 0.089257
O O4 0.253866 0.573814 0.006343
O O5 0.655373 0.115660 0.120718
O O6 0.123722 0.328786 0.421051
O O7 0.085272 0.974293 0.520236
O O8 0.004286 0.155602 0.275121
O O9 0.000000 0.329715 0.500000
O O10 0.850821 0.738852 0.648503
O O11 0.736396 0.499719 0.557961
O O12 0.818984 0.628831 0.400525
O O13 0.408781 0.524588 0.834043
O O14 0.456144 0.037393 0.821022
O O15 0.500000 0.738259 0.000000
#
# Coordination Sequence:
#
# PCOD9125125 Si02
#       7
#     4   4   4   4   4   4   4
#     4  10  23  37  63  99 148 178 233 293 371 432
#     4  10  21  40  60 101 141 187 222 297 368 433
#     4  11  27  47  71 107 154 193 251 319 387 452
#     4  11  24  43  73 109 139 196 251 311 372 460
#     4  11  22  44  74 100 140 185 249 308 363 447
#     4  12  23  44  73 108 142 198 248 309 378 462
#     4  11  25  47  71 102 136 198 257 304 369 455
#
# _framework density 25.762409000000002
#
# number of rings (size 3 to 8) (size 9 to 14) (size 15 to 20)
#    0.000    1.143    4.286    1.286    2.000    2.857 
#    2.571    0.000    0.000    0.000    0.000    0.000 
#    0.000    0.000    0.000    0.000    0.000    0.000 
#
# Total GULP energy -77977.747806 kJ/mol
# GULP energy per Si atom -5569.839129 kJ/mol
# Density = 2.570377 g / cm^3
# Si number density = 25.762409 Si / 1000 Ang^3
#
#
#
# Elastic Constant Matrix: (Units=GPa)
#
#
# Indices 1 2 3 4 5 6 
#
# 1 58.9721 11.2853 43.8683 0.0000 -7.7695 0.0000
# 2 11.2853 135.3190 45.4428 0.0000 -3.0606 0.0000
# 3 43.8683 45.4428 129.2983 0.0000 -3.3018 0.0000
# 4 0.0000 0.0000 0.0000 24.6066 0.0000 1.6100
# 5 -7.7695 -3.0606 -3.3018 0.0000 37.6531 0.0000
# 6 0.0000 0.0000 0.0000 1.6100 0.0000 27.0410
#
#
#
# Elastic Compliance Matrix: (Units=1/GPa)
#
#
# Indices 1 2 3 4 5 6 
#
# 1 0.023395 0.000877 -0.008139 0.000000 0.004185 0.000000
# 2 0.000877 0.008418 -0.003241 0.000000 0.000581 0.000000
# 3 -0.008139 -0.003241 0.011611 0.000000 -0.000925 0.000000
# 4 0.000000 0.000000 0.000000 0.040798 0.000000 -0.002429
# 5 0.004185 0.000581 -0.000925 0.000000 0.027388 0.000000
# 6 0.000000 0.000000 0.000000 -0.002429 0.000000 0.037126
#
#
# Mechanical properties :
#
#
# Convention : Reuss Voigt Hill
#
# Bulk Modulus (GPa) = 44.60756 58.30911 51.45833
# Shear Modulus (GPa) = 28.21421 32.72632 30.47027
#
# Velocity S-wave (km/s) = 3.31293 3.56801 3.44283
# Velocity P-wave (km/s) = 5.65566 6.29737 5.98512
#
# Compressibility (1/GPa) = 0.02241772
#
# Stress axis : x y z
#
# Youngs Moduli (GPa) = 42.74418 118.78631 86.12577
#
# Poissons Ratio (x) = -0.10414 0.70095
# Poissons Ratio (y) = -0.03747 0.27916
# Poissons Ratio (z) = 0.34788 0.38503
#
# Static dielectric constant tensor:
#      x y z
#    x 2.198910 0.000000 0.078850 
#    y 0.000000 2.217890 0.000000 
#    z 0.078850 0.000000 2.057280 
# 
# From -- ./inp_files/45701.got.cif
#   From: 2010.05.17/outbox.cif.g08.bks.cpg/sg5_23_cif.got.tgz:45701.got - 2010.06.03 18:56:24.
