data_PCOD9125931
_publ_section_title
;
Structure prediction by ZEFSAII (Michael W. Deem and Ramdas Pophale) SiO2 
 PCOD9125931
Probable space group: C 2
;
_chemical_formula_sum "Si O2"
_cell_formula_units_Z 32
_cell_length_a 13.386131
_cell_length_b 5.852449
_cell_length_c 16.160074
_cell_angle_alpha 90.000000
_cell_angle_beta 76.647209
_cell_angle_gamma 90.000000
_cell_volume 1231.782245
_symmetry_space_group_name_H-M "C 2"
_symmetry_group_IT_number 5
_symmetry_cell_setting 'monoclinic'
loop_
_space_group_symop_operation_xyz
x,y,z
-x,y,-z
1/2+x,1/2+y,z
1/2-x,1/2+y,-z
loop_
_atom_site_type_symbol
_atom_site_label
_atom_site_fract_x
_atom_site_fract_y
_atom_site_fract_z
Si Si1 0.411705 0.262010 0.949619
Si Si2 0.850360 0.165611 0.455214
Si Si3 0.987832 0.771215 0.405675
Si Si4 0.242119 0.285814 0.223575
Si Si5 0.370453 0.749072 0.929771
Si Si6 0.288155 0.475064 0.631396
Si Si7 0.018913 0.345062 0.325048
Si Si8 0.956842 0.030929 0.186833
O O1 0.351323 0.502259 0.977841
O O2 0.467244 0.318930 0.851000
O O3 0.362545 0.011013 0.960897
O O4 0.500000 0.256913 0.000000
O O5 0.962746 0.275886 0.421004
O O6 0.882650 0.909513 0.428261
O O7 0.807020 0.162747 0.555501
O O8 0.775962 0.280788 0.403417
O O9 0.000000 0.698520 0.500000
O O10 0.976259 0.599622 0.331769
O O11 0.197431 0.235042 0.141160
O O12 0.140494 0.373121 0.291904
O O13 0.340209 0.450255 0.201167
O O14 0.265427 0.063258 0.274998
O O15 0.493533 0.715927 0.886651
O O16 0.403072 0.394083 0.631258
O O17 0.979164 0.159356 0.267908
#
# Coordination Sequence:
#
# PCOD9125931 Si02
#       8
#     4   4   4   4   4   4   4   4
#     4  10  21  49  83 114 157 203 244 309 387 460
#     4  11  27  47  65 102 135 193 263 328 388 460
#     4  10  25  47  66  96 139 191 263 334 387 456
#     4  11  24  47  72 105 151 199 247 318 382 454
#     4   9  23  46  75 115 155 194 256 305 374 466
#     4  11  27  46  73  98 140 197 265 323 401 449
#     4  11  25  44  70  98 146 187 248 318 385 451
#     4   9  25  45  72 112 145 200 248 302 385 466
#
# _framework density 25.978617
#
# number of rings (size 3 to 8) (size 9 to 14) (size 15 to 20)
#    0.750    1.000    1.250    0.375    8.750    6.000 
#    2.250    1.250    0.000    0.000    0.000    0.000 
#    0.000    0.000    0.000    0.000    0.000    0.000 
#
# Total GULP energy -89189.230376 kJ/mol
# GULP energy per Si atom -5574.326898 kJ/mol
# Density = 2.591949 g / cm^3
# Si number density = 25.978617 Si / 1000 Ang^3
#
#
#
# Elastic Constant Matrix: (Units=GPa)
#
#
# Indices 1 2 3 4 5 6 
#
# 1 185.9497 75.4065 50.0062 0.0000 -4.3263 0.0000
# 2 75.4065 143.9463 57.1008 0.0000 19.3595 0.0000
# 3 50.0062 57.1008 81.2780 0.0000 11.7189 0.0000
# 4 0.0000 0.0000 0.0000 -18.8688 0.0000 55.3037
# 5 -4.3263 19.3595 11.7189 0.0000 47.6202 0.0000
# 6 0.0000 0.0000 0.0000 55.3037 0.0000 -3.4492
#
#
#
# Elastic Compliance Matrix: (Units=1/GPa)
#
#
# Indices 1 2 3 4 5 6 
#
# 1 0.007466 -0.003179 -0.002741 0.000000 0.002645 0.000000
# 2 -0.003179 0.011242 -0.005434 0.000000 -0.003522 0.000000
# 3 -0.002741 -0.005434 0.018169 0.000000 -0.002511 0.000000
# 4 0.000000 0.000000 0.000000 0.001152 0.000000 0.018475
# 5 0.002645 -0.003522 -0.002511 0.000000 0.023290 0.000000
# 6 0.000000 0.000000 0.000000 0.018475 0.000000 0.006303
#
#
# Mechanical properties :
#
#
# Convention : Reuss Voigt Hill
#
# Bulk Modulus (GPa) = 70.57986 86.24456 78.41221
# Shear Modulus (GPa) = 52.60183 20.30446 36.45315
#
# Velocity S-wave (km/s) = 4.50467 2.79871 3.74999
# Velocity P-wave (km/s) = 7.36774 6.61166 6.99992
#
# Compressibility (1/GPa) = 0.01416835
#
# Stress axis : x y z
#
# Youngs Moduli (GPa) = 133.94393 88.95431 55.03744
#
# Poissons Ratio (x) = 0.28282 0.15086
# Poissons Ratio (y) = 0.42586 0.29906
# Poissons Ratio (z) = 0.36715 0.48336
#
# Static dielectric constant tensor:
#      x y z
#    x 2.007400 0.000000 -0.029350 
#    y 0.000000 2.356080 0.000000 
#    z -0.029350 0.000000 2.122480 
# 
# From -- ./inp_files/65555.got.cif
#   From: 2010.05.17/outbox.cif.g08.bks.cpg/sg5_33_cif.got.tgz:65555.got - 2010.06.03 18:56:24.
