data_PCOD9125134
_publ_section_title
;
Structure prediction by ZEFSAII (Michael W. Deem and Ramdas Pophale) SiO2 
 PCOD9125134
Probable space group: C 2
;
_chemical_formula_sum "Si O2"
_cell_formula_units_Z 28
_cell_length_a 9.339010
_cell_length_b 5.229695
_cell_length_c 26.319981
_cell_angle_alpha 90.000000
_cell_angle_beta 119.675834
_cell_angle_gamma 90.000000
_cell_volume 1116.870410
_symmetry_space_group_name_H-M "C 2"
_symmetry_group_IT_number 5
_symmetry_cell_setting 'monoclinic'
loop_
_space_group_symop_operation_xyz
x,y,z
-x,y,-z
1/2+x,1/2+y,z
1/2-x,1/2+y,-z
loop_
_atom_site_type_symbol
_atom_site_label
_atom_site_fract_x
_atom_site_fract_y
_atom_site_fract_z
Si Si1 0.502293 0.928050 0.918188
Si Si2 0.673218 0.294373 0.051472
Si Si3 0.804798 0.468978 0.478568
Si Si4 0.432471 0.187642 0.806661
Si Si5 0.894491 0.844891 0.658731
Si Si6 0.756395 0.057261 0.831982
Si Si7 0.281938 0.840760 0.700433
O O1 0.686102 0.853317 0.963963
O O2 0.422780 0.701991 0.873214
O O3 0.380416 0.011389 0.941205
O O4 0.490340 0.158270 0.875365
O O5 0.758625 0.396002 0.118278
O O6 0.500000 0.405190 0.000000
O O7 0.761628 0.233828 0.508856
O O8 0.709049 0.409784 0.409772
O O9 0.000000 0.484794 0.500000
O O10 0.598487 0.243111 0.804337
O O11 0.282398 0.384239 0.787232
O O12 0.365526 0.933866 0.767756
O O13 0.858376 0.082027 0.690690
O O14 0.086230 0.821347 0.676118
O O15 0.827300 0.580651 0.671455
#
# Coordination Sequence:
#
# PCOD9125134 Si02
#       7
#     4   4   4   4   4   4   4
#     4  10  22  39  61  84 119 154 209 257 310 403
#     4  10  23  38  57  90 114 154 200 257 326 379
#     4  12  24  44  72 100 140 190 233 284 343 404
#     4  10  23  38  62  89 119 168 211 260 329 388
#     4  12  26  45  68 107 141 180 237 286 341 406
#     4  10  21  40  61  85 119 155 214 256 315 402
#     4  12  26  44  70 101 143 181 227 292 345 402
#
# _framework density 25.070052
#
# number of rings (size 3 to 8) (size 9 to 14) (size 15 to 20)
#    0.000    1.143    0.000    5.571    6.000    0.571 
#    0.000    0.000    0.000    0.000    0.000    0.000 
#    0.000    0.000    0.000    0.000    0.000    0.000 
#
# Total GULP energy -78231.899810 kJ/mol
# GULP energy per Si atom -5587.992844 kJ/mol
# Density = 2.501299 g / cm^3
# Si number density = 25.070052 Si / 1000 Ang^3
#
#
#
# Elastic Constant Matrix: (Units=GPa)
#
#
# Indices 1 2 3 4 5 6 
#
# 1 193.8687 43.2987 26.5522 0.0000 20.3788 0.0000
# 2 43.2987 95.2839 -12.3198 0.0000 -12.8020 0.0000
# 3 26.5522 -12.3198 87.5938 0.0000 1.4611 0.0000
# 4 0.0000 0.0000 0.0000 37.6370 0.0000 -4.5462
# 5 20.3788 -12.8020 1.4611 0.0000 46.5015 0.0000
# 6 0.0000 0.0000 0.0000 -4.5462 0.0000 40.0375
#
#
#
# Elastic Compliance Matrix: (Units=1/GPa)
#
#
# Indices 1 2 3 4 5 6 
#
# 1 0.006814 -0.003964 -0.002556 0.000000 -0.003997 0.000000
# 2 -0.003964 0.013400 0.002997 0.000000 0.005332 0.000000
# 3 -0.002556 0.002997 0.012587 0.000000 0.001550 0.000000
# 4 0.000000 0.000000 0.000000 0.026939 0.000000 0.003059
# 5 -0.003997 0.005332 0.001550 0.000000 0.024675 0.000000
# 6 0.000000 0.000000 0.000000 0.003059 0.000000 0.025324
#
#
# Mechanical properties :
#
#
# Convention : Reuss Voigt Hill
#
# Bulk Modulus (GPa) = 38.82716 54.64540 46.73628
# Shear Modulus (GPa) = 39.88208 46.11623 42.99916
#
# Velocity S-wave (km/s) = 3.99284 4.29359 4.14594
# Velocity P-wave (km/s) = 6.06450 6.81353 6.44990
#
# Compressibility (1/GPa) = 0.02575516
#
# Stress axis : x y z
#
# Youngs Moduli (GPa) = 146.76436 74.62648 79.44765
#
# Poissons Ratio (x) = 0.29580 0.20309
# Poissons Ratio (y) = 0.58174 -0.23813
# Poissons Ratio (z) = 0.37516 -0.22368
#
# Static dielectric constant tensor:
#      x y z
#    x 2.070090 0.000000 -0.052390 
#    y 0.000000 2.068130 0.000000 
#    z -0.052390 0.000000 2.010400 
# 
# From -- ./inp_files/71498.got.cif
#   From: 2010.05.17/outbox.cif.g08.bks.cpg/sg5_36_cif.got.tgz:71498.got - 2010.06.03 18:56:24.
