data_PCOD9125402
_publ_section_title
;
Structure prediction by ZEFSAII (Michael W. Deem and Ramdas Pophale) SiO2 
 PCOD9125402
Probable space group: C 2
;
_chemical_formula_sum "Si O2"
_cell_formula_units_Z 28
_cell_length_a 11.929661
_cell_length_b 12.707163
_cell_length_c 9.008161
_cell_angle_alpha 90.000000
_cell_angle_beta 53.441093
_cell_angle_gamma 90.000000
_cell_volume 1096.884280
_symmetry_space_group_name_H-M "C 2"
_symmetry_group_IT_number 5
_symmetry_cell_setting 'monoclinic'
loop_
_space_group_symop_operation_xyz
x,y,z
-x,y,-z
1/2+x,1/2+y,z
1/2-x,1/2+y,-z
loop_
_atom_site_type_symbol
_atom_site_label
_atom_site_fract_x
_atom_site_fract_y
_atom_site_fract_z
Si Si1 0.335593 0.886470 0.638215
Si Si2 0.239613 0.505636 0.531168
Si Si3 0.358293 0.252518 0.768322
Si Si4 0.661586 0.483079 0.220533
Si Si5 0.096791 0.216126 0.167110
Si Si6 0.955922 0.558381 0.874181
Si Si7 0.776164 0.237484 0.425947
O O1 0.500000 0.909035 0.500000
O O2 0.336909 0.796641 0.762111
O O3 0.267240 0.835323 0.544062
O O4 0.256355 0.994686 0.657051
O O5 0.326301 0.471559 0.610229
O O6 0.258947 0.631601 0.530365
O O7 0.079225 0.488083 0.712385
O O8 0.401140 0.371156 0.781386
O O9 0.436979 0.157007 0.782431
O O10 0.339827 0.244201 0.607692
O O11 0.200462 0.231674 0.950334
O O12 0.595918 0.595692 0.229337
O O13 0.813937 0.494137 0.019241
O O14 0.938446 0.241396 0.251555
O O15 0.000000 0.600157 0.000000
#
# Coordination Sequence:
#
# PCOD9125402 Si02
#       7
#     4   4   4   4   4   4   4
#     4  10  22  37  62  89 122 166 201 251 307 357
#     4  11  22  40  62  94 128 160 210 252 314 366
#     4  11  23  41  67  91 120 163 214 255 305 367
#     4  10  21  41  65  88 125 170 200 254 318 367
#     4  10  23  43  61  91 130 161 206 253 314 374
#     4   9  23  42  62  91 128 165 202 259 309 374
#     4  11  23  39  62  94 123 158 205 263 297 366
#
# _framework density 25.526848999999999
#
# number of rings (size 3 to 8) (size 9 to 14) (size 15 to 20)
#    0.000    1.714    2.857    0.429    6.000    2.286 
#    2.571    4.286    0.000    0.000    0.000    0.000 
#    0.000    0.000    0.000    0.000    0.000    0.000 
#
# Total GULP energy -78071.180644 kJ/mol
# GULP energy per Si atom -5576.512903 kJ/mol
# Density = 2.546875 g / cm^3
# Si number density = 25.526849 Si / 1000 Ang^3
#
#
#
# Elastic Constant Matrix: (Units=GPa)
#
#
# Indices 1 2 3 4 5 6 
#
# 1 90.8713 26.5142 26.9769 0.0000 22.8163 0.0000
# 2 26.5142 96.4200 8.5429 0.0000 22.9444 0.0000
# 3 26.9769 8.5429 51.5567 0.0000 12.2173 0.0000
# 4 0.0000 0.0000 0.0000 33.5613 0.0000 20.8891
# 5 22.8163 22.9444 12.2173 0.0000 52.3058 0.0000
# 6 0.0000 0.0000 0.0000 20.8891 0.0000 12.5413
#
#
#
# Elastic Compliance Matrix: (Units=1/GPa)
#
#
# Indices 1 2 3 4 5 6 
#
# 1 0.014566 -0.002552 -0.006308 0.000000 -0.003761 0.000000
# 2 -0.002552 0.012055 0.000346 0.000000 -0.004256 0.000000
# 3 -0.006308 0.000346 0.023314 0.000000 -0.002846 0.000000
# 4 0.000000 0.000000 0.000000 -0.811732 0.000000 1.352035
# 5 -0.003761 -0.004256 -0.002846 0.000000 0.023291 0.000000
# 6 0.000000 0.000000 0.000000 1.352035 0.000000 -2.172237
#
#
# Mechanical properties :
#
#
# Convention : Reuss Voigt Hill
#
# Bulk Modulus (GPa) = 30.38722 40.32400 35.35561
# Shear Modulus (GPa) = -1.73446 31.46926 14.86740
#
# Velocity S-wave (km/s) = -0.82519 3.51492 2.41596
# Velocity P-wave (km/s) = 3.31993 5.68365 4.65434
#
# Compressibility (1/GPa) = 0.03290858
#
# Stress axis : x y z
#
# Youngs Moduli (GPa) = 68.65324 82.95302 42.89352
#
# Poissons Ratio (x) = 0.21166 0.27055
# Poissons Ratio (y) = 0.17517 -0.01484
# Poissons Ratio (z) = 0.43303 -0.02871
#
# Static dielectric constant tensor:
#      x y z
#    x 2.021210 0.000000 -0.010080 
#    y 0.000000 2.115790 0.000000 
#    z -0.010080 0.000000 2.028870 
# 
# From -- ./inp_files/23773.got.cif
#   From: 2010.05.17/outbox.cif.g08.bks.cpg/sg5_12_cif.got.tgz:23773.got - 2010.06.03 18:56:24.
