data_PCOD9125175
_publ_section_title
;
Structure prediction by ZEFSAII (Michael W. Deem and Ramdas Pophale) SiO2 
 PCOD9125175
Probable space group: C 2
;
_chemical_formula_sum "Si O2"
_cell_formula_units_Z 28
_cell_length_a 13.570941
_cell_length_b 12.667168
_cell_length_c 9.684027
_cell_angle_alpha 90.000000
_cell_angle_beta 45.315527
_cell_angle_gamma 90.000000
_cell_volume 1183.611067
_symmetry_space_group_name_H-M "C 2"
_symmetry_group_IT_number 5
_symmetry_cell_setting 'monoclinic'
loop_
_space_group_symop_operation_xyz
x,y,z
-x,y,-z
1/2+x,1/2+y,z
1/2-x,1/2+y,-z
loop_
_atom_site_type_symbol
_atom_site_label
_atom_site_fract_x
_atom_site_fract_y
_atom_site_fract_z
Si Si1 0.424256 0.087790 0.894897
Si Si2 0.000000 0.778736 0.000000
Si Si3 0.843761 0.688681 0.703703
Si Si4 0.000000 0.417931 0.000000
Si Si5 0.793923 0.535123 0.516646
Si Si6 0.062175 0.116192 0.579414
Si Si7 0.796686 0.331481 0.676401
Si Si8 0.388820 0.781085 0.892410
O O1 0.424822 0.201515 0.965149
O O2 0.358159 0.100693 0.811031
O O3 0.584363 0.064844 0.707046
O O4 0.386228 0.998270 0.043081
O O5 0.131201 0.841378 0.817868
O O6 0.776097 0.631929 0.640114
O O7 0.000000 0.720114 0.500000
O O8 0.741459 0.772712 0.874752
O O9 0.010079 0.339890 0.858695
O O10 0.654607 0.531845 0.566684
O O11 0.847580 0.434215 0.546634
O O12 0.148992 0.221548 0.444027
O O13 0.000000 0.072005 0.500000
O O14 0.944263 0.165757 0.793701
O O15 0.844297 0.331825 0.789708
#
# Coordination Sequence:
#
# PCOD9125175 Si02
#       8
#     4   2   4   2   4   4   4   4
#     4  10  21  40  63  89 126 171 216 255 325 383
#     4  11  20  40  67  88 128 180 207 262 327 386
#     4  10  22  39  65  89 125 170 217 267 326 386
#     4  11  22  34  63  94 124 164 213 266 307 388
#     4  11  22  40  66  95 127 169 220 268 318 392
#     4  10  23  41  66  91 130 172 207 267 332 386
#     4  11  23  40  67  96 130 170 220 267 326 390
#     4  11  22  41  62  95 130 164 215 271 324 381
#
# _framework density 23.656420000000001
#
# number of rings (size 3 to 8) (size 9 to 14) (size 15 to 20)
#    0.000    1.429    2.857    2.571    0.000    5.143 
#    0.000    1.429    3.143    0.000    0.000    0.000 
#    0.000    0.000    0.000    0.000    0.000    0.000 
#
# Total GULP energy -78111.851022 kJ/mol
# GULP energy per Si atom -5579.417930 kJ/mol
# Density = 2.360258 g / cm^3
# Si number density = 23.656420 Si / 1000 Ang^3
#
#
#
# Elastic Constant Matrix: (Units=GPa)
#
#
# Indices 1 2 3 4 5 6 
#
# 1 112.2933 22.5633 36.3657 0.0000 19.9344 0.0000
# 2 22.5633 44.5428 24.2485 0.0000 15.4480 0.0000
# 3 36.3657 24.2485 112.3716 0.0000 10.4369 0.0000
# 4 0.0000 0.0000 0.0000 19.1899 0.0000 4.0762
# 5 19.9344 15.4480 10.4369 0.0000 44.0996 0.0000
# 6 0.0000 0.0000 0.0000 4.0762 0.0000 21.2831
#
#
#
# Elastic Compliance Matrix: (Units=1/GPa)
#
#
# Indices 1 2 3 4 5 6 
#
# 1 0.010926 -0.002989 -0.002586 0.000000 -0.003280 0.000000
# 2 -0.002989 0.029168 -0.004605 0.000000 -0.007777 0.000000
# 3 -0.002586 -0.004605 0.010707 0.000000 0.000248 0.000000
# 4 0.000000 0.000000 0.000000 0.054321 0.000000 -0.010404
# 5 -0.003280 -0.007777 0.000248 0.000000 0.026824 0.000000
# 6 0.000000 0.000000 0.000000 -0.010404 0.000000 0.048978
#
#
# Mechanical properties :
#
#
# Convention : Reuss Voigt Hill
#
# Bulk Modulus (GPa) = 32.85080 48.39584 40.62332
# Shear Modulus (GPa) = 23.64858 29.31653 26.48256
#
# Velocity S-wave (km/s) = 3.16518 3.52414 3.34947
# Velocity P-wave (km/s) = 5.22251 6.08782 5.67169
#
# Compressibility (1/GPa) = 0.03044066
#
# Stress axis : x y z
#
# Youngs Moduli (GPa) = 91.52850 34.28404 93.40099
#
# Poissons Ratio (x) = 0.10248 0.24155
# Poissons Ratio (y) = 0.27359 0.43007
# Poissons Ratio (z) = 0.23670 0.15786
#
# Static dielectric constant tensor:
#      x y z
#    x 1.884380 0.000000 -0.013740 
#    y 0.000000 1.918940 0.000000 
#    z -0.013740 0.000000 1.925470 
# 
# From -- ./inp_files/24584.got.cif
#   From: 2010.05.17/outbox.cif.g08.bks.cpg/sg5_13_cif.got.tgz:24584.got - 2010.06.03 18:56:24.
