data_PCOD9125153
_publ_section_title
;
Structure prediction by ZEFSAII (Michael W. Deem and Ramdas Pophale) SiO2 
 PCOD9125153
Probable space group: C 2
;
_chemical_formula_sum "Si O2"
_cell_formula_units_Z 20
_cell_length_a 20.817513
_cell_length_b 10.047108
_cell_length_c 5.174875
_cell_angle_alpha 90.000000
_cell_angle_beta 105.145485
_cell_angle_gamma 90.000000
_cell_volume 1044.760087
_symmetry_space_group_name_H-M "C 2"
_symmetry_group_IT_number 5
_symmetry_cell_setting 'monoclinic'
loop_
_space_group_symop_operation_xyz
x,y,z
-x,y,-z
1/2+x,1/2+y,z
1/2-x,1/2+y,-z
loop_
_atom_site_type_symbol
_atom_site_label
_atom_site_fract_x
_atom_site_fract_y
_atom_site_fract_z
Si Si1 0.422636 0.232150 0.941566
Si Si2 0.293815 0.898782 0.241653
Si Si3 0.577166 0.056374 0.554399
Si Si4 0.333163 0.470396 0.633035
Si Si5 0.195823 0.097518 0.905174
O O1 0.589330 0.170694 0.786520
O O2 0.412960 0.117594 0.718316
O O3 0.376688 0.352453 0.798574
O O4 0.500000 0.273260 0.000000
O O5 0.243785 0.920901 0.430515
O O6 0.287689 0.747144 0.149942
O O7 0.369611 0.940100 0.357977
O O8 0.261248 0.006122 0.011913
O O9 0.500000 0.015833 0.500000
O O10 0.346502 0.524996 0.363139
O O11 0.337700 0.588341 0.848804
#
# Coordination Sequence:
#
# PCOD9125153 Si02
#       5
#     4   4   4   4   4
#     4  10  21  40  62  88 117 154 201 243 286 350
#     4  10  24  37  61  83 125 150 197 244 284 356
#     4  10  22  37  62  88 117 158 196 239 292 347
#     4  10  23  35  59  86 115 149 199 235 296 334
#     4  10  24  35  58  88 116 155 195 237 300 335
#
# _framework density 19.143151
#
# number of rings (size 3 to 8) (size 9 to 14) (size 15 to 20)
#    1.200    0.800    0.000    2.400   11.200    0.000 
#    0.000    2.000    0.000    0.000    0.000    0.000 
#    0.000    0.000    0.000    0.000    0.000    0.000 
#
# Total GULP energy -55694.227418 kJ/mol
# GULP energy per Si atom -5569.422742 kJ/mol
# Density = 1.909958 g / cm^3
# Si number density = 19.143151 Si / 1000 Ang^3
#
#
#
# Elastic Constant Matrix: (Units=GPa)
#
#
# Indices 1 2 3 4 5 6 
#
# 1 39.2470 27.6015 22.3447 0.0000 15.8740 0.0000
# 2 27.6015 80.5280 2.2660 0.0000 24.7458 0.0000
# 3 22.3447 2.2660 68.1792 0.0000 18.9588 0.0000
# 4 0.0000 0.0000 0.0000 5.9094 0.0000 1.9008
# 5 15.8740 24.7458 18.9588 0.0000 17.6542 0.0000
# 6 0.0000 0.0000 0.0000 1.9008 0.0000 16.6833
#
#
#
# Elastic Compliance Matrix: (Units=1/GPa)
#
#
# Indices 1 2 3 4 5 6 
#
# 1 0.044535 -0.010699 -0.010372 0.000000 -0.013909 0.000000
# 2 -0.010699 0.032434 0.017673 0.000000 -0.054821 0.000000
# 3 -0.010372 0.017673 0.031045 0.000000 -0.048784 0.000000
# 4 0.000000 0.000000 0.000000 0.175660 0.000000 -0.020014
# 5 -0.013909 -0.054821 -0.048784 0.000000 0.198382 0.000000
# 6 0.000000 0.000000 0.000000 -0.020014 0.000000 0.062221
#
#
# Mechanical properties :
#
#
# Convention : Reuss Voigt Hill
#
# Bulk Modulus (GPa) = 9.87974 32.48652 21.18313
# Shear Modulus (GPa) = 8.54976 17.09884 12.82430
#
# Velocity S-wave (km/s) = 2.11564 2.99190 2.59108
# Velocity P-wave (km/s) = 3.33768 5.37982 4.47675
#
# Compressibility (1/GPa) = 0.10121725
#
# Stress axis : x y z
#
# Youngs Moduli (GPa) = 22.45436 30.83180 32.21155
#
# Poissons Ratio (x) = 0.32986 0.33411
# Poissons Ratio (y) = 0.24023 -0.56926
# Poissons Ratio (z) = 0.23290 -0.54488
#
# Static dielectric constant tensor:
#      x y z
#    x 1.689290 0.000000 -0.004470 
#    y 0.000000 1.637760 0.000000 
#    z -0.004470 0.000000 1.694100 
# 
# From -- ./inp_files/9278.got.cif
#   From: 2010.05.17/outbox.cif.g08.bks.cpg/sg5_5_cif.got.tgz:9278.got - 2010.06.03 18:56:24.
