data_PCOD9125051
_publ_section_title
;
Structure prediction by ZEFSAII (Michael W. Deem and Ramdas Pophale) SiO2 
 PCOD9125051
Probable space group: C 2
;
_chemical_formula_sum "Si O2"
_cell_formula_units_Z 22
_cell_length_a 22.627320
_cell_length_b 5.300525
_cell_length_c 10.422626
_cell_angle_alpha 90.000000
_cell_angle_beta 137.687148
_cell_angle_gamma 90.000000
_cell_volume 841.510103
_symmetry_space_group_name_H-M "C 2"
_symmetry_group_IT_number 5
_symmetry_cell_setting 'monoclinic'
loop_
_space_group_symop_operation_xyz
x,y,z
-x,y,-z
1/2+x,1/2+y,z
1/2-x,1/2+y,-z
loop_
_atom_site_type_symbol
_atom_site_label
_atom_site_fract_x
_atom_site_fract_y
_atom_site_fract_z
Si Si1 0.599962 0.514870 0.216434
Si Si2 0.000000 0.018571 0.500000
Si Si3 0.761442 0.657892 0.183682
Si Si4 0.100251 0.513520 0.109290
Si Si5 0.877140 0.771791 0.122203
Si Si6 0.846376 0.168677 0.416639
O O1 0.641469 0.243211 0.255749
O O2 0.609047 0.597006 0.377466
O O3 0.641996 0.744473 0.205398
O O4 0.500000 0.487743 0.000000
O O5 0.032384 0.841743 0.665903
O O6 0.079862 0.176522 0.574678
O O7 0.814341 0.659045 0.131490
O O8 0.802445 0.441572 0.340876
O O9 0.668120 0.533286 0.996722
O O10 0.102842 0.596940 0.966647
O O11 0.000000 0.486085 0.000000
O O12 0.782180 0.937407 0.272097
#
# Coordination Sequence:
#
# PCOD9125051 Si02
#       6
#     4   2   4   4   4   4
#     4  10  21  39  65  97 135 174 220 279 331 392
#     4  10  22  38  72 102 134 174 232 292 328 398
#     4  11  26  44  69  97 142 180 223 284 341 412
#     4  10  22  39  67 100 137 176 221 281 334 397
#     4  11  24  46  70 104 136 181 228 278 348 399
#     4  11  24  44  67 102 136 180 230 278 341 401
#
# _framework density 26.143474000000001
#
# number of rings (size 3 to 8) (size 9 to 14) (size 15 to 20)
#    0.000    1.455    0.000    5.455    0.000   16.000 
#    0.000    3.636    0.000    0.000    0.000    0.000 
#    0.000    0.000    0.000    0.000    0.000    0.000 
#
# Total GULP energy -61632.589952 kJ/mol
# GULP energy per Si atom -5602.962723 kJ/mol
# Density = 2.608397 g / cm^3
# Si number density = 26.143474 Si / 1000 Ang^3
#
#
#
# Elastic Constant Matrix: (Units=GPa)
#
#
# Indices 1 2 3 4 5 6 
#
# 1 79.4606 15.3152 15.6066 0.0000 -0.7940 0.0000
# 2 15.3152 185.0088 32.8370 0.0000 -0.1089 0.0000
# 3 15.6066 32.8370 150.0057 0.0000 -13.0690 0.0000
# 4 0.0000 0.0000 0.0000 26.2551 0.0000 -15.3206
# 5 -0.7940 -0.1089 -13.0690 0.0000 40.5674 0.0000
# 6 0.0000 0.0000 0.0000 -15.3206 0.0000 37.9627
#
#
#
# Elastic Compliance Matrix: (Units=1/GPa)
#
#
# Indices 1 2 3 4 5 6 
#
# 1 0.012981 -0.000867 -0.001172 0.000000 -0.000126 0.000000
# 2 -0.000867 0.005688 -0.001188 0.000000 -0.000385 0.000000
# 3 -0.001172 -0.001188 0.007250 0.000000 0.002309 0.000000
# 4 0.000000 0.000000 0.000000 0.049820 0.000000 0.020106
# 5 -0.000126 -0.000385 0.002309 0.000000 0.025391 0.000000
# 6 0.000000 0.000000 0.000000 0.020106 0.000000 0.034456
#
#
# Mechanical properties :
#
#
# Convention : Reuss Voigt Hill
#
# Bulk Modulus (GPa) = 51.37577 60.22143 55.79860
# Shear Modulus (GPa) = 33.66399 44.33814 39.00106
#
# Velocity S-wave (km/s) = 3.59230 4.12266 3.86658
# Velocity P-wave (km/s) = 6.07456 6.76364 6.42834
#
# Compressibility (1/GPa) = 0.01946443
#
# Stress axis : x y z
#
# Youngs Moduli (GPa) = 77.03699 175.82149 137.93740
#
# Poissons Ratio (x) = 0.15238 0.16163
# Poissons Ratio (y) = 0.06676 0.16392
# Poissons Ratio (z) = 0.09027 0.20894
#
# Static dielectric constant tensor:
#      x y z
#    x 2.530490 0.000000 0.095340 
#    y 0.000000 2.062250 0.000000 
#    z 0.095340 0.000000 2.047360 
# 
# From -- ./inp_files/32092.got.cif
#   From: 2010.05.17/outbox.cif.g08.bks.cpg/sg5_17_cif.got.tgz:32092.got - 2010.06.03 18:56:24.
