data_PCOD9125879
_publ_section_title
;
Structure prediction by ZEFSAII (Michael W. Deem and Ramdas Pophale) SiO2 
 PCOD9125879
Probable space group: C 2
;
_chemical_formula_sum "Si O2"
_cell_formula_units_Z 24
_cell_length_a 17.161738
_cell_length_b 10.598545
_cell_length_c 11.233453
_cell_angle_alpha 90.000000
_cell_angle_beta 148.023404
_cell_angle_gamma 90.000000
_cell_volume 1082.047856
_symmetry_space_group_name_H-M "C 2"
_symmetry_group_IT_number 5
_symmetry_cell_setting 'monoclinic'
loop_
_space_group_symop_operation_xyz
x,y,z
-x,y,-z
1/2+x,1/2+y,z
1/2-x,1/2+y,-z
loop_
_atom_site_type_symbol
_atom_site_label
_atom_site_fract_x
_atom_site_fract_y
_atom_site_fract_z
Si Si1 0.556193 0.291840 0.789925
Si Si2 0.008151 0.538076 0.869435
Si Si3 0.155231 0.313572 0.977659
Si Si4 0.156613 0.308627 0.448283
Si Si5 0.743320 0.206028 0.664483
Si Si6 0.150778 0.948336 0.129186
O O1 0.518519 0.175482 0.827945
O O2 0.696743 0.268235 0.890021
O O3 0.404371 0.291348 0.519235
O O4 0.603300 0.408102 0.935458
O O5 0.874878 0.445242 0.655484
O O6 0.144760 0.463222 0.985870
O O7 0.000000 0.543704 0.000000
O O8 0.141110 0.263656 0.093572
O O9 0.006269 0.274095 0.716664
O O10 0.204955 0.216820 0.404864
O O11 0.274815 0.331179 0.704038
O O12 0.735139 0.063559 0.704638
O O13 0.000000 0.984090 0.000000
#
# Coordination Sequence:
#
# PCOD9125879 Si02
#       6
#     4   4   4   4   4   4
#     4  12  26  40  70 105 142 178 243 296 365 423
#     4  10  21  45  69  93 136 193 233 285 357 429
#     4  10  23  43  66  98 135 189 228 295 366 417
#     4  10  21  45  68  95 139 195 236 288 358 428
#     4  12  22  45  69 100 140 188 239 298 352 440
#     4  12  25  41  73 109 139 184 245 301 354 433
#
# _framework density 22.180166
#
# number of rings (size 3 to 8) (size 9 to 14) (size 15 to 20)
#    1.000    0.000    5.000    2.500    2.333    0.667 
#    3.000    0.000    3.667    0.000    0.000    0.000 
#    0.000    0.000    0.000    0.000    0.000    0.000 
#
# Total GULP energy -66855.292117 kJ/mol
# GULP energy per Si atom -5571.274343 kJ/mol
# Density = 2.212968 g / cm^3
# Si number density = 22.180166 Si / 1000 Ang^3
#
#
#
# Elastic Constant Matrix: (Units=GPa)
#
#
# Indices 1 2 3 4 5 6 
#
# 1 73.6334 3.0081 26.2930 0.0000 17.5306 0.0000
# 2 3.0081 56.2370 14.0132 0.0000 -9.6104 0.0000
# 3 26.2930 14.0132 105.9196 0.0000 6.1099 0.0000
# 4 0.0000 0.0000 0.0000 33.5976 0.0000 -3.5691
# 5 17.5306 -9.6104 6.1099 0.0000 35.7171 0.0000
# 6 0.0000 0.0000 0.0000 -3.5691 0.0000 21.9389
#
#
#
# Elastic Compliance Matrix: (Units=1/GPa)
#
#
# Indices 1 2 3 4 5 6 
#
# 1 0.016806 -0.001391 -0.003525 0.000000 -0.008020 0.000000
# 2 -0.001391 0.019603 -0.002618 0.000000 0.006405 0.000000
# 3 -0.003525 -0.002618 0.010709 0.000000 -0.000806 0.000000
# 4 0.000000 0.000000 0.000000 0.030288 0.000000 0.004927
# 5 -0.008020 0.006405 -0.000806 0.000000 0.033795 0.000000
# 6 0.000000 0.000000 0.000000 0.004927 0.000000 0.046383
#
#
# Mechanical properties :
#
#
# Convention : Reuss Voigt Hill
#
# Bulk Modulus (GPa) = 31.20108 35.82429 33.51269
# Shear Modulus (GPa) = 27.27252 31.08243 29.17747
#
# Velocity S-wave (km/s) = 3.51036 3.74754 3.63088
# Velocity P-wave (km/s) = 5.52519 5.90863 5.72013
#
# Compressibility (1/GPa) = 0.03205018
#
# Stress axis : x y z
#
# Youngs Moduli (GPa) = 59.50352 51.01215 93.37944
#
# Poissons Ratio (x) = 0.07096 0.32917
# Poissons Ratio (y) = 0.08277 0.24444
# Poissons Ratio (z) = 0.20976 0.13353
#
# Static dielectric constant tensor:
#      x y z
#    x 1.772490 0.000000 0.009430 
#    y 0.000000 1.923630 0.000000 
#    z 0.009430 0.000000 1.888860 
# 
# From -- ./inp_files/44729.got.cif
#   From: 2010.05.17/outbox.cif.g08.bks.cpg/sg5_23_cif.got.tgz:44729.got - 2010.06.03 18:56:24.
