data_PCOD9125850
_publ_section_title
;
Structure prediction by ZEFSAII (Michael W. Deem and Ramdas Pophale) SiO2 
 PCOD9125850
Probable space group: C 2
;
_chemical_formula_sum "Si O2"
_cell_formula_units_Z 28
_cell_length_a 7.745382
_cell_length_b 11.680794
_cell_length_c 14.484346
_cell_angle_alpha 90.000000
_cell_angle_beta 68.289177
_cell_angle_gamma 90.000000
_cell_volume 1217.472406
_symmetry_space_group_name_H-M "C 2"
_symmetry_group_IT_number 5
_symmetry_cell_setting 'monoclinic'
loop_
_space_group_symop_operation_xyz
x,y,z
-x,y,-z
1/2+x,1/2+y,z
1/2-x,1/2+y,-z
loop_
_atom_site_type_symbol
_atom_site_label
_atom_site_fract_x
_atom_site_fract_y
_atom_site_fract_z
Si Si1 0.441574 0.388440 0.719919
Si Si2 0.794360 0.023461 0.067250
Si Si3 0.703427 0.790970 0.450226
Si Si4 0.000000 0.660111 0.500000
Si Si5 0.862714 0.804526 0.148185
Si Si6 0.789946 0.636402 0.715946
Si Si7 0.000000 0.611465 0.000000
Si Si8 0.894728 0.135285 0.695639
O O1 0.638358 0.372119 0.626009
O O2 0.509790 0.381563 0.811586
O O3 0.332547 0.270463 0.724724
O O4 0.329486 0.503256 0.718242
O O5 0.722698 0.075317 0.180601
O O6 0.797065 0.887483 0.081827
O O7 0.673536 0.041927 0.999896
O O8 0.000000 0.066540 0.000000
O O9 0.500000 0.848176 0.500000
O O10 0.646232 0.680937 0.398585
O O11 0.818605 0.738827 0.513238
O O12 0.053621 0.600248 0.391710
O O13 0.696155 0.741843 0.232752
O O14 0.970586 0.695903 0.090485
O O15 0.596953 0.622516 0.700530
#
# Coordination Sequence:
#
# PCOD9125850 Si02
#       8
#     4   4   4   2   4   4   2   4
#     4  10  23  44  70 101 148 189 241 309 358 436
#     4  12  26  49  75 108 147 191 246 308 362 439
#     4  10  21  44  70 103 145 192 249 298 366 433
#     4  10  22  44  72 108 150 186 248 304 352 442
#     4  11  24  46  70 102 148 186 241 305 367 438
#     4  11  22  45  73 104 147 190 242 301 364 427
#     4  12  26  46  72 108 138 196 240 294 382 432
#     4  11  23  44  72 104 146 193 239 307 364 434
#
# _framework density 22.998467999999999
#
# number of rings (size 3 to 8) (size 9 to 14) (size 15 to 20)
#    0.000    1.143    5.000    0.857    0.000    1.143 
#   10.286    0.000    0.000    0.000    0.000    0.000 
#    0.000    0.000    0.000    0.000    0.000    0.000 
#
# Total GULP energy -78009.821182 kJ/mol
# GULP energy per Si atom -5572.130084 kJ/mol
# Density = 2.294612 g / cm^3
# Si number density = 22.998468 Si / 1000 Ang^3
#
#
#
# Elastic Constant Matrix: (Units=GPa)
#
#
# Indices 1 2 3 4 5 6 
#
# 1 94.1612 16.6920 20.4450 0.0000 14.9638 0.0000
# 2 16.6920 108.1420 10.6975 0.0000 11.0943 0.0000
# 3 20.4450 10.6975 88.4560 0.0000 -1.5983 0.0000
# 4 0.0000 0.0000 0.0000 16.2001 0.0000 11.5566
# 5 14.9638 11.0943 -1.5983 0.0000 25.3423 0.0000
# 6 0.0000 0.0000 0.0000 11.5566 0.0000 32.9147
#
#
#
# Elastic Compliance Matrix: (Units=1/GPa)
#
#
# Indices 1 2 3 4 5 6 
#
# 1 0.012561 -0.000911 -0.002923 0.000000 -0.007202 0.000000
# 2 -0.000911 0.009888 -0.001055 0.000000 -0.003857 0.000000
# 3 -0.002923 -0.001055 0.012162 0.000000 0.002955 0.000000
# 4 0.000000 0.000000 0.000000 0.082356 0.000000 -0.028916
# 5 -0.007202 -0.003857 0.002955 0.000000 0.045588 0.000000
# 6 0.000000 0.000000 0.000000 -0.028916 0.000000 0.040534
#
#
# Mechanical properties :
#
#
# Convention : Reuss Voigt Hill
#
# Bulk Modulus (GPa) = 40.26995 42.93647 41.60321
# Shear Modulus (GPa) = 22.60982 31.08640 26.84811
#
# Velocity S-wave (km/s) = 3.13885 3.68050 3.42041
# Velocity P-wave (km/s) = 5.53934 6.06393 5.80756
#
# Compressibility (1/GPa) = 0.02483241
#
# Stress axis : x y z
#
# Youngs Moduli (GPa) = 79.61260 101.13505 82.22553
#
# Poissons Ratio (x) = 0.09211 0.24036
# Poissons Ratio (y) = 0.07251 0.08675
# Poissons Ratio (z) = 0.23272 0.10670
#
# Static dielectric constant tensor:
#      x y z
#    x 1.844000 0.000000 0.019270 
#    y 0.000000 1.856910 0.000000 
#    z 0.019270 0.000000 2.274230 
# 
# From -- ./inp_files/50285.got.cif
#   From: 2010.05.17/outbox.cif.g08.bks.cpg/sg5_26_cif.got.tgz:50285.got - 2010.06.03 18:56:24.
