data_PCOD9125576
_publ_section_title
;
Structure prediction by ZEFSAII (Michael W. Deem and Ramdas Pophale) SiO2 
 PCOD9125576
Probable space group: C 2
;
_chemical_formula_sum "Si O2"
_cell_formula_units_Z 26
_cell_length_a 32.548480
_cell_length_b 8.528235
_cell_length_c 11.656090
_cell_angle_alpha 90.000000
_cell_angle_beta 24.424442
_cell_angle_gamma 90.000000
_cell_volume 1337.860412
_symmetry_space_group_name_H-M "C 2"
_symmetry_group_IT_number 5
_symmetry_cell_setting 'monoclinic'
loop_
_space_group_symop_operation_xyz
x,y,z
-x,y,-z
1/2+x,1/2+y,z
1/2-x,1/2+y,-z
loop_
_atom_site_type_symbol
_atom_site_label
_atom_site_fract_x
_atom_site_fract_y
_atom_site_fract_z
Si Si1 0.912380 0.876530 0.315851
Si Si2 0.908530 0.245026 0.318912
Si Si3 0.204565 0.264787 0.761863
Si Si4 0.496100 0.893451 0.310996
Si Si5 0.044956 0.726165 0.153734
Si Si6 0.500000 0.090189 0.500000
Si Si7 0.740557 0.409641 0.610156
O O1 0.808437 0.787595 0.563448
O O2 0.888628 0.059802 0.358964
O O3 0.000000 0.835577 0.000000
O O4 0.959719 0.836844 0.318950
O O5 0.817788 0.351992 0.509157
O O6 0.937999 0.280853 0.374620
O O7 0.000000 0.277753 0.000000
O O8 0.211282 0.379489 0.635328
O O9 0.202797 0.085499 0.724332
O O10 0.100212 0.314028 0.084030
O O11 0.444016 0.971084 0.554923
O O12 0.520550 0.050310 0.174872
O O13 0.147139 0.793987 0.850306
O O14 0.051985 0.700411 0.273616
#
# Coordination Sequence:
#
# PCOD9125576 Si02
#       7
#     4   4   4   4   4   2   4
#     4  11  22  36  61  98 129 162 204 257 320 380
#     4  11  22  36  61  98 129 162 204 257 320 380
#     4  12  23  36  61  98 129 163 199 256 324 375
#     4  10  21  42  65  86 126 163 210 258 305 371
#     4  10  21  42  65  86 126 163 210 258 305 371
#     4   8  24  44  68  84 122 174 218 250 312 352
#     4  12  23  36  61  98 129 163 199 256 324 375
#
# _framework density 19.434016
#
# number of rings (size 3 to 8) (size 9 to 14) (size 15 to 20)
#    0.923    0.308    3.077    4.615    0.000    1.231 
#    0.000    4.615    0.000    0.000    0.000    0.000 
#    0.000    0.000    0.000    0.000    0.000    0.000 
#
# Total GULP energy -72398.739316 kJ/mol
# GULP energy per Si atom -5569.133794 kJ/mol
# Density = 1.938978 g / cm^3
# Si number density = 19.434016 Si / 1000 Ang^3
#
#
#
# Elastic Constant Matrix: (Units=GPa)
#
#
# Indices 1 2 3 4 5 6 
#
# 1 81.4409 -7.9255 17.5380 0.0000 -2.8464 0.0000
# 2 -7.9255 61.6869 -5.7837 0.0000 -0.3113 0.0000
# 3 17.5380 -5.7837 21.7519 0.0000 -10.4246 0.0000
# 4 0.0000 0.0000 0.0000 18.9610 0.0000 -3.4973
# 5 -2.8464 -0.3113 -10.4246 0.0000 28.7405 0.0000
# 6 0.0000 0.0000 0.0000 -3.4973 0.0000 32.4900
#
#
#
# Elastic Compliance Matrix: (Units=1/GPa)
#
#
# Indices 1 2 3 4 5 6 
#
# 1 0.015177 0.000645 -0.013727 0.000000 -0.003469 0.000000
# 2 0.000645 0.016764 0.004908 0.000000 0.002026 0.000000
# 3 -0.013727 0.004908 0.069865 0.000000 0.024035 0.000000
# 4 0.000000 0.000000 0.000000 0.053808 0.000000 0.005792
# 5 -0.003469 0.002026 0.024035 0.000000 0.043190 0.000000
# 6 0.000000 0.000000 0.000000 0.005792 0.000000 0.031402
#
#
# Mechanical properties :
#
#
# Convention : Reuss Voigt Hill
#
# Bulk Modulus (GPa) = 11.70176 19.17080 15.43628
# Shear Modulus (GPa) = 18.17918 26.77504 22.47711
#
# Velocity S-wave (km/s) = 3.06180 3.71582 3.40455
# Velocity P-wave (km/s) = 4.30510 5.31937 4.83888
#
# Compressibility (1/GPa) = 0.08545720
#
# Stress axis : x y z
#
# Youngs Moduli (GPa) = 65.89106 59.65093 14.31337
#
# Poissons Ratio (x) = -0.03849 0.19649
# Poissons Ratio (y) = -0.04252 -0.07025
# Poissons Ratio (z) = 0.90452 -0.29277
#
# Static dielectric constant tensor:
#      x y z
#    x 1.741150 0.000000 0.030250 
#    y 0.000000 1.673950 0.000000 
#    z 0.030250 0.000000 1.696310 
# 
# From -- ./inp_files/48282.got.cif
#   From: 2010.05.17/outbox.cif.g08.bks.cpg/sg5_25_cif.got.tgz:48282.got - 2010.06.03 18:56:24.
