data_PCOD9125074
_publ_section_title
;
Structure prediction by ZEFSAII (Michael W. Deem and Ramdas Pophale) SiO2 
 PCOD9125074
Probable space group: C 2
;
_chemical_formula_sum "Si O2"
_cell_formula_units_Z 26
_cell_length_a 16.649870
_cell_length_b 5.096573
_cell_length_c 15.114698
_cell_angle_alpha 90.000000
_cell_angle_beta 127.393497
_cell_angle_gamma 90.000000
_cell_volume 1018.998350
_symmetry_space_group_name_H-M "C 2"
_symmetry_group_IT_number 5
_symmetry_cell_setting 'monoclinic'
loop_
_space_group_symop_operation_xyz
x,y,z
-x,y,-z
1/2+x,1/2+y,z
1/2-x,1/2+y,-z
loop_
_atom_site_type_symbol
_atom_site_label
_atom_site_fract_x
_atom_site_fract_y
_atom_site_fract_z
Si Si1 0.243341 0.795500 0.554412
Si Si2 0.137997 0.647583 0.256458
Si Si3 0.306288 0.571507 0.911443
Si Si4 0.538048 0.184008 0.737469
Si Si5 0.652165 0.704563 0.873657
Si Si6 0.816638 0.564210 0.323236
Si Si7 0.500000 0.288616 0.000000
O O1 0.272502 0.566111 0.507455
O O2 0.158281 0.698866 0.566187
O O3 0.331186 0.867349 0.683020
O O4 0.241412 0.817763 0.304064
O O5 0.073116 0.751886 0.298958
O O6 0.065138 0.649720 0.121116
O O7 0.238624 0.308828 0.866542
O O8 0.261342 0.711892 0.796591
O O9 0.420053 0.482176 0.990441
O O10 0.293815 0.710664 0.995548
O O11 0.601890 0.440395 0.806579
O O12 0.570575 0.936462 0.819000
O O13 0.580255 0.080648 0.669063
#
# Coordination Sequence:
#
# PCOD9125074 Si02
#       7
#     4   4   4   4   4   4   2
#     4  12  27  51  84 104 144 202 259 322 387 453
#     4  11  25  48  77 117 155 203 249 322 383 470
#     4  10  21  39  67 102 152 200 245 288 377 458
#     4  11  26  43  74 108 155 195 260 311 385 463
#     4  11  23  41  63 104 155 211 237 302 369 471
#     4  10  25  45  75 108 145 200 252 316 385 453
#     4  10  22  40  72 118 152 194 244 302 382 466
#
# _framework density 25.515253000000001
#
# number of rings (size 3 to 8) (size 9 to 14) (size 15 to 20)
#    0.000    1.231    3.077    1.846    8.615    1.231 
#    0.000    1.538    6.769    0.000    0.000    0.000 
#    0.000    0.000    0.000    0.000    0.000    0.000 
#
# Total GULP energy -72382.324495 kJ/mol
# GULP energy per Si atom -5567.871115 kJ/mol
# Density = 2.545718 g / cm^3
# Si number density = 25.515253 Si / 1000 Ang^3
#
#
#
# Elastic Constant Matrix: (Units=GPa)
#
#
# Indices 1 2 3 4 5 6 
#
# 1 147.6864 29.7599 46.1028 -0.0001 -22.1902 -0.0002
# 2 29.7599 116.6762 44.0677 0.0001 -10.8044 0.0007
# 3 46.1028 44.0677 97.7715 0.0000 -38.0424 0.0003
# 4 -0.0001 0.0001 0.0000 53.5144 0.0000 2.0367
# 5 -22.1902 -10.8044 -38.0424 0.0000 55.2164 0.0000
# 6 -0.0002 0.0007 0.0003 2.0367 0.0000 30.5617
#
#
#
# Elastic Compliance Matrix: (Units=1/GPa)
#
#
# Indices 1 2 3 4 5 6 
#
# 1 0.008030 -0.000809 -0.003044 0.000000 0.000972 0.000000
# 2 -0.000809 0.010518 -0.005035 0.000000 -0.001736 0.000000
# 3 -0.003044 -0.005035 0.017861 0.000000 0.010097 0.000000
# 4 0.000000 0.000000 0.000000 0.018734 0.000000 -0.001248
# 5 0.000972 -0.001736 0.010097 0.000000 0.025118 0.000000
# 6 0.000000 0.000000 0.000000 -0.001248 0.000000 0.032804
#
#
# Mechanical properties :
#
#
# Convention : Reuss Voigt Hill
#
# Bulk Modulus (GPa) = 53.66245 66.88832 60.27538
# Shear Modulus (GPa) = 36.48252 44.00540 40.24396
#
# Velocity S-wave (km/s) = 3.78541 4.15742 3.97577
# Velocity P-wave (km/s) = 6.33901 7.02264 6.68956
#
# Compressibility (1/GPa) = 0.01863501
#
# Stress axis : x y z
#
# Youngs Moduli (GPa) = 124.52854 95.07706 55.98665
#
# Poissons Ratio (x) = 0.07687 0.17043
# Poissons Ratio (y) = 0.10069 0.28187
# Poissons Ratio (z) = 0.37907 0.47868
#
# Static dielectric constant tensor:
#      x y z
#    x 2.225580 0.000000 0.050510 
#    y 0.000000 2.066810 0.000000 
#    z 0.050510 0.000000 2.128260 
# 
# From -- ./inp_files/55374.got.cif
#   From: 2010.05.17/outbox.cif.g08.bks.cpg/sg5_28_cif.got.tgz:55374.got - 2010.06.03 18:56:24.
