data_PCOD9125197
_publ_section_title
;
Structure prediction by ZEFSAII (Michael W. Deem and Ramdas Pophale) SiO2 
 PCOD9125197
Probable space group: C 2
;
_chemical_formula_sum "Si O2"
_cell_formula_units_Z 28
_cell_length_a 24.126390
_cell_length_b 10.479117
_cell_length_c 11.376905
_cell_angle_alpha 90.000000
_cell_angle_beta 155.753668
_cell_angle_gamma 90.000000
_cell_volume 1181.201738
_symmetry_space_group_name_H-M "C 2"
_symmetry_group_IT_number 5
_symmetry_cell_setting 'monoclinic'
loop_
_space_group_symop_operation_xyz
x,y,z
-x,y,-z
1/2+x,1/2+y,z
1/2-x,1/2+y,-z
loop_
_atom_site_type_symbol
_atom_site_label
_atom_site_fract_x
_atom_site_fract_y
_atom_site_fract_z
Si Si1 0.545771 0.698270 0.714477
Si Si2 0.034343 0.661518 0.693266
Si Si3 0.278798 0.931258 0.993678
Si Si4 0.285268 0.214212 0.663834
Si Si5 0.413191 0.229672 0.678919
Si Si6 0.093171 0.011434 0.418359
Si Si7 0.228384 0.350991 0.767149
O O1 0.500000 0.644373 0.500000
O O2 0.674592 0.786633 0.943050
O O3 0.539536 0.589883 0.800941
O O4 0.420597 0.792035 0.504652
O O5 0.095296 0.522447 0.792745
O O6 0.000000 0.716157 0.500000
O O7 0.911414 0.665696 0.547162
O O8 0.156748 0.746986 0.977940
O O9 0.254674 0.945133 0.087416
O O10 0.166264 0.971922 0.682228
O O11 0.290885 0.216075 0.533237
O O12 0.247949 0.346189 0.662177
O O13 0.188808 0.105049 0.528838
O O14 0.441489 0.181663 0.993995
O O15 0.431254 0.381031 0.695671
#
# Coordination Sequence:
#
# PCOD9125197 Si02
#       7
#     4   4   4   4   4   4   4
#     4   9  19  35  57  89 119 159 192 243 312 360
#     4  11  20  36  59  95 123 156 207 257 309 367
#     4  11  20  37  61  90 126 156 201 255 314 368
#     4   9  20  43  59  88 125 165 209 248 313 356
#     4  10  21  40  64  88 121 166 211 253 304 375
#     4  11  21  41  63  86 125 159 206 254 307 374
#     4   9  18  36  57  88 121 154 200 248 297 369
#
# _framework density 23.704674000000001
#
# number of rings (size 3 to 8) (size 9 to 14) (size 15 to 20)
#    0.000    2.000    4.286    2.143    0.000    2.857 
#    7.714    2.857    0.000    0.000    0.000    0.000 
#    0.000    0.000    0.000    0.000    0.000    0.000 
#
# Total GULP energy -78049.821044 kJ/mol
# GULP energy per Si atom -5574.987217 kJ/mol
# Density = 2.365072 g / cm^3
# Si number density = 23.704674 Si / 1000 Ang^3
#
#
#
# Elastic Constant Matrix: (Units=GPa)
#
#
# Indices 1 2 3 4 5 6 
#
# 1 213.9817 50.6230 12.0501 0.0000 19.9860 0.0000
# 2 50.6230 82.9629 0.3706 0.0000 10.3155 0.0000
# 3 12.0501 0.3706 35.9310 0.0000 9.4067 0.0000
# 4 0.0000 0.0000 0.0000 26.5636 0.0000 8.4579
# 5 19.9860 10.3155 9.4067 0.0000 22.0785 0.0000
# 6 0.0000 0.0000 0.0000 8.4579 0.0000 28.3401
#
#
#
# Elastic Compliance Matrix: (Units=1/GPa)
#
#
# Indices 1 2 3 4 5 6 
#
# 1 0.005778 -0.003106 -0.001031 0.000000 -0.003340 0.000000
# 2 -0.003106 0.014550 0.002178 0.000000 -0.004915 0.000000
# 3 -0.001031 0.002178 0.031714 0.000000 -0.013596 0.000000
# 4 0.000000 0.000000 0.000000 0.041598 0.000000 -0.012415
# 5 -0.003340 -0.004915 -0.013596 0.000000 0.056405 0.000000
# 6 0.000000 0.000000 0.000000 -0.012415 0.000000 0.038991
#
#
# Mechanical properties :
#
#
# Convention : Reuss Voigt Hill
#
# Bulk Modulus (GPa) = 20.77968 50.99590 35.88779
# Shear Modulus (GPa) = 23.92392 33.38522 28.65457
#
# Velocity S-wave (km/s) = 3.18031 3.75691 3.48057
# Velocity P-wave (km/s) = 4.71921 6.35444 5.59687
#
# Compressibility (1/GPa) = 0.04812393
#
# Stress axis : x y z
#
# Youngs Moduli (GPa) = 173.06739 68.72825 31.53192
#
# Poissons Ratio (x) = 0.21346 0.03252
# Poissons Ratio (y) = 0.53752 -0.06868
# Poissons Ratio (z) = 0.17850 -0.14970
#
# Static dielectric constant tensor:
#      x y z
#    x 2.057510 0.000000 -0.067940 
#    y 0.000000 1.931380 0.000000 
#    z -0.067940 0.000000 1.927220 
# 
# From -- ./inp_files/47458.got.cif
#   From: 2010.05.17/outbox.cif.g08.bks.cpg/sg5_24_cif.got.tgz:47458.got - 2010.06.03 18:56:24.
