data_PCOD9125375
_publ_section_title
;
Structure prediction by ZEFSAII (Michael W. Deem and Ramdas Pophale) SiO2 
 PCOD9125375
Probable space group: C 2
;
_chemical_formula_sum "Si O2"
_cell_formula_units_Z 30
_cell_length_a 9.456193
_cell_length_b 10.947318
_cell_length_c 11.554126
_cell_angle_alpha 90.000000
_cell_angle_beta 103.930677
_cell_angle_gamma 90.000000
_cell_volume 1160.903053
_symmetry_space_group_name_H-M "C 2"
_symmetry_group_IT_number 5
_symmetry_cell_setting 'monoclinic'
loop_
_space_group_symop_operation_xyz
x,y,z
-x,y,-z
1/2+x,1/2+y,z
1/2-x,1/2+y,-z
loop_
_atom_site_type_symbol
_atom_site_label
_atom_site_fract_x
_atom_site_fract_y
_atom_site_fract_z
Si Si1 0.175531 0.828020 0.208316
Si Si2 0.293100 0.587223 0.845654
Si Si3 0.677583 0.491029 0.779727
Si Si4 0.244286 0.784345 0.635728
Si Si5 0.666966 0.823041 0.005916
Si Si6 0.500000 0.140384 0.500000
Si Si7 0.550262 0.724511 0.636207
Si Si8 0.983459 0.594510 0.758453
O O1 0.302474 0.804735 0.328367
O O2 0.044735 0.736683 0.212779
O O3 0.122906 0.967176 0.179593
O O4 0.261923 0.804036 0.105918
O O5 0.264454 0.677613 0.733807
O O6 0.342009 0.681931 0.950851
O O7 0.129344 0.544734 0.845700
O O8 0.652674 0.392580 0.673303
O O9 0.717407 0.411547 0.902774
O O10 0.580083 0.610886 0.730077
O O11 0.839087 0.537404 0.779179
O O12 0.144554 0.722964 0.520471
O O13 0.412021 0.808841 0.640890
O O14 0.500000 0.865261 0.000000
O O15 0.498605 0.075171 0.623428
O O16 0.500000 0.676752 0.500000
#
# Coordination Sequence:
#
# PCOD9125375 Si02
#       8
#     4   4   4   4   4   2   4   4
#     4  11  24  43  71 104 143 196 248 307 383 449
#     4  10  23  42  64  98 140 188 239 307 373 447
#     4  10  23  43  71 101 142 193 242 309 383 445
#     4  10  21  41  63  95 142 180 243 305 364 443
#     4  11  24  45  71 103 150 194 250 320 377 457
#     4  10  22  42  62  98 146 190 242 310 372 438
#     4  11  24  45  69 107 141 190 252 305 376 458
#     4  10  22  44  64 102 141 186 250 305 374 451
#
# _framework density 25.841953
#
# number of rings (size 3 to 8) (size 9 to 14) (size 15 to 20)
#    0.000    1.600    0.000    4.800    4.667    3.733 
#   20.400    0.000    0.000    0.000    0.000    0.000 
#    0.000    0.000    0.000    0.000    0.000    0.000 
#
# Total GULP energy -83692.980734 kJ/mol
# GULP energy per Si atom -5579.532049 kJ/mol
# Density = 2.578314 g / cm^3
# Si number density = 25.841953 Si / 1000 Ang^3
#
#
#
# Elastic Constant Matrix: (Units=GPa)
#
#
# Indices 1 2 3 4 5 6 
#
# 1 76.8254 -1.1561 30.6820 0.0000 1.2725 0.0000
# 2 -1.1561 140.3410 34.7030 0.0000 -7.6128 0.0000
# 3 30.6820 34.7030 102.1602 0.0000 -2.2396 0.0000
# 4 0.0000 0.0000 0.0000 9.2468 0.0000 -10.3352
# 5 1.2725 -7.6128 -2.2396 0.0000 29.2255 0.0000
# 6 0.0000 0.0000 0.0000 -10.3352 0.0000 38.7589
#
#
#
# Elastic Compliance Matrix: (Units=1/GPa)
#
#
# Indices 1 2 3 4 5 6 
#
# 1 0.015036 0.001317 -0.004979 0.000000 -0.000693 0.000000
# 2 0.001317 0.007993 -0.003072 0.000000 0.001789 0.000000
# 3 -0.004979 -0.003072 0.012335 0.000000 0.000362 0.000000
# 4 0.000000 0.000000 0.000000 0.154062 0.000000 0.041081
# 5 -0.000693 0.001789 0.000362 0.000000 0.034741 0.000000
# 6 0.000000 0.000000 0.000000 0.041081 0.000000 0.036755
#
#
# Mechanical properties :
#
#
# Convention : Reuss Voigt Hill
#
# Bulk Modulus (GPa) = 45.66486 49.75381 47.70933
# Shear Modulus (GPa) = 17.75018 32.45275 25.10146
#
# Velocity S-wave (km/s) = 2.62367 3.54759 3.12002
# Velocity P-wave (km/s) = 5.18531 6.00629 5.61083
#
# Compressibility (1/GPa) = 0.02189868
#
# Stress axis : x y z
#
# Youngs Moduli (GPa) = 66.50659 125.11050 81.06968
#
# Poissons Ratio (x) = -0.16481 0.40361
# Poissons Ratio (y) = -0.08761 0.24901
# Poissons Ratio (z) = 0.33110 0.38428
#
# Static dielectric constant tensor:
#      x y z
#    x 2.149980 0.000000 -0.038290 
#    y 0.000000 2.147120 0.000000 
#    z -0.038290 0.000000 2.032370 
# 
# From -- ./inp_files/38872.got.cif
#   From: 2010.05.17/outbox.cif.g08.bks.cpg/sg5_20_cif.got.tgz:38872.got - 2010.06.03 18:56:24.
