data_PCOD9125639
_publ_section_title
;
Structure prediction by ZEFSAII (Michael W. Deem and Ramdas Pophale) SiO2 
 PCOD9125639
Probable space group: C 2
;
_chemical_formula_sum "Si O2"
_cell_formula_units_Z 32
_cell_length_a 15.047712
_cell_length_b 9.154883
_cell_length_c 11.137547
_cell_angle_alpha 90.000000
_cell_angle_beta 87.473405
_cell_angle_gamma 90.000000
_cell_volume 1532.817399
_symmetry_space_group_name_H-M "C 2"
_symmetry_group_IT_number 5
_symmetry_cell_setting 'monoclinic'
loop_
_space_group_symop_operation_xyz
x,y,z
-x,y,-z
1/2+x,1/2+y,z
1/2-x,1/2+y,-z
loop_
_atom_site_type_symbol
_atom_site_label
_atom_site_fract_x
_atom_site_fract_y
_atom_site_fract_z
Si Si1 0.815821 0.764920 0.172048
Si Si2 0.182940 0.501923 0.233622
Si Si3 0.589543 0.222684 0.067392
Si Si4 0.395272 0.131931 0.520403
Si Si5 0.127950 0.961271 0.450186
Si Si6 0.193301 0.481290 0.697421
Si Si7 0.510607 0.428034 0.745936
Si Si8 0.637492 0.649355 0.697179
O O1 0.818050 0.591552 0.192139
O O2 0.898361 0.831971 0.246028
O O3 0.721326 0.838595 0.211810
O O4 0.841939 0.790615 0.032299
O O5 0.129171 0.581895 0.131563
O O6 0.129838 0.541801 0.358409
O O7 0.276310 0.584434 0.243994
O O8 0.558813 0.345571 0.164890
O O9 0.500000 0.184636 0.000000
O O10 0.500000 0.147943 0.500000
O O11 0.352134 0.292871 0.516971
O O12 0.359362 0.046461 0.410689
O O13 0.204468 0.993267 0.349176
O O14 0.036807 0.946435 0.379675
O O15 0.134021 0.075814 0.561632
O O16 0.154255 0.319844 0.707661
O O17 0.549286 0.589127 0.768370
#
# Coordination Sequence:
#
# PCOD9125639 Si02
#       8
#     4   4   4   4   4   4   4   4
#     4  10  25  44  72  97 140 186 241 289 360 415
#     4  11  22  43  69  98 130 184 238 288 346 432
#     4  10  22  43  72  98 128 188 247 301 344 411
#     4  12  24  39  66  94 137 180 229 281 357 418
#     4  12  21  39  65  98 140 189 227 277 352 427
#     4  12  24  40  62 101 143 178 228 295 349 427
#     4  10  21  42  68  96 133 184 236 283 345 420
#     4  11  23  38  64 103 143 177 230 282 354 425
#
# _framework density 20.876588999999999
#
# number of rings (size 3 to 8) (size 9 to 14) (size 15 to 20)
#    0.000    1.000    3.750    3.375    3.500    3.000 
#    0.000    0.000    0.000   11.250    0.000    0.000 
#    0.000    0.000    0.000    0.000    0.000    0.000 
#
# Total GULP energy -89220.120607 kJ/mol
# GULP energy per Si atom -5576.257538 kJ/mol
# Density = 2.082907 g / cm^3
# Si number density = 20.876589 Si / 1000 Ang^3
#
#
#
# Elastic Constant Matrix: (Units=GPa)
#
#
# Indices 1 2 3 4 5 6 
#
# 1 60.0422 32.7357 22.4420 0.0000 2.2686 0.0000
# 2 32.7357 134.7851 32.1348 0.0000 -5.7596 0.0000
# 3 22.4420 32.1348 79.5961 0.0000 1.3041 0.0000
# 4 0.0000 0.0000 0.0000 -98.7697 0.0000 15.6538
# 5 2.2686 -5.7596 1.3041 0.0000 37.5235 0.0000
# 6 0.0000 0.0000 0.0000 15.6538 0.0000 33.6301
#
#
#
# Elastic Compliance Matrix: (Units=1/GPa)
#
#
# Indices 1 2 3 4 5 6 
#
# 1 0.020470 -0.004067 -0.004101 0.000000 -0.001719 0.000000
# 2 -0.004067 0.009089 -0.002551 0.000000 0.001730 0.000000
# 3 -0.004101 -0.002551 0.014760 0.000000 -0.000657 0.000000
# 4 0.000000 0.000000 0.000000 -0.009429 0.000000 0.004389
# 5 -0.001719 0.001730 -0.000657 0.000000 0.027042 0.000000
# 6 0.000000 0.000000 0.000000 0.004389 0.000000 0.027692
#
#
# Mechanical properties :
#
#
# Convention : Reuss Voigt Hill
#
# Bulk Modulus (GPa) = 43.70525 49.89426 46.79976
# Shear Modulus (GPa) = 42.12573 6.95082 24.53828
#
# Velocity S-wave (km/s) = 4.49692 1.82667 3.43213
# Velocity P-wave (km/s) = 6.92413 5.32921 6.17835
#
# Compressibility (1/GPa) = 0.02288055
#
# Stress axis : x y z
#
# Youngs Moduli (GPa) = 48.85081 110.02066 67.74848
#
# Poissons Ratio (x) = 0.44750 0.27786
# Poissons Ratio (y) = 0.19870 0.17283
# Poissons Ratio (z) = 0.20036 0.28067
#
# Static dielectric constant tensor:
#      x y z
#    x 3.315550 0.000000 -0.522470 
#    y 0.000000 1.817320 0.000000 
#    z -0.522470 0.000000 1.934220 
# 
# From -- ./inp_files/41977.got.cif
#   From: 2010.05.17/outbox.cif.g08.bks.cpg/sg5_21_cif.got.tgz:41977.got - 2010.06.03 18:56:24.
