data_PCOD9125067
_publ_section_title
;
Structure prediction by ZEFSAII (Michael W. Deem and Ramdas Pophale) SiO2 
 PCOD9125067
Probable space group: C 2
;
_chemical_formula_sum "Si O2"
_cell_formula_units_Z 18
_cell_length_a 7.766649
_cell_length_b 23.097862
_cell_length_c 5.298000
_cell_angle_alpha 90.000000
_cell_angle_beta 121.135880
_cell_angle_gamma 90.000000
_cell_volume 813.509236
_symmetry_space_group_name_H-M "C 2"
_symmetry_group_IT_number 5
_symmetry_cell_setting 'monoclinic'
loop_
_space_group_symop_operation_xyz
x,y,z
-x,y,-z
1/2+x,1/2+y,z
1/2-x,1/2+y,-z
loop_
_atom_site_type_symbol
_atom_site_label
_atom_site_fract_x
_atom_site_fract_y
_atom_site_fract_z
Si Si1 0.770741 0.323690 0.847585
Si Si2 0.744536 0.886313 0.661290
Si Si3 0.500000 0.487240 0.000000
Si Si4 0.633709 0.199370 0.852012
Si Si5 0.860645 0.568386 0.140722
O O1 0.697636 0.340583 0.513775
O O2 0.765601 0.256447 0.917985
O O3 0.692257 0.360665 0.020698
O O4 0.000000 0.341877 0.000000
O O5 0.500000 0.895094 0.500000
O O6 0.864033 0.946018 0.717569
O O7 0.330260 0.526296 0.002624
O O8 0.500000 0.199178 0.500000
O O9 0.721246 0.134745 0.932568
O O10 0.500000 0.207168 0.000000
O O11 0.000000 0.562185 0.500000
O O12 0.000000 0.559377 0.000000
#
# Coordination Sequence:
#
# PCOD9125067 Si02
#       5
#     4   4   2   4   4
#     4  10  22  40  63  92 134 165 212 273 328 385
#     4  10  24  41  61 100 132 170 218 274 321 390
#     4  12  26  44  76  92 138 186 226 262 340 412
#     4  10  21  39  66  95 130 166 213 276 328 388
#     4  10  25  46  67 102 135 172 227 282 328 390
#
# _framework density 22.126362
#
# number of rings (size 3 to 8) (size 9 to 14) (size 15 to 20)
#    0.000    1.778    0.000    2.000    6.222    7.111 
#    0.000    0.000    0.000    0.000    0.000    0.000 
#    0.000    0.000    0.000    0.000    0.000    0.000 
#
# Total GULP energy -50233.541253 kJ/mol
# GULP energy per Si atom -5581.504584 kJ/mol
# Density = 2.207600 g / cm^3
# Si number density = 22.126362 Si / 1000 Ang^3
#
#
#
# Elastic Constant Matrix: (Units=GPa)
#
#
# Indices 1 2 3 4 5 6 
#
# 1 134.3817 72.0609 53.7592 0.0000 -18.6507 0.0000
# 2 72.0609 121.3490 25.2810 0.0000 -13.9810 0.0000
# 3 53.7592 25.2810 107.8635 0.0000 -25.8932 0.0000
# 4 0.0000 0.0000 0.0000 5.8206 0.0000 7.2947
# 5 -18.6507 -13.9810 -25.8932 0.0000 38.6644 0.0000
# 6 0.0000 0.0000 0.0000 7.2947 0.0000 50.8541
#
#
#
# Elastic Compliance Matrix: (Units=1/GPa)
#
#
# Indices 1 2 3 4 5 6 
#
# 1 0.013009 -0.006655 -0.004761 0.000000 0.000681 0.000000
# 2 -0.006655 0.012215 0.000886 0.000000 0.001800 0.000000
# 3 -0.004761 0.000886 0.013061 0.000000 0.006771 0.000000
# 4 0.000000 0.000000 0.000000 0.209460 0.000000 -0.030046
# 5 0.000681 0.001800 0.006771 0.000000 0.031377 0.000000
# 6 0.000000 0.000000 0.000000 -0.030046 0.000000 0.023974
#
#
# Mechanical properties :
#
#
# Convention : Reuss Voigt Hill
#
# Bulk Modulus (GPa) = 58.04903 73.97738 66.01320
# Shear Modulus (GPa) = 15.15615 33.23401 24.19508
#
# Velocity S-wave (km/s) = 2.62005 3.87978 3.31039
# Velocity P-wave (km/s) = 5.95358 7.31962 6.67166
#
# Compressibility (1/GPa) = 0.01722682
#
# Stress axis : x y z
#
# Youngs Moduli (GPa) = 76.86928 81.86327 76.56139
#
# Poissons Ratio (x) = 0.54480 0.36447
# Poissons Ratio (y) = 0.51157 -0.06783
# Poissons Ratio (z) = 0.36594 -0.07253
#
# Static dielectric constant tensor:
#      x y z
#    x 1.807310 0.000000 0.007610 
#    y 0.000000 1.850160 0.000000 
#    z 0.007610 0.000000 1.844260 
# 
# From -- ./inp_files/2582.got.cif
#   From: 2010.05.17/outbox.cif.g08.bks.cpg/sg5_2_cif.got.tgz:2582.got - 2010.06.03 18:56:24.
