data_PCOD9125371
_publ_section_title
;
Structure prediction by ZEFSAII (Michael W. Deem and Ramdas Pophale) SiO2 
 PCOD9125371
Probable space group: C 2
;
_chemical_formula_sum "Si O2"
_cell_formula_units_Z 24
_cell_length_a 14.954201
_cell_length_b 9.944260
_cell_length_c 12.163920
_cell_angle_alpha 90.000000
_cell_angle_beta 137.132751
_cell_angle_gamma 90.000000
_cell_volume 1230.583265
_symmetry_space_group_name_H-M "C 2"
_symmetry_group_IT_number 5
_symmetry_cell_setting 'monoclinic'
loop_
_space_group_symop_operation_xyz
x,y,z
-x,y,-z
1/2+x,1/2+y,z
1/2-x,1/2+y,-z
loop_
_atom_site_type_symbol
_atom_site_label
_atom_site_fract_x
_atom_site_fract_y
_atom_site_fract_z
Si Si1 0.588313 0.560620 0.476356
Si Si2 0.020037 0.358770 0.403710
Si Si3 0.881507 0.044107 0.095176
Si Si4 0.500000 0.706675 0.000000
Si Si5 0.000000 0.653706 0.000000
Si Si6 0.729023 0.268173 0.074531
Si Si7 0.624568 0.937657 0.264506
O O1 0.500000 0.516515 0.500000
O O2 0.602776 0.722298 0.502345
O O3 0.506103 0.547035 0.289727
O O4 0.723685 0.480767 0.602529
O O5 0.083745 0.422155 0.354208
O O6 0.000000 0.437288 0.500000
O O7 0.872997 0.315561 0.239634
O O8 0.763216 0.133905 0.037839
O O9 0.921166 0.111943 0.014580
O O10 0.834887 0.891376 0.047207
O O11 0.412419 0.806007 0.842693
O O12 0.872483 0.736500 0.920054
O O13 0.959615 0.557552 0.863894
#
# Coordination Sequence:
#
# PCOD9125371 Si02
#       7
#     4   4   4   2   2   4   4
#     4  10  22  39  65  94 132 175 221 273 338 394
#     4  10  21  41  63  93 131 174 215 283 333 391
#     4  11  24  42  68  98 133 180 225 285 335 397
#     4  11  23  42  66  94 134 180 226 286 330 400
#     4  11  23  38  68  96 128 184 226 272 332 412
#     4  11  23  42  66  98 133 174 227 273 337 405
#     4  11  22  40  69  97 133 179 229 273 342 399
#
# _framework density 19.502946000000001
#
# number of rings (size 3 to 8) (size 9 to 14) (size 15 to 20)
#    0.000    1.333    3.333    4.500    4.667    4.000 
#    0.000    0.000    0.000    0.000    0.000    0.000 
#    0.000    0.000    0.000    0.000    0.000    0.000 
#
# Total GULP energy -66951.832669 kJ/mol
# GULP energy per Si atom -5579.319389 kJ/mol
# Density = 1.945856 g / cm^3
# Si number density = 19.502946 Si / 1000 Ang^3
#
#
#
# Elastic Constant Matrix: (Units=GPa)
#
#
# Indices 1 2 3 4 5 6 
#
# 1 161.5101 16.5316 53.1992 0.0000 2.9294 0.0000
# 2 16.5316 40.6218 27.3084 0.0000 3.9459 0.0000
# 3 53.1992 27.3084 80.4927 0.0000 -2.4478 0.0000
# 4 0.0000 0.0000 0.0000 12.4346 0.0000 2.1487
# 5 2.9294 3.9459 -2.4478 0.0000 38.2044 0.0000
# 6 0.0000 0.0000 0.0000 2.1487 0.0000 21.8541
#
#
#
# Elastic Compliance Matrix: (Units=1/GPa)
#
#
# Indices 1 2 3 4 5 6 
#
# 1 0.007958 0.000540 -0.005473 0.000000 -0.001017 0.000000
# 2 0.000540 0.032548 -0.011525 0.000000 -0.004141 0.000000
# 3 -0.005473 -0.011525 0.020039 0.000000 0.002894 0.000000
# 4 0.000000 0.000000 0.000000 0.081811 0.000000 -0.008044
# 5 -0.001017 -0.004141 0.002894 0.000000 0.026866 0.000000
# 6 0.000000 0.000000 0.000000 -0.008044 0.000000 0.046549
#
#
# Mechanical properties :
#
#
# Convention : Reuss Voigt Hill
#
# Bulk Modulus (GPa) = 36.19626 52.96698 44.58162
# Shear Modulus (GPa) = 19.38761 26.87098 23.12929
#
# Velocity S-wave (km/s) = 3.15633 3.71589 3.44748
# Velocity P-wave (km/s) = 5.64650 6.75484 6.22538
#
# Compressibility (1/GPa) = 0.02762716
#
# Stress axis : x y z
#
# Youngs Moduli (GPa) = 125.66586 30.72406 49.90258
#
# Poissons Ratio (x) = -0.01659 0.27314
# Poissons Ratio (y) = -0.06784 0.57513
# Poissons Ratio (z) = 0.68782 0.35410
#
# Static dielectric constant tensor:
#      x y z
#    x 1.683120 0.000000 -0.035930 
#    y 0.000000 1.704780 0.000000 
#    z -0.035930 0.000000 1.703020 
# 
# From -- ./inp_files/39302.got.cif
#   From: 2010.05.17/outbox.cif.g08.bks.cpg/sg5_20_cif.got.tgz:39302.got - 2010.06.03 18:56:24.
