data_PCOD9125462
_publ_section_title
;
Structure prediction by ZEFSAII (Michael W. Deem and Ramdas Pophale) SiO2 
 PCOD9125462
Probable space group: C 2
;
_chemical_formula_sum "Si O2"
_cell_formula_units_Z 24
_cell_length_a 12.567481
_cell_length_b 11.301474
_cell_length_c 11.507157
_cell_angle_alpha 90.000000
_cell_angle_beta 144.549514
_cell_angle_gamma 90.000000
_cell_volume 947.935432
_symmetry_space_group_name_H-M "C 2"
_symmetry_group_IT_number 5
_symmetry_cell_setting 'monoclinic'
loop_
_space_group_symop_operation_xyz
x,y,z
-x,y,-z
1/2+x,1/2+y,z
1/2-x,1/2+y,-z
loop_
_atom_site_type_symbol
_atom_site_label
_atom_site_fract_x
_atom_site_fract_y
_atom_site_fract_z
Si Si1 0.116424 0.973810 0.201229
Si Si2 0.283336 0.758697 0.445430
Si Si3 0.726490 0.883380 0.327543
Si Si4 0.445631 0.091735 0.120103
Si Si5 0.953738 0.052075 0.300341
Si Si6 0.680787 0.185543 0.739427
O O1 0.278895 0.888284 0.386676
O O2 0.191244 0.087718 0.203438
O O3 0.996976 0.012095 0.205879
O O4 0.000000 0.907477 0.000000
O O5 0.263475 0.781621 0.565499
O O6 0.461368 0.679311 0.594143
O O7 0.106320 0.687709 0.240342
O O8 0.730981 0.814893 0.207965
O O9 0.557485 0.968311 0.211516
O O10 0.907140 0.962301 0.511449
O O11 0.367732 0.142123 0.174215
O O12 0.264339 0.068139 0.881482
O O13 0.500000 0.187395 0.500000
#
# Coordination Sequence:
#
# PCOD9125462 Si02
#       6
#     4   4   4   4   4   4
#     4  11  22  41  67 104 137 174 247 295 340 449
#     4  10  21  41  67  95 146 179 224 306 356 419
#     4  10  22  41  66 106 146 176 235 308 345 426
#     4  11  23  42  73 102 137 188 239 287 366 427
#     4  10  21  42  68  98 139 187 230 293 368 419
#     4  12  21  43  72 105 138 186 242 292 359 431
#
# _framework density 25.318180000000002
#
# number of rings (size 3 to 8) (size 9 to 14) (size 15 to 20)
#    0.000    1.333    5.000    2.000    0.000    2.667 
#    6.000    0.000    7.333    4.000    0.000    0.000 
#    0.000    0.000    0.000    0.000    0.000    0.000 
#
# Total GULP energy -67093.004778 kJ/mol
# GULP energy per Si atom -5591.083732 kJ/mol
# Density = 2.526056 g / cm^3
# Si number density = 25.318180 Si / 1000 Ang^3
#
#
#
# Elastic Constant Matrix: (Units=GPa)
#
#
# Indices 1 2 3 4 5 6 
#
# 1 119.1033 44.4544 45.3838 0.0001 -9.6552 0.0001
# 2 44.4544 126.4372 70.0330 0.0001 4.8825 0.0001
# 3 45.3838 70.0330 161.8405 0.0002 28.1092 0.0002
# 4 0.0001 0.0001 0.0002 40.0186 0.0001 -0.0571
# 5 -9.6552 4.8825 28.1092 0.0001 33.6181 0.0001
# 6 0.0001 0.0001 0.0002 -0.0571 0.0001 14.8017
#
#
#
# Elastic Compliance Matrix: (Units=1/GPa)
#
#
# Indices 1 2 3 4 5 6 
#
# 1 0.010956 -0.002367 -0.003105 0.000000 0.006087 0.000000
# 2 -0.002367 0.011117 -0.004385 0.000000 0.001372 0.000000
# 3 -0.003105 -0.004385 0.010519 0.000000 -0.009050 0.000000
# 4 0.000000 0.000000 0.000000 0.024989 0.000000 0.000096
# 5 0.006087 0.001372 -0.009050 0.000000 0.038862 0.000000
# 6 0.000000 0.000000 0.000000 0.000096 0.000000 0.067560
#
#
# Mechanical properties :
#
#
# Convention : Reuss Voigt Hill
#
# Bulk Modulus (GPa) = 77.65537 80.79149 79.22343
# Shear Modulus (GPa) = 26.59408 34.18833 30.39121
#
# Velocity S-wave (km/s) = 3.24450 3.67869 3.46840
# Velocity P-wave (km/s) = 6.69134 7.07273 6.88467
#
# Compressibility (1/GPa) = 0.01287741
#
# Stress axis : x y z
#
# Youngs Moduli (GPa) = 91.27184 89.94923 95.06379
#
# Poissons Ratio (x) = 0.21293 0.29519
# Poissons Ratio (y) = 0.21606 0.41688
# Poissons Ratio (z) = 0.28342 0.39445
#
# Static dielectric constant tensor:
#      x y z
#    x 2.148290 0.000000 0.022790 
#    y 0.000000 2.009030 0.000000 
#    z 0.022790 0.000000 2.021340 
# 
# From -- ./inp_files/54626.got.cif
#   From: 2010.05.17/outbox.cif.g08.bks.cpg/sg5_28_cif.got.tgz:54626.got - 2010.06.03 18:56:24.
