data_PCOD9125302
_publ_section_title
;
Structure prediction by ZEFSAII (Michael W. Deem and Ramdas Pophale) SiO2 
 PCOD9125302
Probable space group: C 2
;
_chemical_formula_sum "Si O2"
_cell_formula_units_Z 32
_cell_length_a 26.303100
_cell_length_b 12.895004
_cell_length_c 9.646063
_cell_angle_alpha 90.000000
_cell_angle_beta 153.517238
_cell_angle_gamma 90.000000
_cell_volume 1458.961337
_symmetry_space_group_name_H-M "C 2"
_symmetry_group_IT_number 5
_symmetry_cell_setting 'monoclinic'
loop_
_space_group_symop_operation_xyz
x,y,z
-x,y,-z
1/2+x,1/2+y,z
1/2-x,1/2+y,-z
loop_
_atom_site_type_symbol
_atom_site_label
_atom_site_fract_x
_atom_site_fract_y
_atom_site_fract_z
Si Si1 0.202749 0.326530 0.467188
Si Si2 0.097977 0.539686 0.146214
Si Si3 0.948623 0.932126 0.026395
Si Si4 0.275693 0.127140 0.164208
Si Si5 0.819366 0.271535 0.280232
Si Si6 0.958107 0.459066 0.552504
Si Si7 0.913211 0.812673 0.412440
Si Si8 0.324727 0.641107 0.776883
O O1 0.133762 0.433828 0.312537
O O2 0.332465 0.364413 0.759025
O O3 0.188934 0.263725 0.575697
O O4 0.153815 0.256860 0.223489
O O5 0.209218 0.609331 0.412821
O O6 0.000000 0.590735 0.000000
O O7 0.050820 0.504191 0.884258
O O8 0.916106 0.053092 0.964409
O O9 0.000000 0.914582 0.000000
O O10 0.033437 0.896551 0.355321
O O11 0.342176 0.022106 0.299370
O O12 0.378038 0.212387 0.416435
O O13 0.207167 0.132037 0.139468
O O14 0.196363 0.165479 0.843573
O O15 0.928098 0.338798 0.503472
O O16 0.706806 0.335500 0.954827
O O17 0.000000 0.476226 0.500000
O O18 0.000000 0.787644 0.500000
#
# Coordination Sequence:
#
# PCOD9125302 Si02
#       8
#     4   4   4   4   4   4   4   4
#     4  11  23  43  66  90 134 161 211 263 313 380
#     4  11  23  42  67  92 124 175 210 261 319 367
#     4  11  23  42  63  96 124 166 214 257 313 375
#     4  10  23  41  63  98 125 162 212 263 312 372
#     4  10  24  43  65  95 128 166 209 264 319 367
#     4  12  25  42  68  95 130 165 219 263 313 383
#     4  10  21  40  69  92 126 164 208 256 319 368
#     4  11  25  40  66  95 129 165 212 262 315 379
#
# _framework density 21.933411
#
# number of rings (size 3 to 8) (size 9 to 14) (size 15 to 20)
#    0.750    0.500    3.750    1.875    5.250    2.000 
#    0.000    0.000    0.000    0.000    0.000    0.000 
#    0.000    0.000    0.000    0.000    0.000    0.000 
#
# Total GULP energy -89397.699605 kJ/mol
# GULP energy per Si atom -5587.356225 kJ/mol
# Density = 2.188349 g / cm^3
# Si number density = 21.933411 Si / 1000 Ang^3
#
#
#
# Elastic Constant Matrix: (Units=GPa)
#
#
# Indices 1 2 3 4 5 6 
#
# 1 124.5764 -0.4319 18.6330 0.0000 -32.1397 0.0000
# 2 -0.4319 52.9274 -1.7948 0.0000 3.7936 0.0000
# 3 18.6330 -1.7948 47.6366 0.0000 -3.2087 0.0000
# 4 0.0000 0.0000 0.0000 13.4118 0.0000 -0.7870
# 5 -32.1397 3.7936 -3.2087 0.0000 14.6190 0.0000
# 6 0.0000 0.0000 0.0000 -0.7870 0.0000 10.8605
#
#
#
# Elastic Compliance Matrix: (Units=1/GPa)
#
#
# Indices 1 2 3 4 5 6 
#
# 1 0.020087 -0.003151 -0.005020 0.000000 0.043877 0.000000
# 2 -0.003151 0.019754 0.001182 0.000000 -0.011794 0.000000
# 3 -0.005020 0.001182 0.022570 0.000000 -0.006390 0.000000
# 4 0.000000 0.000000 0.000000 0.074880 0.000000 0.005426
# 5 0.043877 -0.011794 -0.006390 0.000000 0.166525 0.000000
# 6 0.000000 0.000000 0.000000 0.005426 0.000000 0.092470
#
#
# Mechanical properties :
#
#
# Convention : Reuss Voigt Hill
#
# Bulk Modulus (GPa) = 20.64732 28.66144 24.65438
# Shear Modulus (GPa) = 11.72586 21.69388 16.70987
#
# Velocity S-wave (km/s) = 2.31468 3.14837 2.76315
# Velocity P-wave (km/s) = 4.07157 5.12954 4.63087
#
# Compressibility (1/GPa) = 0.04843245
#
# Stress axis : x y z
#
# Youngs Moduli (GPa) = 49.78323 50.62375 44.30645
#
# Poissons Ratio (x) = 0.15953 0.22243
# Poissons Ratio (y) = 0.15688 -0.05239
# Poissons Ratio (z) = 0.24993 -0.05986
#
# Static dielectric constant tensor:
#      x y z
#    x 1.760320 0.000000 0.011340 
#    y 0.000000 1.798980 0.000000 
#    z 0.011340 0.000000 1.819610 
# 
# From -- ./inp_files/31085.got.cif
#   From: 2010.05.17/outbox.cif.g08.bks.cpg/sg5_16_cif.got.tgz:31085.got - 2010.06.03 18:56:24.
