data_PCOD9125701
_publ_section_title
;
Structure prediction by ZEFSAII (Michael W. Deem and Ramdas Pophale) SiO2 
 PCOD9125701
Probable space group: C 2
;
_chemical_formula_sum "Si O2"
_cell_formula_units_Z 22
_cell_length_a 12.070016
_cell_length_b 8.257820
_cell_length_c 11.668196
_cell_angle_alpha 90.000000
_cell_angle_beta 118.362189
_cell_angle_gamma 90.000000
_cell_volume 1023.389647
_symmetry_space_group_name_H-M "C 2"
_symmetry_group_IT_number 5
_symmetry_cell_setting 'monoclinic'
loop_
_space_group_symop_operation_xyz
x,y,z
-x,y,-z
1/2+x,1/2+y,z
1/2-x,1/2+y,-z
loop_
_atom_site_type_symbol
_atom_site_label
_atom_site_fract_x
_atom_site_fract_y
_atom_site_fract_z
Si Si1 0.504801 0.671910 0.696769
Si Si2 0.768775 0.972231 0.159275
Si Si3 0.381244 0.002902 0.221596
Si Si4 0.121956 0.160486 0.141069
Si Si5 0.401141 0.241277 0.044558
Si Si6 0.500000 0.892522 0.500000
O O1 0.612401 0.545382 0.713852
O O2 0.582233 0.820714 0.795193
O O3 0.417535 0.602030 0.752275
O O4 0.437333 0.765814 0.559500
O O5 0.682340 0.840476 0.179327
O O6 0.828332 0.876145 0.080771
O O7 0.685824 0.118406 0.070218
O O8 0.419990 0.002036 0.374693
O O9 0.235637 0.052017 0.149071
O O10 0.453301 0.125945 0.173129
O O11 0.000000 0.166903 0.000000
O O12 0.500000 0.304495 0.000000
#
# Coordination Sequence:
#
# PCOD9125701 Si02
#       6
#     4   4   4   4   4   2
#     4  10  21  43  61  89 130 168 210 260 308 369
#     4  11  23  36  59  95 129 158 205 258 315 385
#     4   9  20  42  66  90 131 168 211 260 310 382
#     4  11  22  38  66  97 125 165 205 266 333 372
#     4  11  22  37  61  96 124 159 202 258 328 377
#     4   8  22  44  66  86 130 176 216 262 296 374
#
# _framework density 21.497188999999999
#
# number of rings (size 3 to 8) (size 9 to 14) (size 15 to 20)
#    1.091    0.727    0.000    6.000    0.000    5.091 
#    3.273    4.545    0.000    0.000    0.000    0.000 
#    0.000    0.000    0.000    0.000    0.000    0.000 
#
# Total GULP energy -61288.305352 kJ/mol
# GULP energy per Si atom -5571.664123 kJ/mol
# Density = 2.144826 g / cm^3
# Si number density = 21.497189 Si / 1000 Ang^3
#
#
#
# Elastic Constant Matrix: (Units=GPa)
#
#
# Indices 1 2 3 4 5 6 
#
# 1 76.5850 7.2917 13.8959 0.0000 -7.3232 0.0000
# 2 7.2917 44.7296 -8.0760 0.0000 9.1746 0.0000
# 3 13.8959 -8.0760 86.3756 0.0000 -8.7732 0.0000
# 4 0.0000 0.0000 0.0000 29.2522 0.0000 -7.1537
# 5 -7.3232 9.1746 -8.7732 0.0000 22.3863 0.0000
# 6 0.0000 0.0000 0.0000 -7.1537 0.0000 38.9214
#
#
#
# Elastic Compliance Matrix: (Units=1/GPa)
#
#
# Indices 1 2 3 4 5 6 
#
# 1 0.014324 -0.003830 -0.002111 0.000000 0.005428 0.000000
# 2 -0.003830 0.025577 0.001891 0.000000 -0.010994 0.000000
# 3 -0.002111 0.001891 0.012440 0.000000 0.003410 0.000000
# 4 0.000000 0.000000 0.000000 0.035794 0.000000 0.006579
# 5 0.005428 -0.010994 0.003410 0.000000 0.052288 0.000000
# 6 0.000000 0.000000 0.000000 0.006579 0.000000 0.026902
#
#
# Mechanical properties :
#
#
# Convention : Reuss Voigt Hill
#
# Bulk Modulus (GPa) = 22.60315 25.99040 24.29677
# Shear Modulus (GPa) = 26.29190 31.08389 28.68789
#
# Velocity S-wave (km/s) = 3.50099 3.80669 3.65704
# Velocity P-wave (km/s) = 5.18458 5.60692 5.39988
#
# Compressibility (1/GPa) = 0.04424162
#
# Stress axis : x y z
#
# Youngs Moduli (GPa) = 69.81249 39.09726 80.38525
#
# Poissons Ratio (x) = 0.14973 0.16971
# Poissons Ratio (y) = 0.26735 -0.15200
# Poissons Ratio (z) = 0.14739 -0.07393
#
# Static dielectric constant tensor:
#      x y z
#    x 1.788620 0.000000 0.022050 
#    y 0.000000 1.835000 0.000000 
#    z 0.022050 0.000000 1.798460 
# 
# From -- ./inp_files/38127.got.cif
#   From: 2010.05.17/outbox.cif.g08.bks.cpg/sg5_20_cif.got.tgz:38127.got - 2010.06.03 18:56:24.
