data_PCOD9125232
_publ_section_title
;
Structure prediction by ZEFSAII (Michael W. Deem and Ramdas Pophale) SiO2 
 PCOD9125232
Probable space group: C 2
;
_chemical_formula_sum "Si O2"
_cell_formula_units_Z 24
_cell_length_a 7.349710
_cell_length_b 31.700359
_cell_length_c 8.106239
_cell_angle_alpha 90.000000
_cell_angle_beta 37.808383
_cell_angle_gamma 90.000000
_cell_volume 1157.791383
_symmetry_space_group_name_H-M "C 2"
_symmetry_group_IT_number 5
_symmetry_cell_setting 'monoclinic'
loop_
_space_group_symop_operation_xyz
x,y,z
-x,y,-z
1/2+x,1/2+y,z
1/2-x,1/2+y,-z
loop_
_atom_site_type_symbol
_atom_site_label
_atom_site_fract_x
_atom_site_fract_y
_atom_site_fract_z
Si Si1 0.207115 0.298680 0.983353
Si Si2 0.715567 0.849797 0.504551
Si Si3 0.648821 0.621717 0.712443
Si Si4 0.650513 0.527470 0.714657
Si Si5 0.000000 0.177593 0.500000
Si Si6 0.500000 0.233309 0.000000
Si Si7 0.651330 0.436773 0.711652
O O1 0.521127 0.316031 0.696038
O O2 0.272711 0.264976 0.075586
O O3 0.000000 0.276468 0.000000
O O4 0.005915 0.337709 0.190699
O O5 0.500000 0.847320 0.500000
O O6 0.868547 0.895650 0.388324
O O7 0.579370 0.573748 0.698417
O O8 0.541442 0.651531 0.640802
O O9 0.000000 0.625523 0.500000
O O10 0.500000 0.627937 0.000000
O O11 0.561888 0.482256 0.700259
O O12 0.000000 0.527777 0.500000
O O13 0.500000 0.525712 0.000000
O O14 0.298929 0.204998 0.263099
O O15 0.000000 0.440280 0.500000
O O16 0.500000 0.429472 0.000000
#
# Coordination Sequence:
#
# PCOD9125232 Si02
#       7
#     4   4   4   4   2   2   4
#     4  12  25  42  64  87 120 162 205 258 320 377
#     4  11  19  37  62  90 122 162 209 252 307 366
#     4  10  21  40  65  95 128 167 205 257 316 380
#     4   8  15  29  52  86 124 158 203 242 295 361
#     4  12  26  42  70  94 124 162 214 266 324 388
#     4  12  26  46  64  92 122 160 214 268 318 386
#     4   9  16  27  52  91 119 160 208 245 288 362
#
# _framework density 20.729123000000001
#
# number of rings (size 3 to 8) (size 9 to 14) (size 15 to 20)
#    0.000    1.667    1.667    4.500    0.000    2.000 
#    0.000    0.000    3.667    0.000    0.000    0.000 
#    0.000    0.000    0.000    0.000    0.000    0.000 
#
# Total GULP energy -66875.564381 kJ/mol
# GULP energy per Si atom -5572.963698 kJ/mol
# Density = 2.068194 g / cm^3
# Si number density = 20.729123 Si / 1000 Ang^3
#
#
#
# Elastic Constant Matrix: (Units=GPa)
#
#
# Indices 1 2 3 4 5 6 
#
# 1 75.7553 31.4862 16.5365 0.0000 9.2609 0.0000
# 2 31.4862 116.0890 28.5632 0.0000 9.0728 0.0000
# 3 16.5365 28.5632 145.6246 0.0000 -10.3133 0.0000
# 4 0.0000 0.0000 0.0000 55.8622 0.0000 58.7799
# 5 9.2609 9.0728 -10.3133 0.0000 20.4967 0.0000
# 6 0.0000 0.0000 0.0000 58.7799 0.0000 112.2018
#
#
#
# Elastic Compliance Matrix: (Units=1/GPa)
#
#
# Indices 1 2 3 4 5 6 
#
# 1 0.015732 -0.003378 -0.001578 0.000000 -0.006407 0.000000
# 2 -0.003378 0.010317 -0.001924 0.000000 -0.004009 0.000000
# 3 -0.001578 -0.001924 0.007813 0.000000 0.005495 0.000000
# 4 0.000000 0.000000 0.000000 0.039890 0.000000 -0.020898
# 5 -0.006407 -0.004009 0.005495 0.000000 0.056222 0.000000
# 6 0.000000 0.000000 0.000000 -0.020898 0.000000 0.019860
#
#
# Mechanical properties :
#
#
# Convention : Reuss Voigt Hill
#
# Bulk Modulus (GPa) = 49.74501 54.51564 52.13033
# Shear Modulus (GPa) = 29.36090 55.10434 42.23262
#
# Velocity S-wave (km/s) = 3.76760 5.16147 4.51861
# Velocity P-wave (km/s) = 6.55562 7.86620 7.24063
#
# Compressibility (1/GPa) = 0.02010252
#
# Stress axis : x y z
#
# Youngs Moduli (GPa) = 63.56486 96.92800 127.99723
#
# Poissons Ratio (x) = 0.32743 0.20193
# Poissons Ratio (y) = 0.21472 0.24625
# Poissons Ratio (z) = 0.10028 0.18648
#
# Static dielectric constant tensor:
#      x y z
#    x 1.677510 0.000000 0.035390 
#    y 0.000000 1.846830 0.000000 
#    z 0.035390 0.000000 1.728060 
# 
# From -- ./inp_files/17626.got.cif
#   From: 2010.05.17/outbox.cif.g08.bks.cpg/sg5_9_cif.got.tgz:17626.got - 2010.06.03 18:56:24.
