data_PCOD9125752
_publ_section_title
;
Structure prediction by ZEFSAII (Michael W. Deem and Ramdas Pophale) SiO2 
 PCOD9125752
Probable space group: C 2
;
_chemical_formula_sum "Si O2"
_cell_formula_units_Z 32
_cell_length_a 28.213992
_cell_length_b 5.499294
_cell_length_c 17.526742
_cell_angle_alpha 90.000000
_cell_angle_beta 27.589134
_cell_angle_gamma 90.000000
_cell_volume 1259.428951
_symmetry_space_group_name_H-M "C 2"
_symmetry_group_IT_number 5
_symmetry_cell_setting 'monoclinic'
loop_
_space_group_symop_operation_xyz
x,y,z
-x,y,-z
1/2+x,1/2+y,z
1/2-x,1/2+y,-z
loop_
_atom_site_type_symbol
_atom_site_label
_atom_site_fract_x
_atom_site_fract_y
_atom_site_fract_z
Si Si1 0.921070 0.500000 0.052768
Si Si2 0.256942 0.257098 0.184727
Si Si3 0.048886 0.479706 0.637274
Si Si4 0.977325 0.121296 0.202926
Si Si5 0.702597 0.345789 0.599804
Si Si6 0.889238 0.848666 0.872227
Si Si7 0.254167 0.626520 0.316996
Si Si8 0.036143 0.085412 0.534471
O O1 0.859787 0.654726 0.078107
O O2 0.830478 0.344831 0.221366
O O3 0.000000 0.616142 0.000000
O O4 0.986697 0.293144 0.915776
O O5 0.245405 0.514209 0.245249
O O6 0.162113 0.079784 0.344047
O O7 0.273989 0.300739 0.068976
O O8 0.085719 0.284947 0.646923
O O9 0.137039 0.681399 0.506162
O O10 0.031222 0.345482 0.583186
O O11 0.943120 0.593082 0.810944
O O12 0.912902 0.896334 0.264004
O O13 0.069993 0.038803 0.123806
O O14 0.738695 0.080291 0.521903
O O15 0.708389 0.407515 0.681237
O O16 0.951112 0.931107 0.706379
O O17 0.000000 0.075724 0.500000
#
# Coordination Sequence:
#
# PCOD9125752 Si02
#       8
#     4   4   4   4   4   4   4   4
#     4  12  24  38  60  98 142 189 245 301 351 440
#     4  11  25  44  72 100 142 197 242 302 389 457
#     4  10  21  43  68  92 130 181 231 294 373 441
#     4  11  22  38  60  95 138 184 240 301 354 433
#     4  12  26  40  63  98 141 198 263 319 376 448
#     4  11  22  43  72  99 139 185 234 299 381 461
#     4  11  23  40  62  92 133 188 244 303 365 431
#     4  10  25  49  72 107 141 173 239 317 383 474
#
# _framework density 25.408339000000002
#
# number of rings (size 3 to 8) (size 9 to 14) (size 15 to 20)
#    0.000    1.000    5.000    1.500    1.750    2.000 
#    2.250    0.000    0.000    0.000    0.000    0.000 
#    0.000    0.000    0.000    0.000    0.000    0.000 
#
# Total GULP energy -89254.692960 kJ/mol
# GULP energy per Si atom -5578.418310 kJ/mol
# Density = 2.535051 g / cm^3
# Si number density = 25.408339 Si / 1000 Ang^3
#
#
#
# Elastic Constant Matrix: (Units=GPa)
#
#
# Indices 1 2 3 4 5 6 
#
# 1 82.1693 11.7311 39.1473 -0.0010 28.9116 0.0491
# 2 11.7311 75.7263 31.9288 0.0253 10.8036 0.1503
# 3 39.1473 31.9288 125.9283 -0.0321 37.2786 0.0486
# 4 -0.0010 0.0253 -0.0321 55.7690 0.0070 9.5020
# 5 28.9116 10.8036 37.2786 0.0070 39.6178 -0.0452
# 6 0.0491 0.1503 0.0486 9.5020 -0.0452 4.1976
#
#
#
# Elastic Compliance Matrix: (Units=1/GPa)
#
#
# Indices 1 2 3 4 5 6 
#
# 1 0.016811 -0.000244 -0.002151 0.000076 -0.010178 -0.000445
# 2 -0.000244 0.014805 -0.003514 0.000122 -0.000554 -0.000770
# 3 -0.002151 -0.003514 0.012132 0.000039 -0.008888 -0.000174
# 4 0.000076 0.000122 0.000039 0.029191 -0.000207 -0.066088
# 5 -0.010178 -0.000554 -0.008888 -0.000207 0.041184 0.001153
# 6 -0.000445 -0.000770 -0.000174 -0.066088 0.001153 0.387880
#
#
# Mechanical properties :
#
#
# Convention : Reuss Voigt Hill
#
# Bulk Modulus (GPa) = 31.31831 49.93757 40.62794
# Shear Modulus (GPa) = 9.53353 33.31799 21.42576
#
# Velocity S-wave (km/s) = 1.93914 3.62512 2.90704
# Velocity P-wave (km/s) = 4.16731 6.10071 5.22423
#
# Compressibility (1/GPa) = 0.03193021
#
# Stress axis : x y z
#
# Youngs Moduli (GPa) = 59.48449 67.54356 82.42895
#
# Poissons Ratio (x) = 0.01651 0.17729
# Poissons Ratio (y) = 0.01454 0.28962
# Poissons Ratio (z) = 0.12794 0.23732
#
# Static dielectric constant tensor:
#      x y z
#    x 1.984690 -0.000060 0.005030 
#    y -0.000060 2.045560 -0.000110 
#    z 0.005030 -0.000110 2.197270 
# 
# From -- ./inp_files/63741.got.cif
#   From: 2010.05.17/outbox.cif.g08.bks.cpg/sg5_32_cif.got.tgz:63741.got - 2010.06.03 18:56:24.
