data_PCOD9125322
_publ_section_title
;
Structure prediction by ZEFSAII (Michael W. Deem and Ramdas Pophale) SiO2 
 PCOD9125322
Probable space group: C 2
;
_chemical_formula_sum "Si O2"
_cell_formula_units_Z 28
_cell_length_a 30.490498
_cell_length_b 5.506529
_cell_length_c 7.795115
_cell_angle_alpha 90.000000
_cell_angle_beta 116.416747
_cell_angle_gamma 90.000000
_cell_volume 1172.114976
_symmetry_space_group_name_H-M "C 2"
_symmetry_group_IT_number 5
_symmetry_cell_setting 'monoclinic'
loop_
_space_group_symop_operation_xyz
x,y,z
-x,y,-z
1/2+x,1/2+y,z
1/2-x,1/2+y,-z
loop_
_atom_site_type_symbol
_atom_site_label
_atom_site_fract_x
_atom_site_fract_y
_atom_site_fract_z
Si Si1 0.574829 0.806740 0.061156
Si Si2 0.624379 0.417873 0.907235
Si Si3 0.032867 0.640304 0.693805
Si Si4 0.638134 0.186152 0.290341
Si Si5 0.775464 0.112436 0.989552
Si Si6 0.259737 0.278949 0.429173
Si Si7 0.536398 0.429426 0.214501
O O1 0.589424 0.602834 0.949166
O O2 0.547091 0.995827 0.891571
O O3 0.546495 0.706191 0.177542
O O4 0.624862 0.909051 0.229134
O O5 0.586497 0.246846 0.738292
O O6 0.648426 0.282763 0.114375
O O7 0.667694 0.545120 0.877670
O O8 0.000000 0.492369 0.500000
O O9 0.993470 0.851101 0.672651
O O10 0.682277 0.241659 0.491732
O O11 0.588248 0.299463 0.278327
O O12 0.771001 0.201344 0.787235
O O13 0.754238 0.355438 0.045840
O O14 0.251782 0.562177 0.456036
O O15 0.500000 0.352073 0.000000
#
# Coordination Sequence:
#
# PCOD9125322 Si02
#       7
#     4   4   4   4   4   4   4
#     4  10  21  40  71  92 140 182 234 276 355 416
#     4  10  22  44  69  96 139 190 229 285 363 428
#     4  11  25  42  68 104 142 179 228 290 350 426
#     4  10  22  39  71 101 130 178 244 294 331 422
#     4  12  28  48  74 105 150 191 233 303 381 434
#     4  12  25  46  77 107 137 186 253 298 350 434
#     4  11  21  40  65 100 131 182 227 276 340 418
#
# _framework density 23.888439999999999
#
# number of rings (size 3 to 8) (size 9 to 14) (size 15 to 20)
#    0.000    1.143    5.714    1.714    8.000    1.714 
#    2.571    0.000    0.000    0.000    0.000    0.000 
#    0.000    0.000    0.000    0.000    0.000    0.000 
#
# Total GULP energy -78032.363660 kJ/mol
# GULP energy per Si atom -5573.740261 kJ/mol
# Density = 2.383407 g / cm^3
# Si number density = 23.888440 Si / 1000 Ang^3
#
#
#
# Elastic Constant Matrix: (Units=GPa)
#
#
# Indices 1 2 3 4 5 6 
#
# 1 85.7041 17.8213 9.3061 0.0000 16.9777 0.0000
# 2 17.8213 71.4597 -4.2164 0.0000 -2.7321 0.0000
# 3 9.3061 -4.2164 53.3221 0.0000 13.9152 0.0000
# 4 0.0000 0.0000 0.0000 -2.6106 0.0000 26.0929
# 5 16.9777 -2.7321 13.9152 0.0000 36.3823 0.0000
# 6 0.0000 0.0000 0.0000 26.0929 0.0000 25.8695
#
#
#
# Elastic Compliance Matrix: (Units=1/GPa)
#
#
# Indices 1 2 3 4 5 6 
#
# 1 0.013815 -0.003750 -0.001057 0.000000 -0.006324 0.000000
# 2 -0.003750 0.015093 0.001217 0.000000 0.002418 0.000000
# 3 -0.001057 0.001217 0.020976 0.000000 -0.007438 0.000000
# 4 0.000000 0.000000 0.000000 -0.034568 0.000000 0.034866
# 5 -0.006324 0.002418 -0.007438 0.000000 0.033463 0.000000
# 6 0.000000 0.000000 0.000000 0.034866 0.000000 0.003488
#
#
# Mechanical properties :
#
#
# Convention : Reuss Voigt Hill
#
# Bulk Modulus (GPa) = 23.41673 28.47866 25.94770
# Shear Modulus (GPa) = 67.85841 24.43324 46.14583
#
# Velocity S-wave (km/s) = 5.33555 3.20160 4.39990
# Velocity P-wave (km/s) = 6.91240 5.06107 6.05787
#
# Compressibility (1/GPa) = 0.04270451
#
# Stress axis : x y z
#
# Youngs Moduli (GPa) = 72.38345 66.25479 47.67416
#
# Poissons Ratio (x) = 0.24843 0.05040
# Poissons Ratio (y) = 0.27141 -0.05802
# Poissons Ratio (z) = 0.07653 -0.08063
#
# Static dielectric constant tensor:
#      x y z
#    x 2.067080 0.000000 0.024340 
#    y 0.000000 2.050260 0.000000 
#    z 0.024340 0.000000 1.898670 
# 
# From -- ./inp_files/32335.got.cif
#   From: 2010.05.17/outbox.cif.g08.bks.cpg/sg5_17_cif.got.tgz:32335.got - 2010.06.03 18:56:24.
