data_PCOD9125208
_publ_section_title
;
Structure prediction by ZEFSAII (Michael W. Deem and Ramdas Pophale) SiO2 
 PCOD9125208
Probable space group: C 2
;
_chemical_formula_sum "Si O2"
_cell_formula_units_Z 28
_cell_length_a 29.983467
_cell_length_b 8.023671
_cell_length_c 9.666974
_cell_angle_alpha 90.000000
_cell_angle_beta 145.884395
_cell_angle_gamma 90.000000
_cell_volume 1304.378005
_symmetry_space_group_name_H-M "C 2"
_symmetry_group_IT_number 5
_symmetry_cell_setting 'monoclinic'
loop_
_space_group_symop_operation_xyz
x,y,z
-x,y,-z
1/2+x,1/2+y,z
1/2-x,1/2+y,-z
loop_
_atom_site_type_symbol
_atom_site_label
_atom_site_fract_x
_atom_site_fract_y
_atom_site_fract_z
Si Si1 0.260724 0.515230 0.892814
Si Si2 0.359152 0.024338 0.794050
Si Si3 0.808843 0.149511 0.726890
Si Si4 0.495899 0.088988 0.651798
Si Si5 0.144952 0.818368 0.646272
Si Si6 0.396291 0.867607 0.602116
Si Si7 0.412167 0.501306 0.756377
O O1 0.305032 0.579695 0.871003
O O2 0.205183 0.663908 0.804259
O O3 0.196141 0.375277 0.681532
O O4 0.320821 0.453754 0.162115
O O5 0.334798 0.841307 0.786788
O O6 0.398976 0.984122 0.746591
O O7 0.279345 0.128243 0.563461
O O8 0.419201 0.106499 0.056153
O O9 0.868253 0.041406 0.785733
O O10 0.500000 0.049618 0.500000
O O11 0.441046 0.251224 0.530274
O O12 0.451046 0.944522 0.623855
O O13 0.139043 0.886639 0.475969
O O14 0.420702 0.681737 0.704113
O O15 0.500000 0.428705 0.000000
#
# Coordination Sequence:
#
# PCOD9125208 Si02
#       7
#     4   4   4   4   4   4   4
#     4  10  22  42  64  92 123 160 210 250 302 363
#     4  10  21  40  64  93 124 157 205 252 306 362
#     4  10  22  39  68  94 119 161 206 257 298 360
#     4  11  25  41  61  89 124 166 205 251 306 364
#     4  11  25  41  62  89 127 167 200 254 309 360
#     4   9  20  41  66  90 122 162 200 253 306 358
#     4  11  23  40  63  93 126 161 203 251 308 365
#
# _framework density 21.466170999999999
#
# number of rings (size 3 to 8) (size 9 to 14) (size 15 to 20)
#    0.000    1.714    0.000    3.857    0.000   14.857 
#    0.000    0.714    0.000    0.000    0.000    0.000 
#    0.000    0.000    0.000    0.000    0.000    0.000 
#
# Total GULP energy -78370.688807 kJ/mol
# GULP energy per Si atom -5597.906343 kJ/mol
# Density = 2.141731 g / cm^3
# Si number density = 21.466171 Si / 1000 Ang^3
#
#
#
# Elastic Constant Matrix: (Units=GPa)
#
#
# Indices 1 2 3 4 5 6 
#
# 1 93.9747 12.4495 42.4594 0.0000 0.7831 0.0000
# 2 12.4495 57.9682 45.6786 0.0000 4.8713 0.0000
# 3 42.4594 45.6786 138.9516 0.0000 -0.1581 0.0000
# 4 0.0000 0.0000 0.0000 33.1264 0.0000 4.2216
# 5 0.7831 4.8713 -0.1581 0.0000 22.7759 0.0000
# 6 0.0000 0.0000 0.0000 4.2216 0.0000 21.1471
#
#
#
# Elastic Compliance Matrix: (Units=1/GPa)
#
#
# Indices 1 2 3 4 5 6 
#
# 1 0.012361 0.000498 -0.003941 0.000000 -0.000559 0.000000
# 2 0.000498 0.023893 -0.008013 0.000000 -0.005183 0.000000
# 3 -0.003941 -0.008013 0.011037 0.000000 0.001926 0.000000
# 4 0.000000 0.000000 0.000000 0.030975 0.000000 -0.006184
# 5 -0.000559 -0.005183 0.001926 0.000000 0.045047 0.000000
# 6 0.000000 0.000000 0.000000 -0.006184 0.000000 0.048522
#
#
# Mechanical properties :
#
#
# Convention : Reuss Voigt Hill
#
# Bulk Modulus (GPa) = 41.01824 54.67439 47.84632
# Shear Modulus (GPa) = 24.64572 28.09702 26.37137
#
# Velocity S-wave (km/s) = 3.39207 3.62179 3.50881
# Velocity P-wave (km/s) = 5.87293 6.55860 6.22521
#
# Compressibility (1/GPa) = 0.02437940
#
# Stress axis : x y z
#
# Youngs Moduli (GPa) = 80.90204 41.85245 90.60079
#
# Poissons Ratio (x) = -0.02085 0.35710
# Poissons Ratio (y) = -0.04030 0.72597
# Poissons Ratio (z) = 0.31887 0.33536
#
# Static dielectric constant tensor:
#      x y z
#    x 1.755150 0.000000 0.013210 
#    y 0.000000 1.784460 0.000000 
#    z 0.013210 0.000000 1.779680 
# 
# From -- ./inp_files/31783.got.cif
#   From: 2010.05.17/outbox.cif.g08.bks.cpg/sg5_16_cif.got.tgz:31783.got - 2010.06.03 18:56:24.
