data_PCOD9125682
_publ_section_title
;
Structure prediction by ZEFSAII (Michael W. Deem and Ramdas Pophale) SiO2 
 PCOD9125682
Probable space group: C 2
;
_chemical_formula_sum "Si O2"
_cell_formula_units_Z 28
_cell_length_a 11.183034
_cell_length_b 14.392787
_cell_length_c 8.845988
_cell_angle_alpha 90.000000
_cell_angle_beta 109.798967
_cell_angle_gamma 90.000000
_cell_volume 1339.640598
_symmetry_space_group_name_H-M "C 2"
_symmetry_group_IT_number 5
_symmetry_cell_setting 'monoclinic'
loop_
_space_group_symop_operation_xyz
x,y,z
-x,y,-z
1/2+x,1/2+y,z
1/2-x,1/2+y,-z
loop_
_atom_site_type_symbol
_atom_site_label
_atom_site_fract_x
_atom_site_fract_y
_atom_site_fract_z
Si Si1 0.352439 0.959730 0.467000
Si Si2 0.928570 0.937357 0.218555
Si Si3 0.500000 0.870012 0.000000
Si Si4 0.776761 0.315438 0.687980
Si Si5 0.769977 0.656318 0.541024
Si Si6 0.227383 0.430403 0.898880
Si Si7 0.500000 0.584242 0.500000
Si Si8 0.393427 0.281271 0.846117
O O1 0.500000 0.945229 0.500000
O O2 0.303672 0.874188 0.546664
O O3 0.289701 0.968827 0.275651
O O4 0.326100 0.054153 0.544831
O O5 0.833805 0.871363 0.273680
O O6 0.036547 0.870905 0.197268
O O7 0.983233 0.016724 0.348709
O O8 0.838762 0.975915 0.046173
O O9 0.597032 0.815852 0.153339
O O10 0.404202 0.928476 0.065516
O O11 0.731424 0.214880 0.614482
O O12 0.625072 0.644873 0.532336
O O13 0.847134 0.712669 0.698770
O O14 0.277420 0.324251 0.893177
O O15 0.500000 0.237850 0.000000
#
# Coordination Sequence:
#
# PCOD9125682 Si02
#       8
#     4   4   2   4   4   4   2   4
#     4  12  24  44  70  99 139 180 221 276 337 403
#     4  10  22  45  71  92 131 180 225 277 332 399
#     4  10  22  40  70 100 130 186 220 274 342 390
#     4  11  23  45  69  95 140 178 223 276 333 406
#     4  12  27  41  67 105 132 178 222 274 338 401
#     4  10  21  42  71  97 128 179 229 274 336 391
#     4  12  24  42  64 102 134 168 228 276 332 396
#     4  10  22  43  71  97 133 176 225 277 334 401
#
# _framework density 20.901129000000001
#
# number of rings (size 3 to 8) (size 9 to 14) (size 15 to 20)
#    0.000    1.143    4.286    1.714    5.000    0.000 
#    6.429    0.000    0.000    0.000    0.000    0.000 
#    0.000    0.000    0.000    0.000    0.000    0.000 
#
# Total GULP energy -78276.734881 kJ/mol
# GULP energy per Si atom -5591.195349 kJ/mol
# Density = 2.085356 g / cm^3
# Si number density = 20.901129 Si / 1000 Ang^3
#
#
#
# Elastic Constant Matrix: (Units=GPa)
#
#
# Indices 1 2 3 4 5 6 
#
# 1 107.7611 2.3812 16.9737 0.0000 -3.6444 0.0000
# 2 2.3812 32.8229 14.4169 0.0000 10.7235 0.0000
# 3 16.9737 14.4169 139.7930 0.0000 18.9871 0.0000
# 4 0.0000 0.0000 0.0000 18.3564 0.0000 0.5705
# 5 -3.6444 10.7235 18.9871 0.0000 31.4843 0.0000
# 6 0.0000 0.0000 0.0000 0.5705 0.0000 16.1771
#
#
#
# Elastic Compliance Matrix: (Units=1/GPa)
#
#
# Indices 1 2 3 4 5 6 
#
# 1 0.009591 -0.000814 -0.001382 0.000000 0.002221 0.000000
# 2 -0.000814 0.034939 -0.002043 0.000000 -0.010763 0.000000
# 3 -0.001382 -0.002043 0.008125 0.000000 -0.004364 0.000000
# 4 0.000000 0.000000 0.000000 0.054537 0.000000 -0.001923
# 5 0.002221 -0.010763 -0.004364 0.000000 0.038317 0.000000
# 6 0.000000 0.000000 0.000000 -0.001923 0.000000 0.061884
#
#
# Mechanical properties :
#
#
# Convention : Reuss Voigt Hill
#
# Bulk Modulus (GPa) = 22.63665 38.65785 30.64725
# Shear Modulus (GPa) = 21.68305 29.64388 25.66347
#
# Velocity S-wave (km/s) = 3.22438 3.77011 3.50787
# Velocity P-wave (km/s) = 4.97152 6.12269 5.57689
#
# Compressibility (1/GPa) = 0.04417615
#
# Stress axis : x y z
#
# Youngs Moduli (GPa) = 104.26875 28.62127 123.08235
#
# Poissons Ratio (x) = 0.02331 0.17012
# Poissons Ratio (y) = 0.08491 0.25141
# Poissons Ratio (z) = 0.14412 0.05846
#
# Static dielectric constant tensor:
#      x y z
#    x 1.751740 0.000000 0.004700 
#    y 0.000000 1.686980 0.000000 
#    z 0.004700 0.000000 1.788390 
# 
# From -- ./inp_files/20051.got.cif
#   From: 2010.05.17/outbox.cif.g08.bks.cpg/sg5_11_cif.got.tgz:20051.got - 2010.06.03 18:56:24.
