data_PCOD9125935
_publ_section_title
;
Structure prediction by ZEFSAII (Michael W. Deem and Ramdas Pophale) SiO2 
 PCOD9125935
Probable space group: C 2
;
_chemical_formula_sum "Si O2"
_cell_formula_units_Z 14
_cell_length_a 16.451470
_cell_length_b 4.840912
_cell_length_c 16.321340
_cell_angle_alpha 90.000000
_cell_angle_beta 22.263455
_cell_angle_gamma 90.000000
_cell_volume 492.462643
_symmetry_space_group_name_H-M "C 2"
_symmetry_group_IT_number 5
_symmetry_cell_setting 'monoclinic'
loop_
_space_group_symop_operation_xyz
x,y,z
-x,y,-z
1/2+x,1/2+y,z
1/2-x,1/2+y,-z
loop_
_atom_site_type_symbol
_atom_site_label
_atom_site_fract_x
_atom_site_fract_y
_atom_site_fract_z
Si Si1 0.203118 0.891040 0.174994
Si Si2 0.647407 0.121405 0.736865
Si Si3 0.000000 0.484459 0.500000
Si Si4 0.488239 0.629191 0.234895
O O1 0.109482 0.695573 0.332594
O O2 0.290293 0.696672 0.019853
O O3 0.047772 0.111952 0.274891
O O4 0.421324 0.053794 0.993172
O O5 0.819485 0.276060 0.632743
O O6 0.594603 0.334957 0.714801
O O7 0.673477 0.836697 0.661261
#
# Coordination Sequence:
#
# PCOD9125935 Si02
#       4
#     4   4   2   4
#     4  10  23  53  99 127 180 251 304 383 458 552
#     4  10  24  52  85 131 186 243 290 389 462 553
#     4  12  28  54  96 148 180 232 324 382 478 540
#     4  10  21  52  94 114 186 252 297 361 478 533
#
# _framework density 28.428550999999999
#
# number of rings (size 3 to 8) (size 9 to 14) (size 15 to 20)
#    1.714    0.000    2.857    0.000    0.000    2.286 
#   15.429    5.714    6.286    5.143    0.000    0.000 
#    0.000    0.000    0.000    0.000    0.000    0.000 
#
# Total GULP energy -39160.766394 kJ/mol
# GULP energy per Si atom -5594.395199 kJ/mol
# Density = 2.836385 g / cm^3
# Si number density = 28.428551 Si / 1000 Ang^3
#
#
#
# Elastic Constant Matrix: (Units=GPa)
#
#
# Indices 1 2 3 4 5 6 
#
# 1 228.6939 67.2420 118.0541 -0.0012 -23.0332 -0.0025
# 2 67.2420 126.5339 57.5945 -0.0160 -1.5171 0.0074
# 3 118.0541 57.5945 189.6409 -0.0088 1.5667 0.0050
# 4 -0.0012 -0.0160 -0.0088 67.3861 0.0031 -7.0982
# 5 -23.0332 -1.5171 1.5667 0.0031 74.9827 -0.0007
# 6 -0.0025 0.0074 0.0050 -7.0982 -0.0007 67.6351
#
#
#
# Elastic Compliance Matrix: (Units=1/GPa)
#
#
# Indices 1 2 3 4 5 6 
#
# 1 0.007203 -0.002032 -0.003885 -0.000001 0.002253 0.000001
# 2 -0.002032 0.009749 -0.001692 0.000002 -0.000392 -0.000001
# 3 -0.003885 -0.001692 0.008217 0.000001 -0.001399 -0.000001
# 4 -0.000001 0.000002 0.000001 0.015006 -0.000001 0.001575
# 5 0.002253 -0.000392 -0.001399 -0.000001 0.014050 0.000000
# 6 0.000001 -0.000001 -0.000001 0.001575 0.000000 0.014950
#
#
# Mechanical properties :
#
#
# Convention : Reuss Voigt Hill
#
# Bulk Modulus (GPa) = 100.51262 114.51666 107.51464
# Shear Modulus (GPa) = 57.00604 62.13265 59.56935
#
# Velocity S-wave (km/s) = 4.48285 4.68008 4.58253
# Velocity P-wave (km/s) = 7.88844 8.34110 8.11793
#
# Compressibility (1/GPa) = 0.00994900
#
# Stress axis : x y z
#
# Youngs Moduli (GPa) = 138.83907 102.57917 121.69552
#
# Poissons Ratio (x) = 0.20846 0.47280
# Poissons Ratio (y) = 0.28214 0.20596
# Poissons Ratio (z) = 0.53941 0.17360
#
# Static dielectric constant tensor:
#      x y z
#    x 2.177010 0.000000 -0.009180 
#    y 0.000000 2.140710 0.000000 
#    z -0.009180 0.000000 2.355530 
# 
# From -- ./inp_files/61938.got.cif
#   From: 2010.05.17/outbox.cif.g08.bks.cpg/sg5_31_cif.got.tgz:61938.got - 2010.06.03 18:56:24.
