data_PCOD9125891
_publ_section_title
;
Structure prediction by ZEFSAII (Michael W. Deem and Ramdas Pophale) SiO2 
 PCOD9125891
Probable space group: C 2
;
_chemical_formula_sum "Si O2"
_cell_formula_units_Z 30
_cell_length_a 16.645769
_cell_length_b 8.214644
_cell_length_c 8.696841
_cell_angle_alpha 90.000000
_cell_angle_beta 97.715947
_cell_angle_gamma 90.000000
_cell_volume 1178.430766
_symmetry_space_group_name_H-M "C 2"
_symmetry_group_IT_number 5
_symmetry_cell_setting 'monoclinic'
loop_
_space_group_symop_operation_xyz
x,y,z
-x,y,-z
1/2+x,1/2+y,z
1/2-x,1/2+y,-z
loop_
_atom_site_type_symbol
_atom_site_label
_atom_site_fract_x
_atom_site_fract_y
_atom_site_fract_z
Si Si1 0.237850 0.583640 0.987332
Si Si2 0.851640 0.286979 0.510046
Si Si3 0.500000 0.344878 0.000000
Si Si4 0.493170 0.955073 0.722753
Si Si5 0.816190 0.922988 0.488029
Si Si6 0.859915 0.276598 0.140239
Si Si7 0.126043 0.732943 0.212750
Si Si8 0.613410 0.228508 0.751706
O O1 0.332075 0.608951 0.052061
O O2 0.370741 0.379053 0.354493
O O3 0.197468 0.407233 0.962262
O O4 0.201936 0.663563 0.823192
O O5 0.835264 0.101389 0.552294
O O6 0.779853 0.400119 0.557519
O O7 0.847751 0.281451 0.322190
O O8 0.936538 0.348820 0.598471
O O9 0.569284 0.384856 0.143461
O O10 0.435081 0.265854 0.104541
O O11 0.432162 0.076316 0.793784
O O12 0.559232 0.082643 0.666416
O O13 0.547915 0.839730 0.845423
O O14 0.697250 0.177952 0.119744
O O15 0.839659 0.785159 0.616171
#
# Coordination Sequence:
#
# PCOD9125891 Si02
#       8
#     4   4   2   4   4   4   4   4
#     4  10  23  43  73 103 150 196 258 312 392 468
#     4  12  28  47  73 115 162 203 268 337 394 478
#     4   8  18  42  70 104 150 184 254 312 390 462
#     4  10  24  47  77 106 158 196 258 324 403 463
#     4  12  27  45  79 112 157 213 270 325 394 478
#     4  11  25  46  73 108 149 207 259 329 387 472
#     4  10  21  45  72 109 149 200 252 318 393 477
#     4   9  22  43  79 111 143 213 253 322 397 472
#
# _framework density 25.457585000000002
#
# number of rings (size 3 to 8) (size 9 to 14) (size 15 to 20)
#    0.000    1.600    1.333    2.000   11.200    1.600 
#    9.600    0.000    0.000    0.000    0.000    0.000 
#    0.000    0.000    0.000    0.000    0.000    0.000 
#
# Total GULP energy -83704.948992 kJ/mol
# GULP energy per Si atom -5580.329933 kJ/mol
# Density = 2.539964 g / cm^3
# Si number density = 25.457585 Si / 1000 Ang^3
#
#
#
# Elastic Constant Matrix: (Units=GPa)
#
#
# Indices 1 2 3 4 5 6 
#
# 1 118.4274 62.2529 58.4796 0.0000 26.6210 0.0000
# 2 62.2529 80.5428 54.5761 0.0000 19.9419 0.0000
# 3 58.4796 54.5761 108.2764 0.0000 37.2407 0.0000
# 4 0.0000 0.0000 0.0000 44.1455 0.0000 10.9336
# 5 26.6210 19.9419 37.2407 0.0000 50.6263 0.0000
# 6 0.0000 0.0000 0.0000 10.9336 0.0000 44.6085
#
#
#
# Elastic Compliance Matrix: (Units=1/GPa)
#
#
# Indices 1 2 3 4 5 6 
#
# 1 0.015221 -0.009355 -0.002704 0.000000 -0.002329 0.000000
# 2 -0.009355 0.024619 -0.007648 0.000000 0.000848 0.000000
# 3 -0.002704 -0.007648 0.017437 0.000000 -0.008393 0.000000
# 4 0.000000 0.000000 0.000000 0.024116 0.000000 -0.005911
# 5 -0.002329 0.000848 -0.008393 0.000000 0.026817 0.000000
# 6 0.000000 0.000000 0.000000 -0.005911 0.000000 0.023866
#
#
# Mechanical properties :
#
#
# Convention : Reuss Voigt Hill
#
# Bulk Modulus (GPa) = 55.98185 73.09596 64.53891
# Shear Modulus (GPa) = 28.17778 36.67192 32.42485
#
# Velocity S-wave (km/s) = 3.33055 3.79952 3.57274
# Velocity P-wave (km/s) = 6.06861 6.92991 6.51351
#
# Compressibility (1/GPa) = 0.01786293
#
# Stress axis : x y z
#
# Youngs Moduli (GPa) = 65.70075 40.61908 57.34803
#
# Poissons Ratio (x) = 0.38000 0.15506
# Poissons Ratio (y) = 0.61465 0.43859
# Poissons Ratio (z) = 0.17765 0.31065
#
# Static dielectric constant tensor:
#      x y z
#    x 2.032360 0.000000 0.039380 
#    y 0.000000 2.046790 0.000000 
#    z 0.039380 0.000000 2.024350 
# 
# From -- ./inp_files/44321.got.cif
#   From: 2010.05.17/outbox.cif.g08.bks.cpg/sg5_23_cif.got.tgz:44321.got - 2010.06.03 18:56:24.
