data_PCOD9125312
_publ_section_title
;
Structure prediction by ZEFSAII (Michael W. Deem and Ramdas Pophale) SiO2 
 PCOD9125312
Probable space group: C 2
;
_chemical_formula_sum "Si O2"
_cell_formula_units_Z 28
_cell_length_a 8.266655
_cell_length_b 21.636812
_cell_length_c 10.533100
_cell_angle_alpha 90.000000
_cell_angle_beta 42.443995
_cell_angle_gamma 90.000000
_cell_volume 1271.448903
_symmetry_space_group_name_H-M "C 2"
_symmetry_group_IT_number 5
_symmetry_cell_setting 'monoclinic'
loop_
_space_group_symop_operation_xyz
x,y,z
-x,y,-z
1/2+x,1/2+y,z
1/2-x,1/2+y,-z
loop_
_atom_site_type_symbol
_atom_site_label
_atom_site_fract_x
_atom_site_fract_y
_atom_site_fract_z
Si Si1 0.460145 0.157790 0.796716
Si Si2 0.000000 0.471061 0.000000
Si Si3 0.131562 0.306689 0.243565
Si Si4 0.500000 0.163154 0.500000
Si Si5 0.509878 0.679808 0.231440
Si Si6 0.521783 0.302901 0.203601
Si Si7 0.655035 0.568944 0.291849
Si Si8 0.751051 0.375161 0.308851
O O1 0.472618 0.128555 0.649668
O O2 0.530068 0.230228 0.741085
O O3 0.630701 0.115087 0.784447
O O4 0.198572 0.165953 0.011102
O O5 0.228149 0.516542 0.863360
O O6 0.058162 0.425645 0.850111
O O7 0.275823 0.329516 0.283431
O O8 0.103192 0.232708 0.270425
O O9 0.884522 0.337988 0.343354
O O10 0.296128 0.309880 0.021061
O O11 0.745335 0.201609 0.350219
O O12 0.484462 0.614613 0.314005
O O13 0.659185 0.333453 0.242814
O O14 0.500000 0.545774 0.500000
O O15 0.500000 0.403254 0.500000
#
# Coordination Sequence:
#
# PCOD9125312 Si02
#       8
#     4   2   4   2   4   4   4   4
#     4  11  22  40  64 104 142 178 216 279 359 423
#     4  12  26  50  70  92 132 188 242 294 324 408
#     4  10  21  40  70 102 143 182 220 281 357 421
#     4  12  24  34  62  98 152 170 216 274 336 442
#     4  11  22  40  64 104 142 178 216 279 359 423
#     4  10  21  40  70 102 143 182 220 281 357 421
#     4  12  23  43  77  99 130 179 237 285 341 418
#     4  12  26  44  70 102 136 184 236 290 345 406
#
# _framework density 22.022120000000001
#
# number of rings (size 3 to 8) (size 9 to 14) (size 15 to 20)
#    0.000    0.857    5.714    1.714    4.000    2.857 
#    0.000    0.000    6.286    0.000    0.000    0.000 
#    0.000    0.000    0.000    0.000    0.000    0.000 
#
# Total GULP energy -78033.270726 kJ/mol
# GULP energy per Si atom -5573.805052 kJ/mol
# Density = 2.197200 g / cm^3
# Si number density = 22.022120 Si / 1000 Ang^3
#
#
#
# Elastic Constant Matrix: (Units=GPa)
#
#
# Indices 1 2 3 4 5 6 
#
# 1 124.5582 28.9665 36.2303 0.0000 -4.3687 0.0000
# 2 28.9665 92.1846 26.0250 0.0000 0.2120 0.0000
# 3 36.2303 26.0250 145.4575 0.0000 -11.0835 0.0000
# 4 0.0000 0.0000 0.0000 4.2829 0.0000 -1.3619
# 5 -4.3687 0.2120 -11.0835 0.0000 36.7904 0.0000
# 6 0.0000 0.0000 0.0000 -1.3619 0.0000 8.3826
#
#
#
# Elastic Compliance Matrix: (Units=1/GPa)
#
#
# Indices 1 2 3 4 5 6 
#
# 1 0.009122 -0.002357 -0.001808 0.000000 0.000552 0.000000
# 2 -0.002357 0.012051 -0.001633 0.000000 -0.000841 0.000000
# 3 -0.001808 -0.001633 0.007780 0.000000 0.002139 0.000000
# 4 0.000000 0.000000 0.000000 0.246206 0.000000 0.040001
# 5 0.000552 -0.000841 0.002139 0.000000 0.027896 0.000000
# 6 0.000000 0.000000 0.000000 0.040001 0.000000 0.125793
#
#
# Mechanical properties :
#
#
# Convention : Reuss Voigt Hill
#
# Bulk Modulus (GPa) = 57.61501 60.51600 59.06550
# Shear Modulus (GPa) = 11.20496 27.95643 19.58070
#
# Velocity S-wave (km/s) = 2.25812 3.56683 2.98508
# Velocity P-wave (km/s) = 5.74612 6.67101 6.22576
#
# Compressibility (1/GPa) = 0.01735659
#
# Stress axis : x y z
#
# Youngs Moduli (GPa) = 109.62681 82.97748 128.52748
#
# Poissons Ratio (x) = 0.19558 0.23241
# Poissons Ratio (y) = 0.25840 0.20992
# Poissons Ratio (z) = 0.19823 0.13552
#
# Static dielectric constant tensor:
#      x y z
#    x 1.864580 0.000000 -0.023750 
#    y 0.000000 1.796140 0.000000 
#    z -0.023750 0.000000 1.880490 
# 
# From -- ./inp_files/37315.got.cif
#   From: 2010.05.17/outbox.cif.g08.bks.cpg/sg5_19_cif.got.tgz:37315.got - 2010.06.03 18:56:24.
