data_PCOD9125829
_publ_section_title
;
Structure prediction by ZEFSAII (Michael W. Deem and Ramdas Pophale) SiO2 
 PCOD9125829
Probable space group: C 2
;
_chemical_formula_sum "Si O2"
_cell_formula_units_Z 30
_cell_length_a 11.399789
_cell_length_b 9.384588
_cell_length_c 23.903169
_cell_angle_alpha 90.000000
_cell_angle_beta 39.923436
_cell_angle_gamma 90.000000
_cell_volume 1641.127924
_symmetry_space_group_name_H-M "C 2"
_symmetry_group_IT_number 5
_symmetry_cell_setting 'monoclinic'
loop_
_space_group_symop_operation_xyz
x,y,z
-x,y,-z
1/2+x,1/2+y,z
1/2-x,1/2+y,-z
loop_
_atom_site_type_symbol
_atom_site_label
_atom_site_fract_x
_atom_site_fract_y
_atom_site_fract_z
Si Si1 0.696941 0.663370 0.692180
Si Si2 0.500000 0.190253 0.000000
Si Si3 0.315856 0.084943 0.760120
Si Si4 0.636668 0.866726 0.159136
Si Si5 0.971419 0.175142 0.946069
Si Si6 0.352742 0.984685 0.962063
Si Si7 0.801446 0.511214 0.544263
Si Si8 0.926209 0.736952 0.407668
O O1 0.736261 0.549823 0.727577
O O2 0.519794 0.751600 0.772966
O O3 0.692234 0.590477 0.633912
O O4 0.878502 0.763586 0.632060
O O5 0.677109 0.287515 0.926199
O O6 0.472752 0.088781 0.956254
O O7 0.503247 0.164834 0.675908
O O8 0.165085 0.185924 0.844292
O O9 0.338841 0.956063 0.793607
O O10 0.590121 0.969462 0.123752
O O11 0.866992 0.324934 0.980309
O O12 0.000000 0.137565 0.000000
O O13 0.849444 0.052001 0.963104
O O14 0.830938 0.620831 0.482352
O O15 0.696970 0.372396 0.560299
O O16 0.000000 0.478727 0.500000
#
# Coordination Sequence:
#
# PCOD9125829 Si02
#       8
#     4   2   4   4   4   4   4   4
#     4   9  22  40  63  89 128 166 205 261 314 376
#     4  12  26  38  62  96 126 176 224 266 318 378
#     4  10  22  41  60  89 128 161 210 259 315 377
#     4  12  23  41  61  93 132 171 213 265 323 371
#     4  12  23  41  62  85 128 169 215 269 313 372
#     4  12  23  39  62  90 121 171 220 261 321 367
#     4  10  21  44  67  95 128 162 200 262 326 383
#     4   9  22  43  66  94 126 160 208 256 319 389
#
# _framework density 18.280110000000001
#
# number of rings (size 3 to 8) (size 9 to 14) (size 15 to 20)
#    0.800    0.533    4.667    0.800    1.867    2.133 
#    7.200    0.000    0.000    0.000    0.000    0.000 
#    0.000    0.000    0.000    0.000    0.000    0.000 
#
# Total GULP energy -83598.562243 kJ/mol
# GULP energy per Si atom -5573.237483 kJ/mol
# Density = 1.823850 g / cm^3
# Si number density = 18.280110 Si / 1000 Ang^3
#
#
#
# Elastic Constant Matrix: (Units=GPa)
#
#
# Indices 1 2 3 4 5 6 
#
# 1 99.0532 67.6807 50.9453 0.0000 9.5677 0.0000
# 2 67.6807 95.5443 60.2049 0.0000 0.9300 0.0000
# 3 50.9453 60.2049 121.1313 0.0000 14.2191 0.0000
# 4 0.0000 0.0000 0.0000 19.6359 0.0000 7.1708
# 5 9.5677 0.9300 14.2191 0.0000 23.0907 0.0000
# 6 0.0000 0.0000 0.0000 7.1708 0.0000 40.2481
#
#
#
# Elastic Compliance Matrix: (Units=1/GPa)
#
#
# Indices 1 2 3 4 5 6 
#
# 1 0.021031 -0.014288 -0.000850 0.000000 -0.007616 0.000000
# 2 -0.014288 0.025366 -0.007732 0.000000 0.009660 0.000000
# 3 -0.000850 -0.007732 0.013342 0.000000 -0.007553 0.000000
# 4 0.000000 0.000000 0.000000 0.054471 0.000000 -0.009705
# 5 -0.007616 0.009660 -0.007553 0.000000 0.050725 0.000000
# 6 0.000000 0.000000 0.000000 -0.009705 0.000000 0.026575
#
#
# Mechanical properties :
#
#
# Convention : Reuss Voigt Hill
#
# Bulk Modulus (GPa) = 71.43140 74.82119 73.12629
# Shear Modulus (GPa) = 20.66829 25.72145 23.19487
#
# Velocity S-wave (km/s) = 3.36615 3.75517 3.56597
# Velocity P-wave (km/s) = 7.36674 7.73440 7.55281
#
# Compressibility (1/GPa) = 0.01399945
#
# Stress axis : x y z
#
# Youngs Moduli (GPa) = 47.54887 39.42327 74.94906
#
# Poissons Ratio (x) = 0.56329 0.06369
# Poissons Ratio (y) = 0.67939 0.57950
# Poissons Ratio (z) = 0.04040 0.30482
#
# Static dielectric constant tensor:
#      x y z
#    x 1.665440 0.000000 -0.003870 
#    y 0.000000 1.613180 0.000000 
#    z -0.003870 0.000000 1.638100 
# 
# From -- ./inp_files/68281.got.cif
#   From: 2010.05.17/outbox.cif.g08.bks.cpg/sg5_35_cif.got.tgz:68281.got - 2010.06.03 18:56:24.
