data_PCOD9125937
_publ_section_title
;
Structure prediction by ZEFSAII (Michael W. Deem and Ramdas Pophale) SiO2 
 PCOD9125937
Probable space group: C 2
;
_chemical_formula_sum "Si O2"
_cell_formula_units_Z 32
_cell_length_a 12.701424
_cell_length_b 10.646399
_cell_length_c 11.029881
_cell_angle_alpha 90.000000
_cell_angle_beta 94.171461
_cell_angle_gamma 90.000000
_cell_volume 1487.558090
_symmetry_space_group_name_H-M "C 2"
_symmetry_group_IT_number 5
_symmetry_cell_setting 'monoclinic'
loop_
_space_group_symop_operation_xyz
x,y,z
-x,y,-z
1/2+x,1/2+y,z
1/2-x,1/2+y,-z
loop_
_atom_site_type_symbol
_atom_site_label
_atom_site_fract_x
_atom_site_fract_y
_atom_site_fract_z
Si Si1 0.151803 0.444160 0.910773
Si Si2 0.608248 0.809582 0.346591
Si Si3 0.742515 0.905267 0.550154
Si Si4 0.258307 0.229615 0.766268
Si Si5 0.572454 0.345412 0.617046
Si Si6 0.444062 0.609985 0.360456
Si Si7 0.293791 0.133577 0.281428
Si Si8 0.093468 0.514553 0.160124
O O1 0.194845 0.313414 0.859887
O O2 0.211356 0.552675 0.840401
O O3 0.029602 0.483996 0.874756
O O4 0.159039 0.450796 0.055956
O O5 0.641522 0.830994 0.488613
O O6 0.502829 0.732720 0.314897
O O7 0.694785 0.722636 0.291070
O O8 0.611048 0.945340 0.288061
O O9 0.791401 0.826218 0.663977
O O10 0.825868 0.903172 0.447787
O O11 0.708999 0.037356 0.604545
O O12 0.176035 0.136438 0.691162
O O13 0.358017 0.153439 0.825869
O O14 0.500000 0.302223 0.500000
O O15 0.529488 0.468375 0.682466
O O16 0.607062 0.227294 0.699071
O O17 0.500000 0.602883 0.500000
#
# Coordination Sequence:
#
# PCOD9125937 Si02
#       8
#     4   4   4   4   4   4   4   4
#     4  10  25  46  64  96 126 174 227 280 324 384
#     4  11  22  37  67  91 131 170 214 267 331 404
#     4  10  22  37  58  97 128 170 213 263 336 405
#     4  11  22  41  70  94 130 175 220 275 337 397
#     4  10  22  33  57  90 131 168 204 268 330 402
#     4  11  20  39  61  97 133 168 213 269 333 411
#     4  10  22  39  58  90 131 165 218 270 325 396
#     4  11  25  43  70  91 129 175 226 277 327 391
#
# _framework density 21.511763999999999
#
# number of rings (size 3 to 8) (size 9 to 14) (size 15 to 20)
#    0.000    1.500    2.500    3.000    8.750    0.000 
#    0.000    0.000    0.000    0.000    0.000    0.000 
#    0.000    0.000    0.000    0.000    0.000    0.000 
#
# Total GULP energy -89172.197398 kJ/mol
# GULP energy per Si atom -5573.262337 kJ/mol
# Density = 2.146280 g / cm^3
# Si number density = 21.511764 Si / 1000 Ang^3
#
#
#
# Elastic Constant Matrix: (Units=GPa)
#
#
# Indices 1 2 3 4 5 6 
#
# 1 52.8972 11.2203 -10.1367 0.0000 2.0877 0.0000
# 2 11.2203 94.5459 8.2826 0.0000 -1.9271 0.0000
# 3 -10.1367 8.2826 45.6692 0.0000 -10.6878 0.0000
# 4 0.0000 0.0000 0.0000 21.6121 0.0000 -0.0288
# 5 2.0877 -1.9271 -10.6878 0.0000 17.9576 0.0000
# 6 0.0000 0.0000 0.0000 -0.0288 0.0000 39.4707
#
#
#
# Elastic Compliance Matrix: (Units=1/GPa)
#
#
# Indices 1 2 3 4 5 6 
#
# 1 0.020488 -0.002876 0.005158 0.000000 0.000379 0.000000
# 2 -0.002876 0.011151 -0.002675 0.000000 -0.000061 0.000000
# 3 0.005158 -0.002675 0.027093 0.000000 0.015238 0.000000
# 4 0.000000 0.000000 0.000000 0.046270 0.000000 0.000034
# 5 0.000379 -0.000061 0.015238 0.000000 0.064705 0.000000
# 6 0.000000 0.000000 0.000000 0.000034 0.000000 0.025335
#
#
# Mechanical properties :
#
#
# Convention : Reuss Voigt Hill
#
# Bulk Modulus (GPa) = 17.25735 23.53832 20.39783
# Shear Modulus (GPa) = 23.24028 28.05781 25.64904
#
# Velocity S-wave (km/s) = 3.29044 3.61543 3.45675
# Velocity P-wave (km/s) = 4.74085 5.32863 5.04331
#
# Compressibility (1/GPa) = 0.05794634
#
# Stress axis : x y z
#
# Youngs Moduli (GPa) = 48.80916 89.67632 36.91044
#
# Poissons Ratio (x) = 0.25787 -0.19037
# Poissons Ratio (y) = 0.14035 0.09873
# Poissons Ratio (z) = -0.25175 0.23988
#
# Static dielectric constant tensor:
#      x y z
#    x 1.899420 0.000000 0.003260 
#    y 0.000000 1.800190 0.000000 
#    z 0.003260 0.000000 1.798150 
# 
# From -- ./inp_files/41965.got.cif
#   From: 2010.05.17/outbox.cif.g08.bks.cpg/sg5_21_cif.got.tgz:41965.got - 2010.06.03 18:56:24.
