data_PCOD9125198
_publ_section_title
;
Structure prediction by ZEFSAII (Michael W. Deem and Ramdas Pophale) SiO2 
 PCOD9125198
Probable space group: C 2
;
_chemical_formula_sum "Si O2"
_cell_formula_units_Z 20
_cell_length_a 9.310808
_cell_length_b 23.426572
_cell_length_c 8.405446
_cell_angle_alpha 90.000000
_cell_angle_beta 148.328823
_cell_angle_gamma 90.000000
_cell_volume 962.614121
_symmetry_space_group_name_H-M "C 2"
_symmetry_group_IT_number 5
_symmetry_cell_setting 'monoclinic'
loop_
_space_group_symop_operation_xyz
x,y,z
-x,y,-z
1/2+x,1/2+y,z
1/2-x,1/2+y,-z
loop_
_atom_site_type_symbol
_atom_site_label
_atom_site_fract_x
_atom_site_fract_y
_atom_site_fract_z
Si Si1 0.615590 0.514030 0.786225
Si Si2 0.771069 0.619099 0.153707
Si Si3 0.713516 0.834430 0.818104
Si Si4 0.722041 0.247503 0.838562
Si Si5 0.075188 0.453977 0.392114
O O1 0.500000 0.522296 0.500000
O O2 0.384601 0.474692 0.655177
O O3 0.690325 0.573786 0.942629
O O4 0.896736 0.480826 0.082633
O O5 0.840528 0.682979 0.160058
O O6 0.000000 0.601785 0.500000
O O7 0.500000 0.624956 0.000000
O O8 0.500000 0.803134 0.500000
O O9 0.529522 0.888503 0.701089
O O10 0.779527 0.792898 0.023530
O O11 0.000000 0.851024 0.000000
O O12 0.500000 0.263685 0.500000
O O13 0.000000 0.247701 0.000000
O O14 0.000000 0.474631 0.500000
#
# Coordination Sequence:
#
# PCOD9125198 Si02
#       5
#     4   4   4   4   4
#     4  12  24  38  60  92 122 156 207 265 309 348
#     4  10  21  40  64  88 123 169 209 245 305 382
#     4  11  23  41  64  92 125 165 209 256 309 368
#     4  10  22  40  64  94 125 164 208 253 308 370
#     4  11  23  41  61  84 120 168 208 245 304 378
#
# _framework density 20.776758000000001
#
# number of rings (size 3 to 8) (size 9 to 14) (size 15 to 20)
#    0.000    1.200    0.000    7.800    0.000    3.200 
#    0.000    2.000    0.000    0.000    0.000    0.000 
#    0.000    0.000    0.000    0.000    0.000    0.000 
#
# Total GULP energy -55766.652226 kJ/mol
# GULP energy per Si atom -5576.665223 kJ/mol
# Density = 2.072947 g / cm^3
# Si number density = 20.776758 Si / 1000 Ang^3
#
#
#
# Elastic Constant Matrix: (Units=GPa)
#
#
# Indices 1 2 3 4 5 6 
#
# 1 74.3914 50.1912 41.4611 0.0000 -18.0283 0.0000
# 2 50.1912 137.5045 44.0475 0.0000 -29.7331 0.0000
# 3 41.4611 44.0475 169.3971 0.0000 -15.9734 0.0000
# 4 0.0000 0.0000 0.0000 34.6501 0.0000 -8.7029
# 5 -18.0283 -29.7331 -15.9734 0.0000 42.9646 0.0000
# 6 0.0000 0.0000 0.0000 -8.7029 0.0000 22.7585
#
#
#
# Elastic Compliance Matrix: (Units=1/GPa)
#
#
# Indices 1 2 3 4 5 6 
#
# 1 0.019651 -0.005471 -0.003074 0.000000 0.003317 0.000000
# 2 -0.005471 0.010592 -0.000975 0.000000 0.004672 0.000000
# 3 -0.003074 -0.000975 0.006968 0.000000 0.000626 0.000000
# 4 0.000000 0.000000 0.000000 0.031926 0.000000 0.012209
# 5 0.003317 0.004672 0.000626 0.000000 0.028133 0.000000
# 6 0.000000 0.000000 0.000000 0.012209 0.000000 0.048608
#
#
# Mechanical properties :
#
#
# Convention : Reuss Voigt Hill
#
# Bulk Modulus (GPa) = 55.03180 72.52139 63.77660
# Shear Modulus (GPa) = 29.24412 36.44753 32.84582
#
# Velocity S-wave (km/s) = 3.75579 4.19292 3.98036
# Velocity P-wave (km/s) = 6.73444 7.64340 7.20327
#
# Compressibility (1/GPa) = 0.01817131
#
# Stress axis : x y z
#
# Youngs Moduli (GPa) = 50.88868 94.41208 143.50876
#
# Poissons Ratio (x) = 0.51651 0.44120
# Poissons Ratio (y) = 0.27840 0.13986
# Poissons Ratio (z) = 0.15645 0.09201
#
# Static dielectric constant tensor:
#      x y z
#    x 1.757370 0.000000 0.025470 
#    y 0.000000 1.812920 0.000000 
#    z 0.025470 0.000000 1.754080 
# 
# From -- ./inp_files/3204.got.cif
#   From: 2010.05.17/outbox.cif.g08.bks.cpg/sg5_2_cif.got.tgz:3204.got - 2010.06.03 18:56:24.
