data_PCOD9125254
_publ_section_title
;
Structure prediction by ZEFSAII (Michael W. Deem and Ramdas Pophale) SiO2 
 PCOD9125254
Probable space group: C 2
;
_chemical_formula_sum "Si O2"
_cell_formula_units_Z 30
_cell_length_a 14.708792
_cell_length_b 23.120154
_cell_length_c 9.431090
_cell_angle_alpha 90.000000
_cell_angle_beta 149.219233
_cell_angle_gamma 90.000000
_cell_volume 1641.312547
_symmetry_space_group_name_H-M "C 2"
_symmetry_group_IT_number 5
_symmetry_cell_setting 'monoclinic'
loop_
_space_group_symop_operation_xyz
x,y,z
-x,y,-z
1/2+x,1/2+y,z
1/2-x,1/2+y,-z
loop_
_atom_site_type_symbol
_atom_site_label
_atom_site_fract_x
_atom_site_fract_y
_atom_site_fract_z
Si Si1 0.208938 0.670910 0.766441
Si Si2 0.955281 0.253464 0.281256
Si Si3 0.687540 0.749364 0.332200
Si Si4 0.489871 0.433704 0.816323
Si Si5 0.000000 0.478978 0.500000
Si Si6 0.800382 0.382707 0.063630
Si Si7 0.212906 0.373521 0.277988
Si Si8 0.641685 0.547620 0.061608
O O1 0.229057 0.694376 0.631945
O O2 0.314085 0.611446 0.931792
O O3 0.000000 0.662665 0.500000
O O4 0.297870 0.717856 0.991742
O O5 0.898065 0.320952 0.206979
O O6 0.000000 0.234521 0.500000
O O7 0.131180 0.246612 0.419462
O O8 0.778871 0.809568 0.412774
O O9 0.500000 0.753456 0.000000
O O10 0.298987 0.417431 0.502663
O O11 0.500000 0.432185 0.000000
O O12 0.632327 0.389370 0.941880
O O13 0.545709 0.497969 0.840801
O O14 0.927271 0.435394 0.281519
O O15 0.836852 0.517392 0.342879
O O16 0.738343 0.386987 0.818194
O O17 0.000000 0.374997 0.000000
O O18 0.500000 0.554998 0.000000
#
# Coordination Sequence:
#
# PCOD9125254 Si02
#       8
#     4   4   4   4   2   4   4   4
#     4  11  22  41  66  89 117 165 218 257 299 378
#     4  11  22  37  60  93 122 167 195 262 322 364
#     4   9  19  36  58  88 121 159 204 240 304 372
#     4  10  25  38  59  94 127 166 207 257 313 372
#     4  10  22  38  60 100 122 166 210 256 312 380
#     4  11  21  36  62  85 136 160 205 249 318 376
#     4  11  21  36  60  92 128 162 201 252 311 385
#     4  10  21  40  66  87 123 165 220 257 306 366
#
# _framework density 18.278054000000001
#
# number of rings (size 3 to 8) (size 9 to 14) (size 15 to 20)
#    0.000    1.600    5.333    1.600    9.333    0.000 
#    0.000    3.333    0.000    0.000    0.000    0.000 
#    0.000    0.000    0.000    0.000    0.000    0.000 
#
# Total GULP energy -83537.308853 kJ/mol
# GULP energy per Si atom -5569.153924 kJ/mol
# Density = 1.823645 g / cm^3
# Si number density = 18.278054 Si / 1000 Ang^3
#
#
#
# Elastic Constant Matrix: (Units=GPa)
#
#
# Indices 1 2 3 4 5 6 
#
# 1 110.0279 35.0478 31.0274 0.0000 -12.8270 0.0000
# 2 35.0478 100.8897 26.0958 0.0000 4.2491 0.0000
# 3 31.0274 26.0958 57.4515 0.0000 -5.9739 0.0000
# 4 0.0000 0.0000 0.0000 13.3225 0.0000 4.8607
# 5 -12.8270 4.2491 -5.9739 0.0000 35.2177 0.0000
# 6 0.0000 0.0000 0.0000 4.8607 0.0000 23.1020
#
#
#
# Elastic Compliance Matrix: (Units=1/GPa)
#
#
# Indices 1 2 3 4 5 6 
#
# 1 0.011816 -0.003086 -0.004574 0.000000 0.003900 0.000000
# 2 -0.003086 0.012217 -0.004227 0.000000 -0.003315 0.000000
# 3 -0.004574 -0.004227 0.022065 0.000000 0.002587 0.000000
# 4 0.000000 0.000000 0.000000 0.081302 0.000000 -0.017106
# 5 0.003900 -0.003315 0.002587 0.000000 0.030654 0.000000
# 6 0.000000 0.000000 0.000000 -0.017106 0.000000 0.046885
#
#
# Mechanical properties :
#
#
# Convention : Reuss Voigt Hill
#
# Bulk Modulus (GPa) = 44.79559 50.30124 47.54841
# Shear Modulus (GPa) = 21.17242 26.07497 23.62370
#
# Velocity S-wave (km/s) = 3.40715 3.78110 3.59898
# Velocity P-wave (km/s) = 6.32766 6.82950 6.58336
#
# Compressibility (1/GPa) = 0.02232363
#
# Stress axis : x y z
#
# Youngs Moduli (GPa) = 84.62990 81.85418 45.31966
#
# Poissons Ratio (x) = 0.25259 0.20730
# Poissons Ratio (y) = 0.26116 0.19158
# Poissons Ratio (z) = 0.38712 0.34602
#
# Static dielectric constant tensor:
#      x y z
#    x 1.701370 0.000000 0.026220 
#    y 0.000000 1.656800 0.000000 
#    z 0.026220 0.000000 1.635750 
# 
# From -- ./inp_files/25557.got.cif
#   From: 2010.05.17/outbox.cif.g08.bks.cpg/sg5_13_cif.got.tgz:25557.got - 2010.06.03 18:56:24.
