data_PCOD9125308
_publ_section_title
;
Structure prediction by ZEFSAII (Michael W. Deem and Ramdas Pophale) SiO2 
 PCOD9125308
Probable space group: C 2
;
_chemical_formula_sum "Si O2"
_cell_formula_units_Z 28
_cell_length_a 8.221098
_cell_length_b 17.725508
_cell_length_c 16.675743
_cell_angle_alpha 90.000000
_cell_angle_beta 32.276754
_cell_angle_gamma 90.000000
_cell_volume 1297.664978
_symmetry_space_group_name_H-M "C 2"
_symmetry_group_IT_number 5
_symmetry_cell_setting 'monoclinic'
loop_
_space_group_symop_operation_xyz
x,y,z
-x,y,-z
1/2+x,1/2+y,z
1/2-x,1/2+y,-z
loop_
_atom_site_type_symbol
_atom_site_label
_atom_site_fract_x
_atom_site_fract_y
_atom_site_fract_z
Si Si1 0.452089 0.190520 0.176922
Si Si2 0.708518 0.921721 0.559414
Si Si3 0.500000 0.778657 0.000000
Si Si4 0.132354 0.529708 0.855158
Si Si5 0.000000 0.172533 0.500000
Si Si6 0.224271 0.574317 0.470578
Si Si7 0.312768 0.811564 0.824777
Si Si8 0.225107 0.866011 0.246733
O O1 0.488064 0.101607 0.144511
O O2 0.254486 0.232727 0.191221
O O3 0.279691 0.207554 0.332905
O O4 0.784736 0.226674 0.036623
O O5 0.437512 0.874212 0.710805
O O6 0.000000 0.935250 0.500000
O O7 0.881661 0.874937 0.418493
O O8 0.598642 0.999854 0.567549
O O9 0.731602 0.833093 0.858309
O O10 0.492863 0.545422 0.700637
O O11 0.108095 0.448051 0.822991
O O12 0.000000 0.528506 0.000000
O O13 0.843592 0.125552 0.493066
O O14 0.000000 0.610940 0.500000
O O15 0.590020 0.811012 0.771688
O O16 0.000000 0.833381 0.000000
#
# Coordination Sequence:
#
# PCOD9125308 Si02
#       8
#     4   4   2   4   2   4   4   4
#     4  11  26  43  65  92 136 174 211 280 336 397
#     4   9  20  38  66  94 134 171 215 279 327 390
#     4  12  24  42  62  96 134 170 214 286 326 402
#     4  10  22  43  67  96 131 174 216 274 330 392
#     4  10  24  48  64  92 140 172 226 272 340 390
#     4  10  21  40  69  99 129 175 224 275 321 397
#     4  11  22  41  64  96 128 174 215 270 331 395
#     4  10  22  42  67  95 129 172 223 266 334 390
#
# _framework density 21.577217000000001
#
# number of rings (size 3 to 8) (size 9 to 14) (size 15 to 20)
#    0.000    1.714    2.857    0.429    4.000    4.571 
#    3.857    0.714    0.000    0.000    0.000    0.000 
#    0.000    0.000    0.000    0.000    0.000    0.000 
#
# Total GULP energy -78061.305945 kJ/mol
# GULP energy per Si atom -5575.807568 kJ/mol
# Density = 2.152811 g / cm^3
# Si number density = 21.577217 Si / 1000 Ang^3
#
#
#
# Elastic Constant Matrix: (Units=GPa)
#
#
# Indices 1 2 3 4 5 6 
#
# 1 67.3874 21.9818 4.5410 -0.0104 1.1981 0.0118
# 2 21.9818 79.4106 27.8732 -0.0040 2.0210 0.0022
# 3 4.5410 27.8732 118.2593 0.0130 36.1840 0.0019
# 4 -0.0104 -0.0040 0.0130 31.2340 0.0013 5.8960
# 5 1.1981 2.0210 36.1840 0.0013 29.5886 -0.0070
# 6 0.0118 0.0022 0.0019 5.8960 -0.0070 8.1977
#
#
#
# Elastic Compliance Matrix: (Units=1/GPa)
#
#
# Indices 1 2 3 4 5 6 
#
# 1 0.016379 -0.004839 0.000980 0.000010 -0.001531 -0.000031
# 2 -0.004839 0.015603 -0.005154 0.000001 0.005433 0.000008
# 3 0.000980 -0.005154 0.015240 -0.000003 -0.018325 -0.000017
# 4 0.000010 0.000001 -0.000003 0.037046 -0.000005 -0.026644
# 5 -0.001531 0.005433 -0.018325 -0.000005 0.055897 0.000057
# 6 -0.000031 0.000008 -0.000017 -0.026644 0.000057 0.141150
#
#
# Mechanical properties :
#
#
# Convention : Reuss Voigt Hill
#
# Bulk Modulus (GPa) = 34.25099 41.53880 37.89490
# Shear Modulus (GPa) = 16.17739 27.84815 22.01277
#
# Velocity S-wave (km/s) = 2.74112 3.59643 3.19750
# Velocity P-wave (km/s) = 5.09180 6.04473 5.58861
#
# Compressibility (1/GPa) = 0.02919624
#
# Stress axis : x y z
#
# Youngs Moduli (GPa) = 61.05285 64.08972 65.61662
#
# Poissons Ratio (x) = 0.31013 -0.06431
# Poissons Ratio (y) = 0.29544 0.33820
# Poissons Ratio (z) = -0.05984 0.33033
#
# Static dielectric constant tensor:
#      x y z
#    x 1.837180 -0.000010 0.021920 
#    y -0.000010 1.784970 0.000010 
#    z 0.021920 0.000010 1.817200 
# 
# From -- ./inp_files/59868.got.cif
#   From: 2010.05.17/outbox.cif.g08.bks.cpg/sg5_30_cif.got.tgz:59868.got - 2010.06.03 18:56:24.
