data_PCOD9125796
_publ_section_title
;
Structure prediction by ZEFSAII (Michael W. Deem and Ramdas Pophale) SiO2 
 PCOD9125796
Probable space group: C 2
;
_chemical_formula_sum "Si O2"
_cell_formula_units_Z 24
_cell_length_a 13.922799
_cell_length_b 5.236256
_cell_length_c 18.821054
_cell_angle_alpha 90.000000
_cell_angle_beta 54.934215
_cell_angle_gamma 90.000000
_cell_volume 1123.068652
_symmetry_space_group_name_H-M "C 2"
_symmetry_group_IT_number 5
_symmetry_cell_setting 'monoclinic'
loop_
_space_group_symop_operation_xyz
x,y,z
-x,y,-z
1/2+x,1/2+y,z
1/2-x,1/2+y,-z
loop_
_atom_site_type_symbol
_atom_site_label
_atom_site_fract_x
_atom_site_fract_y
_atom_site_fract_z
Si Si1 0.691503 0.790060 0.781832
Si Si2 0.281018 0.787185 0.668296
Si Si3 0.708550 0.540037 0.918510
Si Si4 0.726526 0.543733 0.471103
Si Si5 0.500000 0.616692 0.500000
Si Si6 0.922133 0.326450 0.905603
Si Si7 0.500000 0.189082 0.000000
O O1 0.750596 0.559693 0.713115
O O2 0.714067 0.757273 0.856629
O O3 0.743985 0.060375 0.736448
O O4 0.552356 0.759573 0.825291
O O5 0.220548 0.692587 0.619909
O O6 0.417968 0.777373 0.587867
O O7 0.835356 0.428311 0.882227
O O8 0.609922 0.355150 0.928005
O O9 0.651119 0.616665 0.018752
O O10 0.785800 0.280433 0.469005
O O11 0.595958 0.460118 0.502618
O O12 0.950850 0.530033 0.955252
#
# Coordination Sequence:
#
# PCOD9125796 Si02
#       7
#     4   4   4   4   2   4   2
#     4  12  24  46  64 106 141 176 220 309 331 389
#     4  10  25  45  71  98 146 171 228 283 350 400
#     4  12  25  41  71  91 134 190 232 276 348 410
#     4  10  21  43  74  97 129 179 224 265 335 420
#     4   8  24  46  72  98 134 186 216 276 334 440
#     4  12  25  41  69  95 131 189 239 271 346 411
#     4  12  20  44  68  90 132 176 236 292 320 408
#
# _framework density 21.370021000000001
#
# number of rings (size 3 to 8) (size 9 to 14) (size 15 to 20)
#    1.000    0.000    5.000    2.000    0.000    2.667 
#    9.000    0.000    0.000    0.000    0.000    0.000 
#    0.000    0.000    0.000    0.000    0.000    0.000 
#
# Total GULP energy -66900.188824 kJ/mol
# GULP energy per Si atom -5575.015735 kJ/mol
# Density = 2.132138 g / cm^3
# Si number density = 21.370021 Si / 1000 Ang^3
#
#
#
# Elastic Constant Matrix: (Units=GPa)
#
#
# Indices 1 2 3 4 5 6 
#
# 1 107.7968 13.0985 16.3037 -0.0074 -15.4938 0.0180
# 2 13.0985 59.7678 7.5212 -0.0301 -0.4501 0.0633
# 3 16.3037 7.5212 91.0977 -0.0044 -19.6356 0.0064
# 4 -0.0074 -0.0301 -0.0044 -70.2229 -0.0033 93.0457
# 5 -15.4938 -0.4501 -19.6356 -0.0033 26.8383 0.0037
# 6 0.0180 0.0633 0.0064 93.0457 0.0037 -54.6728
#
#
#
# Elastic Compliance Matrix: (Units=1/GPa)
#
#
# Indices 1 2 3 4 5 6 
#
# 1 0.010423 -0.002183 -0.000470 -0.000001 0.005637 0.000000
# 2 -0.002183 0.017381 -0.001488 -0.000015 -0.002057 -0.000006
# 3 -0.000470 -0.001488 0.013202 0.000000 0.009363 0.000001
# 4 -0.000001 -0.000015 0.000000 0.011347 -0.000002 0.019311
# 5 0.005637 -0.002057 0.009363 -0.000002 0.047330 0.000000
# 6 0.000000 -0.000006 0.000001 0.019311 0.000000 0.014574
#
#
# Mechanical properties :
#
#
# Convention : Reuss Voigt Hill
#
# Bulk Modulus (GPa) = 30.55726 36.94548 33.75137
# Shear Modulus (GPa) = 37.46770 -4.82889 16.31941
#
# Velocity S-wave (km/s) = 4.19176 -1.50485 2.76644
# Velocity P-wave (km/s) = 6.14476 3.78240 5.10219
#
# Compressibility (1/GPa) = 0.03272545
#
# Stress axis : x y z
#
# Youngs Moduli (GPa) = 95.93962 57.53245 75.74441
#
# Poissons Ratio (x) = 0.12558 0.03562
# Poissons Ratio (y) = 0.20941 0.11269
# Poissons Ratio (z) = 0.04512 0.08560
#
# Static dielectric constant tensor:
#      x y z
#    x 1.802390 0.000000 0.083840 
#    y 0.000000 1.797030 -0.000010 
#    z 0.083840 -0.000010 1.958680 
# 
# From -- ./inp_files/58273.got.cif
#   From: 2010.05.17/outbox.cif.g08.bks.cpg/sg5_30_cif.got.tgz:58273.got - 2010.06.03 18:56:24.
