data_PCOD9125218
_publ_section_title
;
Structure prediction by ZEFSAII (Michael W. Deem and Ramdas Pophale) SiO2 
 PCOD9125218
Probable space group: C 2
;
_chemical_formula_sum "Si O2"
_cell_formula_units_Z 32
_cell_length_a 12.881543
_cell_length_b 26.096496
_cell_length_c 9.594801
_cell_angle_alpha 90.000000
_cell_angle_beta 28.594754
_cell_angle_gamma 90.000000
_cell_volume 1543.722229
_symmetry_space_group_name_H-M "C 2"
_symmetry_group_IT_number 5
_symmetry_cell_setting 'monoclinic'
loop_
_space_group_symop_operation_xyz
x,y,z
-x,y,-z
1/2+x,1/2+y,z
1/2-x,1/2+y,-z
loop_
_atom_site_type_symbol
_atom_site_label
_atom_site_fract_x
_atom_site_fract_y
_atom_site_fract_z
Si Si1 0.400724 0.022510 0.769878
Si Si2 0.560287 0.490019 0.590271
Si Si3 0.671544 0.255872 0.690506
Si Si4 0.970030 0.163268 0.382660
Si Si5 0.360252 0.086130 0.293749
Si Si6 0.046525 0.316679 0.108680
Si Si7 0.370161 0.225730 0.793026
Si Si8 0.072114 0.431835 0.757499
O O1 0.500000 0.026972 0.500000
O O2 0.482986 0.070409 0.765427
O O3 0.495920 0.972196 0.733528
O O4 0.144192 0.013186 0.086021
O O5 0.500000 0.480210 0.500000
O O6 0.742277 0.534345 0.380997
O O7 0.667340 0.439719 0.535152
O O8 0.813738 0.211760 0.595127
O O9 0.840988 0.296214 0.434604
O O10 0.540405 0.231928 0.716643
O O11 0.500000 0.277969 0.000000
O O12 0.832178 0.125489 0.448037
O O13 0.000000 0.138100 0.500000
O O14 0.185007 0.185255 0.056768
O O15 0.500000 0.107198 0.000000
O O16 0.041411 0.377531 0.137687
O O17 0.000000 0.308219 0.000000
O O18 0.249187 0.280805 0.911221
O O19 0.500000 0.211927 0.500000
O O20 0.000000 0.445034 0.000000
#
# Coordination Sequence:
#
# PCOD9125218 Si02
#       8
#     4   4   4   4   4   4   4   4
#     4  11  24  43  64  96 137 167 206 273 338 379
#     4  11  19  40  69  91 122 170 212 266 322 379
#     4  11  22  42  63  94 129 170 215 269 328 387
#     4  11  24  40  69  97 125 169 225 273 321 387
#     4  11  23  40  70  95 125 168 226 265 315 401
#     4  10  22  40  64  95 130 170 224 268 323 391
#     4  11  23  43  67  92 136 179 211 273 336 386
#     4  10  21  40  64  99 124 167 229 262 311 402
#
# _framework density 20.729119000000001
#
# number of rings (size 3 to 8) (size 9 to 14) (size 15 to 20)
#    0.000    1.250    5.000    1.500    0.000    3.000 
#    4.500    3.750    0.000    0.000    0.000    0.000 
#    0.000    0.000    0.000    0.000    0.000    0.000 
#
# Total GULP energy -89351.689507 kJ/mol
# GULP energy per Si atom -5584.480594 kJ/mol
# Density = 2.068194 g / cm^3
# Si number density = 20.729119 Si / 1000 Ang^3
#
#
#
# Elastic Constant Matrix: (Units=GPa)
#
#
# Indices 1 2 3 4 5 6 
#
# 1 56.2043 6.0119 30.9931 -0.0005 2.1461 0.0006
# 2 6.0119 61.7114 17.3874 -0.0002 -0.0783 0.0002
# 3 30.9931 17.3874 132.3002 -0.0011 8.5192 0.0010
# 4 -0.0005 -0.0002 -0.0011 6.1227 0.0006 2.5054
# 5 2.1461 -0.0783 8.5192 0.0006 37.5516 -0.0005
# 6 0.0006 0.0002 0.0010 2.5054 -0.0005 18.6254
#
#
#
# Elastic Compliance Matrix: (Units=1/GPa)
#
#
# Indices 1 2 3 4 5 6 
#
# 1 0.020458 -0.000670 -0.004698 0.000001 -0.000105 -0.000001
# 2 -0.000670 0.016860 -0.002094 0.000000 0.000549 0.000000
# 3 -0.004698 -0.002094 0.009050 0.000001 -0.001789 -0.000001
# 4 0.000001 0.000000 0.000001 0.172841 -0.000003 -0.023250
# 5 -0.000105 0.000549 -0.001789 -0.000003 0.027043 0.000001
# 6 -0.000001 0.000000 -0.000001 -0.023250 0.000001 0.056818
#
#
# Mechanical properties :
#
#
# Convention : Reuss Voigt Hill
#
# Bulk Modulus (GPa) = 31.80169 39.88897 35.84533
# Shear Modulus (GPa) = 15.22183 25.51482 20.36833
#
# Velocity S-wave (km/s) = 2.71278 3.51218 3.13804
# Velocity P-wave (km/s) = 5.01867 5.97762 5.51901
#
# Compressibility (1/GPa) = 0.03144487
#
# Stress axis : x y z
#
# Youngs Moduli (GPa) = 48.87955 59.31025 110.50255
#
# Poissons Ratio (x) = 0.03971 0.51913
# Poissons Ratio (y) = 0.03273 0.23143
# Poissons Ratio (z) = 0.22963 0.12422
#
# Static dielectric constant tensor:
#      x y z
#    x 1.752960 0.000000 -0.035360 
#    y 0.000000 1.769930 0.000000 
#    z -0.035360 0.000000 1.757110 
# 
# From -- ./inp_files/22216.got.cif
#   From: 2010.05.17/outbox.cif.g08.bks.cpg/sg5_12_cif.got.tgz:22216.got - 2010.06.03 18:56:24.
