data_PCOD9125332
_publ_section_title
;
Structure prediction by ZEFSAII (Michael W. Deem and Ramdas Pophale) SiO2 
 PCOD9125332
Probable space group: C 2
;
_chemical_formula_sum "Si O2"
_cell_formula_units_Z 20
_cell_length_a 18.837319
_cell_length_b 7.401827
_cell_length_c 9.224181
_cell_angle_alpha 90.000000
_cell_angle_beta 40.203905
_cell_angle_gamma 90.000000
_cell_volume 830.211300
_symmetry_space_group_name_H-M "C 2"
_symmetry_group_IT_number 5
_symmetry_cell_setting 'monoclinic'
loop_
_space_group_symop_operation_xyz
x,y,z
-x,y,-z
1/2+x,1/2+y,z
1/2-x,1/2+y,-z
loop_
_atom_site_type_symbol
_atom_site_label
_atom_site_fract_x
_atom_site_fract_y
_atom_site_fract_z
Si Si1 0.561477 0.575320 0.144620
Si Si2 0.913379 0.779370 0.265789
Si Si3 0.561476 0.983422 0.144623
Si Si4 0.626833 0.279372 0.252116
Si Si5 0.792357 0.279372 0.266244
O O1 0.452249 0.460390 0.290084
O O2 0.540778 0.779371 0.230368
O O3 0.634149 0.455578 0.138941
O O4 0.627730 0.610071 0.890452
O O5 0.952246 0.598349 0.290090
O O6 0.781575 0.779373 0.476365
O O7 0.000000 0.779366 0.000000
O O8 0.500000 0.279373 0.500000
O O9 0.634148 0.103165 0.138941
O O10 0.627729 0.948672 0.890454
O O11 0.710483 0.279372 0.254585
#
# Coordination Sequence:
#
# PCOD9125332 Si02
#       5
#     4   4   4   4   4
#     4   9  22  39  58  92 117 154 200 226 306 357
#     4  11  23  44  61  82 121 154 203 258 273 336
#     4   9  22  39  58  92 117 154 200 226 306 357
#     4  11  18  38  63  89 126 150 187 241 294 356
#     4  10  21  41  58  89 124 152 192 240 294 354
#
# _framework density 24.090250999999999
#
# number of rings (size 3 to 8) (size 9 to 14) (size 15 to 20)
#    1.200    0.800    4.000    1.200    0.000    3.200 
#    7.200    0.000    0.000    0.000    0.000    0.000 
#    0.000    0.000    0.000    0.000    0.000    0.000 
#
# Total GULP energy -55741.807984 kJ/mol
# GULP energy per Si atom -5574.180798 kJ/mol
# Density = 2.403542 g / cm^3
# Si number density = 24.090251 Si / 1000 Ang^3
#
#
#
# Elastic Constant Matrix: (Units=GPa)
#
#
# Indices 1 2 3 4 5 6 
#
# 1 49.5832 20.9528 -9.7861 0.0000 -6.3781 0.0000
# 2 20.9528 183.9861 30.7926 0.0000 -1.5553 0.0000
# 3 -9.7861 30.7926 130.3664 0.0000 -16.5800 0.0000
# 4 0.0000 0.0000 0.0000 38.4955 0.0000 -10.8704
# 5 -6.3781 -1.5553 -16.5800 0.0000 35.4436 0.0000
# 6 0.0000 0.0000 0.0000 -10.8704 0.0000 10.3420
#
#
#
# Elastic Compliance Matrix: (Units=1/GPa)
#
#
# Indices 1 2 3 4 5 6 
#
# 1 0.022781 -0.003072 0.003126 0.000000 0.005427 0.000000
# 2 -0.003072 0.006078 -0.001810 0.000000 -0.001133 0.000000
# 3 0.003126 -0.001810 0.008925 0.000000 0.004658 0.000000
# 4 0.000000 0.000000 0.000000 0.036942 0.000000 0.038829
# 5 0.005427 -0.001133 0.004658 0.000000 0.031320 0.000000
# 6 0.000000 0.000000 0.000000 0.038829 0.000000 0.137506
#
#
# Mechanical properties :
#
#
# Convention : Reuss Voigt Hill
#
# Bulk Modulus (GPa) = 29.17790 49.76160 39.46975
# Shear Modulus (GPa) = 19.34315 38.32130 28.83222
#
# Velocity S-wave (km/s) = 2.83670 3.99273 3.46329
# Velocity P-wave (km/s) = 4.78198 6.47743 5.69317
#
# Compressibility (1/GPa) = 0.03427252
#
# Stress axis : x y z
#
# Youngs Moduli (GPa) = 43.89594 164.51649 112.04000
#
# Poissons Ratio (x) = 0.50534 -0.35022
# Poissons Ratio (y) = 0.13483 0.20284
# Poissons Ratio (z) = -0.13721 0.29784
#
# Static dielectric constant tensor:
#      x y z
#    x 1.936960 0.000000 0.086340 
#    y 0.000000 1.925550 0.000000 
#    z 0.086340 0.000000 2.009670 
# 
# From -- ./inp_files/28835.got.cif
#   From: 2010.05.17/outbox.cif.g08.bks.cpg/sg5_15_cif.got.tgz:28835.got - 2010.06.03 18:56:24.
