data_PCOD9125612
_publ_section_title
;
Structure prediction by ZEFSAII (Michael W. Deem and Ramdas Pophale) SiO2 
 PCOD9125612
Probable space group: C 2
;
_chemical_formula_sum "Si O2"
_cell_formula_units_Z 18
_cell_length_a 11.935981
_cell_length_b 7.802917
_cell_length_c 14.879044
_cell_angle_alpha 90.000000
_cell_angle_beta 151.657935
_cell_angle_gamma 90.000000
_cell_volume 657.871287
_symmetry_space_group_name_H-M "C 2"
_symmetry_group_IT_number 5
_symmetry_cell_setting 'monoclinic'
loop_
_space_group_symop_operation_xyz
x,y,z
-x,y,-z
1/2+x,1/2+y,z
1/2-x,1/2+y,-z
loop_
_atom_site_type_symbol
_atom_site_label
_atom_site_fract_x
_atom_site_fract_y
_atom_site_fract_z
Si Si1 0.000000 0.016040 0.000000
Si Si2 0.654701 0.084151 0.452762
Si Si3 0.259428 0.291691 0.095281
Si Si4 0.066836 0.268255 0.667468
Si Si5 0.945499 0.592217 0.818837
O O1 0.945968 0.148539 0.042187
O O2 0.777454 0.894133 0.841467
O O3 0.449368 0.232629 0.307190
O O4 0.619215 0.015472 0.324515
O O5 0.915018 0.161060 0.631681
O O6 0.619647 0.920695 0.492111
O O7 0.406182 0.258475 0.108314
O O8 0.121677 0.468780 0.996181
O O9 0.206963 0.141533 0.700618
#
# Coordination Sequence:
#
# PCOD9125612 Si02
#       5
#     2   4   4   4   4
#     4  10  22  40  66 102 126 174 220 272 318 410
#     4   9  24  41  62  99 129 169 220 270 317 403
#     4   9  21  41  64  95 131 167 229 257 333 387
#     4  11  22  42  65  93 137 168 219 267 333 377
#     4  10  21  42  67  93 130 176 210 276 319 396
#
# _framework density 27.360973999999999
#
# number of rings (size 3 to 8) (size 9 to 14) (size 15 to 20)
#    1.333    0.889    0.000    2.000    0.000    6.222 
#    0.000    0.000    0.000    0.000    0.000    0.000 
#    0.000    0.000    0.000    0.000    0.000    0.000 
#
# Total GULP energy -50200.148249 kJ/mol
# GULP energy per Si atom -5577.794250 kJ/mol
# Density = 2.729870 g / cm^3
# Si number density = 27.360974 Si / 1000 Ang^3
#
#
#
# Elastic Constant Matrix: (Units=GPa)
#
#
# Indices 1 2 3 4 5 6 
#
# 1 89.0478 43.8515 47.6176 0.0005 29.7794 -0.0001
# 2 43.8515 113.6327 97.5778 0.0017 27.6597 0.0001
# 3 47.6176 97.5778 178.5563 0.0037 47.9685 0.0005
# 4 0.0005 0.0017 0.0037 64.2728 0.0006 14.9475
# 5 29.7794 27.6597 47.9685 0.0006 51.6913 -0.0003
# 6 -0.0001 0.0001 0.0005 14.9475 -0.0003 42.0667
#
#
#
# Elastic Compliance Matrix: (Units=1/GPa)
#
#
# Indices 1 2 3 4 5 6 
#
# 1 0.015624 -0.004459 0.000063 0.000000 -0.006673 0.000000
# 2 -0.004459 0.017869 -0.008921 0.000000 0.001286 0.000000
# 3 0.000063 -0.008921 0.012237 0.000000 -0.006618 0.000000
# 4 0.000000 0.000000 0.000000 0.016960 0.000000 -0.006026
# 5 -0.006673 0.001286 -0.006618 0.000000 0.028643 0.000000
# 6 0.000000 0.000000 0.000000 -0.006026 0.000000 0.025913
#
#
# Mechanical properties :
#
#
# Convention : Reuss Voigt Hill
#
# Bulk Modulus (GPa) = 52.37036 84.37005 68.37021
# Shear Modulus (GPa) = 33.27870 44.41883 38.84877
#
# Velocity S-wave (km/s) = 3.49131 4.03356 3.77219
# Velocity P-wave (km/s) = 5.95268 7.25229 6.63438
#
# Compressibility (1/GPa) = 0.01909477
#
# Stress axis : x y z
#
# Youngs Moduli (GPa) = 64.00505 55.96325 81.71915
#
# Poissons Ratio (x) = 0.24954 -0.00514
# Poissons Ratio (y) = 0.28540 0.72905
# Poissons Ratio (z) = -0.00403 0.49927
#
# Static dielectric constant tensor:
#      x y z
#    x 2.259190 0.000000 0.012290 
#    y 0.000000 2.151120 0.000000 
#    z 0.012290 0.000000 2.274740 
# 
# From -- ./inp_files/38187.got.cif
#   From: 2010.05.17/outbox.cif.g08.bks.cpg/sg5_20_cif.got.tgz:38187.got - 2010.06.03 18:56:24.
