data_PCOD9125662
_publ_section_title
;
Structure prediction by ZEFSAII (Michael W. Deem and Ramdas Pophale) SiO2 
 PCOD9125662
Probable space group: C 2
;
_chemical_formula_sum "Si O2"
_cell_formula_units_Z 24
_cell_length_a 9.540430
_cell_length_b 8.103961
_cell_length_c 13.626512
_cell_angle_alpha 90.000000
_cell_angle_beta 59.799940
_cell_angle_gamma 90.000000
_cell_volume 910.545351
_symmetry_space_group_name_H-M "C 2"
_symmetry_group_IT_number 5
_symmetry_cell_setting 'monoclinic'
loop_
_space_group_symop_operation_xyz
x,y,z
-x,y,-z
1/2+x,1/2+y,z
1/2-x,1/2+y,-z
loop_
_atom_site_type_symbol
_atom_site_label
_atom_site_fract_x
_atom_site_fract_y
_atom_site_fract_z
Si Si1 0.102193 0.340540 0.801829
Si Si2 0.275977 0.945008 0.924365
Si Si3 0.779544 0.011047 0.595836
Si Si4 0.229947 0.323920 0.292815
Si Si5 0.606237 0.316413 0.158580
Si Si6 0.231374 0.635149 0.394492
O O1 0.936229 0.362060 0.915587
O O2 0.262656 0.376661 0.807868
O O3 0.108457 0.472090 0.710108
O O4 0.123925 0.170615 0.735335
O O5 0.259682 0.848769 0.827220
O O6 0.324290 0.133967 0.890623
O O7 0.129436 0.919926 0.050447
O O8 0.840157 0.820710 0.575246
O O9 0.851632 0.157240 0.637372
O O10 0.771099 0.077615 0.489322
O O11 0.420294 0.318068 0.259187
O O12 0.145059 0.482128 0.372516
#
# Coordination Sequence:
#
# PCOD9125662 Si02
#       6
#     4   4   4   4   4   4
#     4  10  24  46  66  98 142 170 226 288 326 408
#     4  12  27  45  69 102 137 182 232 284 343 410
#     4  10  21  42  70 102 137 180 229 280 342 410
#     4  12  24  46  72  98 142 184 224 284 348 402
#     4  12  27  45  69 102 137 182 232 284 343 410
#     4  10  21  42  70 102 137 180 229 280 342 410
#
# _framework density 26.35783
#
# number of rings (size 3 to 8) (size 9 to 14) (size 15 to 20)
#    1.000    0.000    5.000    1.000    4.667    2.667 
#    0.000   10.000    0.000    0.000    0.000    0.000 
#    0.000    0.000    0.000    0.000    0.000    0.000 
#
# Total GULP energy -66975.014595 kJ/mol
# GULP energy per Si atom -5581.251216 kJ/mol
# Density = 2.629784 g / cm^3
# Si number density = 26.357830 Si / 1000 Ang^3
#
#
#
# Elastic Constant Matrix: (Units=GPa)
#
#
# Indices 1 2 3 4 5 6 
#
# 1 112.9967 6.3635 37.7899 0.0000 1.0770 0.0000
# 2 6.3635 207.7696 40.3131 0.0000 17.6861 0.0000
# 3 37.7899 40.3131 131.3449 0.0000 21.9170 0.0000
# 4 0.0000 0.0000 0.0000 50.8119 0.0000 5.9721
# 5 1.0770 17.6861 21.9170 0.0000 47.7031 0.0000
# 6 0.0000 0.0000 0.0000 5.9721 0.0000 -4.7894
#
#
#
# Elastic Compliance Matrix: (Units=1/GPa)
#
#
# Indices 1 2 3 4 5 6 
#
# 1 0.009860 0.000201 -0.003086 0.000000 0.001120 0.000000
# 2 0.000201 0.005194 -0.001441 0.000000 -0.001269 0.000000
# 3 -0.003086 -0.001441 0.009577 0.000000 -0.003796 0.000000
# 4 0.000000 0.000000 0.000000 0.017165 0.000000 0.021404
# 5 0.001120 -0.001269 -0.003796 0.000000 0.023152 0.000000
# 6 0.000000 0.000000 0.000000 0.021404 0.000000 -0.182106
#
#
# Mechanical properties :
#
#
# Convention : Reuss Voigt Hill
#
# Bulk Modulus (GPa) = 62.57238 69.00491 65.78865
# Shear Modulus (GPa) = -48.45847 43.25476 -2.60186
#
# Velocity S-wave (km/s) = -4.29241 4.05539 -0.99462
# Velocity P-wave (km/s) = 0.88047 6.94011 4.86775
#
# Compressibility (1/GPa) = 0.01598149
#
# Stress axis : x y z
#
# Youngs Moduli (GPa) = 101.42286 192.51721 104.41780
#
# Poissons Ratio (x) = -0.03876 0.32218
# Poissons Ratio (y) = -0.02042 0.15042
# Poissons Ratio (z) = 0.31294 0.27733
#
# Static dielectric constant tensor:
#      x y z
#    x 2.072750 0.000000 0.015770 
#    y 0.000000 2.154780 0.000000 
#    z 0.015770 0.000000 2.013510 
# 
# From -- ./inp_files/38259.got.cif
#   From: 2010.05.17/outbox.cif.g08.bks.cpg/sg5_20_cif.got.tgz:38259.got - 2010.06.03 18:56:24.
