data_PCOD9125182
_publ_section_title
;
Structure prediction by ZEFSAII (Michael W. Deem and Ramdas Pophale) SiO2 
 PCOD9125182
Probable space group: C 2
;
_chemical_formula_sum "Si O2"
_cell_formula_units_Z 32
_cell_length_a 8.820034
_cell_length_b 16.282125
_cell_length_c 21.397906
_cell_angle_alpha 90.000000
_cell_angle_beta 30.275374
_cell_angle_gamma 90.000000
_cell_volume 1549.237418
_symmetry_space_group_name_H-M "C 2"
_symmetry_group_IT_number 5
_symmetry_cell_setting 'monoclinic'
loop_
_space_group_symop_operation_xyz
x,y,z
-x,y,-z
1/2+x,1/2+y,z
1/2-x,1/2+y,-z
loop_
_atom_site_type_symbol
_atom_site_label
_atom_site_fract_x
_atom_site_fract_y
_atom_site_fract_z
Si Si1 0.215597 0.625000 0.774759
Si Si2 0.837640 0.579212 0.496959
Si Si3 0.144688 0.785700 0.133718
Si Si4 0.902808 0.193375 0.264650
Si Si5 0.145348 0.463283 0.133658
Si Si6 0.766168 0.825813 0.760946
Si Si7 0.165023 0.906003 0.508160
Si Si8 0.121755 0.355859 0.259585
O O1 0.537446 0.626176 0.624983
O O2 0.322360 0.636493 0.809244
O O3 0.006324 0.697794 0.825324
O O4 0.046327 0.541519 0.818673
O O5 0.725292 0.502390 0.496995
O O6 0.000000 0.540695 0.500000
O O7 0.091742 0.643064 0.383471
O O8 0.087730 0.817503 0.223914
O O9 0.973880 0.841676 0.144090
O O10 0.500000 0.782408 0.000000
O O11 0.869546 0.236869 0.209850
O O12 0.966803 0.274933 0.284467
O O13 0.079667 0.432758 0.228166
O O14 0.012154 0.388375 0.140898
O O15 0.500000 0.475621 0.000000
O O16 0.995324 0.862193 0.626265
O O17 0.483362 0.866794 0.377265
O O18 0.000000 0.894501 0.500000
#
# Coordination Sequence:
#
# PCOD9125182 Si02
#       8
#     4   4   4   4   4   4   4   4
#     4  10  21  40  63  91 127 171 209 261 317 372
#     4  10  22  37  61  93 130 165 199 256 322 382
#     4  11  25  43  62  92 128 165 222 267 305 377
#     4   9  21  39  63  90 128 167 205 257 325 381
#     4  11  21  41  67  90 126 176 215 256 317 375
#     4  11  24  40  65  96 124 168 219 259 324 378
#     4  12  22  39  64  94 132 157 207 260 323 387
#     4  10  23  39  65  90 129 170 204 265 323 370
#
# _framework density 20.655324
#
# number of rings (size 3 to 8) (size 9 to 14) (size 15 to 20)
#    0.000    1.500    3.750    1.125    8.750    2.000 
#    0.000    0.000    0.000    3.000    0.000    0.000 
#    0.000    0.000    0.000    0.000    0.000    0.000 
#
# Total GULP energy -89150.425391 kJ/mol
# GULP energy per Si atom -5571.901587 kJ/mol
# Density = 2.060831 g / cm^3
# Si number density = 20.655324 Si / 1000 Ang^3
#
#
#
# Elastic Constant Matrix: (Units=GPa)
#
#
# Indices 1 2 3 4 5 6 
#
# 1 86.9536 40.1541 33.4597 0.1445 -14.8853 -0.1968
# 2 40.1541 67.2264 26.9125 0.0125 -10.7430 -0.0290
# 3 33.4597 26.9125 103.4408 0.1072 -21.4149 -0.0951
# 4 0.1445 0.0125 0.1072 21.3700 -0.1023 -11.8208
# 5 -14.8853 -10.7430 -21.4149 -0.1023 35.1566 0.1405
# 6 -0.1968 -0.0290 -0.0951 -11.8208 0.1405 35.8696
#
#
#
# Elastic Compliance Matrix: (Units=1/GPa)
#
#
# Indices 1 2 3 4 5 6 
#
# 1 0.017008 -0.008628 -0.002645 -0.000055 0.002953 0.000050
# 2 -0.008628 0.021225 -0.002454 0.000051 0.001338 -0.000025
# 3 -0.002645 -0.002454 0.012329 -0.000023 0.005640 -0.000013
# 4 -0.000055 0.000051 -0.000023 0.057227 0.000069 0.018859
# 5 0.002953 0.001338 0.005640 0.000069 0.033539 -0.000076
# 6 0.000050 -0.000025 -0.000013 0.018859 -0.000076 0.034094
#
#
# Mechanical properties :
#
#
# Convention : Reuss Voigt Hill
#
# Bulk Modulus (GPa) = 43.27702 50.96374 47.12038
# Shear Modulus (GPa) = 23.74380 28.95220 26.34800
#
# Velocity S-wave (km/s) = 3.39414 3.74797 3.57543
# Velocity P-wave (km/s) = 6.02974 6.59217 6.31721
#
# Compressibility (1/GPa) = 0.02310695
#
# Stress axis : x y z
#
# Youngs Moduli (GPa) = 58.79443 47.11430 81.10783
#
# Poissons Ratio (x) = 0.40651 0.21456
# Poissons Ratio (y) = 0.50728 0.19907
# Poissons Ratio (z) = 0.15553 0.11564
#
# Static dielectric constant tensor:
#      x y z
#    x 1.773870 0.000040 0.002530 
#    y 0.000040 1.736360 0.000060 
#    z 0.002530 0.000060 1.813210 
# 
# From -- ./inp_files/68037.got.cif
#   From: 2010.05.17/outbox.cif.g08.bks.cpg/sg5_35_cif.got.tgz:68037.got - 2010.06.03 18:56:24.
