data_PCOD9125997
_publ_section_title
;
Structure prediction by ZEFSAII (Michael W. Deem and Ramdas Pophale) SiO2 
 PCOD9125997
Probable space group: C 2
;
_chemical_formula_sum "Si O2"
_cell_formula_units_Z 26
_cell_length_a 18.437932
_cell_length_b 6.806682
_cell_length_c 11.376668
_cell_angle_alpha 90.000000
_cell_angle_beta 59.950942
_cell_angle_gamma 90.000000
_cell_volume 1235.886205
_symmetry_space_group_name_H-M "C 2"
_symmetry_group_IT_number 5
_symmetry_cell_setting 'monoclinic'
loop_
_space_group_symop_operation_xyz
x,y,z
-x,y,-z
1/2+x,1/2+y,z
1/2-x,1/2+y,-z
loop_
_atom_site_type_symbol
_atom_site_label
_atom_site_fract_x
_atom_site_fract_y
_atom_site_fract_z
Si Si1 0.152603 0.904590 0.676492
Si Si2 0.422596 0.877847 0.898375
Si Si3 0.492213 0.218448 0.711075
Si Si4 0.391462 0.601981 0.720291
Si Si5 0.000000 0.422983 0.500000
Si Si6 0.768076 0.052612 0.622315
Si Si7 0.113746 0.300880 0.806787
O O1 0.068628 0.777252 0.732712
O O2 0.231513 0.770535 0.641901
O O3 0.169875 0.001816 0.534832
O O4 0.137410 0.072936 0.783070
O O5 0.378071 0.713552 0.854613
O O6 0.521947 0.822198 0.823787
O O7 0.423027 0.090911 0.836928
O O8 0.391551 0.878971 0.056389
O O9 0.453342 0.418134 0.690591
O O10 0.525833 0.071386 0.582896
O O11 0.431170 0.774549 0.607185
O O12 0.312882 0.525212 0.710695
O O13 0.687207 0.913241 0.680226
#
# Coordination Sequence:
#
# PCOD9125997 Si02
#       7
#     4   4   4   4   2   4   4
#     4  12  24  41  71  98 136 176 218 274 339 397
#     4  10  24  46  70  94 131 180 232 273 322 408
#     4  11  22  42  70  98 130 179 225 267 337 398
#     4  11  24  42  66 102 133 173 223 280 331 391
#     4  10  22  36  68  98 138 166 220 276 326 398
#     4  12  26  41  67 102 135 173 218 280 342 388
#     4  11  24  47  67  97 134 177 230 274 324 404
#
# _framework density 21.037535999999999
#
# number of rings (size 3 to 8) (size 9 to 14) (size 15 to 20)
#    0.000    0.923    4.615    2.308    4.308    3.692 
#    5.538    0.000    0.000    0.000    0.000    0.000 
#    0.000    0.000    0.000    0.000    0.000    0.000 
#
# Total GULP energy -72650.901847 kJ/mol
# GULP energy per Si atom -5588.530911 kJ/mol
# Density = 2.098965 g / cm^3
# Si number density = 21.037536 Si / 1000 Ang^3
#
#
#
# Elastic Constant Matrix: (Units=GPa)
#
#
# Indices 1 2 3 4 5 6 
#
# 1 54.7953 -1.3678 -7.3222 0.0000 6.6776 0.0000
# 2 -1.3678 101.6998 11.0322 0.0000 0.7414 0.0000
# 3 -7.3222 11.0322 53.2323 0.0000 11.0960 0.0000
# 4 0.0000 0.0000 0.0000 22.4693 0.0000 5.1357
# 5 6.6776 0.7414 11.0960 0.0000 25.0862 0.0000
# 6 0.0000 0.0000 0.0000 5.1357 0.0000 25.9397
#
#
#
# Elastic Compliance Matrix: (Units=1/GPa)
#
#
# Indices 1 2 3 4 5 6 
#
# 1 0.019674 -0.000141 0.004215 0.000000 -0.007097 0.000000
# 2 -0.000141 0.010071 -0.002261 0.000000 0.000740 0.000000
# 3 0.004215 -0.002261 0.022090 0.000000 -0.010826 0.000000
# 4 0.000000 0.000000 0.000000 0.046615 0.000000 -0.009229
# 5 -0.007097 0.000740 -0.010826 0.000000 0.046518 0.000000
# 6 0.000000 0.000000 0.000000 -0.009229 0.000000 0.040378
#
#
# Mechanical properties :
#
#
# Convention : Reuss Voigt Hill
#
# Bulk Modulus (GPa) = 18.03037 23.82355 20.92696
# Shear Modulus (GPa) = 24.97407 28.52472 26.74939
#
# Velocity S-wave (km/s) = 3.44920 3.68624 3.56969
# Velocity P-wave (km/s) = 4.94488 5.42833 5.19223
#
# Compressibility (1/GPa) = 0.05546198
#
# Stress axis : x y z
#
# Youngs Moduli (GPa) = 50.82769 99.29686 45.26836
#
# Poissons Ratio (x) = 0.01399 -0.19080
# Poissons Ratio (y) = 0.00716 0.10234
# Poissons Ratio (z) = -0.21423 0.22448
#
# Static dielectric constant tensor:
#      x y z
#    x 1.745440 0.000000 0.013150 
#    y 0.000000 1.767530 0.000000 
#    z 0.013150 0.000000 1.738110 
# 
# From -- ./inp_files/45415.got.cif
#   From: 2010.05.17/outbox.cif.g08.bks.cpg/sg5_23_cif.got.tgz:45415.got - 2010.06.03 18:56:24.
