data_PCOD9125068
_publ_section_title
;
Structure prediction by ZEFSAII (Michael W. Deem and Ramdas Pophale) SiO2 
 PCOD9125068
Probable space group: C 2
;
_chemical_formula_sum "Si O2"
_cell_formula_units_Z 20
_cell_length_a 17.261872
_cell_length_b 6.806100
_cell_length_c 13.497835
_cell_angle_alpha 90.000000
_cell_angle_beta 151.760393
_cell_angle_gamma 90.000000
_cell_volume 750.340242
_symmetry_space_group_name_H-M "C 2"
_symmetry_group_IT_number 5
_symmetry_cell_setting 'monoclinic'
loop_
_space_group_symop_operation_xyz
x,y,z
-x,y,-z
1/2+x,1/2+y,z
1/2-x,1/2+y,-z
loop_
_atom_site_type_symbol
_atom_site_label
_atom_site_fract_x
_atom_site_fract_y
_atom_site_fract_z
Si Si1 0.250778 0.675100 0.452722
Si Si2 0.953021 0.080785 0.340703
Si Si3 0.891978 0.683026 0.096023
Si Si4 0.827417 0.512347 0.222402
Si Si5 0.823878 0.077108 0.748196
O O1 0.398808 0.554383 0.569101
O O2 0.305257 0.707462 0.628406
O O3 0.063423 0.602566 0.252106
O O4 0.216599 0.863489 0.344592
O O5 0.000000 0.002820 0.500000
O O6 0.941447 0.321538 0.336342
O O7 0.760623 0.045751 0.105466
O O8 0.884710 0.669177 0.206405
O O9 0.844674 0.898848 0.001041
O O10 0.801702 0.598812 0.301737
O O11 0.000000 0.094928 0.000000
#
# Coordination Sequence:
#
# PCOD9125068 Si02
#       5
#     4   4   4   4   4
#     4  12  24  41  75 103 139 185 239 286 357 415
#     4  10  21  39  66  95 132 179 225 280 347 408
#     4  10  23  39  67 103 133 183 236 284 345 431
#     4  10  22  44  67  93 142 175 230 287 347 403
#     4  12  24  47  73 106 142 192 233 295 350 426
#
# _framework density 26.654574
#
# number of rings (size 3 to 8) (size 9 to 14) (size 15 to 20)
#    1.200    0.000    4.000    2.400    0.000    0.000 
#    0.000    5.000    0.000    0.000    0.000    0.000 
#    0.000    0.000    0.000    0.000    0.000    0.000 
#
# Total GULP energy -55823.073629 kJ/mol
# GULP energy per Si atom -5582.307363 kJ/mol
# Density = 2.659391 g / cm^3
# Si number density = 26.654574 Si / 1000 Ang^3
#
#
#
# Elastic Constant Matrix: (Units=GPa)
#
#
# Indices 1 2 3 4 5 6 
#
# 1 261.1525 37.1141 102.6656 0.0000 9.5954 0.0000
# 2 37.1141 69.0711 19.8649 0.0000 11.6108 0.0000
# 3 102.6656 19.8649 205.7454 0.0000 23.8601 0.0000
# 4 0.0000 0.0000 0.0000 34.4005 0.0000 -4.2526
# 5 9.5954 11.6108 23.8601 0.0000 61.4531 0.0000
# 6 0.0000 0.0000 0.0000 -4.2526 0.0000 41.1229
#
#
#
# Elastic Compliance Matrix: (Units=1/GPa)
#
#
# Indices 1 2 3 4 5 6 
#
# 1 0.005044 -0.002117 -0.002374 0.000000 0.000534 0.000000
# 2 -0.002117 0.016115 -0.000193 0.000000 -0.002639 0.000000
# 3 -0.002374 -0.000193 0.006300 0.000000 -0.002039 0.000000
# 4 0.000000 0.000000 0.000000 0.029446 0.000000 0.003045
# 5 0.000534 -0.002639 -0.002039 0.000000 0.017479 0.000000
# 6 0.000000 0.000000 0.000000 0.003045 0.000000 0.024632
#
#
# Mechanical properties :
#
#
# Convention : Reuss Voigt Hill
#
# Bulk Modulus (GPa) = 55.28240 95.02869 75.15555
# Shear Modulus (GPa) = 43.70023 52.48360 48.09192
#
# Velocity S-wave (km/s) = 4.05347 4.44219 4.25227
# Velocity P-wave (km/s) = 6.53397 7.87655 7.23646
#
# Compressibility (1/GPa) = 0.01808894
#
# Stress axis : x y z
#
# Youngs Moduli (GPa) = 198.26030 62.05512 158.72220
#
# Poissons Ratio (x) = 0.13138 0.37687
# Poissons Ratio (y) = 0.41975 0.03070
# Poissons Ratio (z) = 0.47075 0.01200
#
# Static dielectric constant tensor:
#      x y z
#    x 2.016820 0.000000 -0.004840 
#    y 0.000000 2.145890 0.000000 
#    z -0.004840 0.000000 2.160610 
# 
# From -- ./inp_files/44345.got.cif
#   From: 2010.05.17/outbox.cif.g08.bks.cpg/sg5_23_cif.got.tgz:44345.got - 2010.06.03 18:56:24.
