data_PCOD9125434
_publ_section_title
;
Structure prediction by ZEFSAII (Michael W. Deem and Ramdas Pophale) SiO2 
 PCOD9125434
Probable space group: C 2
;
_chemical_formula_sum "Si O2"
_cell_formula_units_Z 24
_cell_length_a 10.649672
_cell_length_b 21.618788
_cell_length_c 8.472197
_cell_angle_alpha 90.000000
_cell_angle_beta 41.793865
_cell_angle_gamma 90.000000
_cell_volume 1299.968760
_symmetry_space_group_name_H-M "C 2"
_symmetry_group_IT_number 5
_symmetry_cell_setting 'monoclinic'
loop_
_space_group_symop_operation_xyz
x,y,z
-x,y,-z
1/2+x,1/2+y,z
1/2-x,1/2+y,-z
loop_
_atom_site_type_symbol
_atom_site_label
_atom_site_fract_x
_atom_site_fract_y
_atom_site_fract_z
Si Si1 0.286783 0.783310 0.758340
Si Si2 0.893780 0.598661 0.764240
Si Si3 0.500000 0.572199 0.500000
Si Si4 0.270275 0.162884 0.367981
Si Si5 0.000000 0.892245 0.000000
Si Si6 0.418438 0.703753 0.915125
Si Si7 0.927518 0.012201 0.896101
O O1 0.500000 0.790416 0.500000
O O2 0.191721 0.729480 0.742161
O O3 0.311314 0.754316 0.909277
O O4 0.176366 0.846416 0.838474
O O5 0.000000 0.588901 0.500000
O O6 0.051635 0.628393 0.728431
O O7 0.727787 0.649393 0.907545
O O8 0.788594 0.535204 0.910660
O O9 0.678830 0.617886 0.323173
O O10 0.517732 0.535383 0.647633
O O11 0.098140 0.175490 0.651921
O O12 0.972094 0.939936 0.880694
O O13 0.500000 0.730853 0.000000
O O14 0.000000 0.038392 0.000000
#
# Coordination Sequence:
#
# PCOD9125434 Si02
#       7
#     4   4   2   4   2   4   4
#     4  10  21  41  66  90 122 174 215 262 332 384
#     4  12  21  33  63  98 130 170 209 257 344 395
#     4  12  20  44  66  96 136 164 208 280 338 376
#     4  11  21  36  65  97 129 162 205 277 336 393
#     4  10  24  46  62  82 130 178 230 258 310 388
#     4  11  20  37  58  98 136 156 205 279 332 380
#     4  10  24  42  62  91 131 177 217 270 313 379
#
# _framework density 18.461983
#
# number of rings (size 3 to 8) (size 9 to 14) (size 15 to 20)
#    0.500    0.667    5.833    2.500    0.000    2.667 
#    0.000    3.333    0.000    0.000    0.000    0.000 
#    0.000    0.000    0.000    0.000    0.000    0.000 
#
# Total GULP energy -66890.585835 kJ/mol
# GULP energy per Si atom -5574.215486 kJ/mol
# Density = 1.841996 g / cm^3
# Si number density = 18.461983 Si / 1000 Ang^3
#
#
#
# Elastic Constant Matrix: (Units=GPa)
#
#
# Indices 1 2 3 4 5 6 
#
# 1 101.3667 44.7743 17.6418 0.0000 -0.7716 0.0000
# 2 44.7743 123.6371 28.6827 0.0000 1.3151 0.0000
# 3 17.6418 28.6827 80.0216 0.0000 0.3506 0.0000
# 4 0.0000 0.0000 0.0000 22.3739 0.0000 -3.4845
# 5 -0.7716 1.3151 0.3506 0.0000 35.2390 0.0000
# 6 0.0000 0.0000 0.0000 -3.4845 0.0000 37.5268
#
#
#
# Elastic Compliance Matrix: (Units=1/GPa)
#
#
# Indices 1 2 3 4 5 6 
#
# 1 0.011850 -0.004024 -0.001172 0.000000 0.000421 0.000000
# 2 -0.004024 0.010191 -0.002764 0.000000 -0.000441 0.000000
# 3 -0.001172 -0.002764 0.013746 0.000000 -0.000059 0.000000
# 4 0.000000 0.000000 0.000000 0.045351 0.000000 0.004211
# 5 0.000421 -0.000441 -0.000059 0.000000 0.028404 0.000000
# 6 0.000000 0.000000 0.000000 0.004211 0.000000 0.027039
#
#
# Mechanical properties :
#
#
# Convention : Reuss Voigt Hill
#
# Bulk Modulus (GPa) = 50.33347 54.13587 52.23467
# Shear Modulus (GPa) = 31.42236 33.28970 32.35603
#
# Velocity S-wave (km/s) = 4.13001 4.25096 4.19092
# Velocity P-wave (km/s) = 7.07567 7.31305 7.19534
#
# Compressibility (1/GPa) = 0.01986750
#
# Stress axis : x y z
#
# Youngs Moduli (GPa) = 84.39010 98.12288 72.74874
#
# Poissons Ratio (x) = 0.39484 0.08526
# Poissons Ratio (y) = 0.33958 0.20107
# Poissons Ratio (z) = 0.09890 0.27120
#
# Static dielectric constant tensor:
#      x y z
#    x 1.675940 0.000000 0.015970 
#    y 0.000000 1.626470 0.000000 
#    z 0.015970 0.000000 1.687080 
# 
# From -- ./inp_files/21718.got.cif
#   From: 2010.05.17/outbox.cif.g08.bks.cpg/sg5_11_cif.got.tgz:21718.got - 2010.06.03 18:56:24.
