data_PCOD9125861
_publ_section_title
;
Structure prediction by ZEFSAII (Michael W. Deem and Ramdas Pophale) SiO2 
 PCOD9125861
Probable space group: C 2
;
_chemical_formula_sum "Si O2"
_cell_formula_units_Z 26
_cell_length_a 12.768227
_cell_length_b 8.804169
_cell_length_c 9.989704
_cell_angle_alpha 90.000000
_cell_angle_beta 108.139317
_cell_angle_gamma 90.000000
_cell_volume 1067.169426
_symmetry_space_group_name_H-M "C 2"
_symmetry_group_IT_number 5
_symmetry_cell_setting 'monoclinic'
loop_
_space_group_symop_operation_xyz
x,y,z
-x,y,-z
1/2+x,1/2+y,z
1/2-x,1/2+y,-z
loop_
_atom_site_type_symbol
_atom_site_label
_atom_site_fract_x
_atom_site_fract_y
_atom_site_fract_z
Si Si1 0.219176 0.294300 0.604320
Si Si2 0.000000 0.696359 0.000000
Si Si3 0.710405 0.510080 0.137275
Si Si4 0.429819 0.223136 0.257977
Si Si5 0.000000 0.187817 0.000000
Si Si6 0.302464 0.435235 0.373145
Si Si7 0.830625 0.430116 0.935232
Si Si8 0.500000 0.992368 0.500000
O O1 0.270952 0.370474 0.756471
O O2 0.289552 0.341061 0.503171
O O3 0.105326 0.385106 0.541784
O O4 0.200610 0.114893 0.605507
O O5 0.895452 0.585935 0.950483
O O6 0.772499 0.952198 0.008000
O O7 0.811918 0.630765 0.195484
O O8 0.590559 0.584302 0.109013
O O9 0.407796 0.371527 0.336848
O O10 0.500316 0.101348 0.370134
O O11 0.482304 0.267709 0.137736
O O12 0.085720 0.307171 0.965741
O O13 0.203692 0.395952 0.229847
#
# Coordination Sequence:
#
# PCOD9125861 Si02
#       8
#     4   2   4   4   2   4   4   2
#     4  11  26  47  74 108 160 204 259 326 390 475
#     4   9  20  40  73 108 141 203 244 322 394 450
#     4  10  23  46  76 113 155 199 265 328 385 477
#     4  10  21  44  74 109 152 197 264 323 391 471
#     4  11  22  46  85 108 159 217 252 316 422 452
#     4  12  25  46  73 107 157 203 252 331 387 459
#     4  10  23  43  77 111 154 197 265 322 384 476
#     4  10  22  46  74 106 150 208 254 322 392 468
#
# _framework density 24.363516000000001
#
# number of rings (size 3 to 8) (size 9 to 14) (size 15 to 20)
#    0.000    1.538    1.538    2.769    2.154    1.846 
#    0.000    6.923    0.000    0.923    0.000    0.000 
#    0.000    0.000    0.000    0.000    0.000    0.000 
#
# Total GULP energy -72712.414241 kJ/mol
# GULP energy per Si atom -5593.262634 kJ/mol
# Density = 2.430806 g / cm^3
# Si number density = 24.363516 Si / 1000 Ang^3
#
#
#
# Elastic Constant Matrix: (Units=GPa)
#
#
# Indices 1 2 3 4 5 6 
#
# 1 107.0998 75.2417 66.9389 0.0000 -8.7040 0.0000
# 2 75.2417 197.6993 67.1450 0.0000 -19.2740 0.0000
# 3 66.9389 67.1450 98.3450 0.0000 -31.7000 0.0000
# 4 0.0000 0.0000 0.0000 -9.9410 0.0000 33.3633
# 5 -8.7040 -19.2740 -31.7000 0.0000 59.7280 0.0000
# 6 0.0000 0.0000 0.0000 33.3633 0.0000 21.4106
#
#
#
# Elastic Compliance Matrix: (Units=1/GPa)
#
#
# Indices 1 2 3 4 5 6 
#
# 1 0.018983 -0.003618 -0.011986 0.000000 -0.004763 0.000000
# 2 -0.003618 0.007280 -0.002316 0.000000 0.000592 0.000000
# 3 -0.011986 -0.002316 0.023047 0.000000 0.009738 0.000000
# 4 0.000000 0.000000 0.000000 -0.016147 0.000000 0.025162
# 5 -0.004763 0.000592 0.009738 0.000000 0.021408 0.000000
# 6 0.000000 0.000000 0.000000 0.025162 0.000000 0.007497
#
#
# Mechanical properties :
#
#
# Convention : Reuss Voigt Hill
#
# Bulk Modulus (GPa) = 74.24612 91.31058 82.77835
# Shear Modulus (GPa) = 48.82882 27.16075 37.99479
#
# Velocity S-wave (km/s) = 4.48166 3.34250 3.95333
# Velocity P-wave (km/s) = 7.57105 7.24267 7.40868
#
# Compressibility (1/GPa) = 0.01346872
#
# Stress axis : x y z
#
# Youngs Moduli (GPa) = 52.67773 137.36673 43.38998
#
# Poissons Ratio (x) = 0.49704 0.52006
# Poissons Ratio (y) = 0.19061 0.10051
# Poissons Ratio (z) = 0.63138 0.31820
#
# Static dielectric constant tensor:
#      x y z
#    x 1.951640 0.000000 0.046560 
#    y 0.000000 1.950960 0.000000 
#    z 0.046560 0.000000 1.972790 
# 
# From -- ./inp_files/41603.got.cif
#   From: 2010.05.17/outbox.cif.g08.bks.cpg/sg5_21_cif.got.tgz:41603.got - 2010.06.03 18:56:24.
