data_PCOD9125986
_publ_section_title
;
Structure prediction by ZEFSAII (Michael W. Deem and Ramdas Pophale) SiO2 
 PCOD9125986
Probable space group: C 2
;
_chemical_formula_sum "Si O2"
_cell_formula_units_Z 18
_cell_length_a 16.518892
_cell_length_b 5.419576
_cell_length_c 11.490797
_cell_angle_alpha 90.000000
_cell_angle_beta 55.828529
_cell_angle_gamma 90.000000
_cell_volume 851.120556
_symmetry_space_group_name_H-M "C 2"
_symmetry_group_IT_number 5
_symmetry_cell_setting 'monoclinic'
loop_
_space_group_symop_operation_xyz
x,y,z
-x,y,-z
1/2+x,1/2+y,z
1/2-x,1/2+y,-z
loop_
_atom_site_type_symbol
_atom_site_label
_atom_site_fract_x
_atom_site_fract_y
_atom_site_fract_z
Si Si1 0.522902 0.967140 0.760042
Si Si2 0.656552 0.684710 0.822576
Si Si3 0.205728 0.587708 0.478940
Si Si4 0.192232 0.429965 0.020656
Si Si5 0.500000 0.316447 0.000000
O O1 0.584026 0.750877 0.774532
O O2 0.410653 0.903748 0.828185
O O3 0.591273 0.055045 0.599625
O O4 0.517765 0.167443 0.867665
O O5 0.757747 0.603646 0.683187
O O6 0.596209 0.481956 0.940831
O O7 0.670040 0.909443 0.900133
O O8 0.259283 0.345406 0.489936
O O9 0.242262 0.689277 0.007811
#
# Coordination Sequence:
#
# PCOD9125986 Si02
#       5
#     4   4   4   4   2
#     4  11  22  39  65  94 124 165 210 264 310 369
#     4  11  22  39  65  94 124 165 210 264 310 369
#     4  10  22  36  63  98 125 152 206 268 316 360
#     4  12  26  40  63  95 130 168 212 256 310 374
#     4  12  16  36  68  92 124 156 210 262 306 354
#
# _framework density 21.148592000000001
#
# number of rings (size 3 to 8) (size 9 to 14) (size 15 to 20)
#    0.000    0.889    6.667    1.333    0.000    0.000 
#    0.000    1.111    0.000    8.000    0.000    0.000 
#    0.000    0.000    0.000    0.000    0.000    0.000 
#
# Total GULP energy -50240.296969 kJ/mol
# GULP energy per Si atom -5582.255219 kJ/mol
# Density = 2.110046 g / cm^3
# Si number density = 21.148592 Si / 1000 Ang^3
#
#
#
# Elastic Constant Matrix: (Units=GPa)
#
#
# Indices 1 2 3 4 5 6 
#
# 1 64.2756 25.3922 33.4811 0.0000 -29.0573 0.0000
# 2 25.3922 97.5726 23.1218 0.0000 -12.3454 0.0000
# 3 33.4811 23.1218 178.8272 0.0000 -53.4291 0.0000
# 4 0.0000 0.0000 0.0000 32.9398 0.0000 0.0454
# 5 -29.0573 -12.3454 -53.4291 0.0000 33.8024 0.0000
# 6 0.0000 0.0000 0.0000 0.0454 0.0000 36.3435
#
#
#
# Elastic Compliance Matrix: (Units=1/GPa)
#
#
# Indices 1 2 3 4 5 6 
#
# 1 0.028449 -0.004670 0.003931 0.000000 0.028963 0.000000
# 2 -0.004670 0.011528 -0.001057 0.000000 -0.001475 0.000000
# 3 0.003931 -0.001057 0.011155 0.000000 0.020625 0.000000
# 4 0.000000 0.000000 0.000000 0.030359 0.000000 -0.000038
# 5 0.028963 -0.001475 0.020625 0.000000 0.086542 0.000000
# 6 0.000000 0.000000 0.000000 -0.000038 0.000000 0.027515
#
#
# Mechanical properties :
#
#
# Convention : Reuss Voigt Hill
#
# Bulk Modulus (GPa) = 21.03541 56.07398 38.55469
# Shear Modulus (GPa) = 23.25724 37.86247 30.55986
#
# Velocity S-wave (km/s) = 3.31978 4.23579 3.80545
# Velocity P-wave (km/s) = 4.96615 7.10594 6.13013
#
# Compressibility (1/GPa) = 0.04753890
#
# Stress axis : x y z
#
# Youngs Moduli (GPa) = 35.15081 86.74512 89.64731
#
# Poissons Ratio (x) = 0.40514 -0.35239
# Poissons Ratio (y) = 0.16417 0.09474
# Poissons Ratio (z) = -0.13817 0.09167
#
# Static dielectric constant tensor:
#      x y z
#    x 1.833550 0.000000 -0.012610 
#    y 0.000000 1.797100 0.000000 
#    z -0.012610 0.000000 1.777010 
# 
# From -- ./inp_files/11873.got.cif
#   From: 2010.05.17/outbox.cif.g08.bks.cpg/sg5_6_cif.got.tgz:11873.got - 2010.06.03 18:56:24.
