data_PCOD9125932
_publ_section_title
;
Structure prediction by ZEFSAII (Michael W. Deem and Ramdas Pophale) SiO2 
 PCOD9125932
Probable space group: C 2
;
_chemical_formula_sum "Si O2"
_cell_formula_units_Z 20
_cell_length_a 9.296019
_cell_length_b 10.960855
_cell_length_c 13.545500
_cell_angle_alpha 90.000000
_cell_angle_beta 31.017970
_cell_angle_gamma 90.000000
_cell_volume 711.217482
_symmetry_space_group_name_H-M "C 2"
_symmetry_group_IT_number 5
_symmetry_cell_setting 'monoclinic'
loop_
_space_group_symop_operation_xyz
x,y,z
-x,y,-z
1/2+x,1/2+y,z
1/2-x,1/2+y,-z
loop_
_atom_site_type_symbol
_atom_site_label
_atom_site_fract_x
_atom_site_fract_y
_atom_site_fract_z
Si Si1 0.058482 0.962880 0.223093
Si Si2 0.129436 0.461557 0.768750
Si Si3 0.211885 0.831448 0.785320
Si Si4 0.309842 0.718155 0.395407
Si Si5 0.177690 0.607143 0.207556
O O1 0.107927 0.966061 0.311577
O O2 0.900305 0.854657 0.258841
O O3 0.918603 0.093089 0.282351
O O4 0.356652 0.951835 0.997012
O O5 0.153672 0.338700 0.691195
O O6 0.791177 0.470235 0.768391
O O7 0.031189 0.577862 0.761570
O O8 0.472358 0.744358 0.644381
O O9 0.000000 0.793370 0.000000
O O10 0.000490 0.691515 0.615764
O O11 0.500000 0.649319 0.000000
#
# Coordination Sequence:
#
# PCOD9125932 Si02
#       5
#     4   4   4   4   4
#     4  11  23  47  86 124 172 207 279 362 418 510
#     4  10  24  49  82 131 165 213 289 342 423 526
#     4  10  21  50  82 120 169 216 283 345 415 522
#     4  11  25  47  86 119 169 233 275 337 443 496
#     4  10  21  50  84 117 170 224 289 350 405 512
#
# _framework density 28.120794
#
# number of rings (size 3 to 8) (size 9 to 14) (size 15 to 20)
#    0.000    1.600    6.000    0.000    2.800    1.600 
#    3.600   26.000    0.000    4.800    0.000    0.000 
#    0.000    0.000    0.000    0.000    0.000    0.000 
#
# Total GULP energy -56033.607803 kJ/mol
# GULP energy per Si atom -5603.360780 kJ/mol
# Density = 2.805679 g / cm^3
# Si number density = 28.120794 Si / 1000 Ang^3
#
#
#
# Elastic Constant Matrix: (Units=GPa)
#
#
# Indices 1 2 3 4 5 6 
#
# 1 198.4209 63.2349 63.5140 -0.3509 -0.3843 -0.5571
# 2 63.2349 156.3032 102.6318 -0.2469 -6.4215 -0.3537
# 3 63.5140 102.6318 188.0834 -0.2717 -25.5660 -0.3437
# 4 -0.3509 -0.2469 -0.2717 -422.1914 0.2726 -798.1887
# 5 -0.3843 -6.4215 -25.5660 0.2726 40.0255 0.4141
# 6 -0.5571 -0.3537 -0.3437 -798.1887 0.4141-1260.4379
#
#
#
# Elastic Compliance Matrix: (Units=1/GPa)
#
#
# Indices 1 2 3 4 5 6 
#
# 1 0.005960 -0.001622 -0.001265 -0.000001 -0.001011 -0.000001
# 2 -0.001622 0.010568 -0.005465 0.000000 -0.001811 -0.000001
# 3 -0.001265 -0.005465 0.009423 0.000004 0.005130 -0.000001
# 4 -0.000001 0.000000 0.000004 0.012009 -0.000001 -0.007605
# 5 -0.001011 -0.001811 0.005130 -0.000001 0.027961 0.000009
# 6 -0.000001 -0.000001 -0.000001 -0.007605 0.000009 0.004022
#
#
# Mechanical properties :
#
#
# Convention : Reuss Voigt Hill
#
# Bulk Modulus (GPa) = 108.14133 111.28544 109.71338
# Shear Modulus (GPa) = 55.72294 -307.62565 -125.95135
#
# Velocity S-wave (km/s) = 4.45630 -10.47052 -6.69975
# Velocity P-wave (km/s) = 8.06335 10.32065 4.55512
#
# Compressibility (1/GPa) = 0.00924716
#
# Stress axis : x y z
#
# Youngs Moduli (GPa) = 167.79553 94.62347 106.11866
#
# Poissons Ratio (x) = 0.15349 0.13422
# Poissons Ratio (y) = 0.27218 0.57995
# Poissons Ratio (z) = 0.21222 0.51713
#
# Static dielectric constant tensor:
#      x y z
#    x 3.420220 -0.000190 -1.777180 
#    y -0.000190 2.076430 0.000370 
#    z -1.777180 0.000370 5.583440 
# 
# From -- ./inp_files/52675.got.cif
#   From: 2010.05.17/outbox.cif.g08.bks.cpg/sg5_27_cif.got.tgz:52675.got - 2010.06.03 18:56:24.
