data_PCOD9125602
_publ_section_title
;
Structure prediction by ZEFSAII (Michael W. Deem and Ramdas Pophale) SiO2 
 PCOD9125602
Probable space group: C 2
;
_chemical_formula_sum "Si O2"
_cell_formula_units_Z 20
_cell_length_a 24.844132
_cell_length_b 5.140311
_cell_length_c 12.047771
_cell_angle_alpha 90.000000
_cell_angle_beta 30.196388
_cell_angle_gamma 90.000000
_cell_volume 773.852322
_symmetry_space_group_name_H-M "C 2"
_symmetry_group_IT_number 5
_symmetry_cell_setting 'monoclinic'
loop_
_space_group_symop_operation_xyz
x,y,z
-x,y,-z
1/2+x,1/2+y,z
1/2-x,1/2+y,-z
loop_
_atom_site_type_symbol
_atom_site_label
_atom_site_fract_x
_atom_site_fract_y
_atom_site_fract_z
Si Si1 0.819375 0.528250 0.351586
Si Si2 0.091235 0.643978 0.466199
Si Si3 0.811571 0.971165 0.069193
Si Si4 0.535348 0.137602 0.100069
Si Si5 0.349898 0.653779 0.753211
O O1 0.767994 0.260365 0.487255
O O2 0.923676 0.626561 0.233850
O O3 0.873060 0.497121 0.134048
O O4 0.210401 0.609465 0.306779
O O5 0.102406 0.437904 0.348457
O O6 0.001651 0.557598 0.711217
O O7 0.086123 0.931698 0.426301
O O8 0.761736 0.693001 0.115330
O O9 0.911901 0.919730 0.968448
O O10 0.835690 0.097463 0.907199
#
# Coordination Sequence:
#
# PCOD9125602 Si02
#       5
#     4   4   4   4   4
#     4  11  28  54  75 110 148 182 245 324 371 442
#     4  10  22  42  65 105 144 191 238 298 345 421
#     4  10  21  45  69 103 150 200 234 294 352 432
#     4  11  26  46  81 111 137 203 246 296 381 441
#     4  10  21  42  66  97 159 190 232 301 343 411
#
# _framework density 25.844726000000001
#
# number of rings (size 3 to 8) (size 9 to 14) (size 15 to 20)
#    1.200    0.400    2.000    1.200    2.800    5.600 
#    7.200    4.000    0.000    0.000    0.000    0.000 
#    0.000    0.000    0.000    0.000    0.000    0.000 
#
# Total GULP energy -55839.412181 kJ/mol
# GULP energy per Si atom -5583.941218 kJ/mol
# Density = 2.578590 g / cm^3
# Si number density = 25.844726 Si / 1000 Ang^3
#
#
#
# Elastic Constant Matrix: (Units=GPa)
#
#
# Indices 1 2 3 4 5 6 
#
# 1 70.2991 9.1694 26.7818 -0.0024 -27.0771 0.0000
# 2 9.1694 105.4865 36.4713 -0.0058 1.0207 -0.0014
# 3 26.7818 36.4713 200.9418 -0.0029 14.4010 -0.0004
# 4 -0.0024 -0.0058 -0.0029 -46.3579 -0.0001 11.4674
# 5 -27.0771 1.0207 14.4010 -0.0001 50.2007 0.0002
# 6 0.0000 -0.0014 -0.0004 11.4674 0.0002 26.4626
#
#
#
# Elastic Compliance Matrix: (Units=1/GPa)
#
#
# Indices 1 2 3 4 5 6 
#
# 1 0.020196 -0.000689 -0.003419 -0.000001 0.011888 0.000000
# 2 -0.000689 0.010143 -0.001744 -0.000001 -0.000077 0.000001
# 3 -0.003419 -0.001744 0.006002 0.000000 -0.003530 0.000000
# 4 -0.000001 -0.000001 0.000000 -0.019483 0.000000 0.008443
# 5 0.011888 -0.000077 -0.003530 0.000000 0.027346 0.000000
# 6 0.000000 0.000001 0.000000 0.008443 0.000000 0.034131
#
#
# Mechanical properties :
#
#
# Convention : Reuss Voigt Hill
#
# Bulk Modulus (GPa) = 40.58588 57.95247 49.26918
# Shear Modulus (GPa) = 50.89030 26.34808 38.61919
#
# Velocity S-wave (km/s) = 4.44224 3.19639 3.86978
# Velocity P-wave (km/s) = 6.48454 6.00787 6.25075
#
# Compressibility (1/GPa) = 0.02463911
#
# Stress axis : x y z
#
# Youngs Moduli (GPa) = 49.51444 98.58657 166.61890
#
# Poissons Ratio (x) = 0.06788 0.56963
# Poissons Ratio (y) = 0.03409 0.29054
# Poissons Ratio (z) = 0.16928 0.17191
#
# Static dielectric constant tensor:
#      x y z
#    x 2.217850 0.000000 -0.116050 
#    y 0.000000 1.992110 0.000000 
#    z -0.116050 0.000000 2.054950 
# 
# From -- ./inp_files/47668.got.cif
#   From: 2010.05.17/outbox.cif.g08.bks.cpg/sg5_24_cif.got.tgz:47668.got - 2010.06.03 18:56:24.
