data_PCOD9125689
_publ_section_title
;
Structure prediction by ZEFSAII (Michael W. Deem and Ramdas Pophale) SiO2 
 PCOD9125689
Probable space group: C 2
;
_chemical_formula_sum "Si O2"
_cell_formula_units_Z 28
_cell_length_a 8.530539
_cell_length_b 15.238263
_cell_length_c 11.179318
_cell_angle_alpha 90.000000
_cell_angle_beta 119.741418
_cell_angle_gamma 90.000000
_cell_volume 1261.779912
_symmetry_space_group_name_H-M "C 2"
_symmetry_group_IT_number 5
_symmetry_cell_setting 'monoclinic'
loop_
_space_group_symop_operation_xyz
x,y,z
-x,y,-z
1/2+x,1/2+y,z
1/2-x,1/2+y,-z
loop_
_atom_site_type_symbol
_atom_site_label
_atom_site_fract_x
_atom_site_fract_y
_atom_site_fract_z
Si Si1 0.891178 0.788000 0.580852
Si Si2 0.451727 0.629907 0.676114
Si Si3 0.530996 0.443075 0.775680
Si Si4 0.566030 0.972683 0.149367
Si Si5 0.394644 0.807517 0.199913
Si Si6 0.000000 0.323965 0.500000
Si Si7 0.500000 0.328229 0.000000
Si Si8 0.309024 0.120800 0.640374
O O1 0.674178 0.779042 0.504975
O O2 0.936697 0.706826 0.685058
O O3 0.000000 0.776469 0.500000
O O4 0.922727 0.885967 0.637855
O O5 0.468562 0.543054 0.762269
O O6 0.477970 0.721171 0.757434
O O7 0.631690 0.631095 0.658318
O O8 0.276787 0.611068 0.525304
O O9 0.731249 0.442845 0.798992
O O10 0.523311 0.390769 0.894854
O O11 0.451938 0.886142 0.135106
O O12 0.579861 0.039664 0.264959
O O13 0.500000 0.015144 0.000000
O O14 0.409825 0.852124 0.339160
O O15 0.189155 0.779314 0.094357
#
# Coordination Sequence:
#
# PCOD9125689 Si02
#       8
#     4   4   4   4   4   2   2   4
#     4  12  24  44  74 108 141 182 251 307 363 435
#     4  10  21  42  73 100 140 188 236 296 369 420
#     4  11  25  44  66 104 139 191 240 296 364 445
#     4  11  25  46  70 101 149 192 239 292 371 441
#     4  12  23  46  72 103 141 195 238 297 367 432
#     4  12  22  44  72 102 146 186 236 308 360 420
#     4  12  24  46  66  98 146 192 244 292 358 446
#     4  10  21  43  69 104 137 187 240 297 359 432
#
# _framework density 22.190874999999998
#
# number of rings (size 3 to 8) (size 9 to 14) (size 15 to 20)
#    0.000    0.857    5.714    0.857    6.000    0.000 
#   16.714    0.000    0.000    0.000    0.000    0.000 
#    0.000    0.000    0.000    0.000    0.000    0.000 
#
# Total GULP energy -77967.538657 kJ/mol
# GULP energy per Si atom -5569.109904 kJ/mol
# Density = 2.214037 g / cm^3
# Si number density = 22.190875 Si / 1000 Ang^3
#
#
#
# Elastic Constant Matrix: (Units=GPa)
#
#
# Indices 1 2 3 4 5 6 
#
# 1 63.4734 21.8478 10.4864 0.0000 -2.3839 0.0000
# 2 21.8478 109.3737 35.4103 0.0000 6.9991 0.0000
# 3 10.4864 35.4103 88.6887 0.0000 9.3712 0.0000
# 4 0.0000 0.0000 0.0000 25.0648 0.0000 -2.6570
# 5 -2.3839 6.9991 9.3712 0.0000 29.5489 0.0000
# 6 0.0000 0.0000 0.0000 -2.6570 0.0000 21.5978
#
#
#
# Elastic Compliance Matrix: (Units=1/GPa)
#
#
# Indices 1 2 3 4 5 6 
#
# 1 0.017133 -0.003262 -0.000984 0.000000 0.002467 0.000000
# 2 -0.003262 0.011162 -0.003894 0.000000 -0.001672 0.000000
# 3 -0.000984 -0.003894 0.013303 0.000000 -0.003376 0.000000
# 4 0.000000 0.000000 0.000000 0.040424 0.000000 0.004973
# 5 0.002467 -0.001672 -0.003376 0.000000 0.035508 0.000000
# 6 0.000000 0.000000 0.000000 0.004973 0.000000 0.046913
#
#
# Mechanical properties :
#
#
# Convention : Reuss Voigt Hill
#
# Bulk Modulus (GPa) = 39.49759 44.11388 41.80574
# Shear Modulus (GPa) = 26.43235 28.16172 27.29704
#
# Velocity S-wave (km/s) = 3.45503 3.56626 3.51109
# Velocity P-wave (km/s) = 5.80982 6.07290 5.94281
#
# Compressibility (1/GPa) = 0.02531800
#
# Stress axis : x y z
#
# Youngs Moduli (GPa) = 58.36858 89.58732 75.16877
#
# Poissons Ratio (x) = 0.29219 0.07398
# Poissons Ratio (y) = 0.19037 0.29274
# Poissons Ratio (z) = 0.05744 0.34889
#
# Static dielectric constant tensor:
#      x y z
#    x 1.772560 0.000000 0.117740 
#    y 0.000000 1.879950 0.000000 
#    z 0.117740 0.000000 1.735320 
# 
# From -- ./inp_files/36519.got.cif
#   From: 2010.05.17/outbox.cif.g08.bks.cpg/sg5_19_cif.got.tgz:36519.got - 2010.06.03 18:56:24.
