data_PCOD9125203
_publ_section_title
;
Structure prediction by ZEFSAII (Michael W. Deem and Ramdas Pophale) SiO2 
 PCOD9125203
Probable space group: C 2
;
_chemical_formula_sum "Si O2"
_cell_formula_units_Z 20
_cell_length_a 5.075977
_cell_length_b 24.073931
_cell_length_c 9.670158
_cell_angle_alpha 90.000000
_cell_angle_beta 56.443592
_cell_angle_gamma 90.000000
_cell_volume 984.744389
_symmetry_space_group_name_H-M "C 2"
_symmetry_group_IT_number 5
_symmetry_cell_setting 'monoclinic'
loop_
_space_group_symop_operation_xyz
x,y,z
-x,y,-z
1/2+x,1/2+y,z
1/2-x,1/2+y,-z
loop_
_atom_site_type_symbol
_atom_site_label
_atom_site_fract_x
_atom_site_fract_y
_atom_site_fract_z
Si Si1 0.122767 0.460340 0.616027
Si Si2 0.379797 0.087929 0.383226
Si Si3 0.874669 0.684219 0.881537
Si Si4 0.927200 0.356551 0.183435
Si Si5 0.296469 0.295472 0.311867
O O1 0.500000 0.460842 0.500000
O O2 0.020592 0.523889 0.672021
O O3 0.027415 0.416695 0.760382
O O4 0.000000 0.443162 0.500000
O O5 0.500000 0.103830 0.500000
O O6 0.525754 0.129300 0.230062
O O7 0.000000 0.090935 0.500000
O O8 0.033660 0.736839 0.760799
O O9 0.500000 0.691348 0.000000
O O10 0.000000 0.680773 0.000000
O O11 0.563498 0.336188 0.297223
O O12 0.156582 0.317046 0.206353
O O13 0.000000 0.355876 0.000000
O O14 0.000000 0.291258 0.500000
#
# Coordination Sequence:
#
# PCOD9125203 Si02
#       5
#     4   4   4   4   4
#     4  10  21  40  64  90 123 163 206 248 296 362
#     4  10  22  42  66  91 122 163 209 250 297 363
#     4  12  25  42  64  92 127 159 201 258 312 360
#     4  12  24  40  63  94 128 159 201 255 309 359
#     4  12  25  42  64  89 123 166 208 247 301 370
#
# _framework density 20.309837999999999
#
# number of rings (size 3 to 8) (size 9 to 14) (size 15 to 20)
#    0.000    0.800    0.000    9.000    0.000    2.400 
#    0.000    2.000    0.000    0.000    0.000    0.000 
#    0.000    0.000    0.000    0.000    0.000    0.000 
#
# Total GULP energy -55985.435019 kJ/mol
# GULP energy per Si atom -5598.543502 kJ/mol
# Density = 2.026361 g / cm^3
# Si number density = 20.309838 Si / 1000 Ang^3
#
#
#
# Elastic Constant Matrix: (Units=GPa)
#
#
# Indices 1 2 3 4 5 6 
#
# 1 151.1121 28.3407 46.8646 0.0000 8.6246 0.0000
# 2 28.3407 112.4719 69.6504 0.0000 5.0584 0.0000
# 3 46.8646 69.6504 116.6819 0.0000 -0.2705 0.0000
# 4 0.0000 0.0000 0.0000 -6.3702 0.0000 20.4008
# 5 8.6246 5.0584 -0.2705 0.0000 39.0984 0.0000
# 6 0.0000 0.0000 0.0000 20.4008 0.0000 22.8457
#
#
#
# Elastic Compliance Matrix: (Units=1/GPa)
#
#
# Indices 1 2 3 4 5 6 
#
# 1 0.007673 0.000087 -0.003138 0.000000 -0.001726 0.000000
# 2 0.000087 0.014246 -0.008543 0.000000 -0.001921 0.000000
# 3 -0.003138 -0.008543 0.014935 0.000000 0.001901 0.000000
# 4 0.000000 0.000000 0.000000 -0.040671 0.000000 0.036318
# 5 -0.001726 -0.001921 0.001901 0.000000 0.026219 0.000000
# 6 0.000000 0.000000 0.000000 0.036318 0.000000 0.011340
#
#
# Mechanical properties :
#
#
# Convention : Reuss Voigt Hill
#
# Bulk Modulus (GPa) = 73.17466 74.44193 73.80830
# Shear Modulus (GPa) = 81.31948 26.80880 54.06414
#
# Velocity S-wave (km/s) = 6.33454 3.63711 5.16502
# Velocity P-wave (km/s) = 9.46621 7.37366 8.48469
#
# Compressibility (1/GPa) = 0.01366593
#
# Stress axis : x y z
#
# Youngs Moduli (GPa) = 130.32930 70.19408 66.95733
#
# Poissons Ratio (x) = -0.00614 0.21011
# Poissons Ratio (y) = -0.01140 0.57205
# Poissons Ratio (z) = 0.40897 0.59970
#
# Static dielectric constant tensor:
#      x y z
#    x 1.738520 0.000000 0.014490 
#    y 0.000000 1.735960 0.000000 
#    z 0.014490 0.000000 1.679830 
# 
# From -- ./inp_files/12747.got.cif
#   From: 2010.05.17/outbox.cif.g08.bks.cpg/sg5_7_cif.got.tgz:12747.got - 2010.06.03 18:56:24.
