data_PCOD9125995
_publ_section_title
;
Structure prediction by ZEFSAII (Michael W. Deem and Ramdas Pophale) SiO2 
 PCOD9125995
Probable space group: C 2
;
_chemical_formula_sum "Si O2"
_cell_formula_units_Z 22
_cell_length_a 5.480361
_cell_length_b 18.158869
_cell_length_c 10.550449
_cell_angle_alpha 90.000000
_cell_angle_beta 110.021584
_cell_angle_gamma 90.000000
_cell_volume 986.495571
_symmetry_space_group_name_H-M "C 2"
_symmetry_group_IT_number 5
_symmetry_cell_setting 'monoclinic'
loop_
_space_group_symop_operation_xyz
x,y,z
-x,y,-z
1/2+x,1/2+y,z
1/2-x,1/2+y,-z
loop_
_atom_site_type_symbol
_atom_site_label
_atom_site_fract_x
_atom_site_fract_y
_atom_site_fract_z
Si Si1 0.584277 0.314840 0.155563
Si Si2 0.470729 0.545567 0.631168
Si Si3 0.767015 0.015925 0.859965
Si Si4 0.000000 0.655975 0.500000
Si Si5 0.447575 0.155629 0.766465
Si Si6 0.578323 0.878629 0.157837
O O1 0.577289 0.226677 0.152995
O O2 0.884891 0.337898 0.220535
O O3 0.375937 0.352054 0.213666
O O4 0.500000 0.341192 0.000000
O O5 0.500000 0.504833 0.500000
O O6 0.373261 0.501935 0.736830
O O7 0.710160 0.597946 0.714296
O O8 0.245025 0.602999 0.558065
O O9 0.681374 0.101408 0.846328
O O10 0.518648 0.963408 0.843779
O O11 0.000000 0.003702 0.000000
O O12 0.977955 0.692342 0.632174
O O13 0.500000 0.857283 0.000000
#
# Coordination Sequence:
#
# PCOD9125995 Si02
#       6
#     4   4   4   2   4   4
#     4  10  23  39  62  90 132 172 206 261 330 393
#     4   9  20  39  62  95 130 170 210 273 337 388
#     4  11  24  36  65 100 129 169 220 276 319 387
#     4   8  18  40  58  88 124 172 204 266 340 384
#     4  10  22  36  67  93 127 163 225 272 321 385
#     4  10  23  42  58  88 134 179 204 254 339 393
#
# _framework density 22.301165999999998
#
# number of rings (size 3 to 8) (size 9 to 14) (size 15 to 20)
#    0.000    2.182    0.000    1.636   12.727    0.727 
#    0.000    0.000    2.000    0.000    0.000    0.000 
#    0.000    0.000    0.000    0.000    0.000    0.000 
#
# Total GULP energy -61271.493290 kJ/mol
# GULP energy per Si atom -5570.135754 kJ/mol
# Density = 2.225041 g / cm^3
# Si number density = 22.301166 Si / 1000 Ang^3
#
#
#
# Elastic Constant Matrix: (Units=GPa)
#
#
# Indices 1 2 3 4 5 6 
#
# 1 149.3053 50.3596 32.2967 0.0000 -9.8324 0.0000
# 2 50.3596 117.9636 17.7304 0.0000 10.7473 0.0000
# 3 32.2967 17.7304 71.1913 0.0000 -4.5787 0.0000
# 4 0.0000 0.0000 0.0000 -46.0401 0.0000 -15.1646
# 5 -9.8324 10.7473 -4.5787 0.0000 24.3014 0.0000
# 6 0.0000 0.0000 0.0000 -15.1646 0.0000 23.5838
#
#
#
# Elastic Compliance Matrix: (Units=1/GPa)
#
#
# Indices 1 2 3 4 5 6 
#
# 1 0.008900 -0.003816 -0.002781 0.000000 0.004764 0.000000
# 2 -0.003816 0.010924 -0.001417 0.000000 -0.006642 0.000000
# 3 -0.002781 -0.001417 0.015821 0.000000 0.002482 0.000000
# 4 0.000000 0.000000 0.000000 -0.017924 0.000000 -0.011525
# 5 0.004764 -0.006642 0.002482 0.000000 0.046483 0.000000
# 6 0.000000 0.000000 0.000000 -0.011525 0.000000 0.034991
#
#
# Mechanical properties :
#
#
# Convention : Reuss Voigt Hill
#
# Bulk Modulus (GPa) = 50.97298 59.91484 55.44391
# Shear Modulus (GPa) = 41.06416 16.24059 28.65238
#
# Velocity S-wave (km/s) = 4.29575 2.70152 3.58829
# Velocity P-wave (km/s) = 6.89281 6.05438 6.48715
#
# Compressibility (1/GPa) = 0.01961824
#
# Stress axis : x y z
#
# Youngs Moduli (GPa) = 112.36035 91.54005 63.20812
#
# Poissons Ratio (x) = 0.34928 0.17577
# Poissons Ratio (y) = 0.42872 0.08956
# Poissons Ratio (z) = 0.31246 0.12970
#
# Static dielectric constant tensor:
#      x y z
#    x 2.074070 0.000000 -0.022020 
#    y 0.000000 1.780180 0.000000 
#    z -0.022020 0.000000 1.884750 
# 
# From -- ./inp_files/33487.got.cif
#   From: 2010.05.17/outbox.cif.g08.bks.cpg/sg5_17_cif.got.tgz:33487.got - 2010.06.03 18:56:24.
