data_PCOD9125441
_publ_section_title
;
Structure prediction by ZEFSAII (Michael W. Deem and Ramdas Pophale) SiO2 
 PCOD9125441
Probable space group: C 2
;
_chemical_formula_sum "Si O2"
_cell_formula_units_Z 24
_cell_length_a 16.564242
_cell_length_b 7.248146
_cell_length_c 8.542709
_cell_angle_alpha 90.000000
_cell_angle_beta 97.521719
_cell_angle_gamma 90.000000
_cell_volume 1016.812726
_symmetry_space_group_name_H-M "C 2"
_symmetry_group_IT_number 5
_symmetry_cell_setting 'monoclinic'
loop_
_space_group_symop_operation_xyz
x,y,z
-x,y,-z
1/2+x,1/2+y,z
1/2-x,1/2+y,-z
loop_
_atom_site_type_symbol
_atom_site_label
_atom_site_fract_x
_atom_site_fract_y
_atom_site_fract_z
Si Si1 0.817533 0.087800 0.055593
Si Si2 0.000000 0.619009 0.000000
Si Si3 0.154877 0.449597 0.126491
Si Si4 0.266286 0.501705 0.713422
Si Si5 0.841450 0.289632 0.539350
Si Si6 0.889107 0.762466 0.240544
Si Si7 0.000000 0.526531 0.500000
O O1 0.723673 0.087614 0.084385
O O2 0.865148 0.976540 0.202921
O O3 0.845828 0.288940 0.007171
O O4 0.815994 0.981544 0.886695
O O5 0.064072 0.722129 0.909380
O O6 0.938717 0.503431 0.878028
O O7 0.183194 0.391679 0.305458
O O8 0.218899 0.335392 0.618704
O O9 0.327569 0.581659 0.596163
O O10 0.193316 0.646527 0.741875
O O11 0.928064 0.381353 0.525537
O O12 0.952970 0.673439 0.376951
#
# Coordination Sequence:
#
# PCOD9125441 Si02
#       7
#     4   2   4   4   4   4   2
#     4  11  21  42  67  97 128 168 230 270 318 397
#     4  12  22  40  66  96 130 178 212 284 334 372
#     4  11  22  40  66  97 133 171 220 274 329 391
#     4  10  22  40  67 100 126 171 220 267 327 396
#     4  10  21  41  66  97 130 170 219 267 332 397
#     4  11  22  41  67  97 129 174 220 272 330 388
#     4  10  22  42  68  94 136 176 216 268 342 380
#
# _framework density 23.603166999999999
#
# number of rings (size 3 to 8) (size 9 to 14) (size 15 to 20)
#    0.000    1.333    6.667    0.000    0.000    3.333 
#    0.000    0.000    7.333    1.000    0.000    0.000 
#    0.000    0.000    0.000    0.000    0.000    0.000 
#
# Total GULP energy -66813.130005 kJ/mol
# GULP energy per Si atom -5567.760834 kJ/mol
# Density = 2.354945 g / cm^3
# Si number density = 23.603167 Si / 1000 Ang^3
#
#
#
# Elastic Constant Matrix: (Units=GPa)
#
#
# Indices 1 2 3 4 5 6 
#
# 1 122.4656 45.6559 42.6123 0.0000 10.3451 0.0000
# 2 45.6559 78.2888 3.1079 0.0000 -4.8764 0.0000
# 3 42.6123 3.1079 50.1801 0.0000 4.9317 0.0000
# 4 0.0000 0.0000 0.0000 34.1966 0.0000 -5.5605
# 5 10.3451 -4.8764 4.9317 0.0000 24.7800 0.0000
# 6 0.0000 0.0000 0.0000 -5.5605 0.0000 32.9389
#
#
#
# Elastic Compliance Matrix: (Units=1/GPa)
#
#
# Indices 1 2 3 4 5 6 
#
# 1 0.016893 -0.009727 -0.013118 0.000000 -0.006356 0.000000
# 2 -0.009727 0.018589 0.006477 0.000000 0.006430 0.000000
# 3 -0.013118 0.006477 0.030602 0.000000 0.000661 0.000000
# 4 0.000000 0.000000 0.000000 0.030068 0.000000 0.005076
# 5 -0.006356 0.006430 0.000661 0.000000 0.044142 0.000000
# 6 0.000000 0.000000 0.000000 0.005076 0.000000 0.031216
#
#
# Mechanical properties :
#
#
# Convention : Reuss Voigt Hill
#
# Bulk Modulus (GPa) = 29.98754 48.18744 39.08749
# Shear Modulus (GPa) = 23.21649 29.02031 26.11840
#
# Velocity S-wave (km/s) = 3.13967 3.51024 3.33011
# Velocity P-wave (km/s) = 5.08683 6.07363 5.60200
#
# Compressibility (1/GPa) = 0.03334718
#
# Stress axis : x y z
#
# Youngs Moduli (GPa) = 59.19504 53.79514 32.67742
#
# Poissons Ratio (x) = 0.52326 0.42868
# Poissons Ratio (y) = 0.57578 -0.21164
# Poissons Ratio (z) = 0.77655 -0.34841
#
# Static dielectric constant tensor:
#      x y z
#    x 1.835080 0.000000 0.012450 
#    y 0.000000 2.023260 0.000000 
#    z 0.012450 0.000000 1.965020 
# 
# From -- ./inp_files/22885.got.cif
#   From: 2010.05.17/outbox.cif.g08.bks.cpg/sg5_12_cif.got.tgz:22885.got - 2010.06.03 18:56:24.
