data_PCOD9125860
_publ_section_title
;
Structure prediction by ZEFSAII (Michael W. Deem and Ramdas Pophale) SiO2 
 PCOD9125860
Probable space group: C 2
;
_chemical_formula_sum "Si O2"
_cell_formula_units_Z 18
_cell_length_a 14.084138
_cell_length_b 6.200207
_cell_length_c 7.834239
_cell_angle_alpha 90.000000
_cell_angle_beta 106.939439
_cell_angle_gamma 90.000000
_cell_volume 654.439752
_symmetry_space_group_name_H-M "C 2"
_symmetry_group_IT_number 5
_symmetry_cell_setting 'monoclinic'
loop_
_space_group_symop_operation_xyz
x,y,z
-x,y,-z
1/2+x,1/2+y,z
1/2-x,1/2+y,-z
loop_
_atom_site_type_symbol
_atom_site_label
_atom_site_fract_x
_atom_site_fract_y
_atom_site_fract_z
Si Si1 0.208096 0.473460 0.056054
Si Si2 0.609854 0.415495 0.439999
Si Si3 0.073140 0.126413 0.763720
Si Si4 0.000000 0.470941 0.000000
Si Si5 0.217326 0.582352 0.690255
O O1 0.322680 0.547302 0.103613
O O2 0.220958 0.284415 0.200351
O O3 0.106916 0.589860 0.066105
O O4 0.187182 0.450464 0.841579
O O5 0.600534 0.612483 0.574235
O O6 0.510849 0.436251 0.278703
O O7 0.710115 0.450223 0.389729
O O8 0.625556 0.190268 0.545179
O O9 0.017857 0.309012 0.847757
#
# Coordination Sequence:
#
# PCOD9125860 Si02
#       5
#     4   4   4   2   4
#     4  11  23  44  74 108 145 199 251 299 366 455
#     4  10  23  43  73 108 151 197 240 317 374 433
#     4  10  21  44  74 100 153 194 243 303 389 419
#     4  12  22  44  78 110 142 204 240 312 362 458
#     4  11  24  43  74 113 147 195 256 300 372 444
#
# _framework density 27.504441
#
# number of rings (size 3 to 8) (size 9 to 14) (size 15 to 20)
#    0.000    1.333    4.444    0.000    3.111    0.000 
#    0.000   28.889    0.000    0.000    0.000    0.000 
#    0.000    0.000    0.000    0.000    0.000    0.000 
#
# Total GULP energy -50160.450589 kJ/mol
# GULP energy per Si atom -5573.383399 kJ/mol
# Density = 2.744184 g / cm^3
# Si number density = 27.504441 Si / 1000 Ang^3
#
#
#
# Elastic Constant Matrix: (Units=GPa)
#
#
# Indices 1 2 3 4 5 6 
#
# 1 201.8435 23.0058 55.5222 0.0000 0.0943 0.0000
# 2 23.0058 48.6451 23.6334 0.0000 1.2481 0.0000
# 3 55.5222 23.6334 86.3067 0.0000 -2.4838 0.0000
# 4 0.0000 0.0000 0.0000 35.1420 0.0000 -6.1892
# 5 0.0943 1.2481 -2.4838 0.0000 54.8930 0.0000
# 6 0.0000 0.0000 0.0000 -6.1892 0.0000 28.8113
#
#
#
# Elastic Compliance Matrix: (Units=1/GPa)
#
#
# Indices 1 2 3 4 5 6 
#
# 1 0.006074 -0.001117 -0.003606 0.000000 -0.000148 0.000000
# 2 -0.001117 0.023955 -0.005864 0.000000 -0.000808 0.000000
# 3 -0.003606 -0.005864 0.015536 0.000000 0.000843 0.000000
# 4 0.000000 0.000000 0.000000 0.029575 0.000000 0.006353
# 5 -0.000148 -0.000808 0.000843 0.000000 0.018274 0.000000
# 6 0.000000 0.000000 0.000000 0.006353 0.000000 0.036073
#
#
# Mechanical properties :
#
#
# Convention : Reuss Voigt Hill
#
# Bulk Modulus (GPa) = 40.99852 60.12423 50.56138
# Shear Modulus (GPa) = 31.48789 39.41152 35.44970
#
# Velocity S-wave (km/s) = 3.38720 3.78949 3.59398
# Velocity P-wave (km/s) = 5.49873 6.40736 5.97036
#
# Compressibility (1/GPa) = 0.02439112
#
# Stress axis : x y z
#
# Youngs Moduli (GPa) = 164.64934 41.74474 64.36567
#
# Poissons Ratio (x) = 0.04662 0.23208
# Poissons Ratio (y) = 0.18388 0.37747
# Poissons Ratio (z) = 0.59366 0.24481
#
# Static dielectric constant tensor:
#      x y z
#    x 2.088900 0.000000 0.105450 
#    y 0.000000 2.333040 0.000000 
#    z 0.105450 0.000000 2.279480 
# 
# From -- ./inp_files/18347.got.cif
#   From: 2010.05.17/outbox.cif.g08.bks.cpg/sg5_10_cif.got.tgz:18347.got - 2010.06.03 18:56:24.
