data_PCOD9125325
_publ_section_title
;
Structure prediction by ZEFSAII (Michael W. Deem and Ramdas Pophale) SiO2 
 PCOD9125325
Probable space group: C 2
;
_chemical_formula_sum "Si O2"
_cell_formula_units_Z 24
_cell_length_a 25.868411
_cell_length_b 4.902715
_cell_length_c 7.380457
_cell_angle_alpha 90.000000
_cell_angle_beta 77.680641
_cell_angle_gamma 90.000000
_cell_volume 914.476304
_symmetry_space_group_name_H-M "C 2"
_symmetry_group_IT_number 5
_symmetry_cell_setting 'monoclinic'
loop_
_space_group_symop_operation_xyz
x,y,z
-x,y,-z
1/2+x,1/2+y,z
1/2-x,1/2+y,-z
loop_
_atom_site_type_symbol
_atom_site_label
_atom_site_fract_x
_atom_site_fract_y
_atom_site_fract_z
Si Si1 0.868074 0.274650 0.411424
Si Si2 0.051237 0.180794 0.067990
Si Si3 0.337963 0.092155 0.767145
Si Si4 0.387152 0.174434 0.089414
Si Si5 0.442302 0.425827 0.562064
Si Si6 0.240440 0.253436 0.620036
O O1 0.844350 0.328652 0.631674
O O2 0.819798 0.147058 0.332160
O O3 0.920107 0.097451 0.408485
O O4 0.880090 0.555137 0.295855
O O5 0.098191 0.985058 0.961561
O O6 0.046873 0.136711 0.283700
O O7 0.063484 0.492521 0.016751
O O8 0.000000 0.091282 0.000000
O O9 0.391618 0.251257 0.665818
O O10 0.281971 0.219492 0.749696
O O11 0.341797 0.078388 0.980964
O O12 0.500000 0.284631 0.500000
O O13 0.236477 0.564588 0.558863
#
# Coordination Sequence:
#
# PCOD9125325 Si02
#       6
#     4   4   4   4   4   4
#     4  11  23  42  68 100 129 182 224 278 332 413
#     4  11  24  44  62  97 137 180 220 281 329 400
#     4  10  23  45  62 101 135 176 221 285 333 402
#     4  11  25  41  68  95 138 169 224 280 334 400
#     4  11  23  40  69  96 136 180 228 274 338 407
#     4  10  21  40  72  94 131 176 220 278 335 401
#
# _framework density 26.244527999999999
#
# number of rings (size 3 to 8) (size 9 to 14) (size 15 to 20)
#    0.000    1.333    3.333    1.500    4.667    0.667 
#    0.000   10.000    0.000    0.000    0.000    0.000 
#    0.000    0.000    0.000    0.000    0.000    0.000 
#
# Total GULP energy -67051.885871 kJ/mol
# GULP energy per Si atom -5587.657156 kJ/mol
# Density = 2.618479 g / cm^3
# Si number density = 26.244528 Si / 1000 Ang^3
#
#
#
# Elastic Constant Matrix: (Units=GPa)
#
#
# Indices 1 2 3 4 5 6 
#
# 1 188.0244 30.5363 31.4493 0.0000 37.5345 0.0000
# 2 30.5363 71.6131 8.1108 0.0000 9.4207 0.0000
# 3 31.4493 8.1108 119.8165 0.0000 35.7267 0.0000
# 4 0.0000 0.0000 0.0000 30.5907 0.0000 2.5836
# 5 37.5345 9.4207 35.7267 0.0000 47.4093 0.0000
# 6 0.0000 0.0000 0.0000 2.5836 0.0000 33.1297
#
#
#
# Elastic Compliance Matrix: (Units=1/GPa)
#
#
# Indices 1 2 3 4 5 6 
#
# 1 0.006641 -0.002195 -0.000202 0.000000 -0.004669 0.000000
# 2 -0.002195 0.015066 -0.000089 0.000000 -0.001189 0.000000
# 3 -0.000202 -0.000089 0.010773 0.000000 -0.007940 0.000000
# 4 0.000000 0.000000 0.000000 0.032906 0.000000 -0.002566
# 5 -0.004669 -0.001189 -0.007940 0.000000 0.031009 0.000000
# 6 0.000000 0.000000 0.000000 -0.002566 0.000000 0.030385
#
#
# Mechanical properties :
#
#
# Convention : Reuss Voigt Hill
#
# Bulk Modulus (GPa) = 36.35364 57.73854 47.04609
# Shear Modulus (GPa) = 35.48070 42.84978 39.16524
#
# Velocity S-wave (km/s) = 3.68085 4.04507 3.86725
# Velocity P-wave (km/s) = 5.65215 6.62305 6.15677
#
# Compressibility (1/GPa) = 0.02750756
#
# Stress axis : x y z
#
# Youngs Moduli (GPa) = 150.58509 66.37359 92.82577
#
# Poissons Ratio (x) = 0.14566 0.01878
# Poissons Ratio (y) = 0.33047 0.00829
# Poissons Ratio (z) = 0.03046 0.00593
#
# Static dielectric constant tensor:
#      x y z
#    x 2.094160 0.000000 -0.025980 
#    y 0.000000 2.074180 0.000000 
#    z -0.025980 0.000000 2.091490 
# 
# From -- ./inp_files/30298.got.cif
#   From: 2010.05.17/outbox.cif.g08.bks.cpg/sg5_16_cif.got.tgz:30298.got - 2010.06.03 18:56:24.
