data_PCOD9125396
_publ_section_title
;
Structure prediction by ZEFSAII (Michael W. Deem and Ramdas Pophale) SiO2 
 PCOD9125396
Probable space group: C 2
;
_chemical_formula_sum "Si O2"
_cell_formula_units_Z 26
_cell_length_a 7.257183
_cell_length_b 28.203971
_cell_length_c 5.836194
_cell_angle_alpha 90.000000
_cell_angle_beta 108.346354
_cell_angle_gamma 90.000000
_cell_volume 1133.842098
_symmetry_space_group_name_H-M "C 2"
_symmetry_group_IT_number 5
_symmetry_cell_setting 'monoclinic'
loop_
_space_group_symop_operation_xyz
x,y,z
-x,y,-z
1/2+x,1/2+y,z
1/2-x,1/2+y,-z
loop_
_atom_site_type_symbol
_atom_site_label
_atom_site_fract_x
_atom_site_fract_y
_atom_site_fract_z
Si Si1 0.697940 0.289200 0.472472
Si Si2 0.197233 0.026318 0.214994
Si Si3 0.000000 0.574435 0.000000
Si Si4 0.925788 0.361793 0.719882
Si Si5 0.000000 0.453743 0.500000
Si Si6 0.286679 0.114823 0.527431
Si Si7 0.685267 0.705694 0.220130
Si Si8 0.500000 0.243204 0.000000
O O1 0.500000 0.268833 0.500000
O O2 0.714299 0.340858 0.595925
O O3 0.849799 0.255030 0.659732
O O4 0.654955 0.277754 0.191492
O O5 0.165850 0.071668 0.368667
O O6 0.304404 0.984199 0.394319
O O7 0.371197 0.041569 0.112744
O O8 0.000000 0.014869 0.000000
O O9 0.837486 0.605816 0.809699
O O10 0.968469 0.416923 0.697324
O O11 0.000000 0.339650 0.500000
O O12 0.000000 0.348261 0.000000
O O13 0.500000 0.110356 0.500000
O O14 0.213700 0.165515 0.422137
O O15 0.500000 0.692912 0.000000
O O16 0.867824 0.711237 0.116887
#
# Coordination Sequence:
#
# PCOD9125396 Si02
#       8
#     4   4   2   4   2   4   4   2
#     4  10  23  41  65  97 136 180 235 290 359 429
#     4  11  23  44  70 102 136 180 234 292 358 434
#     4  10  22  43  72  88 150 178 232 294 363 412
#     4  10  25  44  72  99 140 181 233 294 372 423
#     4  10  24  46  68 106 142 176 242 304 364 430
#     4  10  21  41  64  99 134 181 226 292 344 428
#     4  11  24  40  65  96 138 180 240 285 354 431
#     4  10  24  43  66  96 136 182 232 296 353 422
#
# _framework density 22.930885
#
# number of rings (size 3 to 8) (size 9 to 14) (size 15 to 20)
#    0.462    1.231    2.308    2.308    7.538    6.154 
#    4.154    4.615    0.000    0.000    0.000    0.000 
#    0.000    0.000    0.000    0.000    0.000    0.000 
#
# Total GULP energy -72386.549224 kJ/mol
# GULP energy per Si atom -5568.196094 kJ/mol
# Density = 2.287869 g / cm^3
# Si number density = 22.930885 Si / 1000 Ang^3
#
#
#
# Elastic Constant Matrix: (Units=GPa)
#
#
# Indices 1 2 3 4 5 6 
#
# 1 64.7505 10.9634 32.0139 0.0000 8.7012 0.0000
# 2 10.9634 81.8309 29.5747 0.0000 1.4590 0.0000
# 3 32.0139 29.5747 125.1386 0.0000 11.1872 0.0000
# 4 0.0000 0.0000 0.0000 41.6952 0.0000 7.7987
# 5 8.7012 1.4590 11.1872 0.0000 38.7582 0.0000
# 6 0.0000 0.0000 0.0000 7.7987 0.0000 12.0830
#
#
#
# Elastic Compliance Matrix: (Units=1/GPa)
#
#
# Indices 1 2 3 4 5 6 
#
# 1 0.018023 -0.000863 -0.004155 0.000000 -0.002814 0.000000
# 2 -0.000863 0.013410 -0.002998 0.000000 0.000554 0.000000
# 3 -0.004155 -0.002998 0.009925 0.000000 -0.001819 0.000000
# 4 0.000000 0.000000 0.000000 0.027276 0.000000 -0.017605
# 5 -0.002814 0.000554 -0.001819 0.000000 0.026937 0.000000
# 6 0.000000 0.000000 0.000000 -0.017605 0.000000 0.094124
#
#
# Mechanical properties :
#
#
# Convention : Reuss Voigt Hill
#
# Bulk Modulus (GPa) = 39.48566 46.31379 42.89972
# Shear Modulus (GPa) = 23.34613 31.78514 27.56563
#
# Velocity S-wave (km/s) = 3.19424 3.72711 3.47092
# Velocity P-wave (km/s) = 5.55527 6.22598 5.90016
#
# Compressibility (1/GPa) = 0.02532565
#
# Stress axis : x y z
#
# Youngs Moduli (GPa) = 55.48603 74.57375 100.75236
#
# Poissons Ratio (x) = 0.06433 0.41865
# Poissons Ratio (y) = 0.04787 0.30206
# Poissons Ratio (z) = 0.23056 0.22357
#
# Static dielectric constant tensor:
#      x y z
#    x 1.126830 0.000000 -0.203250 
#    y 0.000000 1.850720 0.000000 
#    z -0.203250 0.000000 1.965650 
# 
# From -- ./inp_files/3858.got.cif
#   From: 2010.05.17/outbox.cif.g08.bks.cpg/sg5_2_cif.got.tgz:3858.got - 2010.06.03 18:56:24.
