data_PCOD9125818
_publ_section_title
;
Structure prediction by ZEFSAII (Michael W. Deem and Ramdas Pophale) SiO2 
 PCOD9125818
Probable space group: C 2
;
_chemical_formula_sum "Si O2"
_cell_formula_units_Z 30
_cell_length_a 16.989862
_cell_length_b 5.067197
_cell_length_c 15.360980
_cell_angle_alpha 90.000000
_cell_angle_beta 114.904678
_cell_angle_gamma 90.000000
_cell_volume 1199.467443
_symmetry_space_group_name_H-M "C 2"
_symmetry_group_IT_number 5
_symmetry_cell_setting 'monoclinic'
loop_
_space_group_symop_operation_xyz
x,y,z
-x,y,-z
1/2+x,1/2+y,z
1/2-x,1/2+y,-z
loop_
_atom_site_type_symbol
_atom_site_label
_atom_site_fract_x
_atom_site_fract_y
_atom_site_fract_z
Si Si1 0.807063 0.419940 0.630532
Si Si2 0.583967 0.758603 0.683604
Si Si3 0.500000 0.934775 0.000000
Si Si4 0.671610 0.255989 0.793888
Si Si5 0.536731 0.625041 0.229267
Si Si6 0.105684 0.832772 0.942099
Si Si7 0.814692 0.414328 0.431681
Si Si8 0.354323 0.536263 0.860310
O O1 0.891788 0.358060 0.727625
O O2 0.837846 0.404397 0.544070
O O3 0.759057 0.695856 0.619155
O O4 0.731281 0.197170 0.604067
O O5 0.597525 0.039827 0.737735
O O6 0.655359 0.542064 0.745686
O O7 0.500466 0.618140 0.689470
O O8 0.605047 0.836954 0.593963
O O9 0.464395 0.115280 0.061601
O O10 0.577558 0.755710 0.072621
O O11 0.672958 0.263005 0.898757
O O12 0.760499 0.145581 0.799522
O O13 0.449059 0.572533 0.129990
O O14 0.600498 0.429026 0.205435
O O15 0.152301 0.863633 0.056252
#
# Coordination Sequence:
#
# PCOD9125818 Si02
#       8
#     4   4   2   4   4   4   4   4
#     4  10  23  40  72  98 132 171 215 262 320 400
#     4  11  24  44  65  97 134 164 215 274 316 395
#     4  12  22  40  64  86 122 172 210 284 316 380
#     4  11  28  41  67  93 126 174 220 265 325 380
#     4  11  22  43  62  95 130 169 218 264 334 374
#     4  11  25  42  59  91 129 168 220 276 319 381
#     4  10  21  44  66 101 133 169 213 263 324 389
#     4  12  24  42  61  89 124 173 217 273 318 384
#
# _framework density 25.011099000000002
#
# number of rings (size 3 to 8) (size 9 to 14) (size 15 to 20)
#    0.000    1.067    2.667    3.200    5.600    4.800 
#    0.000    0.000    0.000    8.000    0.000    0.000 
#    0.000    0.000    0.000    0.000    0.000    0.000 
#
# Total GULP energy -83615.936421 kJ/mol
# GULP energy per Si atom -5574.395761 kJ/mol
# Density = 2.495417 g / cm^3
# Si number density = 25.011099 Si / 1000 Ang^3
#
#
#
# Elastic Constant Matrix: (Units=GPa)
#
#
# Indices 1 2 3 4 5 6 
#
# 1 112.8039 -15.0874 30.5235 0.0000 -48.5000 0.0000
# 2 -15.0874 92.0901 10.4779 0.0000 0.3212 0.0000
# 3 30.5235 10.4779 100.6908 0.0000 -31.6961 0.0000
# 4 0.0000 0.0000 0.0000 30.1181 0.0000 -3.9535
# 5 -48.5000 0.3212 -31.6961 0.0000 66.3395 0.0000
# 6 0.0000 0.0000 0.0000 -3.9535 0.0000 12.7056
#
#
#
# Elastic Compliance Matrix: (Units=1/GPa)
#
#
# Indices 1 2 3 4 5 6 
#
# 1 0.013518 0.002348 -0.001453 0.000000 0.009177 0.000000
# 2 0.002348 0.011425 -0.001622 0.000000 0.000887 0.000000
# 3 -0.001453 -0.001622 0.012016 0.000000 0.004686 0.000000
# 4 0.000000 0.000000 0.000000 0.034616 0.000000 0.010771
# 5 0.009177 0.000887 0.004686 0.000000 0.024018 0.000000
# 6 0.000000 0.000000 0.000000 0.010771 0.000000 0.082057
#
#
# Mechanical properties :
#
#
# Convention : Reuss Voigt Hill
#
# Bulk Modulus (GPa) = 28.16505 39.71252 33.93878
# Shear Modulus (GPa) = 26.18636 40.47736 33.33186
#
# Velocity S-wave (km/s) = 3.23923 4.02727 3.65455
# Velocity P-wave (km/s) = 5.02749 6.12680 5.60416
#
# Compressibility (1/GPa) = 0.03550500
#
# Stress axis : x y z
#
# Youngs Moduli (GPa) = 73.97585 87.52709 83.22292
#
# Poissons Ratio (x) = -0.20552 0.12095
# Poissons Ratio (y) = -0.17370 0.13496
# Poissons Ratio (z) = 0.10751 0.14194
#
# Static dielectric constant tensor:
#      x y z
#    x 2.003860 0.000000 -0.070570 
#    y 0.000000 2.034660 0.000000 
#    z -0.070570 0.000000 2.077130 
# 
# From -- ./inp_files/55341.got.cif
#   From: 2010.05.17/outbox.cif.g08.bks.cpg/sg5_28_cif.got.tgz:55341.got - 2010.06.03 18:56:24.
