data_PCOD9125786
_publ_section_title
;
Structure prediction by ZEFSAII (Michael W. Deem and Ramdas Pophale) SiO2 
 PCOD9125786
Probable space group: C 2
;
_chemical_formula_sum "Si O2"
_cell_formula_units_Z 14
_cell_length_a 10.754174
_cell_length_b 8.590060
_cell_length_c 8.463799
_cell_angle_alpha 90.000000
_cell_angle_beta 141.143137
_cell_angle_gamma 90.000000
_cell_volume 490.531791
_symmetry_space_group_name_H-M "C 2"
_symmetry_group_IT_number 5
_symmetry_cell_setting 'monoclinic'
loop_
_space_group_symop_operation_xyz
x,y,z
-x,y,-z
1/2+x,1/2+y,z
1/2-x,1/2+y,-z
loop_
_atom_site_type_symbol
_atom_site_label
_atom_site_fract_x
_atom_site_fract_y
_atom_site_fract_z
Si Si1 0.000000 0.323980 0.500000
Si Si2 0.000000 0.499810 0.000000
Si Si3 0.356960 0.117448 0.167149
Si Si4 0.500000 0.566945 0.000000
Si Si5 0.790040 0.838268 0.538623
O O1 0.884818 0.447083 0.272512
O O2 0.853567 0.246583 0.480269
O O3 0.151749 0.417365 0.271543
O O4 0.859366 0.596110 0.981983
O O5 0.545568 0.228277 0.375827
O O6 0.158608 0.168312 0.058618
O O7 0.600184 0.460852 0.235997
#
# Coordination Sequence:
#
# PCOD9125786 Si02
#       5
#     2   2   4   2   4
#     4   8  20  42  66 102 144 184 238 298 366 438
#     4  10  23  44  77 112 138 190 264 300 362 460
#     4  10  21  43  72 105 148 193 238 304 372 433
#     4  10  23  44  73 108 152 194 242 302 374 452
#     4  10  21  45  75 106 149 193 242 312 373 434
#
# _framework density 28.540454
#
# number of rings (size 3 to 8) (size 9 to 14) (size 15 to 20)
#    0.000    2.286    0.000    0.857    0.000    3.429 
#    0.000   65.714    0.000    6.857    0.000    0.000 
#    0.000    0.000    0.000    0.000    0.000    0.000 
#
# Total GULP energy -39211.367007 kJ/mol
# GULP energy per Si atom -5601.623858 kJ/mol
# Density = 2.847550 g / cm^3
# Si number density = 28.540454 Si / 1000 Ang^3
#
#
#
# Elastic Constant Matrix: (Units=GPa)
#
#
# Indices 1 2 3 4 5 6 
#
# 1 354.6877 70.0256 75.7138 0.0000 15.0089 0.0000
# 2 70.0256 82.2928 72.6746 0.0000 -0.5593 0.0000
# 3 75.7138 72.6746 230.4105 0.0000 -27.3570 0.0000
# 4 0.0000 0.0000 0.0000 75.1000 0.0000 -16.9997
# 5 15.0089 -0.5593 -27.3570 0.0000 55.7965 0.0000
# 6 0.0000 0.0000 0.0000 -16.9997 0.0000 11.6811
#
#
#
# Elastic Compliance Matrix: (Units=1/GPa)
#
#
# Indices 1 2 3 4 5 6 
#
# 1 0.003474 -0.002538 -0.000483 0.000000 -0.001197 0.000000
# 2 -0.002538 0.019056 -0.005386 0.000000 -0.001767 0.000000
# 3 -0.000483 -0.005386 0.006591 0.000000 0.003307 0.000000
# 4 0.000000 0.000000 0.000000 0.019857 0.000000 0.028898
# 5 -0.001197 -0.001767 0.003307 0.000000 0.019848 0.000000
# 6 0.000000 0.000000 0.000000 0.028898 0.000000 0.127664
#
#
# Mechanical properties :
#
#
# Convention : Reuss Voigt Hill
#
# Bulk Modulus (GPa) = 81.26208 122.69099 101.97654
# Shear Modulus (GPa) = 22.99835 58.44733 40.72284
#
# Velocity S-wave (km/s) = 2.84177 4.53026 3.78146
# Velocity P-wave (km/s) = 6.26913 8.39322 7.40770
#
# Compressibility (1/GPa) = 0.01230586
#
# Stress axis : x y z
#
# Youngs Moduli (GPa) = 287.83560 52.47707 151.73165
#
# Poissons Ratio (x) = 0.13316 0.07334
# Poissons Ratio (y) = 0.73040 0.81730
# Poissons Ratio (z) = 0.13913 0.28267
#
# Static dielectric constant tensor:
#      x y z
#    x 2.333390 0.000000 0.136220 
#    y 0.000000 2.247800 0.000000 
#    z 0.136220 0.000000 2.268690 
# 
# From -- ./inp_files/18163.got.cif
#   From: 2010.05.17/outbox.cif.g08.bks.cpg/sg5_10_cif.got.tgz:18163.got - 2010.06.03 18:56:24.
