data_PCOD9125660
_publ_section_title
;
Structure prediction by ZEFSAII (Michael W. Deem and Ramdas Pophale) SiO2 
 PCOD9125660
Probable space group: C 2
;
_chemical_formula_sum "Si O2"
_cell_formula_units_Z 28
_cell_length_a 5.160714
_cell_length_b 19.991811
_cell_length_c 14.159024
_cell_angle_alpha 90.000000
_cell_angle_beta 123.606426
_cell_angle_gamma 90.000000
_cell_volume 1216.653245
_symmetry_space_group_name_H-M "C 2"
_symmetry_group_IT_number 5
_symmetry_cell_setting 'monoclinic'
loop_
_space_group_symop_operation_xyz
x,y,z
-x,y,-z
1/2+x,1/2+y,z
1/2-x,1/2+y,-z
loop_
_atom_site_type_symbol
_atom_site_label
_atom_site_fract_x
_atom_site_fract_y
_atom_site_fract_z
Si Si1 0.390999 0.229660 0.731462
Si Si2 0.500000 0.389900 0.500000
Si Si3 0.293835 0.101819 0.215325
Si Si4 0.567227 0.934020 0.118269
Si Si5 0.601741 0.817479 0.277258
Si Si6 0.829466 0.143016 0.599435
Si Si7 0.500000 0.534359 0.000000
Si Si8 0.894939 0.005799 0.334813
O O1 0.558831 0.165083 0.809744
O O2 0.622700 0.273218 0.713914
O O3 0.212906 0.277013 0.768343
O O4 0.107350 0.190349 0.622819
O O5 0.221655 0.343874 0.404003
O O6 0.518633 0.441785 0.416902
O O7 0.183907 0.134215 0.290428
O O8 0.556919 0.043358 0.284484
O O9 0.010745 0.076864 0.096371
O O10 0.534777 0.877666 0.191516
O O11 0.863134 0.977004 0.220293
O O12 0.500000 0.904159 0.000000
O O13 0.296925 0.988134 0.064434
O O14 0.500000 0.168641 0.500000
O O15 0.883192 0.065577 0.585999
#
# Coordination Sequence:
#
# PCOD9125660 Si02
#       8
#     4   2   4   4   4   4   2   4
#     4  11  25  48  66 100 136 182 228 271 333 400
#     4  10  22  44  62  98 134 180 220 276 326 400
#     4  10  21  42  69  99 136 169 224 284 335 395
#     4  10  22  42  68  97 135 178 221 280 334 402
#     4  11  26  45  69  95 138 182 227 269 328 406
#     4  11  22  38  70  99 134 174 219 285 335 396
#     4  10  22  42  72 102 128 174 224 280 346 390
#     4   9  20  40  63 101 134 169 223 278 347 394
#
# _framework density 23.013953000000001
#
# number of rings (size 3 to 8) (size 9 to 14) (size 15 to 20)
#    0.000    1.714    1.429    1.714    3.000    3.429 
#   16.714    1.429    0.000    0.000    0.000    0.000 
#    0.000    0.000    0.000    0.000    0.000    0.000 
#
# Total GULP energy -77970.465987 kJ/mol
# GULP energy per Si atom -5569.318999 kJ/mol
# Density = 2.296157 g / cm^3
# Si number density = 23.013953 Si / 1000 Ang^3
#
#
#
# Elastic Constant Matrix: (Units=GPa)
#
#
# Indices 1 2 3 4 5 6 
#
# 1 75.3392 33.6883 26.9939 0.0000 -1.9301 0.0000
# 2 33.6883 104.8291 44.0903 0.0000 -0.1322 0.0000
# 3 26.9939 44.0903 151.0765 0.0000 -13.2526 0.0000
# 4 0.0000 0.0000 0.0000 -3.8139 0.0000 0.4634
# 5 -1.9301 -0.1322 -13.2526 0.0000 26.9880 0.0000
# 6 0.0000 0.0000 0.0000 0.4634 0.0000 28.4173
#
#
#
# Elastic Compliance Matrix: (Units=1/GPa)
#
#
# Indices 1 2 3 4 5 6 
#
# 1 0.015808 -0.004452 -0.001492 0.000000 0.000376 0.000000
# 2 -0.004452 0.012192 -0.002911 0.000000 -0.001688 0.000000
# 3 -0.001492 -0.002911 0.008072 0.000000 0.003843 0.000000
# 4 0.000000 0.000000 0.000000 -0.261681 0.000000 0.004267
# 5 0.000376 -0.001688 0.003843 0.000000 0.038959 0.000000
# 6 0.000000 0.000000 0.000000 0.004267 0.000000 0.035120
#
#
# Mechanical properties :
#
#
# Convention : Reuss Voigt Hill
#
# Bulk Modulus (GPa) = 54.45847 60.08775 57.27311
# Shear Modulus (GPa) = -39.15528 25.41643 -6.86943
#
# Velocity S-wave (km/s) = -4.12924 3.32685 -1.72956
# Velocity P-wave (km/s) = 0.99016 6.39712 4.57731
#
# Compressibility (1/GPa) = 0.01836262
#
# Stress axis : x y z
#
# Youngs Moduli (GPa) = 63.25736 82.01956 123.87901
#
# Poissons Ratio (x) = 0.36516 0.18487
# Poissons Ratio (y) = 0.28163 0.36058
# Poissons Ratio (z) = 0.09440 0.23874
#
# Static dielectric constant tensor:
#      x y z
#    x 1.976910 0.000000 -0.035510 
#    y 0.000000 1.948970 0.000000 
#    z -0.035510 0.000000 1.886510 
# 
# From -- ./inp_files/49579.got.cif
#   From: 2010.05.17/outbox.cif.g08.bks.cpg/sg5_25_cif.got.tgz:49579.got - 2010.06.03 18:56:24.
