data_PCOD9125035
_publ_section_title
;
Structure prediction by ZEFSAII (Michael W. Deem and Ramdas Pophale) SiO2 
 PCOD9125035
Probable space group: C 2
;
_chemical_formula_sum "Si O2"
_cell_formula_units_Z 22
_cell_length_a 7.661423
_cell_length_b 6.964035
_cell_length_c 19.144709
_cell_angle_alpha 90.000000
_cell_angle_beta 64.459045
_cell_angle_gamma 90.000000
_cell_volume 921.635509
_symmetry_space_group_name_H-M "C 2"
_symmetry_group_IT_number 5
_symmetry_cell_setting 'monoclinic'
loop_
_space_group_symop_operation_xyz
x,y,z
-x,y,-z
1/2+x,1/2+y,z
1/2-x,1/2+y,-z
loop_
_atom_site_type_symbol
_atom_site_label
_atom_site_fract_x
_atom_site_fract_y
_atom_site_fract_z
Si Si1 0.451429 0.985390 0.427343
Si Si2 0.011035 0.088381 0.772884
Si Si3 0.744104 0.240331 0.714447
Si Si4 0.000000 0.637733 0.000000
Si Si5 0.432264 0.510930 0.937346
Si Si6 0.684862 0.333200 0.369632
O O1 0.500000 0.957163 0.500000
O O2 0.606643 0.877042 0.351990
O O3 0.255468 0.882645 0.436160
O O4 0.487076 0.211552 0.404237
O O5 0.168710 0.200035 0.699640
O O6 0.815493 0.186442 0.779709
O O7 0.028932 0.104758 0.852859
O O8 0.045606 0.861310 0.750127
O O9 0.780697 0.038764 0.670721
O O10 0.798372 0.526801 0.032869
O O11 0.011633 0.788265 0.062483
O O12 0.500000 0.597889 0.000000
#
# Coordination Sequence:
#
# PCOD9125035 Si02
#       6
#     4   4   4   2   4   4
#     4  10  23  38  60  95 132 165 223 272 330 395
#     4  10  21  42  62  95 128 175 221 279 329 407
#     4  10  21  39  65  90 130 172 224 269 338 399
#     4  10  24  42  68  98 140 176 228 280 350 408
#     4  10  24  43  67 100 140 176 229 286 344 407
#     4  10  22  40  63  93 127 172 222 266 340 395
#
# _framework density 23.870605000000001
#
# number of rings (size 3 to 8) (size 9 to 14) (size 15 to 20)
#    0.545    1.455    0.000    2.182    3.818    2.182 
#    3.273    0.000    0.000    0.000    0.000    0.000 
#    0.000    0.000    0.000    0.000    0.000    0.000 
#
# Total GULP energy -61295.234751 kJ/mol
# GULP energy per Si atom -5572.294068 kJ/mol
# Density = 2.381627 g / cm^3
# Si number density = 23.870605 Si / 1000 Ang^3
#
#
#
# Elastic Constant Matrix: (Units=GPa)
#
#
# Indices 1 2 3 4 5 6 
#
# 1 90.4633 50.0425 38.7457 0.0000 -1.4692 0.0000
# 2 50.0425 147.5400 42.6778 0.0000 0.0219 0.0000
# 3 38.7457 42.6778 129.5976 0.0000 29.5865 0.0000
# 4 0.0000 0.0000 0.0000 -2.4058 0.0000 15.6433
# 5 -1.4692 0.0219 29.5865 0.0000 28.4698 0.0000
# 6 0.0000 0.0000 0.0000 15.6433 0.0000 -3.5693
#
#
#
# Elastic Compliance Matrix: (Units=1/GPa)
#
#
# Indices 1 2 3 4 5 6 
#
# 1 0.015217 -0.003849 -0.004538 0.000000 0.005505 0.000000
# 2 -0.003849 0.008718 -0.002194 0.000000 0.002074 0.000000
# 3 -0.004538 -0.002194 0.012912 0.000000 -0.013651 0.000000
# 4 0.000000 0.000000 0.000000 0.015116 0.000000 0.066250
# 5 0.005505 0.002074 -0.013651 0.000000 0.049594 0.000000
# 6 0.000000 0.000000 0.000000 0.066250 0.000000 0.010189
#
#
# Mechanical properties :
#
#
# Convention : Reuss Voigt Hill
#
# Bulk Modulus (GPa) = 63.76022 70.05920 66.90971
# Shear Modulus (GPa) = 36.19649 20.24128 28.21888
#
# Velocity S-wave (km/s) = 3.89827 2.91513 3.44199
# Velocity P-wave (km/s) = 6.85790 6.38310 6.62475
#
# Compressibility (1/GPa) = 0.01568376
#
# Stress axis : x y z
#
# Youngs Moduli (GPa) = 65.71704 114.71059 77.44850
#
# Poissons Ratio (x) = 0.44155 0.35150
# Poissons Ratio (y) = 0.25296 0.16989
# Poissons Ratio (z) = 0.29825 0.25162
#
# Static dielectric constant tensor:
#      x y z
#    x 1.988180 0.000000 0.083860 
#    y 0.000000 1.975570 0.000000 
#    z 0.083860 0.000000 1.926960 
# 
# From -- ./inp_files/64181.got.cif
#   From: 2010.05.17/outbox.cif.g08.bks.cpg/sg5_33_cif.got.tgz:64181.got - 2010.06.03 18:56:24.
