data_PCOD9125292
_publ_section_title
;
Structure prediction by ZEFSAII (Michael W. Deem and Ramdas Pophale) SiO2 
 PCOD9125292
Probable space group: C 2
;
_chemical_formula_sum "Si O2"
_cell_formula_units_Z 24
_cell_length_a 8.790327
_cell_length_b 17.273718
_cell_length_c 15.251398
_cell_angle_alpha 90.000000
_cell_angle_beta 152.066472
_cell_angle_gamma 90.000000
_cell_volume 1084.827964
_symmetry_space_group_name_H-M "C 2"
_symmetry_group_IT_number 5
_symmetry_cell_setting 'monoclinic'
loop_
_space_group_symop_operation_xyz
x,y,z
-x,y,-z
1/2+x,1/2+y,z
1/2-x,1/2+y,-z
loop_
_atom_site_type_symbol
_atom_site_label
_atom_site_fract_x
_atom_site_fract_y
_atom_site_fract_z
Si Si1 0.883274 0.984210 0.042345
Si Si2 0.623093 0.336410 0.283644
Si Si3 0.109440 0.112723 0.820923
Si Si4 0.620609 0.355347 0.652350
Si Si5 0.257528 0.277804 0.952468
Si Si6 0.391355 0.528144 0.352676
O O1 0.013915 0.913857 0.173049
O O2 0.010323 0.059400 0.160703
O O3 0.494404 0.006385 0.845279
O O4 0.000000 0.978494 0.000000
O O5 0.450822 0.323653 0.288629
O O6 0.000000 0.338313 0.500000
O O7 0.491478 0.267676 0.154735
O O8 0.067509 0.201360 0.826680
O O9 0.986344 0.078773 0.666172
O O10 0.500000 0.107621 0.000000
O O11 0.500000 0.319556 0.500000
O O12 0.465001 0.441023 0.577640
O O13 0.004452 0.346048 0.838442
O O14 0.500000 0.300414 0.000000
O O15 0.500000 0.563435 0.500000
#
# Coordination Sequence:
#
# PCOD9125292 Si02
#       6
#     4   4   4   4   4   4
#     4  11  23  38  63  97 133 176 227 279 330 401
#     4  12  25  40  65 100 137 181 232 282 337 397
#     4   9  21  43  65  94 138 179 216 276 345 407
#     4  11  23  40  67  99 133 178 231 282 332 405
#     4  11  23  43  68  99 138 178 221 285 345 403
#     4  10  21  40  68  97 133 178 225 273 339 405
#
# _framework density 22.123325000000001
#
# number of rings (size 3 to 8) (size 9 to 14) (size 15 to 20)
#    0.000    1.333    3.333    2.000    4.667    1.333 
#    0.000   15.000    0.000    0.000    0.000    0.000 
#    0.000    0.000    0.000    0.000    0.000    0.000 
#
# Total GULP energy -66804.806743 kJ/mol
# GULP energy per Si atom -5567.067229 kJ/mol
# Density = 2.207297 g / cm^3
# Si number density = 22.123325 Si / 1000 Ang^3
#
#
#
# Elastic Constant Matrix: (Units=GPa)
#
#
# Indices 1 2 3 4 5 6 
#
# 1 135.1192 34.5047 44.4809 0.0077 -52.0745 0.0058
# 2 34.5047 94.0649 29.5535 -0.0064 -18.6122 -0.0012
# 3 44.4809 29.5535 120.8977 0.0253 -32.3157 -0.0197
# 4 0.0077 -0.0064 0.0253 12.4612 0.0081 -7.0871
# 5 -52.0745 -18.6122 -32.3157 0.0081 42.7404 -0.0039
# 6 0.0058 -0.0012 -0.0197 -7.0871 -0.0039 29.1722
#
#
#
# Elastic Compliance Matrix: (Units=1/GPa)
#
#
# Indices 1 2 3 4 5 6 
#
# 1 0.014296 -0.001885 -0.000454 -0.000023 0.016253 -0.000007
# 2 -0.001885 0.012228 -0.001863 0.000012 0.001620 0.000003
# 3 -0.000454 -0.001863 0.010690 -0.000026 0.006718 0.000002
# 4 -0.000023 0.000012 -0.000026 0.093114 -0.000058 0.022621
# 5 0.016253 0.001620 0.006718 -0.000058 0.048985 -0.000006
# 6 -0.000007 0.000003 0.000002 0.022621 -0.000006 0.039775
#
#
# Mechanical properties :
#
#
# Convention : Reuss Voigt Hill
#
# Bulk Modulus (GPa) = 34.71118 63.01776 48.86447
# Shear Modulus (GPa) = 21.08858 32.97762 27.03310
#
# Velocity S-wave (km/s) = 3.09079 3.86505 3.49940
# Velocity P-wave (km/s) = 5.33491 6.96166 6.20185
#
# Compressibility (1/GPa) = 0.02880916
#
# Stress axis : x y z
#
# Youngs Moduli (GPa) = 69.94993 81.77828 93.54939
#
# Poissons Ratio (x) = 0.15417 0.04251
# Poissons Ratio (y) = 0.13187 0.17425
# Poissons Ratio (z) = 0.03179 0.15232
#
# Static dielectric constant tensor:
#      x y z
#    x 1.799050 -0.000010 -0.003590 
#    y -0.000010 1.890030 -0.000010 
#    z -0.003590 -0.000010 1.910550 
# 
# From -- ./inp_files/51318.got.cif
#   From: 2010.05.17/outbox.cif.g08.bks.cpg/sg5_26_cif.got.tgz:51318.got - 2010.06.03 18:56:24.
