data_PCOD9125652
_publ_section_title
;
Structure prediction by ZEFSAII (Michael W. Deem and Ramdas Pophale) SiO2 
 PCOD9125652
Probable space group: C 2
;
_chemical_formula_sum "Si O2"
_cell_formula_units_Z 22
_cell_length_a 8.787236
_cell_length_b 10.794798
_cell_length_c 10.302176
_cell_angle_alpha 90.000000
_cell_angle_beta 73.674754
_cell_angle_gamma 90.000000
_cell_volume 937.827388
_symmetry_space_group_name_H-M "C 2"
_symmetry_group_IT_number 5
_symmetry_cell_setting 'monoclinic'
loop_
_space_group_symop_operation_xyz
x,y,z
-x,y,-z
1/2+x,1/2+y,z
1/2-x,1/2+y,-z
loop_
_atom_site_type_symbol
_atom_site_label
_atom_site_fract_x
_atom_site_fract_y
_atom_site_fract_z
Si Si1 0.364244 0.210990 0.937244
Si Si2 0.761443 0.134580 0.372103
Si Si3 0.554500 0.726423 0.130224
Si Si4 0.686418 0.384149 0.291028
Si Si5 0.960607 0.479352 0.736770
Si Si6 0.000000 0.055262 0.500000
O O1 0.320823 0.324975 0.850889
O O2 0.425671 0.094765 0.839540
O O3 0.500000 0.255448 0.000000
O O4 0.217531 0.158677 0.057813
O O5 0.669391 0.262689 0.384003
O O6 0.906878 0.156320 0.232534
O O7 0.641314 0.024083 0.364248
O O8 0.847774 0.128660 0.489003
O O9 0.602958 0.846169 0.201557
O O10 0.500000 0.767938 0.000000
O O11 0.546401 0.474012 0.364851
O O12 0.851306 0.449575 0.294742
#
# Coordination Sequence:
#
# PCOD9125652 Si02
#       6
#     4   4   4   4   4   2
#     4  11  24  39  68 106 137 173 216 276 336 403
#     4  10  25  45  66  99 129 179 222 274 331 391
#     4  11  20  43  66 102 141 161 219 278 329 409
#     4  10  25  47  63  99 132 173 231 271 324 400
#     4  10  21  42  69  95 132 179 213 270 349 377
#     4  12  28  44  68  92 134 178 228 276 324 394
#
# _framework density 23.458475
#
# number of rings (size 3 to 8) (size 9 to 14) (size 15 to 20)
#    0.000    1.455    5.455    0.545    5.091    6.545 
#    0.000    0.000    0.000    0.000    0.000    0.000 
#    0.000    0.000    0.000    0.000    0.000    0.000 
#
# Total GULP energy -61321.679947 kJ/mol
# GULP energy per Si atom -5574.698177 kJ/mol
# Density = 2.340508 g / cm^3
# Si number density = 23.458475 Si / 1000 Ang^3
#
#
#
# Elastic Constant Matrix: (Units=GPa)
#
#
# Indices 1 2 3 4 5 6 
#
# 1 112.7887 31.6175 23.3703 0.0000 24.1290 0.0000
# 2 31.6175 62.0022 10.7536 0.0000 10.1675 0.0000
# 3 23.3703 10.7536 54.5913 0.0000 -2.5842 0.0000
# 4 0.0000 0.0000 0.0000 5.3350 0.0000 5.2603
# 5 24.1290 10.1675 -2.5842 0.0000 41.6910 0.0000
# 6 0.0000 0.0000 0.0000 5.2603 0.0000 46.7339
#
#
#
# Elastic Compliance Matrix: (Units=1/GPa)
#
#
# Indices 1 2 3 4 5 6 
#
# 1 0.012487 -0.004487 -0.004766 0.000000 -0.006428 0.000000
# 2 -0.004487 0.019113 -0.001948 0.000000 -0.002185 0.000000
# 3 -0.004766 -0.001948 0.020956 0.000000 0.004532 0.000000
# 4 0.000000 0.000000 0.000000 0.210843 0.000000 -0.023732
# 5 -0.006428 -0.002185 0.004532 0.000000 0.028520 0.000000
# 6 0.000000 0.000000 0.000000 -0.023732 0.000000 0.024069
#
#
# Mechanical properties :
#
#
# Convention : Reuss Voigt Hill
#
# Bulk Modulus (GPa) = 33.16189 40.09613 36.62901
# Shear Modulus (GPa) = 14.34971 29.66137 22.00554
#
# Velocity S-wave (km/s) = 2.47595 3.55973 3.06611
# Velocity P-wave (km/s) = 4.72662 5.83310 5.30876
#
# Compressibility (1/GPa) = 0.03015509
#
# Stress axis : x y z
#
# Youngs Moduli (GPa) = 80.08645 52.32171 47.71823
#
# Poissons Ratio (x) = 0.23475 0.22742
# Poissons Ratio (y) = 0.35933 0.09293
# Poissons Ratio (z) = 0.38168 0.10190
#
# Static dielectric constant tensor:
#      x y z
#    x 1.919820 0.000000 -0.014720 
#    y 0.000000 1.859960 0.000000 
#    z -0.014720 0.000000 1.966980 
# 
# From -- ./inp_files/35192.got.cif
#   From: 2010.05.17/outbox.cif.g08.bks.cpg/sg5_18_cif.got.tgz:35192.got - 2010.06.03 18:56:24.
