data_PCOD9125138
_publ_section_title
;
Structure prediction by ZEFSAII (Michael W. Deem and Ramdas Pophale) SiO2 
 PCOD9125138
Probable space group: C 2
;
_chemical_formula_sum "Si O2"
_cell_formula_units_Z 24
_cell_length_a 7.750896
_cell_length_b 12.163728
_cell_length_c 17.115825
_cell_angle_alpha 90.000000
_cell_angle_beta 47.069182
_cell_angle_gamma 90.000000
_cell_volume 1181.496179
_symmetry_space_group_name_H-M "C 2"
_symmetry_group_IT_number 5
_symmetry_cell_setting 'monoclinic'
loop_
_space_group_symop_operation_xyz
x,y,z
-x,y,-z
1/2+x,1/2+y,z
1/2-x,1/2+y,-z
loop_
_atom_site_type_symbol
_atom_site_label
_atom_site_fract_x
_atom_site_fract_y
_atom_site_fract_z
Si Si1 0.242684 0.751710 0.611194
Si Si2 0.388166 0.167751 0.948714
Si Si3 0.549188 0.040214 0.747689
Si Si4 0.743674 0.803498 0.720468
Si Si5 0.542834 0.594618 0.832799
Si Si6 0.569595 0.360571 0.177170
O O1 0.500000 0.772400 0.500000
O O2 0.212630 0.627129 0.651153
O O3 0.177769 0.828158 0.705329
O O4 0.022169 0.778196 0.620572
O O5 0.508666 0.088170 0.847622
O O6 0.404362 0.290119 0.908462
O O7 0.500000 0.163307 0.000000
O O8 0.119745 0.134491 0.046603
O O9 0.294629 0.052808 0.785823
O O10 0.647579 0.916760 0.716215
O O11 0.588791 0.694246 0.757904
O O12 0.747105 0.818735 0.814173
O O13 0.415970 0.489186 0.836500
#
# Coordination Sequence:
#
# PCOD9125138 Si02
#       6
#     4   4   4   4   4   4
#     4   8  18  42  64  84 119 157 194 254 308 347
#     4  11  23  36  59  87 120 170 202 240 301 355
#     4  10  21  40  61  88 122 154 203 253 298 361
#     4   9  21  40  59  86 122 150 202 250 296 359
#     4  11  22  38  59  85 125 158 201 245 302 350
#     4   9  22  40  56  89 120 157 204 249 288 364
#
# _framework density 20.313226
#
# number of rings (size 3 to 8) (size 9 to 14) (size 15 to 20)
#    1.000    1.333    1.667    1.500    4.667    0.000 
#    6.000    0.000    0.000    1.000    0.000    0.000 
#    0.000    0.000    0.000    0.000    0.000    0.000 
#
# Total GULP energy -66872.558076 kJ/mol
# GULP energy per Si atom -5572.713173 kJ/mol
# Density = 2.026699 g / cm^3
# Si number density = 20.313226 Si / 1000 Ang^3
#
#
#
# Elastic Constant Matrix: (Units=GPa)
#
#
# Indices 1 2 3 4 5 6 
#
# 1 26.7361 12.4447 -2.2494 0.0000 -5.8680 -0.0001
# 2 12.4447 152.2834 45.6081 0.0003 -21.9446 -0.0001
# 3 -2.2494 45.6081 96.3681 0.0002 -28.9945 -0.0002
# 4 0.0000 0.0003 0.0002 6.0834 0.0000 -6.7622
# 5 -5.8680 -21.9446 -28.9945 0.0000 16.7925 0.0002
# 6 -0.0001 -0.0001 -0.0002 -6.7622 0.0002 32.2227
#
#
#
# Elastic Compliance Matrix: (Units=1/GPa)
#
#
# Indices 1 2 3 4 5 6 
#
# 1 0.047636 -0.002664 0.013181 -0.000001 0.035924 0.000000
# 2 -0.002664 0.008324 -0.002100 0.000000 0.006322 0.000000
# 3 0.013181 -0.002100 0.025470 -0.000001 0.045840 0.000000
# 4 -0.000001 0.000000 -0.000001 0.214395 -0.000003 0.044993
# 5 0.035924 0.006322 0.045840 -0.000003 0.159515 -0.000001
# 6 0.000000 0.000000 0.000000 0.044993 -0.000001 0.040476
#
#
# Mechanical properties :
#
#
# Convention : Reuss Voigt Hill
#
# Bulk Modulus (GPa) = 10.17644 42.99939 26.58791
# Shear Modulus (GPa) = 9.77066 25.65866 17.71466
#
# Velocity S-wave (km/s) = 2.19555 3.55794 2.95630
# Velocity P-wave (km/s) = 3.38347 6.17193 4.97698
#
# Compressibility (1/GPa) = 0.09826623
#
# Stress axis : x y z
#
# Youngs Moduli (GPa) = 20.99251 120.13095 39.26135
#
# Poissons Ratio (x) = 0.32000 -0.51751
# Poissons Ratio (y) = 0.05592 0.08244
# Poissons Ratio (z) = -0.27671 0.25223
#
# Static dielectric constant tensor:
#      x y z
#    x 1.792480 0.000000 -0.028940 
#    y 0.000000 1.735130 0.000000 
#    z -0.028940 0.000000 1.703600 
# 
# From -- ./inp_files/64439.got.cif
#   From: 2010.05.17/outbox.cif.g08.bks.cpg/sg5_33_cif.got.tgz:64439.got - 2010.06.03 18:56:24.
