data_PCOD9125160
_publ_section_title
;
Structure prediction by ZEFSAII (Michael W. Deem and Ramdas Pophale) SiO2 
 PCOD9125160
Probable space group: C 2
;
_chemical_formula_sum "Si O2"
_cell_formula_units_Z 28
_cell_length_a 9.110559
_cell_length_b 12.153301
_cell_length_c 15.340553
_cell_angle_alpha 90.000000
_cell_angle_beta 137.962892
_cell_angle_gamma 90.000000
_cell_volume 1137.374200
_symmetry_space_group_name_H-M "C 2"
_symmetry_group_IT_number 5
_symmetry_cell_setting 'monoclinic'
loop_
_space_group_symop_operation_xyz
x,y,z
-x,y,-z
1/2+x,1/2+y,z
1/2-x,1/2+y,-z
loop_
_atom_site_type_symbol
_atom_site_label
_atom_site_fract_x
_atom_site_fract_y
_atom_site_fract_z
Si Si1 0.481163 0.369080 0.725449
Si Si2 0.748056 0.532778 0.144072
Si Si3 0.286059 0.735453 0.963321
Si Si4 0.485584 0.157363 0.387955
Si Si5 0.847156 0.978149 0.516670
Si Si6 0.260235 0.778941 0.135400
Si Si7 0.463176 0.801197 0.392267
O O1 0.641418 0.341851 0.875788
O O2 0.518155 0.268466 0.671909
O O3 0.497657 0.471921 0.669509
O O4 0.242624 0.373487 0.664498
O O5 0.846629 0.626035 0.123210
O O6 0.824984 0.408213 0.169297
O O7 0.791751 0.583825 0.258826
O O8 0.500000 0.526959 0.000000
O O9 0.500000 0.745839 0.000000
O O10 0.362873 0.728828 0.095236
O O11 0.500000 0.172267 0.500000
O O12 0.698984 0.086260 0.455961
O O13 0.000000 0.965407 0.500000
O O14 0.667109 0.876976 0.450349
O O15 0.359908 0.733108 0.268039
O O16 0.000000 0.768467 0.000000
O O17 0.500000 0.738800 0.500000
#
# Coordination Sequence:
#
# PCOD9125160 Si02
#       7
#     4   4   4   4   4   4   4
#     4  10  22  41  63  93 131 169 221 268 320 397
#     4   9  21  39  63  93 128 160 214 256 314 390
#     4  10  22  39  62  92 134 165 210 270 318 385
#     4  11  22  41  69  95 129 176 213 268 331 387
#     4  11  24  38  63  92 130 167 220 271 329 384
#     4  11  20  37  70  90 120 170 214 257 330 383
#     4  10  21  40  62  91 125 165 212 269 321 385
#
# _framework density 24.618106999999998
#
# number of rings (size 3 to 8) (size 9 to 14) (size 15 to 20)
#    0.000    1.714    2.857    1.714    2.000    1.714 
#    7.714    0.714    3.143    0.000    0.000    0.000 
#    0.000    0.000    0.000    0.000    0.000    0.000 
#
# Total GULP energy -78042.617288 kJ/mol
# GULP energy per Si atom -5574.472663 kJ/mol
# Density = 2.456208 g / cm^3
# Si number density = 24.618107 Si / 1000 Ang^3
#
#
#
# Elastic Constant Matrix: (Units=GPa)
#
#
# Indices 1 2 3 4 5 6 
#
# 1 153.4521 13.6551 45.1809 0.0000 -27.5427 0.0000
# 2 13.6551 50.3257 32.3196 0.0000 4.8324 0.0000
# 3 45.1809 32.3196 147.9581 0.0000 -46.1838 0.0000
# 4 0.0000 0.0000 0.0000 23.7226 0.0000 -1.2162
# 5 -27.5427 4.8324 -46.1838 0.0000 50.8193 0.0000
# 6 0.0000 0.0000 0.0000 -1.2162 0.0000 10.7598
#
#
#
# Elastic Compliance Matrix: (Units=1/GPa)
#
#
# Indices 1 2 3 4 5 6 
#
# 1 0.007555 -0.001890 -0.000782 0.000000 0.003564 0.000000
# 2 -0.001890 0.027390 -0.009128 0.000000 -0.011924 0.000000
# 3 -0.000782 -0.009128 0.012745 0.000000 0.012027 0.000000
# 4 0.000000 0.000000 0.000000 0.042400 0.000000 0.004793
# 5 0.003564 -0.011924 0.012027 0.000000 0.033673 0.000000
# 6 0.000000 0.000000 0.000000 0.004793 0.000000 0.093481
#
#
# Mechanical properties :
#
#
# Convention : Reuss Voigt Hill
#
# Bulk Modulus (GPa) = 41.50906 59.33858 50.42382
# Shear Modulus (GPa) = 20.09050 34.43236 27.26143
#
# Velocity S-wave (km/s) = 2.85982 3.74392 3.33133
# Velocity P-wave (km/s) = 5.27281 6.54563 5.94339
#
# Compressibility (1/GPa) = 0.02409113
#
# Stress axis : x y z
#
# Youngs Moduli (GPa) = 132.36828 36.50901 78.45941
#
# Poissons Ratio (x) = 0.06900 0.06133
# Poissons Ratio (y) = 0.25019 0.71618
# Poissons Ratio (z) = 0.10346 0.33326
#
# Static dielectric constant tensor:
#      x y z
#    x 2.101230 0.000000 0.000440 
#    y 0.000000 2.048790 0.000000 
#    z 0.000440 0.000000 2.143260 
# 
# From -- ./inp_files/50969.got.cif
#   From: 2010.05.17/outbox.cif.g08.bks.cpg/sg5_26_cif.got.tgz:50969.got - 2010.06.03 18:56:24.
