data_PCOD9125654
_publ_section_title
;
Structure prediction by ZEFSAII (Michael W. Deem and Ramdas Pophale) SiO2 
 PCOD9125654
Probable space group: C 2
;
_chemical_formula_sum "Si O2"
_cell_formula_units_Z 28
_cell_length_a 9.833854
_cell_length_b 7.588881
_cell_length_c 28.138922
_cell_angle_alpha 90.000000
_cell_angle_beta 35.779184
_cell_angle_gamma 90.000000
_cell_volume 1227.763006
_symmetry_space_group_name_H-M "C 2"
_symmetry_group_IT_number 5
_symmetry_cell_setting 'monoclinic'
loop_
_space_group_symop_operation_xyz
x,y,z
-x,y,-z
1/2+x,1/2+y,z
1/2-x,1/2+y,-z
loop_
_atom_site_type_symbol
_atom_site_label
_atom_site_fract_x
_atom_site_fract_y
_atom_site_fract_z
Si Si1 0.306089 0.321380 0.596628
Si Si2 0.324777 0.246503 0.704230
Si Si3 0.978280 0.014789 0.949843
Si Si4 0.967992 0.621766 0.065642
Si Si5 0.708774 0.317076 0.183837
Si Si6 0.162277 0.248152 0.412592
Si Si7 0.819930 0.342777 0.692738
O O1 0.500000 0.268686 0.500000
O O2 0.313712 0.272119 0.650637
O O3 0.331115 0.535232 0.591880
O O4 0.041327 0.263360 0.657719
O O5 0.208013 0.334725 0.784167
O O6 0.583497 0.302624 0.644432
O O7 0.288554 0.037828 0.721958
O O8 0.058074 0.822259 0.910220
O O9 0.129201 0.166312 0.883502
O O10 0.000000 0.025601 0.000000
O O11 0.707821 0.040531 0.016018
O O12 0.762203 0.500093 0.142552
O O13 0.000000 0.622407 0.000000
O O14 0.439697 0.267241 0.245508
O O15 0.079464 0.343262 0.388948
O O16 0.000000 0.305350 0.500000
#
# Coordination Sequence:
#
# PCOD9125654 Si02
#       7
#     4   4   4   4   4   4   4
#     4  10  21  42  69  97 133 180 236 283 333 420
#     4  10  23  41  59 101 133 174 233 274 352 407
#     4  11  25  47  73 105 132 183 240 276 347 416
#     4  11  25  47  74 104 133 182 240 277 344 420
#     4  11  25  47  66  99 152 177 225 298 339 412
#     4   9  19  39  63  90 130 174 225 283 339 414
#     4  10  23  41  60  99 134 180 220 283 357 393
#
# _framework density 22.805703999999999
#
# number of rings (size 3 to 8) (size 9 to 14) (size 15 to 20)
#    0.000    1.714    1.429    1.286    2.000    2.857 
#   20.571    0.000    0.000    0.000    0.000    0.000 
#    0.000    0.000    0.000    0.000    0.000    0.000 
#
# Total GULP energy -78010.757285 kJ/mol
# GULP energy per Si atom -5572.196949 kJ/mol
# Density = 2.275380 g / cm^3
# Si number density = 22.805704 Si / 1000 Ang^3
#
#
#
# Elastic Constant Matrix: (Units=GPa)
#
#
# Indices 1 2 3 4 5 6 
#
# 1 135.5668 3.7744 7.9077 -0.0003 4.7046 0.0000
# 2 3.7744 66.5077 27.8883 0.0004 8.3702 0.0001
# 3 7.9077 27.8883 63.7332 0.0021 5.5215 -0.0007
# 4 -0.0003 0.0004 0.0021 -14.6068 -0.0002 12.8392
# 5 4.7046 8.3702 5.5215 -0.0002 28.8865 0.0001
# 6 0.0000 0.0001 -0.0007 12.8392 0.0001 25.7185
#
#
#
# Elastic Compliance Matrix: (Units=1/GPa)
#
#
# Indices 1 2 3 4 5 6 
#
# 1 0.007462 0.000074 -0.000866 0.000000 -0.001071 0.000000
# 2 0.000074 0.018849 -0.007914 -0.000001 -0.003961 0.000000
# 3 -0.000866 -0.007914 0.019371 0.000002 -0.001269 -0.000001
# 4 0.000000 -0.000001 0.000002 -0.047582 -0.000001 0.023754
# 5 -0.001071 -0.003961 -0.001269 -0.000001 0.036183 0.000000
# 6 0.000000 0.000000 -0.000001 0.023754 0.000000 0.027024
#
#
# Mechanical properties :
#
#
# Convention : Reuss Voigt Hill
#
# Bulk Modulus (GPa) = 35.37178 38.32763 36.84971
# Shear Modulus (GPa) = 56.72765 23.08210 39.90488
#
# Velocity S-wave (km/s) = 4.99283 3.18483 4.18757
# Velocity P-wave (km/s) = 6.98438 5.51061 6.29080
#
# Compressibility (1/GPa) = 0.02827112
#
# Stress axis : x y z
#
# Youngs Moduli (GPa) = 134.01171 53.05434 51.62455
#
# Poissons Ratio (x) = -0.00394 0.04468
# Poissons Ratio (y) = -0.00996 0.40855
# Poissons Ratio (z) = 0.11599 0.41986
#
# Static dielectric constant tensor:
#      x y z
#    x 1.899870 0.000000 0.170440 
#    y 0.000000 1.840040 0.000000 
#    z 0.170440 0.000000 2.432420 
# 
# From -- ./inp_files/70133.got.cif
#   From: 2010.05.17/outbox.cif.g08.bks.cpg/sg5_36_cif.got.tgz:70133.got - 2010.06.03 18:56:24.
