data_PCOD9125725
_publ_section_title
;
Structure prediction by ZEFSAII (Michael W. Deem and Ramdas Pophale) SiO2 
 PCOD9125725
Probable space group: C 2
;
_chemical_formula_sum "Si O2"
_cell_formula_units_Z 30
_cell_length_a 30.529561
_cell_length_b 9.578046
_cell_length_c 11.429847
_cell_angle_alpha 90.000000
_cell_angle_beta 152.068386
_cell_angle_gamma 90.000000
_cell_volume 1565.564239
_symmetry_space_group_name_H-M "C 2"
_symmetry_group_IT_number 5
_symmetry_cell_setting 'monoclinic'
loop_
_space_group_symop_operation_xyz
x,y,z
-x,y,-z
1/2+x,1/2+y,z
1/2-x,1/2+y,-z
loop_
_atom_site_type_symbol
_atom_site_label
_atom_site_fract_x
_atom_site_fract_y
_atom_site_fract_z
Si Si1 0.050831 0.585670 0.297162
Si Si2 0.500000 0.537725 0.000000
Si Si3 0.176414 0.195958 0.313903
Si Si4 0.909250 0.089530 0.354122
Si Si5 0.811929 0.246044 0.918344
Si Si6 0.494509 0.888081 0.614422
Si Si7 0.649253 0.023247 0.289086
Si Si8 0.610761 0.385476 0.473839
O O1 0.061915 0.475450 0.426005
O O2 0.124078 0.563005 0.364443
O O3 0.057378 0.739418 0.365933
O O4 0.948276 0.555139 0.004554
O O5 0.419522 0.632608 0.865983
O O6 0.444406 0.451847 0.767772
O O7 0.181211 0.165448 0.187050
O O8 0.269299 0.116930 0.575539
O O9 0.176620 0.360726 0.341488
O O10 0.946277 0.237015 0.491517
O O11 0.000000 0.029587 0.500000
O O12 0.885564 0.988284 0.405748
O O13 0.832815 0.142234 0.077330
O O14 0.716387 0.332837 0.698960
O O15 0.897579 0.354480 0.106563
O O16 0.500000 0.956651 0.500000
#
# Coordination Sequence:
#
# PCOD9125725 Si02
#       8
#     4   2   4   4   4   4   4   4
#     4  11  23  41  62  99 134 176 215 276 335 404
#     4  12  26  40  70 100 138 184 224 272 352 414
#     4  12  24  44  67  96 132 176 224 275 339 408
#     4   9  22  44  69  92 127 178 229 280 339 395
#     4  10  21  43  65  96 130 172 227 282 322 402
#     4   9  20  42  68  88 126 173 224 276 337 394
#     4  11  25  41  67  96 135 172 221 276 339 409
#     4  12  25  41  68 102 141 175 227 286 339 400
#
# _framework density 19.162419
#
# number of rings (size 3 to 8) (size 9 to 14) (size 15 to 20)
#    0.000    1.600    2.667    4.000    3.733    2.667 
#    0.000    0.000    0.000    0.000    0.000    0.000 
#    0.000    0.000    0.000    0.000    0.000    0.000 
#
# Total GULP energy -83605.256935 kJ/mol
# GULP energy per Si atom -5573.683796 kJ/mol
# Density = 1.911880 g / cm^3
# Si number density = 19.162419 Si / 1000 Ang^3
#
#
#
# Elastic Constant Matrix: (Units=GPa)
#
#
# Indices 1 2 3 4 5 6 
#
# 1 105.2078 51.6694 35.2186 0.0000 2.8614 0.0000
# 2 51.6694 107.4702 39.1737 0.0000 5.2297 0.0000
# 3 35.2186 39.1737 76.1124 0.0000 18.6719 0.0000
# 4 0.0000 0.0000 0.0000 5.0950 0.0000 -6.8227
# 5 2.8614 5.2297 18.6719 0.0000 31.5387 0.0000
# 6 0.0000 0.0000 0.0000 -6.8227 0.0000 9.0498
#
#
#
# Elastic Compliance Matrix: (Units=1/GPa)
#
#
# Indices 1 2 3 4 5 6 
#
# 1 0.013263 -0.004994 -0.004065 0.000000 0.002031 0.000000
# 2 -0.004994 0.013428 -0.004873 0.000000 0.001112 0.000000
# 3 -0.004065 -0.004873 0.020168 0.000000 -0.010763 0.000000
# 4 0.000000 0.000000 0.000000-20.546326 0.000000-15.489997
# 5 0.002031 0.001112 -0.010763 0.000000 0.037711 0.000000
# 6 0.000000 0.000000 0.000000-15.489997 0.000000-11.567500
#
#
# Mechanical properties :
#
#
# Convention : Reuss Voigt Hill
#
# Bulk Modulus (GPa) = 52.64555 60.10153 56.37354
# Shear Modulus (GPa) = -0.15627 19.98527 9.91450
#
# Velocity S-wave (km/s) = -0.28588 3.23296 2.27709
# Velocity P-wave (km/s) = 5.23679 6.73561 6.03293
#
# Compressibility (1/GPa) = 0.01899496
#
# Stress axis : x y z
#
# Youngs Moduli (GPa) = 75.39732 74.47146 49.58317
#
# Poissons Ratio (x) = 0.37188 0.20157
# Poissons Ratio (y) = 0.37651 0.24163
# Poissons Ratio (z) = 0.30651 0.36291
#
# Static dielectric constant tensor:
#      x y z
#    x 1.826720 0.000000 -0.316780 
#    y 0.000000 1.652400 0.000000 
#    z -0.316780 0.000000 2.412200 
# 
# From -- ./inp_files/48364.got.cif
#   From: 2010.05.17/outbox.cif.g08.bks.cpg/sg5_25_cif.got.tgz:48364.got - 2010.06.03 18:56:24.
