data_PCOD9125781
_publ_section_title
;
Structure prediction by ZEFSAII (Michael W. Deem and Ramdas Pophale) SiO2 
 PCOD9125781
Probable space group: C 2
;
_chemical_formula_sum "Si O2"
_cell_formula_units_Z 20
_cell_length_a 12.311346
_cell_length_b 6.985614
_cell_length_c 18.803397
_cell_angle_alpha 90.000000
_cell_angle_beta 27.971241
_cell_angle_gamma 90.000000
_cell_volume 758.482388
_symmetry_space_group_name_H-M "C 2"
_symmetry_group_IT_number 5
_symmetry_cell_setting 'monoclinic'
loop_
_space_group_symop_operation_xyz
x,y,z
-x,y,-z
1/2+x,1/2+y,z
1/2-x,1/2+y,-z
loop_
_atom_site_type_symbol
_atom_site_label
_atom_site_fract_x
_atom_site_fract_y
_atom_site_fract_z
Si Si1 0.772043 0.386420 0.053606
Si Si2 0.463255 0.504323 0.684369
Si Si3 0.905707 0.043861 0.169444
Si Si4 0.456433 0.058766 0.356933
Si Si5 0.182767 0.436190 0.718001
O O1 0.724591 0.537498 0.145450
O O2 0.536780 0.394690 0.143623
O O3 0.956917 0.482203 0.894451
O O4 0.904136 0.177922 0.983717
O O5 0.311427 0.958494 0.748310
O O6 0.466624 0.275895 0.697271
O O7 0.383463 0.532486 0.649207
O O8 0.789434 0.207278 0.286897
O O9 0.228243 0.066031 0.538073
O O10 0.369376 0.979562 0.332586
#
# Coordination Sequence:
#
# PCOD9125781 Si02
#       5
#     4   4   4   4   4
#     4  10  21  43  71 100 136 182 236 285 340 408
#     4  11  24  43  69 100 141 182 228 287 348 415
#     4   9  23  43  72  98 141 182 232 283 349 407
#     4  11  24  45  67 101 144 182 224 289 356 411
#     4   9  22  42  71  96 135 181 229 282 341 412
#
# _framework density 26.368442999999999
#
# number of rings (size 3 to 8) (size 9 to 14) (size 15 to 20)
#    1.200    0.800    0.000    2.400    2.800    3.200 
#   10.800    2.000    0.000    0.000    0.000    0.000 
#    0.000    0.000    0.000    0.000    0.000    0.000 
#
# Total GULP energy -55736.106210 kJ/mol
# GULP energy per Si atom -5573.610621 kJ/mol
# Density = 2.630843 g / cm^3
# Si number density = 26.368443 Si / 1000 Ang^3
#
#
#
# Elastic Constant Matrix: (Units=GPa)
#
#
# Indices 1 2 3 4 5 6 
#
# 1 220.5429 13.6186 83.5731 -0.0007 -14.0342 -0.0001
# 2 13.6186 41.7941 -17.6760 -0.0011 11.9756 0.0006
# 3 83.5731 -17.6760 127.2445 -0.0076 -10.5666 0.0031
# 4 -0.0007 -0.0011 -0.0076 -55.1366 0.0022 11.5456
# 5 -14.0342 11.9756 -10.5666 0.0022 49.2705 -0.0001
# 6 -0.0001 0.0006 0.0031 11.5456 -0.0001 27.0545
#
#
#
# Elastic Compliance Matrix: (Units=1/GPa)
#
#
# Indices 1 2 3 4 5 6 
#
# 1 0.006883 -0.004972 -0.005038 0.000001 0.002089 0.000000
# 2 -0.004972 0.030577 0.006901 -0.000002 -0.007368 -0.000001
# 3 -0.005038 0.006901 0.012083 -0.000002 -0.000521 -0.000001
# 4 0.000001 -0.000002 -0.000002 -0.016649 0.000001 0.007105
# 5 0.002089 -0.007368 -0.000521 0.000001 0.022570 0.000000
# 6 0.000000 -0.000001 -0.000001 0.007105 0.000000 0.033930
#
#
# Mechanical properties :
#
#
# Convention : Reuss Voigt Hill
#
# Bulk Modulus (GPa) = 23.08087 60.95697 42.01892
# Shear Modulus (GPa) = 45.43152 24.90873 35.17013
#
# Velocity S-wave (km/s) = 4.15535 3.07684 3.65608
# Velocity P-wave (km/s) = 5.63868 5.98249 5.81313
#
# Compressibility (1/GPa) = 0.04332593
#
# Stress axis : x y z
#
# Youngs Moduli (GPa) = 145.27641 32.70408 82.75816
#
# Poissons Ratio (x) = 0.16261 0.41696
# Poissons Ratio (y) = 0.72236 -0.57115
# Poissons Ratio (z) = 0.73194 -0.22571
#
# Static dielectric constant tensor:
#      x y z
#    x 2.316020 0.000000 0.333690 
#    y 0.000000 2.137810 0.000000 
#    z 0.333690 0.000000 2.610550 
# 
# From -- ./inp_files/65783.got.cif
#   From: 2010.05.17/outbox.cif.g08.bks.cpg/sg5_33_cif.got.tgz:65783.got - 2010.06.03 18:56:24.
