data_PCOD9125532
_publ_section_title
;
Structure prediction by ZEFSAII (Michael W. Deem and Ramdas Pophale) SiO2 
 PCOD9125532
Probable space group: C 2
;
_chemical_formula_sum "Si O2"
_cell_formula_units_Z 20
_cell_length_a 21.816336
_cell_length_b 8.454644
_cell_length_c 9.243865
_cell_angle_alpha 90.000000
_cell_angle_beta 32.336612
_cell_angle_gamma 90.000000
_cell_volume 912.004813
_symmetry_space_group_name_H-M "C 2"
_symmetry_group_IT_number 5
_symmetry_cell_setting 'monoclinic'
loop_
_space_group_symop_operation_xyz
x,y,z
-x,y,-z
1/2+x,1/2+y,z
1/2-x,1/2+y,-z
loop_
_atom_site_type_symbol
_atom_site_label
_atom_site_fract_x
_atom_site_fract_y
_atom_site_fract_z
Si Si1 0.634483 0.852870 0.196911
Si Si2 0.527974 0.248513 0.780213
Si Si3 0.276477 0.677782 0.249115
Si Si4 0.806068 0.988822 0.458294
Si Si5 0.202243 0.681424 0.911409
O O1 0.500000 0.863182 0.500000
O O2 0.681534 0.019139 0.041726
O O3 0.655485 0.721109 0.029588
O O4 0.715502 0.798210 0.166459
O O5 0.639509 0.158039 0.495243
O O6 0.576263 0.424277 0.710083
O O7 0.422684 0.242736 0.883361
O O8 0.500000 0.188423 0.000000
O O9 0.314948 0.536939 0.275013
O O10 0.277261 0.839606 0.344512
O O11 0.760305 0.131038 0.645214
#
# Coordination Sequence:
#
# PCOD9125532 Si02
#       5
#     4   4   4   4   4
#     4  11  28  45  68  99 139 186 224 279 333 413
#     4  10  21  41  75  96 134 178 215 288 343 388
#     4   9  21  43  68 105 132 176 228 272 341 397
#     4   9  20  40  71 100 129 177 223 275 335 398
#     4  11  24  47  67  99 139 179 229 274 344 398
#
# _framework density 21.92971
#
# number of rings (size 3 to 8) (size 9 to 14) (size 15 to 20)
#    1.200    0.800    2.000    0.000    2.800    6.400 
#    0.000    0.000    0.000    0.000    0.000    0.000 
#    0.000    0.000    0.000    0.000    0.000    0.000 
#
# Total GULP energy -55812.719437 kJ/mol
# GULP energy per Si atom -5581.271944 kJ/mol
# Density = 2.187980 g / cm^3
# Si number density = 21.929710 Si / 1000 Ang^3
#
#
#
# Elastic Constant Matrix: (Units=GPa)
#
#
# Indices 1 2 3 4 5 6 
#
# 1 123.5727 35.7790 25.7774 0.0000 -31.6660 0.0000
# 2 35.7790 33.8023 7.4829 0.0000 -12.6580 0.0000
# 3 25.7774 7.4829 97.5678 0.0000 -9.2552 0.0000
# 4 0.0000 0.0000 0.0000 22.4424 0.0000 8.1889
# 5 -31.6660 -12.6580 -9.2552 0.0000 33.0327 0.0000
# 6 0.0000 0.0000 0.0000 8.1889 0.0000 44.6725
#
#
#
# Elastic Compliance Matrix: (Units=1/GPa)
#
#
# Indices 1 2 3 4 5 6 
#
# 1 0.013904 -0.011081 -0.002016 0.000000 0.008518 0.000000
# 2 -0.011081 0.043568 0.000167 0.000000 0.006119 0.000000
# 3 -0.002016 0.000167 0.010881 0.000000 0.001180 0.000000
# 4 0.000000 0.000000 0.000000 0.047753 0.000000 -0.008753
# 5 0.008518 0.006119 0.001180 0.000000 0.041114 0.000000
# 6 0.000000 0.000000 0.000000 -0.008753 0.000000 0.023990
#
#
# Mechanical properties :
#
#
# Convention : Reuss Voigt Hill
#
# Bulk Modulus (GPa) = 23.53369 43.66903 33.60136
# Shear Modulus (GPa) = 22.60062 32.42308 27.51185
#
# Velocity S-wave (km/s) = 3.21377 3.84930 3.54580
# Velocity P-wave (km/s) = 4.95235 6.30179 5.66738
#
# Compressibility (1/GPa) = 0.04249228
#
# Stress axis : x y z
#
# Youngs Moduli (GPa) = 71.92183 22.95287 91.90345
#
# Poissons Ratio (x) = 0.25435 0.18524
# Poissons Ratio (y) = 0.79698 -0.01532
# Poissons Ratio (z) = 0.14496 -0.00383
#
# Static dielectric constant tensor:
#      x y z
#    x 1.783870 0.000000 0.004150 
#    y 0.000000 1.835930 0.000000 
#    z 0.004150 0.000000 1.831650 
# 
# From -- ./inp_files/28824.got.cif
#   From: 2010.05.17/outbox.cif.g08.bks.cpg/sg5_15_cif.got.tgz:28824.got - 2010.06.03 18:56:24.
