data_PCOD9125341
_publ_section_title
;
Structure prediction by ZEFSAII (Michael W. Deem and Ramdas Pophale) SiO2 
 PCOD9125341
Probable space group: C 2
;
_chemical_formula_sum "Si O2"
_cell_formula_units_Z 26
_cell_length_a 10.348013
_cell_length_b 8.810859
_cell_length_c 24.486012
_cell_angle_alpha 90.000000
_cell_angle_beta 34.889675
_cell_angle_gamma 90.000000
_cell_volume 1276.991002
_symmetry_space_group_name_H-M "C 2"
_symmetry_group_IT_number 5
_symmetry_cell_setting 'monoclinic'
loop_
_space_group_symop_operation_xyz
x,y,z
-x,y,-z
1/2+x,1/2+y,z
1/2-x,1/2+y,-z
loop_
_atom_site_type_symbol
_atom_site_label
_atom_site_fract_x
_atom_site_fract_y
_atom_site_fract_z
Si Si1 0.300724 0.487440 0.610357
Si Si2 0.300769 0.126120 0.610617
Si Si3 0.000000 0.691824 0.000000
Si Si4 0.347800 0.128733 0.722184
Si Si5 0.651058 0.486730 0.279075
Si Si6 0.076317 0.672653 0.089110
Si Si7 0.629412 0.487961 0.090088
O O1 0.500000 0.532375 0.500000
O O2 0.258929 0.306744 0.617997
O O3 0.375980 0.511634 0.646591
O O4 0.072255 0.575540 0.675136
O O5 0.500000 0.081830 0.500000
O O6 0.371610 0.101486 0.648799
O O7 0.073260 0.038024 0.674489
O O8 0.745445 0.549408 0.993987
O O9 0.223081 0.587488 0.918748
O O10 0.305731 0.308040 0.745048
O O11 0.129696 0.035101 0.816990
O O12 0.863901 0.586860 0.186836
O O13 0.013205 0.764616 0.054633
O O14 0.166007 0.812529 0.092602
#
# Coordination Sequence:
#
# PCOD9125341 Si02
#       7
#     4   4   2   4   4   4   4
#     4  10  23  42  62  92 129 162 204 257 307 362
#     4  10  22  41  65  89 123 166 207 254 309 362
#     4   8  22  38  60  82 120 154 196 254 298 352
#     4  11  23  39  63  94 125 162 207 254 305 367
#     4  11  23  39  63  94 124 163 209 250 307 369
#     4  10  21  41  61  85 120 159 199 250 301 360
#     4  10  21  41  61  86 120 159 199 251 302 360
#
# _framework density 20.360361000000001
#
# number of rings (size 3 to 8) (size 9 to 14) (size 15 to 20)
#    0.923    0.923    0.000    3.692    0.000    5.538 
#    0.000    0.000    0.000    0.000    0.000    0.000 
#    0.000    0.000    0.000    0.000    0.000    0.000 
#
# Total GULP energy -72500.248999 kJ/mol
# GULP energy per Si atom -5576.942231 kJ/mol
# Density = 2.031402 g / cm^3
# Si number density = 20.360361 Si / 1000 Ang^3
#
#
#
# Elastic Constant Matrix: (Units=GPa)
#
#
# Indices 1 2 3 4 5 6 
#
# 1 38.2583 -0.6011 -21.2410 0.0000 -5.5920 -0.0001
# 2 -0.6011 55.6166 14.4591 0.0000 -3.5912 0.0000
# 3 -21.2410 14.4591 74.0196 0.0000 -0.1218 0.0005
# 4 0.0000 0.0000 0.0000 6.2512 -0.0001 -65.0128
# 5 -5.5920 -3.5912 -0.1218 -0.0001 31.6107 -0.0001
# 6 -0.0001 0.0000 0.0005 -65.0128 -0.0001 -111.6322
#
#
#
# Elastic Compliance Matrix: (Units=1/GPa)
#
#
# Indices 1 2 3 4 5 6 
#
# 1 0.032259 -0.001794 0.009617 0.000000 0.005540 0.000000
# 2 -0.001794 0.019187 -0.004260 0.000000 0.001846 0.000000
# 3 0.009617 -0.004260 0.017104 0.000000 0.001283 0.000000
# 4 0.000000 0.000000 0.000000 0.022669 0.000000 -0.013202
# 5 0.005540 0.001846 0.001283 0.000000 0.032830 0.000000
# 6 0.000000 0.000000 0.000000 -0.013202 0.000000 -0.001269
#
#
# Mechanical properties :
#
#
# Convention : Reuss Voigt Hill
#
# Bulk Modulus (GPa) = 13.21417 17.01427 15.11422
# Shear Modulus (GPa) = 35.49164 -3.06890 16.21137
#
# Velocity S-wave (km/s) = 4.17966 -1.22905 2.82480
# Velocity P-wave (km/s) = 5.45866 2.52203 4.25192
#
# Compressibility (1/GPa) = 0.07567632
#
# Stress axis : x y z
#
# Youngs Moduli (GPa) = 30.99928 52.11728 58.46657
#
# Poissons Ratio (x) = 0.09348 -0.56225
# Poissons Ratio (y) = 0.05560 0.24906
# Poissons Ratio (z) = -0.29811 0.22201
#
# Static dielectric constant tensor:
#      x y z
#    x 1.839310 0.000000 -0.049290 
#    y 0.000000 1.694270 0.000000 
#    z -0.049290 0.000000 1.733260 
# 
# From -- ./inp_files/59261.got.cif
#   From: 2010.05.17/outbox.cif.g08.bks.cpg/sg5_30_cif.got.tgz:59261.got - 2010.06.03 18:56:24.
