data_PCOD9125476
_publ_section_title
;
Structure prediction by ZEFSAII (Michael W. Deem and Ramdas Pophale) SiO2 
 PCOD9125476
Probable space group: C 2
;
_chemical_formula_sum "Si O2"
_cell_formula_units_Z 28
_cell_length_a 13.687778
_cell_length_b 5.587869
_cell_length_c 18.645850
_cell_angle_alpha 90.000000
_cell_angle_beta 123.898361
_cell_angle_gamma 90.000000
_cell_volume 1183.734277
_symmetry_space_group_name_H-M "C 2"
_symmetry_group_IT_number 5
_symmetry_cell_setting 'monoclinic'
loop_
_space_group_symop_operation_xyz
x,y,z
-x,y,-z
1/2+x,1/2+y,z
1/2-x,1/2+y,-z
loop_
_atom_site_type_symbol
_atom_site_label
_atom_site_fract_x
_atom_site_fract_y
_atom_site_fract_z
Si Si1 0.229795 0.437130 0.032847
Si Si2 0.947909 0.042017 0.627542
Si Si3 0.500000 0.770972 0.500000
Si Si4 0.749068 0.317754 0.365027
Si Si5 0.595511 0.931010 0.270002
Si Si6 0.384656 0.260435 0.212366
Si Si7 0.659236 0.555114 0.183923
Si Si8 0.000000 0.177705 0.000000
O O1 0.325291 0.453167 0.136061
O O2 0.228903 0.697759 0.994987
O O3 0.104506 0.346624 0.012658
O O4 0.955690 0.121665 0.549781
O O5 0.827362 0.910836 0.599759
O O6 0.950215 0.258497 0.685614
O O7 0.058047 0.877361 0.694033
O O8 0.382527 0.900698 0.425031
O O9 0.719700 0.037096 0.348795
O O10 0.691473 0.401528 0.266548
O O11 0.492695 0.124911 0.219922
O O12 0.619627 0.802326 0.205410
O O13 0.279477 0.084596 0.189624
O O14 0.556197 0.510695 0.085051
#
# Coordination Sequence:
#
# PCOD9125476 Si02
#       8
#     4   4   2   4   4   4   4   2
#     4  11  26  44  71 108 148 198 247 307 364 434
#     4  10  24  42  67  96 133 175 231 288 357 433
#     4  12  24  44  70 100 134 178 226 296 356 430
#     4  10  24  42  66  99 134 181 224 286 357 421
#     4  10  21  41  68  91 134 179 224 289 350 425
#     4  10  22  41  65  97 132 183 233 286 359 424
#     4  10  21  43  63  97 136 180 231 281 349 418
#     4  10  24  44  68 108 144 194 246 302 354 444
#
# _framework density 23.653959
#
# number of rings (size 3 to 8) (size 9 to 14) (size 15 to 20)
#    0.000    1.714    0.000    2.571   10.000    0.571 
#    7.714    5.714    0.000    0.000    0.000    0.000 
#    0.000    0.000    0.000    0.000    0.000    0.000 
#
# Total GULP energy -78211.682436 kJ/mol
# GULP energy per Si atom -5586.548745 kJ/mol
# Density = 2.360012 g / cm^3
# Si number density = 23.653959 Si / 1000 Ang^3
#
#
#
# Elastic Constant Matrix: (Units=GPa)
#
#
# Indices 1 2 3 4 5 6 
#
# 1 109.7934 8.7958 54.4086 0.0000 10.4843 0.0000
# 2 8.7958 27.1406 14.1975 0.0000 9.0250 0.0000
# 3 54.4086 14.1975 92.6632 0.0000 20.9077 0.0000
# 4 0.0000 0.0000 0.0000 17.5885 0.0000 12.3750
# 5 10.4843 9.0250 20.9077 0.0000 33.2606 0.0000
# 6 0.0000 0.0000 0.0000 12.3750 0.0000 29.7315
#
#
#
# Elastic Compliance Matrix: (Units=1/GPa)
#
#
# Indices 1 2 3 4 5 6 
#
# 1 0.012869 -0.000447 -0.007691 0.000000 0.000899 0.000000
# 2 -0.000447 0.042071 -0.004241 0.000000 -0.008609 0.000000
# 3 -0.007691 -0.004241 0.017655 0.000000 -0.007523 0.000000
# 4 0.000000 0.000000 0.000000 0.080400 0.000000 -0.033465
# 5 0.000899 -0.008609 -0.007523 0.000000 0.036847 0.000000
# 6 0.000000 0.000000 0.000000 -0.033465 0.000000 0.047563
#
#
# Mechanical properties :
#
#
# Convention : Reuss Voigt Hill
#
# Bulk Modulus (GPa) = 20.90395 42.71121 31.80758
# Shear Modulus (GPa) = 17.97859 26.26249 22.12054
#
# Velocity S-wave (km/s) = 2.75992 3.33570 3.06138
# Velocity P-wave (km/s) = 4.36037 5.73862 5.09630
#
# Compressibility (1/GPa) = 0.04783785
#
# Stress axis : x y z
#
# Youngs Moduli (GPa) = 77.70548 23.76916 56.64225
#
# Poissons Ratio (x) = 0.01061 0.43562
# Poissons Ratio (y) = 0.03470 0.24024
# Poissons Ratio (z) = 0.59761 0.10081
#
# Static dielectric constant tensor:
#      x y z
#    x 1.855370 0.000000 0.019070 
#    y 0.000000 1.985940 0.000000 
#    z 0.019070 0.000000 1.901240 
# 
# From -- ./inp_files/65711.got.cif
#   From: 2010.05.17/outbox.cif.g08.bks.cpg/sg5_33_cif.got.tgz:65711.got - 2010.06.03 18:56:24.
