data_PCOD9125965
_publ_section_title
;
Structure prediction by ZEFSAII (Michael W. Deem and Ramdas Pophale) SiO2 
 PCOD9125965
Probable space group: C 2
;
_chemical_formula_sum "Si O2"
_cell_formula_units_Z 24
_cell_length_a 25.518332
_cell_length_b 5.041760
_cell_length_c 16.746072
_cell_angle_alpha 90.000000
_cell_angle_beta 34.952934
_cell_angle_gamma 90.000000
_cell_volume 1234.322836
_symmetry_space_group_name_H-M "C 2"
_symmetry_group_IT_number 5
_symmetry_cell_setting 'monoclinic'
loop_
_space_group_symop_operation_xyz
x,y,z
-x,y,-z
1/2+x,1/2+y,z
1/2-x,1/2+y,-z
loop_
_atom_site_type_symbol
_atom_site_label
_atom_site_fract_x
_atom_site_fract_y
_atom_site_fract_z
Si Si1 0.116666 0.303940 0.425793
Si Si2 0.522875 0.113470 0.287200
Si Si3 0.736103 0.855937 0.415865
Si Si4 0.129504 0.809845 0.302541
Si Si5 0.285418 0.952736 0.001601
Si Si6 0.637940 0.355753 0.606765
O O1 0.212969 0.301113 0.353109
O O2 0.119994 0.522675 0.352980
O O3 0.040847 0.408166 0.583552
O O4 0.099976 0.024411 0.404800
O O5 0.570965 0.299203 0.294133
O O6 0.460585 0.277861 0.303506
O O7 0.605682 0.972713 0.137453
O O8 0.667700 0.651728 0.546539
O O9 0.834018 0.813873 0.335705
O O10 0.704238 0.154363 0.475202
O O11 0.233419 0.869053 0.146592
O O12 0.254962 0.736673 0.973963
#
# Coordination Sequence:
#
# PCOD9125965 Si02
#       6
#     4   4   4   4   4   4
#     4  11  22  35  55  82 111 139 174 221 268 318
#     4  10  22  36  57  82 105 140 186 219 256 313
#     4   9  18  33  50  78 109 137 170 218 273 303
#     4  11  23  36  52  81 115 142 169 217 277 318
#     4  10  22  38  53  74 111 149 178 210 259 322
#     4   9  18  32  53  77 105 136 178 223 255 305
#
# _framework density 19.443857999999999
#
# number of rings (size 3 to 8) (size 9 to 14) (size 15 to 20)
#    0.000    2.000    0.000    4.500    0.000   16.000 
#    0.000    0.000    0.000    1.000    0.000   14.000 
#    0.000    0.000    0.000    0.000    0.000    0.000 
#
# Total GULP energy -66953.303201 kJ/mol
# GULP energy per Si atom -5579.441933 kJ/mol
# Density = 1.939960 g / cm^3
# Si number density = 19.443858 Si / 1000 Ang^3
#
#
#
# Elastic Constant Matrix: (Units=GPa)
#
#
# Indices 1 2 3 4 5 6 
#
# 1 127.2216 5.2662 14.7952 -0.0794 -33.1072 -0.0468
# 2 5.2662 40.3608 -6.0167 -0.2308 -0.2391 -0.2563
# 3 14.7952 -6.0167 89.8350 -0.0307 -3.1878 -0.0688
# 4 -0.0794 -0.2308 -0.0307 13.2370 0.0152 -5.3886
# 5 -33.1072 -0.2391 -3.1878 0.0152 17.4257 0.0273
# 6 -0.0468 -0.2563 -0.0688 -5.3886 0.0273 22.6509
#
#
#
# Elastic Compliance Matrix: (Units=1/GPa)
#
#
# Indices 1 2 3 4 5 6 
#
# 1 0.015940 -0.002157 -0.001707 0.000007 0.029943 -0.000031
# 2 -0.002157 0.025332 0.001932 0.000616 -0.003399 0.000439
# 3 -0.001707 0.001932 0.011503 0.000082 -0.001113 0.000074
# 4 0.000007 0.000616 0.000082 0.083662 -0.000067 0.019910
# 5 0.029943 -0.003399 -0.001113 -0.000067 0.114026 -0.000133
# 6 -0.000031 0.000439 0.000074 0.019910 -0.000133 0.048890
#
#
# Mechanical properties :
#
#
# Convention : Reuss Voigt Hill
#
# Bulk Modulus (GPa) = 20.44567 31.72300 26.08433
# Shear Modulus (GPa) = 15.64841 26.88758 21.26800
#
# Velocity S-wave (km/s) = 2.83998 3.72268 3.31088
# Velocity P-wave (km/s) = 4.61433 5.90156 5.29719
#
# Compressibility (1/GPa) = 0.04891011
#
# Stress axis : x y z
#
# Youngs Moduli (GPa) = 62.73390 39.47557 86.93643
#
# Poissons Ratio (x) = 0.08515 0.14842
# Poissons Ratio (y) = 0.13532 -0.16795
# Poissons Ratio (z) = 0.10710 -0.07626
#
# Static dielectric constant tensor:
#      x y z
#    x 1.744860 -0.000050 -0.034780 
#    y -0.000050 1.685220 0.000010 
#    z -0.034780 0.000010 1.699960 
# 
# From -- ./inp_files/63142.got.cif
#   From: 2010.05.17/outbox.cif.g08.bks.cpg/sg5_32_cif.got.tgz:63142.got - 2010.06.03 18:56:24.
