data_PCOD9125715
_publ_section_title
;
Structure prediction by ZEFSAII (Michael W. Deem and Ramdas Pophale) SiO2 
 PCOD9125715
Probable space group: C 2
;
_chemical_formula_sum "Si O2"
_cell_formula_units_Z 28
_cell_length_a 10.863012
_cell_length_b 9.095995
_cell_length_c 12.528979
_cell_angle_alpha 90.000000
_cell_angle_beta 82.909519
_cell_angle_gamma 90.000000
_cell_volume 1228.519640
_symmetry_space_group_name_H-M "C 2"
_symmetry_group_IT_number 5
_symmetry_cell_setting 'monoclinic'
loop_
_space_group_symop_operation_xyz
x,y,z
-x,y,-z
1/2+x,1/2+y,z
1/2-x,1/2+y,-z
loop_
_atom_site_type_symbol
_atom_site_label
_atom_site_fract_x
_atom_site_fract_y
_atom_site_fract_z
Si Si1 0.878698 0.700350 0.686252
Si Si2 0.000000 0.481672 0.500000
Si Si3 0.162288 0.934592 0.887042
Si Si4 0.053119 0.016360 0.249117
Si Si5 0.584068 0.939235 0.199975
Si Si6 0.500000 0.916794 0.000000
Si Si7 0.228726 0.612415 0.927682
Si Si8 0.897036 0.266997 0.359994
O O1 0.939589 0.592124 0.592392
O O2 0.927696 0.863894 0.692257
O O3 0.913169 0.616307 0.793444
O O4 0.734630 0.719628 0.671804
O O5 0.897002 0.364554 0.467543
O O6 0.272037 0.916048 0.786043
O O7 0.168876 0.774739 0.940455
O O8 0.039746 0.984284 0.840012
O O9 0.203398 0.055486 0.970886
O O10 0.179619 0.077927 0.181673
O O11 0.988764 0.128294 0.338697
O O12 0.470276 0.880620 0.277359
O O13 0.570461 0.848235 0.090993
O O14 0.607639 0.008950 0.931938
#
# Coordination Sequence:
#
# PCOD9125715 Si02
#       8
#     4   2   4   4   4   2   4   4
#     4  11  25  46  73 102 136 180 227 289 361 423
#     4  10  28  50  72 108 136 172 228 292 372 432
#     4  11  24  42  64  99 145 186 241 282 332 401
#     4  12  25  42  72 103 138 183 238 285 345 414
#     4  10  21  43  64  99 144 187 226 284 340 404
#     4  10  22  38  64  94 144 192 230 282 330 390
#     4  11  25  40  63  99 141 193 239 284 331 395
#     4  11  24  48  74 101 138 178 230 292 353 424
#
# _framework density 22.791658000000002
#
# number of rings (size 3 to 8) (size 9 to 14) (size 15 to 20)
#    0.000    1.143    2.857    2.143    6.000    6.286 
#    0.000    0.000    0.000    0.000    0.000    0.000 
#    0.000    0.000    0.000    0.000    0.000    0.000 
#
# Total GULP energy -77976.718831 kJ/mol
# GULP energy per Si atom -5569.765631 kJ/mol
# Density = 2.273978 g / cm^3
# Si number density = 22.791658 Si / 1000 Ang^3
#
#
#
# Elastic Constant Matrix: (Units=GPa)
#
#
# Indices 1 2 3 4 5 6 
#
# 1 102.5783 29.3883 19.7185 0.0000 -5.8157 0.0000
# 2 29.3883 153.0851 45.2683 0.0000 0.4560 0.0000
# 3 19.7185 45.2683 54.8746 0.0000 -1.9888 0.0000
# 4 0.0000 0.0000 0.0000 37.9293 0.0000 2.9609
# 5 -5.8157 0.4560 -1.9888 0.0000 23.7053 0.0000
# 6 0.0000 0.0000 0.0000 2.9609 0.0000 31.8158
#
#
#
# Elastic Compliance Matrix: (Units=1/GPa)
#
#
# Indices 1 2 3 4 5 6 
#
# 1 0.010776 -0.001266 -0.002740 0.000000 0.002438 0.000000
# 2 -0.001266 0.008803 -0.006845 0.000000 -0.001054 0.000000
# 3 -0.002740 -0.006845 0.024911 0.000000 0.001550 0.000000
# 4 0.000000 0.000000 0.000000 0.026558 0.000000 -0.002472
# 5 0.002438 -0.001054 0.001550 0.000000 0.042933 0.000000
# 6 0.000000 0.000000 0.000000 -0.002472 0.000000 0.031661
#
#
# Mechanical properties :
#
#
# Convention : Reuss Voigt Hill
#
# Bulk Modulus (GPa) = 43.88176 55.47647 49.67911
# Shear Modulus (GPa) = 28.58148 33.10092 30.84120
#
# Velocity S-wave (km/s) = 3.54507 3.81507 3.68255
# Velocity P-wave (km/s) = 6.00433 6.61815 6.31870
#
# Compressibility (1/GPa) = 0.02278851
#
# Stress axis : x y z
#
# Youngs Moduli (GPa) = 92.79711 113.60332 40.14345
#
# Poissons Ratio (x) = 0.14381 0.10998
# Poissons Ratio (y) = 0.11747 0.27478
# Poissons Ratio (z) = 0.25423 0.77761
#
# Static dielectric constant tensor:
#      x y z
#    x 1.839020 0.000000 0.000160 
#    y 0.000000 1.903370 0.000000 
#    z 0.000160 0.000000 2.083260 
# 
# From -- ./inp_files/52116.got.cif
#   From: 2010.05.17/outbox.cif.g08.bks.cpg/sg5_27_cif.got.tgz:52116.got - 2010.06.03 18:56:24.
