data_PCOD9125149
_publ_section_title
;
Structure prediction by ZEFSAII (Michael W. Deem and Ramdas Pophale) SiO2 
 PCOD9125149
Probable space group: C 2
;
_chemical_formula_sum "Si O2"
_cell_formula_units_Z 28
_cell_length_a 9.340794
_cell_length_b 5.230640
_cell_length_c 29.211148
_cell_angle_alpha 90.000000
_cell_angle_beta 51.483933
_cell_angle_gamma 90.000000
_cell_volume 1116.695380
_symmetry_space_group_name_H-M "C 2"
_symmetry_group_IT_number 5
_symmetry_cell_setting 'monoclinic'
loop_
_space_group_symop_operation_xyz
x,y,z
-x,y,-z
1/2+x,1/2+y,z
1/2-x,1/2+y,-z
loop_
_atom_site_type_symbol
_atom_site_label
_atom_site_fract_x
_atom_site_fract_y
_atom_site_fract_z
Si Si1 0.421123 0.195890 0.693386
Si Si2 0.001096 0.089158 0.551494
Si Si3 0.224213 0.955509 0.581815
Si Si4 0.035269 0.038347 0.158662
Si Si5 0.216566 0.542499 0.799710
Si Si6 0.181810 0.326255 0.668086
Si Si7 0.706854 0.913376 0.978676
O O1 0.592955 0.225295 0.624647
O O2 0.358004 0.449585 0.732319
O O3 0.247304 0.140484 0.695739
O O4 0.506174 0.999279 0.712833
O O5 0.922998 0.372087 0.558800
O O6 0.000000 0.978275 0.500000
O O7 0.863108 0.987590 0.618336
O O8 0.193384 0.030311 0.536043
O O9 0.153398 0.181505 0.626817
O O10 0.168680 0.061794 0.176102
O O11 0.160547 0.973687 0.090116
O O12 0.892435 0.801092 0.190594
O O13 0.925449 0.302389 0.171335
O O14 0.500000 0.896627 0.000000
O O15 0.767548 0.648774 0.990886
#
# Coordination Sequence:
#
# PCOD9125149 Si02
#       7
#     4   4   4   4   4   4   4
#     4  10  23  39  63  91 121 172 216 264 340 394
#     4  10  23  38  57  91 118 159 206 265 335 387
#     4  10  22  39  62  86 121 158 216 264 317 414
#     4  12  26  46  69 109 144 181 241 288 347 412
#     4  12  27  45  72 103 147 185 229 299 350 412
#     4  10  21  40  62  87 121 159 220 265 320 415
#     4  12  25  45  74 103 141 194 235 288 346 411
#
# _framework density 25.073982999999998
#
# number of rings (size 3 to 8) (size 9 to 14) (size 15 to 20)
#    0.000    1.143    0.000    5.571    6.000    0.571 
#    0.000    0.000    0.000    0.000    0.000    0.000 
#    0.000    0.000    0.000    0.000    0.000    0.000 
#
# Total GULP energy -78233.823368 kJ/mol
# GULP energy per Si atom -5588.130241 kJ/mol
# Density = 2.501691 g / cm^3
# Si number density = 25.073983 Si / 1000 Ang^3
#
#
#
# Elastic Constant Matrix: (Units=GPa)
#
#
# Indices 1 2 3 4 5 6 
#
# 1 195.7601 53.7075 29.2269 0.0001 7.7033 0.0002
# 2 53.7075 103.6065 -4.8252 0.0003 -9.0604 0.0005
# 3 29.2269 -4.8252 90.2870 0.0002 -2.4415 0.0003
# 4 0.0001 0.0003 0.0002 38.6971 0.0002 1.4899
# 5 7.7033 -9.0604 -2.4415 0.0002 45.7795 0.0000
# 6 0.0002 0.0005 0.0003 1.4899 0.0000 39.0260
#
#
#
# Elastic Compliance Matrix: (Units=1/GPa)
#
#
# Indices 1 2 3 4 5 6 
#
# 1 0.006547 -0.003675 -0.002369 0.000000 -0.001955 0.000000
# 2 -0.003675 0.011915 0.001910 0.000000 0.003078 0.000000
# 3 -0.002369 0.001910 0.011983 0.000000 0.001416 0.000000
# 4 0.000000 0.000000 0.000000 0.025880 0.000000 -0.000988
# 5 -0.001955 0.003078 0.001416 0.000000 0.022858 0.000000
# 6 0.000000 0.000000 0.000000 -0.000988 0.000000 0.025662
#
#
# Mechanical properties :
#
#
# Convention : Reuss Voigt Hill
#
# Bulk Modulus (GPa) = 45.09184 60.65243 52.87213
# Shear Modulus (GPa) = 41.49200 45.47015 43.48108
#
# Velocity S-wave (km/s) = 4.07232 4.26307 4.16878
# Velocity P-wave (km/s) = 6.33516 6.96230 6.65612
#
# Compressibility (1/GPa) = 0.02217696
#
# Stress axis : x y z
#
# Youngs Moduli (GPa) = 152.73694 83.92615 83.45220
#
# Poissons Ratio (x) = 0.30845 0.19767
# Poissons Ratio (y) = 0.56135 -0.15937
# Poissons Ratio (z) = 0.36179 -0.16028
#
# Static dielectric constant tensor:
#      x y z
#    x 2.068960 0.000000 -0.050770 
#    y 0.000000 2.067150 0.000000 
#    z -0.050770 0.000000 2.017400 
# 
# From -- ./inp_files/71500.got.cif
#   From: 2010.05.17/outbox.cif.g08.bks.cpg/sg5_36_cif.got.tgz:71500.got - 2010.06.03 18:56:24.
