data_PCOD9125041
_publ_section_title
;
Structure prediction by ZEFSAII (Michael W. Deem and Ramdas Pophale) SiO2 
 PCOD9125041
Probable space group: C 2
;
_chemical_formula_sum "Si O2"
_cell_formula_units_Z 30
_cell_length_a 22.056294
_cell_length_b 8.763144
_cell_length_c 8.203825
_cell_angle_alpha 90.000000
_cell_angle_beta 62.550473
_cell_angle_gamma 90.000000
_cell_volume 1407.138176
_symmetry_space_group_name_H-M "C 2"
_symmetry_group_IT_number 5
_symmetry_cell_setting 'monoclinic'
loop_
_space_group_symop_operation_xyz
x,y,z
-x,y,-z
1/2+x,1/2+y,z
1/2-x,1/2+y,-z
loop_
_atom_site_type_symbol
_atom_site_label
_atom_site_fract_x
_atom_site_fract_y
_atom_site_fract_z
Si Si1 0.603142 0.829070 0.090085
Si Si2 0.373451 0.142940 0.095928
Si Si3 0.419737 0.005670 0.577341
Si Si4 0.033401 0.042206 0.279285
Si Si5 0.500000 0.358381 0.000000
Si Si6 0.770512 0.227496 0.268876
Si Si7 0.645703 0.303208 0.207673
Si Si8 0.690224 0.980775 0.539244
O O1 0.542731 0.712175 0.199325
O O2 0.620674 0.898737 0.244892
O O3 0.662438 0.736899 0.925064
O O4 0.591347 0.983021 0.002083
O O5 0.319920 0.097909 0.299085
O O6 0.432411 0.255488 0.080685
O O7 0.338365 0.220338 0.982986
O O8 0.500000 0.978339 0.500000
O O9 0.405372 0.182303 0.640781
O O10 0.384576 0.971870 0.449801
O O11 0.000000 0.042432 0.500000
O O12 0.106083 0.958384 0.220266
O O13 0.999161 0.950782 0.171759
O O14 0.711070 0.312754 0.241282
O O15 0.742151 0.060724 0.349242
O O16 0.786348 0.323309 0.411840
#
# Coordination Sequence:
#
# PCOD9125041 Si02
#       8
#     4   4   4   4   2   4   4   4
#     4  10  23  42  59  95 132 175 208 270 346 389
#     4   9  21  40  64  94 122 177 220 270 326 394
#     4  10  21  39  65  93 126 171 227 265 325 413
#     4  11  24  42  64 101 136 173 216 282 352 400
#     4  10  24  42  68  92 136 170 230 278 322 418
#     4  10  23  43  62  93 129 170 224 269 326 401
#     4   9  21  39  66  90 125 174 218 270 328 394
#     4  10  23  39  67  99 124 173 222 278 328 389
#
# _framework density 21.319865
#
# number of rings (size 3 to 8) (size 9 to 14) (size 15 to 20)
#    0.000    2.133    0.000    0.800    9.333    9.067 
#    7.200    0.000    0.000    0.000    0.000    0.000 
#    0.000    0.000    0.000    0.000    0.000    0.000 
#
# Total GULP energy -83718.239043 kJ/mol
# GULP energy per Si atom -5581.215936 kJ/mol
# Density = 2.127134 g / cm^3
# Si number density = 21.319865 Si / 1000 Ang^3
#
#
#
# Elastic Constant Matrix: (Units=GPa)
#
#
# Indices 1 2 3 4 5 6 
#
# 1 86.6688 19.2314 25.3291 0.0000 20.4204 0.0000
# 2 19.2314 72.1999 34.8204 0.0000 -0.0440 0.0000
# 3 25.3291 34.8204 98.9660 0.0000 8.0658 0.0000
# 4 0.0000 0.0000 0.0000 26.6042 0.0000 0.7842
# 5 20.4204 -0.0440 8.0658 0.0000 21.6443 0.0000
# 6 0.0000 0.0000 0.0000 0.7842 0.0000 8.1559
#
#
#
# Elastic Compliance Matrix: (Units=1/GPa)
#
#
# Indices 1 2 3 4 5 6 
#
# 1 0.016297 -0.003514 -0.001734 0.000000 -0.014736 0.000000
# 2 -0.003514 0.017549 -0.005722 0.000000 0.005483 0.000000
# 3 -0.001734 -0.005722 0.012818 0.000000 -0.003153 0.000000
# 4 0.000000 0.000000 0.000000 0.037695 0.000000 -0.003624
# 5 -0.014736 0.005483 -0.003153 0.000000 0.061290 0.000000
# 6 0.000000 0.000000 0.000000 -0.003624 0.000000 0.122960
#
#
# Mechanical properties :
#
#
# Convention : Reuss Voigt Hill
#
# Bulk Modulus (GPa) = 40.44433 46.28849 43.36641
# Shear Modulus (GPa) = 16.73416 23.17780 19.95598
#
# Velocity S-wave (km/s) = 2.80466 3.30077 3.06278
# Velocity P-wave (km/s) = 5.43135 6.02373 5.73520
#
# Compressibility (1/GPa) = 0.02472535
#
# Stress axis : x y z
#
# Youngs Moduli (GPa) = 61.36259 56.98199 78.01255
#
# Poissons Ratio (x) = 0.20022 0.13524
# Poissons Ratio (y) = 0.21561 0.44640
# Poissons Ratio (z) = 0.10638 0.32606
#
# Static dielectric constant tensor:
#      x y z
#    x 1.737120 0.000000 0.004780 
#    y 0.000000 1.769320 0.000000 
#    z 0.004780 0.000000 1.808650 
# 
# From -- ./inp_files/30675.got.cif
#   From: 2010.05.17/outbox.cif.g08.bks.cpg/sg5_16_cif.got.tgz:30675.got - 2010.06.03 18:56:24.
