data_PCOD9125491
_publ_section_title
;
Structure prediction by ZEFSAII (Michael W. Deem and Ramdas Pophale) SiO2 
 PCOD9125491
Probable space group: C 2
;
_chemical_formula_sum "Si O2"
_cell_formula_units_Z 26
_cell_length_a 13.623840
_cell_length_b 12.334930
_cell_length_c 7.489027
_cell_angle_alpha 90.000000
_cell_angle_beta 58.588853
_cell_angle_gamma 90.000000
_cell_volume 1074.086867
_symmetry_space_group_name_H-M "C 2"
_symmetry_group_IT_number 5
_symmetry_cell_setting 'monoclinic'
loop_
_space_group_symop_operation_xyz
x,y,z
-x,y,-z
1/2+x,1/2+y,z
1/2-x,1/2+y,-z
loop_
_atom_site_type_symbol
_atom_site_label
_atom_site_fract_x
_atom_site_fract_y
_atom_site_fract_z
Si Si1 0.276532 0.454090 0.610212
Si Si2 0.000000 0.591289 0.500000
Si Si3 0.764511 0.534461 0.755189
Si Si4 0.177654 0.817851 0.938896
Si Si5 0.447219 0.281648 0.318692
Si Si6 0.364789 0.683570 0.605432
Si Si7 0.632055 0.752129 0.811623
O O1 0.236469 0.488387 0.447982
O O2 0.391942 0.383617 0.469974
O O3 0.303069 0.567370 0.678177
O O4 0.188884 0.370313 0.785620
O O5 0.102953 0.529133 0.307329
O O6 0.071376 0.669080 0.564104
O O7 0.689982 0.446379 0.930508
O O8 0.702586 0.650477 0.825627
O O9 0.114466 0.782883 0.813942
O O10 0.301640 0.763085 0.804020
O O11 0.084729 0.785937 0.172664
O O12 0.500000 0.670594 0.500000
O O13 0.354038 0.731623 0.415158
O O14 0.500000 0.748254 0.000000
#
# Coordination Sequence:
#
# PCOD9125491 Si02
#       7
#     4   2   4   4   4   4   4
#     4  10  21  45  62  91 126 173 203 257 320 379
#     4  12  22  40  64  98 128 156 210 276 302 360
#     4  10  22  38  67  92 127 167 208 257 315 378
#     4  10  22  44  64  91 124 177 209 243 321 390
#     4  10  21  41  69  87 121 167 215 251 306 378
#     4  11  24  42  63  93 132 163 207 264 313 371
#     4  11  23  43  69  92 125 167 216 256 317 378
#
# _framework density 24.206607999999999
#
# number of rings (size 3 to 8) (size 9 to 14) (size 15 to 20)
#    0.000    1.538    4.615    0.923    8.615    1.231 
#    5.538    0.000    0.000    0.000    0.000    0.000 
#    0.000    0.000    0.000    0.000    0.000    0.000 
#
# Total GULP energy -72738.127712 kJ/mol
# GULP energy per Si atom -5595.240593 kJ/mol
# Density = 2.415151 g / cm^3
# Si number density = 24.206608 Si / 1000 Ang^3
#
#
#
# Elastic Constant Matrix: (Units=GPa)
#
#
# Indices 1 2 3 4 5 6 
#
# 1 85.6930 41.3875 27.2422 0.0000 -25.8551 0.0000
# 2 41.3875 120.5699 41.6471 0.0000 -24.0475 0.0000
# 3 27.2422 41.6471 100.4592 0.0000 -37.1301 0.0000
# 4 0.0000 0.0000 0.0000 27.5001 0.0000 -14.8685
# 5 -25.8551 -24.0475 -37.1301 0.0000 59.8335 0.0000
# 6 0.0000 0.0000 0.0000 -14.8685 0.0000 34.8972
#
#
#
# Elastic Compliance Matrix: (Units=1/GPa)
#
#
# Indices 1 2 3 4 5 6 
#
# 1 0.015230 -0.004064 -0.000800 0.000000 0.004451 0.000000
# 2 -0.004064 0.010919 -0.003181 0.000000 0.000658 0.000000
# 3 -0.000800 -0.003181 0.014131 0.000000 0.007145 0.000000
# 4 0.000000 0.000000 0.000000 0.047247 0.000000 0.020130
# 5 0.004451 0.000658 0.007145 0.000000 0.023335 0.000000
# 6 0.000000 0.000000 0.000000 0.020130 0.000000 0.037233
#
#
# Mechanical properties :
#
#
# Convention : Reuss Voigt Hill
#
# Bulk Modulus (GPa) = 41.34071 58.58619 49.96345
# Shear Modulus (GPa) = 29.02801 37.54252 33.28526
#
# Velocity S-wave (km/s) = 3.46667 3.94244 3.71219
# Velocity P-wave (km/s) = 5.75666 6.70663 6.24972
#
# Compressibility (1/GPa) = 0.02418923
#
# Stress axis : x y z
#
# Youngs Moduli (GPa) = 65.66178 91.58301 70.76710
#
# Poissons Ratio (x) = 0.37216 0.05662
# Poissons Ratio (y) = 0.26683 0.22514
# Poissons Ratio (z) = 0.05253 0.29137
#
# Static dielectric constant tensor:
#      x y z
#    x 1.991000 0.000000 0.059550 
#    y 0.000000 1.865550 0.000000 
#    z 0.059550 0.000000 1.944990 
# 
# From -- ./inp_files/23547.got.cif
#   From: 2010.05.17/outbox.cif.g08.bks.cpg/sg5_12_cif.got.tgz:23547.got - 2010.06.03 18:56:24.
