data_PCOD9125031
_publ_section_title
;
Structure prediction by ZEFSAII (Michael W. Deem and Ramdas Pophale) SiO2 
 PCOD9125031
Probable space group: C 2
;
_chemical_formula_sum "Si O2"
_cell_formula_units_Z 32
_cell_length_a 14.044073
_cell_length_b 5.577562
_cell_length_c 18.113923
_cell_angle_alpha 90.000000
_cell_angle_beta 61.968505
_cell_angle_gamma 90.000000
_cell_volume 1252.442830
_symmetry_space_group_name_H-M "C 2"
_symmetry_group_IT_number 5
_symmetry_cell_setting 'monoclinic'
loop_
_space_group_symop_operation_xyz
x,y,z
-x,y,-z
1/2+x,1/2+y,z
1/2-x,1/2+y,-z
loop_
_atom_site_type_symbol
_atom_site_label
_atom_site_fract_x
_atom_site_fract_y
_atom_site_fract_z
Si Si1 0.476130 0.346140 0.316043
Si Si2 0.920413 0.911061 0.883573
Si Si3 0.409398 0.911129 0.864538
Si Si4 0.491527 0.724059 0.427285
Si Si5 0.187315 0.569228 0.537254
Si Si6 0.596754 0.943369 0.907199
Si Si7 0.849143 0.496804 0.716046
Si Si8 0.353427 0.447619 0.134811
O O1 0.516067 0.396942 0.218738
O O2 0.447163 0.579914 0.373362
O O3 0.584600 0.241796 0.316215
O O4 0.377337 0.159879 0.364960
O O5 0.018409 0.927033 0.904606
O O6 0.863492 0.658557 0.912577
O O7 0.862614 0.162306 0.909139
O O8 0.533854 0.918378 0.850267
O O9 0.390860 0.919786 0.783395
O O10 0.500000 0.581422 0.500000
O O11 0.412789 0.950256 0.470580
O O12 0.607173 0.815261 0.359383
O O13 0.236657 0.824751 0.487920
O O14 0.660800 0.700098 0.900428
O O15 0.670579 0.177922 0.881388
O O16 0.500000 0.962090 0.000000
O O17 0.721194 0.495002 0.766849
#
# Coordination Sequence:
#
# PCOD9125031 Si02
#       8
#     4   4   4   4   4   4   4   4
#     4  10  21  39  65  84 120 161 207 261 322 375
#     4   9  18  35  57  85 108 157 201 239 288 359
#     4   9  18  35  61  83 120 161 196 237 299 367
#     4  11  24  42  63  91 130 169 210 274 338 375
#     4  11  23  43  62  84 114 158 211 265 321 384
#     4  10  21  40  63  93 127 162 201 249 304 362
#     4  10  22  39  60  92 124 163 210 254 313 377
#     4  10  22  37  62  94 123 159 206 251 295 369
#
# _framework density 25.550066999999999
#
# number of rings (size 3 to 8) (size 9 to 14) (size 15 to 20)
#    0.000    2.000    2.500    0.375    1.750    3.000 
#    0.000    1.250    0.000    0.000    0.000    0.000 
#    0.000    0.000    0.000    0.000    0.000    0.000 
#
# Total GULP energy -89094.958449 kJ/mol
# GULP energy per Si atom -5568.434903 kJ/mol
# Density = 2.549191 g / cm^3
# Si number density = 25.550067 Si / 1000 Ang^3
#
#
#
# Elastic Constant Matrix: (Units=GPa)
#
#
# Indices 1 2 3 4 5 6 
#
# 1 71.5301 4.6524 1.8105 -0.0010 -4.0354 0.0004
# 2 4.6524 234.5089 29.4114 -0.0018 -16.8635 0.0009
# 3 1.8105 29.4114 92.5813 -0.0009 -6.1432 0.0002
# 4 -0.0010 -0.0018 -0.0009 9.4124 0.0007 -0.8121
# 5 -4.0354 -16.8635 -6.1432 0.0007 40.5099 -0.0003
# 6 0.0004 0.0009 0.0002 -0.8121 -0.0003 -3.4438
#
#
#
# Elastic Compliance Matrix: (Units=1/GPa)
#
#
# Indices 1 2 3 4 5 6 
#
# 1 0.014068 -0.000168 -0.000135 0.000001 0.001311 0.000001
# 2 -0.000168 0.004555 -0.001333 0.000001 0.001677 0.000001
# 3 -0.000135 -0.001333 0.011303 0.000001 0.001146 0.000000
# 4 0.000001 0.000001 0.000001 0.104125 -0.000001 -0.024553
# 5 0.001311 0.001677 0.001146 -0.000001 0.025688 -0.000001
# 6 0.000001 0.000001 0.000000 -0.024553 -0.000001 -0.284588
#
#
# Mechanical properties :
#
#
# Convention : Reuss Voigt Hill
#
# Bulk Modulus (GPa) = 37.51419 52.26321 44.88870
# Shear Modulus (GPa) = -44.36858 33.47876 -5.44491
#
# Velocity S-wave (km/s) = -4.17170 3.62376 -1.46140
# Velocity P-wave (km/s) = 2.91369 6.16510 3.84180
#
# Compressibility (1/GPa) = 0.02665658
#
# Stress axis : x y z
#
# Youngs Moduli (GPa) = 71.08118 219.52379 88.46955
#
# Poissons Ratio (x) = 0.03686 0.01192
# Poissons Ratio (y) = 0.01194 0.11789
# Poissons Ratio (z) = 0.00958 0.29253
#
# Static dielectric constant tensor:
#      x y z
#    x 2.077280 0.000000 -0.004850 
#    y 0.000000 2.133110 0.000000 
#    z -0.004850 0.000000 1.997620 
# 
# From -- ./inp_files/66466.got.cif
#   From: 2010.05.17/outbox.cif.g08.bks.cpg/sg5_34_cif.got.tgz:66466.got - 2010.06.03 18:56:24.
