data_PCOD9125433
_publ_section_title
;
Structure prediction by ZEFSAII (Michael W. Deem and Ramdas Pophale) SiO2 
 PCOD9125433
Probable space group: C 2
;
_chemical_formula_sum "Si O2"
_cell_formula_units_Z 18
_cell_length_a 5.469569
_cell_length_b 22.315303
_cell_length_c 7.226579
_cell_angle_alpha 90.000000
_cell_angle_beta 110.670767
_cell_angle_gamma 90.000000
_cell_volume 825.258718
_symmetry_space_group_name_H-M "C 2"
_symmetry_group_IT_number 5
_symmetry_cell_setting 'monoclinic'
loop_
_space_group_symop_operation_xyz
x,y,z
-x,y,-z
1/2+x,1/2+y,z
1/2-x,1/2+y,-z
loop_
_atom_site_type_symbol
_atom_site_label
_atom_site_fract_x
_atom_site_fract_y
_atom_site_fract_z
Si Si1 0.500000 0.934180 0.000000
Si Si2 0.725100 0.527525 0.702357
Si Si3 0.310169 0.277431 0.614934
Si Si4 0.000000 0.858863 0.000000
Si Si5 0.508053 0.147684 0.777998
Si Si6 0.500000 0.589721 0.000000
O O1 0.240150 0.896961 0.980008
O O2 0.428335 0.975313 0.802945
O O3 0.500000 0.509623 0.500000
O O4 0.858280 0.588805 0.668748
O O5 0.625040 0.546852 0.879731
O O6 0.500000 0.298535 0.500000
O O7 0.381146 0.316530 0.810964
O O8 0.391548 0.208329 0.671045
O O9 0.000000 0.281234 0.500000
O O10 0.812023 0.133209 0.831454
O O11 0.500000 0.149747 0.000000
#
# Coordination Sequence:
#
# PCOD9125433 Si02
#       6
#     2   4   4   2   4   2
#     4  12  26  50  76 103 143 198 252 292 360 414
#     4  11  24  43  69 106 145 184 233 295 360 435
#     4  12  28  48  77 109 143 190 245 298 368 429
#     4  12  29  53  74  99 148 195 250 314 336 420
#     4  10  22  41  71 106 147 185 226 293 372 437
#     4  10  21  41  66 104 153 187 224 276 366 440
#
# _framework density 21.811343000000001
#
# number of rings (size 3 to 8) (size 9 to 14) (size 15 to 20)
#    0.000    0.889    4.444    2.667    9.333    3.556 
#    0.000    2.222    0.000    0.000    0.000    0.000 
#    0.000    0.000    0.000    0.000    0.000    0.000 
#
# Total GULP energy -50311.793976 kJ/mol
# GULP energy per Si atom -5590.199331 kJ/mol
# Density = 2.176170 g / cm^3
# Si number density = 21.811343 Si / 1000 Ang^3
#
#
#
# Elastic Constant Matrix: (Units=GPa)
#
#
# Indices 1 2 3 4 5 6 
#
# 1 99.9355 37.1887 45.9571 0.0000 23.3373 0.0000
# 2 37.1887 119.1498 65.2955 0.0000 23.7551 0.0000
# 3 45.9571 65.2955 164.7967 0.0000 33.8601 0.0000
# 4 0.0000 0.0000 0.0000 -56.1315 0.0000 30.3798
# 5 23.3373 23.7551 33.8601 0.0000 45.8998 0.0000
# 6 0.0000 0.0000 0.0000 30.3798 0.0000 1.9095
#
#
#
# Elastic Compliance Matrix: (Units=1/GPa)
#
#
# Indices 1 2 3 4 5 6 
#
# 1 0.012566 -0.002122 -0.001858 0.000000 -0.003920 0.000000
# 2 -0.002122 0.011404 -0.003460 0.000000 -0.002270 0.000000
# 3 -0.001858 -0.003460 0.008716 0.000000 -0.003695 0.000000
# 4 0.000000 0.000000 0.000000 -0.001854 0.000000 0.029492
# 5 -0.003920 -0.002270 -0.003695 0.000000 0.027680 0.000000
# 6 0.000000 0.000000 0.000000 0.029492 0.000000 0.054491
#
#
# Mechanical properties :
#
#
# Convention : Reuss Voigt Hill
#
# Bulk Modulus (GPa) = 56.16225 75.64051 65.90138
# Shear Modulus (GPa) = 37.36364 14.03160 25.69762
#
# Velocity S-wave (km/s) = 4.14338 2.53912 3.43618
# Velocity P-wave (km/s) = 6.97819 6.58414 6.78402
#
# Compressibility (1/GPa) = 0.01780555
#
# Stress axis : x y z
#
# Youngs Moduli (GPa) = 79.57926 87.68785 114.72762
#
# Poissons Ratio (x) = 0.18610 0.21316
# Poissons Ratio (y) = 0.16889 0.39697
# Poissons Ratio (z) = 0.14786 0.30341
#
# Static dielectric constant tensor:
#      x y z
#    x 1.982850 0.000000 -0.008590 
#    y 0.000000 1.781590 0.000000 
#    z -0.008590 0.000000 1.793630 
# 
# From -- ./inp_files/12026.got.cif
#   From: 2010.05.17/outbox.cif.g08.bks.cpg/sg5_7_cif.got.tgz:12026.got - 2010.06.03 18:56:24.
