data_PCOD9125531
_publ_section_title
;
Structure prediction by ZEFSAII (Michael W. Deem and Ramdas Pophale) SiO2 
 PCOD9125531
Probable space group: C 2
;
_chemical_formula_sum "Si O2"
_cell_formula_units_Z 22
_cell_length_a 16.979168
_cell_length_b 5.237411
_cell_length_c 10.604969
_cell_angle_alpha 90.000000
_cell_angle_beta 68.287881
_cell_angle_gamma 90.000000
_cell_volume 876.160324
_symmetry_space_group_name_H-M "C 2"
_symmetry_group_IT_number 5
_symmetry_cell_setting 'monoclinic'
loop_
_space_group_symop_operation_xyz
x,y,z
-x,y,-z
1/2+x,1/2+y,z
1/2-x,1/2+y,-z
loop_
_atom_site_type_symbol
_atom_site_label
_atom_site_fract_x
_atom_site_fract_y
_atom_site_fract_z
Si Si1 0.000000 0.923170 0.500000
Si Si2 0.796131 0.300164 0.209888
Si Si3 0.106072 0.138929 0.642558
Si Si4 0.456210 0.805534 0.884496
Si Si5 0.095838 0.809376 0.879449
Si Si6 0.609858 0.289920 0.208561
O O1 0.952714 0.766785 0.635453
O O2 0.924918 0.090176 0.479177
O O3 0.804368 0.239286 0.356064
O O4 0.703624 0.302440 0.208755
O O5 0.847890 0.061414 0.117637
O O6 0.843888 0.563712 0.151564
O O7 0.039353 0.328660 0.747021
O O8 0.087940 0.882349 0.735632
O O9 0.412994 0.553842 0.849050
O O10 0.500000 0.796154 0.000000
O O11 0.099006 0.550737 0.121503
O O12 0.000000 0.796564 0.000000
#
# Coordination Sequence:
#
# PCOD9125531 Si02
#       6
#     2   4   4   4   4   4
#     4  10  24  50  72 110 148 208 258 316 366 476
#     4  10  23  44  71 116 147 197 252 324 380 441
#     4   9  24  44  72 110 138 206 250 305 379 442
#     4  11  24  45  77 107 149 204 253 314 385 477
#     4  10  21  41  75 110 148 201 251 304 395 459
#     4  11  25  48  74 116 152 198 265 315 387 446
#
# _framework density 25.109560999999999
#
# number of rings (size 3 to 8) (size 9 to 14) (size 15 to 20)
#    1.091    0.727    0.000    2.727    5.091    2.909 
#    3.273    1.818    0.000    0.000    0.000    0.000 
#    0.000    0.000    0.000    0.000    0.000    0.000 
#
# Total GULP energy -61263.500677 kJ/mol
# GULP energy per Si atom -5569.409152 kJ/mol
# Density = 2.505241 g / cm^3
# Si number density = 25.109561 Si / 1000 Ang^3
#
#
#
# Elastic Constant Matrix: (Units=GPa)
#
#
# Indices 1 2 3 4 5 6 
#
# 1 260.8926 109.5687 46.8754 0.0000 35.6143 0.0000
# 2 109.5687 228.4345 27.6908 0.0000 7.7810 0.0000
# 3 46.8754 27.6908 103.6200 0.0000 33.7111 0.0000
# 4 0.0000 0.0000 0.0000 -39.8695 0.0000 -20.5174
# 5 35.6143 7.7810 33.7111 0.0000 43.2298 0.0000
# 6 0.0000 0.0000 0.0000 -20.5174 0.0000 28.2290
#
#
#
# Elastic Compliance Matrix: (Units=1/GPa)
#
#
# Indices 1 2 3 4 5 6 
#
# 1 0.005449 -0.002412 -0.000672 0.000000 -0.003531 0.000000
# 2 -0.002412 0.005593 -0.000968 0.000000 0.001735 0.000000
# 3 -0.000672 -0.000968 0.013368 0.000000 -0.009697 0.000000
# 4 0.000000 0.000000 0.000000 -0.018254 0.000000 -0.013268
# 5 -0.003531 0.001735 -0.009697 0.000000 0.033291 0.000000
# 6 0.000000 0.000000 0.000000 -0.013268 0.000000 0.025782
#
#
# Mechanical properties :
#
#
# Convention : Reuss Voigt Hill
#
# Bulk Modulus (GPa) = 61.32553 106.80190 84.06371
# Shear Modulus (GPa) = 63.47991 33.57199 48.52595
#
# Velocity S-wave (km/s) = 5.03349 3.66050 4.40087
# Velocity P-wave (km/s) = 7.63267 7.77768 7.70552
#
# Compressibility (1/GPa) = 0.01630642
#
# Stress axis : x y z
#
# Youngs Moduli (GPa) = 183.53606 178.80639 74.80609
#
# Poissons Ratio (x) = 0.43123 0.05024
# Poissons Ratio (y) = 0.44264 0.07241
# Poissons Ratio (z) = 0.12326 0.17309
#
# Static dielectric constant tensor:
#      x y z
#    x 2.100440 0.000000 -0.136430 
#    y 0.000000 2.206230 0.000000 
#    z -0.136430 0.000000 2.478160 
# 
# From -- ./inp_files/43861.got.cif
#   From: 2010.05.17/outbox.cif.g08.bks.cpg/sg5_22_cif.got.tgz:43861.got - 2010.06.03 18:56:24.
