data_PCOD9125483
_publ_section_title
;
Structure prediction by ZEFSAII (Michael W. Deem and Ramdas Pophale) SiO2 
 PCOD9125483
Probable space group: C 2
;
_chemical_formula_sum "Si O2"
_cell_formula_units_Z 24
_cell_length_a 19.937643
_cell_length_b 11.460744
_cell_length_c 14.385367
_cell_angle_alpha 90.000000
_cell_angle_beta 160.326835
_cell_angle_gamma 90.000000
_cell_volume 1106.602653
_symmetry_space_group_name_H-M "C 2"
_symmetry_group_IT_number 5
_symmetry_cell_setting 'monoclinic'
loop_
_space_group_symop_operation_xyz
x,y,z
-x,y,-z
1/2+x,1/2+y,z
1/2-x,1/2+y,-z
loop_
_atom_site_type_symbol
_atom_site_label
_atom_site_fract_x
_atom_site_fract_y
_atom_site_fract_z
Si Si1 0.989011 0.963180 0.742831
Si Si2 0.903225 0.772944 0.967445
Si Si3 0.567872 0.020543 0.238197
Si Si4 0.799558 0.590143 0.042020
Si Si5 0.927419 0.784621 0.511186
Si Si6 0.500000 0.698061 0.500000
Si Si7 0.500000 0.818344 0.000000
O O1 0.805871 0.035357 0.545719
O O2 0.934860 0.910882 0.570609
O O3 0.021645 0.853500 0.851672
O O4 0.189711 0.032790 0.985760
O O5 0.664699 0.770850 0.658831
O O6 0.000000 0.817712 0.000000
O O7 0.975598 0.639169 0.075549
O O8 0.529797 0.906216 0.126316
O O9 0.456681 0.009480 0.191608
O O10 0.921798 0.700371 0.238308
O O11 0.630633 0.627961 0.746459
O O12 0.698936 0.747384 0.233443
O O13 0.000000 0.791568 0.500000
#
# Coordination Sequence:
#
# PCOD9125483 Si02
#       7
#     4   4   4   4   4   2   2
#     4  11  24  43  68  99 131 175 221 269 336 386
#     4  11  22  43  66  98 132 172 219 276 329 390
#     4  10  21  41  68  97 126 168 227 279 318 379
#     4  11  24  43  67  99 134 172 221 271 330 392
#     4  11  24  45  67  99 135 174 220 271 328 395
#     4  10  22  42  72  94 128 168 224 284 314 376
#     4  10  22  40  72  96 128 172 226 274 324 378
#
# _framework density 21.688001
#
# number of rings (size 3 to 8) (size 9 to 14) (size 15 to 20)
#    0.000    1.333    4.167    2.000    8.167    2.667 
#   13.500    0.000    0.000    0.000    0.000    0.000 
#    0.000    0.000    0.000    0.000    0.000    0.000 
#
# Total GULP energy -67006.540525 kJ/mol
# GULP energy per Si atom -5583.878377 kJ/mol
# Density = 2.163864 g / cm^3
# Si number density = 21.688001 Si / 1000 Ang^3
#
#
#
# Elastic Constant Matrix: (Units=GPa)
#
#
# Indices 1 2 3 4 5 6 
#
# 1 147.1596 19.3210 81.9358 0.0000 31.7401 0.0000
# 2 19.3210 9.5590 41.0795 0.0001 3.6850 0.0000
# 3 81.9358 41.0795 99.9893 -0.0001 39.4199 0.0000
# 4 0.0000 0.0001 -0.0001 -14.3590 0.0000 -3.7764
# 5 31.7401 3.6850 39.4199 0.0000 43.8137 0.0000
# 6 0.0000 0.0000 0.0000 -3.7764 0.0000 6.4889
#
#
#
# Elastic Compliance Matrix: (Units=1/GPa)
#
#
# Indices 1 2 3 4 5 6 
#
# 1 0.010355 -0.011755 -0.001687 0.000000 -0.004995 0.000000
# 2 -0.011755 -0.064457 0.047450 0.000000 -0.028755 0.000000
# 3 -0.001687 0.047450 -0.010877 0.000000 0.007018 0.000000
# 4 0.000000 0.000000 0.000000 -0.060398 0.000000 -0.035151
# 5 -0.004995 -0.028755 0.007018 0.000000 0.022547 0.000000
# 6 0.000000 0.000000 0.000000 -0.035151 0.000000 0.133653
#
#
# Mechanical properties :
#
#
# Convention : Reuss Voigt Hill
#
# Bulk Modulus (GPa) = 329.20706 60.15340 194.68023
# Shear Modulus (GPa) = -138.19586 14.81350 -61.69118
#
# Velocity S-wave (km/s) = -7.99114 2.61631 -5.33916
# Velocity P-wave (km/s) = 8.18397 6.07641 7.20764
#
# Compressibility (1/GPa) = 0.00303760
#
# Stress axis : x y z
#
# Youngs Moduli (GPa) = 96.56800 -15.51432 -91.93402
#
# Poissons Ratio (x) = -0.18236 -0.15511
# Poissons Ratio (y) = 1.13511 4.36225
# Poissons Ratio (z) = 0.16293 0.73615
#
# Static dielectric constant tensor:
#      x y z
#    x 1.838770 0.000000 0.009950 
#    y 0.000000 1.771840 0.000000 
#    z 0.009950 0.000000 1.851960 
# 
# From -- ./inp_files/57035.got.cif
#   From: 2010.05.17/outbox.cif.g08.bks.cpg/sg5_29_cif.got.tgz:57035.got - 2010.06.03 18:56:24.
