data_PCOD9125363
_publ_section_title
;
Structure prediction by ZEFSAII (Michael W. Deem and Ramdas Pophale) SiO2 
 PCOD9125363
Probable space group: C 2
;
_chemical_formula_sum "Si O2"
_cell_formula_units_Z 28
_cell_length_a 17.768263
_cell_length_b 7.243761
_cell_length_c 22.137225
_cell_angle_alpha 90.000000
_cell_angle_beta 26.066600
_cell_angle_gamma 90.000000
_cell_volume 1252.009822
_symmetry_space_group_name_H-M "C 2"
_symmetry_group_IT_number 5
_symmetry_cell_setting 'monoclinic'
loop_
_space_group_symop_operation_xyz
x,y,z
-x,y,-z
1/2+x,1/2+y,z
1/2-x,1/2+y,-z
loop_
_atom_site_type_symbol
_atom_site_label
_atom_site_fract_x
_atom_site_fract_y
_atom_site_fract_z
Si Si1 0.282404 0.608520 0.548120
Si Si2 0.012727 0.448454 0.651593
Si Si3 0.698663 0.763688 0.337116
Si Si4 0.831982 0.110826 0.077487
Si Si5 0.109556 0.145817 0.795433
Si Si6 0.604891 0.238196 0.486883
Si Si7 0.818658 0.463592 0.158768
O O1 0.120580 0.549578 0.625603
O O2 0.393065 0.759022 0.432361
O O3 0.225523 0.678634 0.655446
O O4 0.399219 0.429458 0.475478
O O5 0.032056 0.573157 0.578002
O O6 0.813154 0.457998 0.811482
O O7 0.500000 0.780785 0.500000
O O8 0.726246 0.632942 0.259170
O O9 0.788359 0.959252 0.261602
O O10 0.911639 0.114321 0.952981
O O11 0.758513 0.313053 0.151060
O O12 0.000000 0.079547 0.000000
O O13 0.500000 0.254589 0.500000
O O14 0.194599 0.197308 0.670726
O O15 0.153386 0.320534 0.805998
O O16 0.000000 0.530420 0.000000
#
# Coordination Sequence:
#
# PCOD9125363 Si02
#       7
#     4   4   4   4   4   4   4
#     4  12  27  42  72 105 142 191 241 293 376 418
#     4  12  26  48  69 106 147 191 232 305 366 432
#     4  12  25  37  69 105 136 184 246 294 348 427
#     4   9  22  43  70  96 142 186 228 296 363 417
#     4  10  21  41  62  98 139 174 227 299 351 407
#     4  12  23  43  74 104 143 183 247 303 347 430
#     4   9  21  40  61  96 134 181 225 298 347 408
#
# _framework density 22.364042000000001
#
# number of rings (size 3 to 8) (size 9 to 14) (size 15 to 20)
#    0.000    1.429    4.286    2.571    6.000    3.429 
#    0.000    1.429    0.000    0.000    0.000    0.000 
#    0.000    0.000    0.000    0.000    0.000    0.000 
#
# Total GULP energy -78167.622897 kJ/mol
# GULP energy per Si atom -5583.401635 kJ/mol
# Density = 2.231314 g / cm^3
# Si number density = 22.364042 Si / 1000 Ang^3
#
#
#
# Elastic Constant Matrix: (Units=GPa)
#
#
# Indices 1 2 3 4 5 6 
#
# 1 93.5094 22.0950 17.0489 -0.0003 -10.3590 0.0000
# 2 22.0950 125.3885 56.6128 -0.0003 -3.6260 0.0000
# 3 17.0489 56.6128 163.8942 -0.0017 17.9881 -0.0001
# 4 -0.0003 -0.0003 -0.0017 26.2284 0.0000 3.4511
# 5 -10.3590 -3.6260 17.9881 0.0000 21.6249 0.0001
# 6 0.0000 0.0000 -0.0001 3.4511 0.0001 28.5741
#
#
#
# Elastic Compliance Matrix: (Units=1/GPa)
#
#
# Indices 1 2 3 4 5 6 
#
# 1 0.012031 -0.001202 -0.001592 0.000000 0.006886 0.000000
# 2 -0.001202 0.010030 -0.003809 0.000000 0.004274 0.000000
# 3 -0.001592 -0.003809 0.008514 0.000000 -0.008483 0.000000
# 4 0.000000 0.000000 0.000000 0.038742 0.000000 -0.004679
# 5 0.006886 0.004274 -0.008483 0.000000 0.057315 0.000000
# 6 0.000000 0.000000 0.000000 -0.004679 0.000000 0.035562
#
#
# Mechanical properties :
#
#
# Convention : Reuss Voigt Hill
#
# Bulk Modulus (GPa) = 57.57218 63.81172 60.69195
# Shear Modulus (GPa) = 27.59525 34.42115 31.00820
#
# Velocity S-wave (km/s) = 3.51652 3.92743 3.72764
# Velocity P-wave (km/s) = 6.50284 7.01152 6.76196
#
# Compressibility (1/GPa) = 0.01736950
#
# Stress axis : x y z
#
# Youngs Moduli (GPa) = 83.11662 99.69789 117.45586
#
# Poissons Ratio (x) = 0.11985 0.18700
# Poissons Ratio (y) = 0.09991 0.44736
# Poissons Ratio (z) = 0.13233 0.37973
#
# Static dielectric constant tensor:
#      x y z
#    x 1.875910 0.000000 -0.001340 
#    y 0.000000 1.870310 0.000000 
#    z -0.001340 0.000000 1.911670 
# 
# From -- ./inp_files/69429.got.cif
#   From: 2010.05.17/outbox.cif.g08.bks.cpg/sg5_35_cif.got.tgz:69429.got - 2010.06.03 18:56:24.
