data_PCOD9125201
_publ_section_title
;
Structure prediction by ZEFSAII (Michael W. Deem and Ramdas Pophale) SiO2 
 PCOD9125201
Probable space group: C 2
;
_chemical_formula_sum "Si O2"
_cell_formula_units_Z 32
_cell_length_a 14.771557
_cell_length_b 13.025048
_cell_length_c 7.384053
_cell_angle_alpha 90.000000
_cell_angle_beta 101.280263
_cell_angle_gamma 90.000000
_cell_volume 1393.248744
_symmetry_space_group_name_H-M "C 2"
_symmetry_group_IT_number 5
_symmetry_cell_setting 'monoclinic'
loop_
_space_group_symop_operation_xyz
x,y,z
-x,y,-z
1/2+x,1/2+y,z
1/2-x,1/2+y,-z
loop_
_atom_site_type_symbol
_atom_site_label
_atom_site_fract_x
_atom_site_fract_y
_atom_site_fract_z
Si Si1 0.383503 0.596040 0.640784
Si Si2 0.748986 0.780386 0.287270
Si Si3 0.069667 0.349249 0.685493
Si Si4 0.457451 0.070389 0.180781
Si Si5 0.373188 0.167588 0.611708
Si Si6 0.719645 0.954881 0.526080
Si Si7 0.584899 0.629122 0.778206
Si Si8 0.278270 0.160582 0.967150
O O1 0.330817 0.697161 0.693988
O O2 0.317066 0.498042 0.631380
O O3 0.483990 0.582387 0.768901
O O4 0.395468 0.613898 0.429047
O O5 0.834133 0.748538 0.452887
O O6 0.724383 0.894619 0.337886
O O7 0.768538 0.762847 0.084487
O O8 0.031108 0.455330 0.745366
O O9 0.168727 0.376823 0.640144
O O10 0.075271 0.251031 0.813778
O O11 0.000000 0.317165 0.500000
O O12 0.517917 0.154200 0.311580
O O13 0.500000 0.073634 0.000000
O O14 0.350578 0.095507 0.113566
O O15 0.320551 0.180060 0.784474
O O16 0.342172 0.055911 0.525749
O O17 0.680537 0.602099 0.912337
#
# Coordination Sequence:
#
# PCOD9125201 Si02
#       8
#     4   4   4   4   4   4   4   4
#     4  10  21  40  64  89 127 173 209 267 332 381
#     4  11  22  39  65  96 121 174 219 260 326 395
#     4  12  20  37  69  96 121 171 225 272 322 398
#     4  10  23  38  62  97 127 165 212 278 337 379
#     4  10  21  42  63  91 136 164 208 276 332 377
#     4  11  20  37  68  95 126 169 227 262 325 395
#     4  11  21  42  62  86 133 173 210 269 337 376
#     4  11  23  39  62  93 127 169 211 270 323 395
#
# _framework density 22.9679
#
# number of rings (size 3 to 8) (size 9 to 14) (size 15 to 20)
#    0.000    1.250    6.250    1.500    0.000    2.500 
#    0.000    5.000    0.000    0.000    0.000    0.000 
#    0.000    0.000    0.000    0.000    0.000    0.000 
#
# Total GULP energy -89443.762200 kJ/mol
# GULP energy per Si atom -5590.235137 kJ/mol
# Density = 2.291562 g / cm^3
# Si number density = 22.967900 Si / 1000 Ang^3
#
#
#
# Elastic Constant Matrix: (Units=GPa)
#
#
# Indices 1 2 3 4 5 6 
#
# 1 156.9479 19.2434 36.4447 0.0000 43.3235 0.0000
# 2 19.2434 33.3062 -2.5955 0.0000 5.1452 0.0000
# 3 36.4447 -2.5955 89.7516 0.0000 11.3199 0.0000
# 4 0.0000 0.0000 0.0000 20.8360 0.0000 1.8739
# 5 43.3235 5.1452 11.3199 0.0000 39.6809 0.0000
# 6 0.0000 0.0000 0.0000 1.8739 0.0000 25.4265
#
#
#
# Elastic Compliance Matrix: (Units=1/GPa)
#
#
# Indices 1 2 3 4 5 6 
#
# 1 0.010392 -0.004726 -0.003115 0.000000 -0.009844 0.000000
# 2 -0.004726 0.032968 0.002864 0.000000 0.000068 0.000000
# 3 -0.003115 0.002864 0.012559 0.000000 -0.000554 0.000000
# 4 0.000000 0.000000 0.000000 0.048314 0.000000 -0.003561
# 5 -0.009844 0.000068 -0.000554 0.000000 0.036098 0.000000
# 6 0.000000 0.000000 0.000000 -0.003561 0.000000 0.039591
#
#
# Mechanical properties :
#
#
# Convention : Reuss Voigt Hill
#
# Bulk Modulus (GPa) = 21.75579 42.91009 32.33294
# Shear Modulus (GPa) = 24.36680 32.31624 28.34152
#
# Velocity S-wave (km/s) = 3.26069 3.75509 3.51659
# Velocity P-wave (km/s) = 4.86507 6.12570 5.53142
#
# Compressibility (1/GPa) = 0.04596479
#
# Stress axis : x y z
#
# Youngs Moduli (GPa) = 96.23132 30.33278 79.62257
#
# Poissons Ratio (x) = 0.14335 0.24800
# Poissons Ratio (y) = 0.45479 -0.22803
# Poissons Ratio (z) = 0.29973 -0.08687
#
# Static dielectric constant tensor:
#      x y z
#    x 1.957760 0.000000 -0.003950 
#    y 0.000000 1.816120 0.000000 
#    z -0.003950 0.000000 1.890050 
# 
# From -- ./inp_files/24412.got.cif
#   From: 2010.05.17/outbox.cif.g08.bks.cpg/sg5_13_cif.got.tgz:24412.got - 2010.06.03 18:56:24.
