data_PCOD9125629
_publ_section_title
;
Structure prediction by ZEFSAII (Michael W. Deem and Ramdas Pophale) SiO2 
 PCOD9125629
Probable space group: C 2
;
_chemical_formula_sum "Si O2"
_cell_formula_units_Z 30
_cell_length_a 13.739072
_cell_length_b 10.300005
_cell_length_c 11.422585
_cell_angle_alpha 90.000000
_cell_angle_beta 129.716673
_cell_angle_gamma 90.000000
_cell_volume 1243.386682
_symmetry_space_group_name_H-M "C 2"
_symmetry_group_IT_number 5
_symmetry_cell_setting 'monoclinic'
loop_
_space_group_symop_operation_xyz
x,y,z
-x,y,-z
1/2+x,1/2+y,z
1/2-x,1/2+y,-z
loop_
_atom_site_type_symbol
_atom_site_label
_atom_site_fract_x
_atom_site_fract_y
_atom_site_fract_z
Si Si1 0.642184 0.103200 0.131989
Si Si2 0.500000 0.347829 0.500000
Si Si3 0.761137 0.326709 0.805743
Si Si4 0.208906 0.846175 0.020303
Si Si5 0.533499 0.478093 0.279578
Si Si6 0.419201 0.766180 0.713605
Si Si7 0.739563 0.291007 0.375567
Si Si8 0.415635 0.922047 0.336431
O O1 0.652733 0.174651 0.264273
O O2 0.738066 0.984282 0.200148
O O3 0.500000 0.057183 0.000000
O O4 0.675251 0.218307 0.067868
O O5 0.626132 0.278616 0.650167
O O6 0.541768 0.433476 0.420586
O O7 0.779967 0.300578 0.957013
O O8 0.876687 0.286099 0.812870
O O9 0.080849 0.908346 0.874370
O O10 0.288599 0.947878 0.161670
O O11 0.514666 0.629886 0.254791
O O12 0.661616 0.424533 0.318497
O O13 0.288925 0.758821 0.540651
O O14 0.493967 0.876527 0.699999
O O15 0.857651 0.309322 0.377766
O O16 0.500000 0.997354 0.500000
#
# Coordination Sequence:
#
# PCOD9125629 Si02
#       8
#     4   2   4   4   4   4   4   4
#     4  11  23  44  68  95 138 186 232 288 343 414
#     4  10  22  42  70 100 138 190 226 270 346 426
#     4  11  25  44  70 104 143 179 230 289 350 411
#     4  10  24  43  64 103 134 190 236 279 352 422
#     4  11  22  41  70 103 141 185 238 286 343 424
#     4  11  24  42  70 107 139 177 230 296 347 415
#     4  10  21  42  68 100 133 185 232 278 345 425
#     4   9  22  42  68  93 136 174 229 284 346 409
#
# _framework density 24.127652000000001
#
# number of rings (size 3 to 8) (size 9 to 14) (size 15 to 20)
#    0.000    1.600    2.667    0.800   12.133    0.000 
#    4.800    2.667    4.400    0.000    0.000    0.000 
#    0.000    0.000    0.000    0.000    0.000    0.000 
#
# Total GULP energy -83736.352152 kJ/mol
# GULP energy per Si atom -5582.423477 kJ/mol
# Density = 2.407274 g / cm^3
# Si number density = 24.127652 Si / 1000 Ang^3
#
#
#
# Elastic Constant Matrix: (Units=GPa)
#
#
# Indices 1 2 3 4 5 6 
#
# 1 104.4491 -10.4957 24.9640 0.0000 -12.9541 0.0000
# 2 -10.4957 11.2104 0.1739 0.0000 0.9584 0.0000
# 3 24.9640 0.1739 152.4049 0.0000 -1.1209 0.0000
# 4 0.0000 0.0000 0.0000 21.1026 0.0000 3.5713
# 5 -12.9541 0.9584 -1.1209 0.0000 29.0552 0.0000
# 6 0.0000 0.0000 0.0000 3.5713 0.0000 15.7035
#
#
#
# Elastic Compliance Matrix: (Units=1/GPa)
#
#
# Indices 1 2 3 4 5 6 
#
# 1 0.011680 0.010556 -0.001890 0.000000 0.004786 0.000000
# 2 0.010556 0.098996 -0.001832 0.000000 0.001370 0.000000
# 3 -0.001890 -0.001832 0.006869 0.000000 -0.000517 0.000000
# 4 0.000000 0.000000 0.000000 0.049284 0.000000 -0.011208
# 5 0.004786 0.001370 -0.000517 0.000000 0.036486 0.000000
# 6 0.000000 0.000000 0.000000 -0.011208 0.000000 0.066229
#
#
# Mechanical properties :
#
#
# Convention : Reuss Voigt Hill
#
# Bulk Modulus (GPa) = 7.62119 33.03878 20.32999
# Shear Modulus (GPa) = 16.68803 30.06708 23.37755
#
# Velocity S-wave (km/s) = 2.63279 3.53394 3.11611
# Velocity P-wave (km/s) = 3.52245 5.51132 4.62506
#
# Compressibility (1/GPa) = 0.13121304
#
# Stress axis : x y z
#
# Youngs Moduli (GPa) = 85.61575 10.10137 145.57423
#
# Poissons Ratio (x) = -0.10663 0.27514
# Poissons Ratio (y) = -0.90372 0.26668
# Poissons Ratio (z) = 0.16182 0.01850
#
# Static dielectric constant tensor:
#      x y z
#    x 1.991580 0.000000 0.040410 
#    y 0.000000 1.889920 0.000000 
#    z 0.040410 0.000000 1.968390 
# 
# From -- ./inp_files/42697.got.cif
#   From: 2010.05.17/outbox.cif.g08.bks.cpg/sg5_22_cif.got.tgz:42697.got - 2010.06.03 18:56:24.
