data_PCOD9125919
_publ_section_title
;
Structure prediction by ZEFSAII (Michael W. Deem and Ramdas Pophale) SiO2 
 PCOD9125919
Probable space group: C 2
;
_chemical_formula_sum "Si O2"
_cell_formula_units_Z 22
_cell_length_a 27.187539
_cell_length_b 5.916482
_cell_length_c 6.335759
_cell_angle_alpha 90.000000
_cell_angle_beta 107.605431
_cell_angle_gamma 90.000000
_cell_volume 971.401601
_symmetry_space_group_name_H-M "C 2"
_symmetry_group_IT_number 5
_symmetry_cell_setting 'monoclinic'
loop_
_space_group_symop_operation_xyz
x,y,z
-x,y,-z
1/2+x,1/2+y,z
1/2-x,1/2+y,-z
loop_
_atom_site_type_symbol
_atom_site_label
_atom_site_fract_x
_atom_site_fract_y
_atom_site_fract_z
Si Si1 0.260094 0.506400 0.125767
Si Si2 0.914971 0.438869 0.192831
Si Si3 0.835085 0.483275 0.723800
Si Si4 0.865027 0.108655 0.464645
Si Si5 0.923047 0.710829 0.594825
Si Si6 0.000000 0.447527 0.000000
O O1 0.222352 0.532630 0.278525
O O2 0.318915 0.488859 0.278329
O O3 0.245732 0.257191 0.000831
O O4 0.889476 0.273455 0.324948
O O5 0.934074 0.641960 0.368143
O O6 0.960725 0.332513 0.112279
O O7 0.870136 0.512724 0.976287
O O8 0.840205 0.234314 0.632185
O O9 0.865170 0.629620 0.588712
O O10 0.915127 0.974198 0.607820
O O11 0.962890 0.597658 0.803946
#
# Coordination Sequence:
#
# PCOD9125919 Si02
#       6
#     4   4   4   4   4   2
#     4  12  27  45  74 109 153 210 248 303 374 447
#     4  10  21  47  66 102 139 187 238 309 366 446
#     4  10  24  42  67 100 143 189 246 298 363 439
#     4  11  25  42  72 102 149 190 251 307 371 442
#     4  10  23  43  70  98 141 189 242 313 364 453
#     4  10  22  44  74  98 144 190 248 306 392 438
#
# _framework density 22.647687999999999
#
# number of rings (size 3 to 8) (size 9 to 14) (size 15 to 20)
#    0.000    1.455    1.818    1.636    7.636    2.909 
#    0.000   21.818    0.000    0.000    0.000    0.000 
#    0.000    0.000    0.000    0.000    0.000    0.000 
#
# Total GULP energy -61288.868121 kJ/mol
# GULP energy per Si atom -5571.715284 kJ/mol
# Density = 2.259614 g / cm^3
# Si number density = 22.647688 Si / 1000 Ang^3
#
#
#
# Elastic Constant Matrix: (Units=GPa)
#
#
# Indices 1 2 3 4 5 6 
#
# 1 103.6918 10.0727 16.6030 0.0000 -26.1635 0.0000
# 2 10.0727 36.5560 38.2447 0.0000 10.4988 0.0000
# 3 16.6030 38.2447 83.9731 0.0000 -9.7407 0.0000
# 4 0.0000 0.0000 0.0000 23.5877 0.0000 5.0298
# 5 -26.1635 10.4988 -9.7407 0.0000 44.6952 0.0000
# 6 0.0000 0.0000 0.0000 5.0298 0.0000 16.1102
#
#
#
# Elastic Compliance Matrix: (Units=1/GPa)
#
#
# Indices 1 2 3 4 5 6 
#
# 1 0.012727 -0.009824 0.003170 0.000000 0.010449 0.000000
# 2 -0.009824 0.078922 -0.037774 0.000000 -0.032522 0.000000
# 3 0.003170 -0.037774 0.030501 0.000000 0.017376 0.000000
# 4 0.000000 0.000000 0.000000 0.045419 0.000000 -0.014180
# 5 0.010449 -0.032522 0.017376 0.000000 0.039916 0.000000
# 6 0.000000 0.000000 0.000000 -0.014180 0.000000 0.066500
#
#
# Mechanical properties :
#
#
# Convention : Reuss Voigt Hill
#
# Bulk Modulus (GPa) = 30.03592 39.34019 34.68805
# Shear Modulus (GPa) = 13.37115 27.49864 20.43489
#
# Velocity S-wave (km/s) = 2.43245 3.48831 3.00708
# Velocity P-wave (km/s) = 4.60218 5.79936 5.23511
#
# Compressibility (1/GPa) = 0.03329347
#
# Stress axis : x y z
#
# Youngs Moduli (GPa) = 78.57226 12.67079 32.78550
#
# Poissons Ratio (x) = 0.12448 -0.10393
# Poissons Ratio (y) = 0.77190 1.23845
# Poissons Ratio (z) = -0.24907 0.47863
#
# Static dielectric constant tensor:
#      x y z
#    x 1.828950 0.000000 -0.004360 
#    y 0.000000 2.035360 0.000000 
#    z -0.004360 0.000000 1.813830 
# 
# From -- ./inp_files/10992.got.cif
#   From: 2010.05.17/outbox.cif.g08.bks.cpg/sg5_6_cif.got.tgz:10992.got - 2010.06.03 18:56:24.
