data_PCOD9125987
_publ_section_title
;
Structure prediction by ZEFSAII (Michael W. Deem and Ramdas Pophale) SiO2 
 PCOD9125987
Probable space group: C 2
;
_chemical_formula_sum "Si O2"
_cell_formula_units_Z 30
_cell_length_a 18.723119
_cell_length_b 7.295589
_cell_length_c 21.755867
_cell_angle_alpha 90.000000
_cell_angle_beta 153.536115
_cell_angle_gamma 90.000000
_cell_volume 1324.319899
_symmetry_space_group_name_H-M "C 2"
_symmetry_group_IT_number 5
_symmetry_cell_setting 'monoclinic'
loop_
_space_group_symop_operation_xyz
x,y,z
-x,y,-z
1/2+x,1/2+y,z
1/2-x,1/2+y,-z
loop_
_atom_site_type_symbol
_atom_site_label
_atom_site_fract_x
_atom_site_fract_y
_atom_site_fract_z
Si Si1 0.198810 0.282140 0.871641
Si Si2 0.351177 0.605088 0.951021
Si Si3 0.361512 0.025122 0.735642
Si Si4 0.203755 0.231479 0.223503
Si Si5 0.247359 0.375654 0.591639
Si Si6 0.000000 0.494266 0.500000
Si Si7 0.230918 0.400551 0.027024
Si Si8 0.328804 0.774818 0.602662
O O1 0.293858 0.398141 0.894361
O O2 0.283461 0.360674 0.998528
O O3 0.012130 0.327385 0.728433
O O4 0.198295 0.064546 0.878743
O O5 0.313208 0.727343 0.862406
O O6 0.536745 0.627911 0.112439
O O7 0.249439 0.707779 0.924377
O O8 0.348363 0.239650 0.712973
O O9 0.544423 0.957035 0.878481
O O10 0.291523 0.933602 0.743396
O O11 0.274269 0.922247 0.611474
O O12 0.355425 0.117958 0.362903
O O13 0.308931 0.580225 0.622276
O O14 0.248691 0.284567 0.524339
O O15 0.081199 0.392110 0.503333
#
# Coordination Sequence:
#
# PCOD9125987 Si02
#       8
#     4   4   4   4   4   2   4   4
#     4  11  22  38  67 103 131 171 229 290 348 414
#     4  10  22  45  67  94 141 179 224 288 356 415
#     4  10  23  43  69  92 133 181 227 279 354 408
#     4  10  23  47  67  94 140 185 227 292 346 421
#     4  12  25  46  70 100 141 187 232 292 347 432
#     4  12  26  42  74 104 140 186 244 278 360 414
#     4  10  22  36  64 100 127 167 221 279 346 412
#     4  11  24  44  69 100 136 183 236 286 356 413
#
# _framework density 22.653137999999998
#
# number of rings (size 3 to 8) (size 9 to 14) (size 15 to 20)
#    0.000    1.333    4.000    0.800    3.733    0.533 
#    9.600    1.333    0.000    0.000    0.000    0.000 
#    0.000    0.000    0.000    0.000    0.000    0.000 
#
# Total GULP energy -83597.084588 kJ/mol
# GULP energy per Si atom -5573.138973 kJ/mol
# Density = 2.260158 g / cm^3
# Si number density = 22.653138 Si / 1000 Ang^3
#
#
#
# Elastic Constant Matrix: (Units=GPa)
#
#
# Indices 1 2 3 4 5 6 
#
# 1 70.9924 16.9961 14.3965 0.0000 -5.1865 0.0000
# 2 16.9961 93.0145 6.7218 0.0000 1.3288 0.0000
# 3 14.3965 6.7218 57.7508 0.0000 -2.1774 0.0000
# 4 0.0000 0.0000 0.0000 19.5669 0.0000 0.4388
# 5 -5.1865 1.3288 -2.1774 0.0000 20.1374 0.0000
# 6 0.0000 0.0000 0.0000 0.4388 0.0000 28.3619
#
#
#
# Elastic Compliance Matrix: (Units=1/GPa)
#
#
# Indices 1 2 3 4 5 6 
#
# 1 0.015709 -0.002675 -0.003460 0.000000 0.003848 0.000000
# 2 -0.002675 0.011313 -0.000707 0.000000 -0.001512 0.000000
# 3 -0.003460 -0.000707 0.018303 0.000000 0.001135 0.000000
# 4 0.000000 0.000000 0.000000 0.051124 0.000000 -0.000791
# 5 0.003848 -0.001512 0.001135 0.000000 0.050872 0.000000
# 6 0.000000 0.000000 0.000000 -0.000791 0.000000 0.035271
#
#
# Mechanical properties :
#
#
# Convention : Reuss Voigt Hill
#
# Bulk Modulus (GPa) = 31.60410 33.10961 32.35685
# Shear Modulus (GPa) = 24.17519 25.85612 25.01566
#
# Velocity S-wave (km/s) = 3.27033 3.38212 3.32669
# Velocity P-wave (km/s) = 5.31429 5.46802 5.39170
#
# Compressibility (1/GPa) = 0.03164146
#
# Stress axis : x y z
#
# Youngs Moduli (GPa) = 63.65670 88.39729 54.63507
#
# Poissons Ratio (x) = 0.23650 0.18902
# Poissons Ratio (y) = 0.17031 0.03861
# Poissons Ratio (z) = 0.22023 0.06247
#
# Static dielectric constant tensor:
#      x y z
#    x 1.923100 0.000000 -0.027080 
#    y 0.000000 1.850370 0.000000 
#    z -0.027080 0.000000 1.859610 
# 
# From -- ./inp_files/69377.got.cif
#   From: 2010.05.17/outbox.cif.g08.bks.cpg/sg5_35_cif.got.tgz:69377.got - 2010.06.03 18:56:24.
