data_PCOD9125115
_publ_section_title
;
Structure prediction by ZEFSAII (Michael W. Deem and Ramdas Pophale) SiO2 
 PCOD9125115
Probable space group: C 2
;
_chemical_formula_sum "Si O2"
_cell_formula_units_Z 32
_cell_length_a 17.941608
_cell_length_b 5.114131
_cell_length_c 18.161480
_cell_angle_alpha 90.000000
_cell_angle_beta 117.881980
_cell_angle_gamma 90.000000
_cell_volume 1472.969823
_symmetry_space_group_name_H-M "C 2"
_symmetry_group_IT_number 5
_symmetry_cell_setting 'monoclinic'
loop_
_space_group_symop_operation_xyz
x,y,z
-x,y,-z
1/2+x,1/2+y,z
1/2-x,1/2+y,-z
loop_
_atom_site_type_symbol
_atom_site_label
_atom_site_fract_x
_atom_site_fract_y
_atom_site_fract_z
Si Si1 0.008335 0.842430 0.091047
Si Si2 0.035830 0.365886 0.842916
Si Si3 0.647959 0.740154 0.762214
Si Si4 0.047625 0.076923 0.453117
Si Si5 0.599770 0.216171 0.654873
Si Si6 0.278770 0.437145 0.395558
Si Si7 0.388043 0.742191 0.672233
Si Si8 0.312872 0.331628 0.758130
O O1 0.950595 0.627734 0.104843
O O2 0.103230 0.762690 0.158158
O O3 0.988544 0.127361 0.114897
O O4 0.000000 0.839265 0.000000
O O5 0.955568 0.408201 0.750507
O O6 0.113997 0.279908 0.828436
O O7 0.631887 0.443433 0.726769
O O8 0.740439 0.860411 0.787404
O O9 0.592176 0.934899 0.686342
O O10 0.143437 0.056833 0.525526
O O11 0.060221 0.139022 0.372832
O O12 0.000000 0.221944 0.500000
O O13 0.987591 0.821574 0.417422
O O14 0.672320 0.209001 0.626240
O O15 0.196332 0.363375 0.402604
O O16 0.234261 0.618681 0.314026
O O17 0.348094 0.544332 0.714961
#
# Coordination Sequence:
#
# PCOD9125115 Si02
#       8
#     4   4   4   4   4   4   4   4
#     4  11  24  45  70 102 134 166 211 271 331 398
#     4  11  23  41  69  98 130 173 218 260 329 399
#     4  11  21  40  66  92 127 168 221 257 319 386
#     4  10  23  40  57  90 134 176 229 277 328 367
#     4  10  21  40  59  89 126 174 212 270 314 375
#     4  10  21  40  57  90 124 169 228 267 325 377
#     4  11  21  40  60  92 124 179 221 276 317 398
#     4  10  23  40  66  91 127 173 216 268 333 397
#
# _framework density 21.724820000000001
#
# number of rings (size 3 to 8) (size 9 to 14) (size 15 to 20)
#    0.000    1.500    3.750    1.125    3.500    0.000 
#    2.250    3.125    0.000    0.000    0.000    0.000 
#    0.000    0.000    0.000    0.000    0.000    0.000 
#
# Total GULP energy -89126.355503 kJ/mol
# GULP energy per Si atom -5570.397219 kJ/mol
# Density = 2.167537 g / cm^3
# Si number density = 21.724820 Si / 1000 Ang^3
#
#
#
# Elastic Constant Matrix: (Units=GPa)
#
#
# Indices 1 2 3 4 5 6 
#
# 1 126.7784 6.9893 24.5451 0.0002 -19.4053 -0.0001
# 2 6.9893 31.6890 1.3433 -0.0004 5.0150 -0.0020
# 3 24.5451 1.3433 94.5713 0.0003 -14.7576 0.0001
# 4 0.0002 -0.0004 0.0003 8.8410 -0.0001 1.6357
# 5 -19.4053 5.0150 -14.7576 -0.0001 21.8945 0.0001
# 6 -0.0001 -0.0020 0.0001 1.6357 0.0001 21.2782
#
#
#
# Elastic Compliance Matrix: (Units=1/GPa)
#
#
# Indices 1 2 3 4 5 6 
#
# 1 0.009599 -0.003422 -0.001110 0.000000 0.008544 0.000000
# 2 -0.003422 0.034249 -0.001448 0.000001 -0.011854 0.000003
# 3 -0.001110 -0.001448 0.012048 0.000000 0.007469 0.000000
# 4 0.000000 0.000001 0.000000 0.114741 0.000000 -0.008821
# 5 0.008544 -0.011854 0.007469 0.000000 0.060995 -0.000001
# 6 0.000000 0.000003 0.000000 -0.008821 -0.000001 0.047675
#
#
# Mechanical properties :
#
#
# Convention : Reuss Voigt Hill
#
# Bulk Modulus (GPa) = 22.76019 35.42159 29.09089
# Shear Modulus (GPa) = 16.34457 25.08014 20.71236
#
# Velocity S-wave (km/s) = 2.74587 3.40140 3.09106
# Velocity P-wave (km/s) = 4.53347 5.63614 5.11461
#
# Compressibility (1/GPa) = 0.04393637
#
# Stress axis : x y z
#
# Youngs Moduli (GPa) = 104.17756 29.19809 83.00067
#
# Poissons Ratio (x) = 0.09992 0.09209
# Poissons Ratio (y) = 0.35652 0.12019
# Poissons Ratio (z) = 0.11559 0.04228
#
# Static dielectric constant tensor:
#      x y z
#    x 1.850400 0.000000 -0.013220 
#    y 0.000000 1.854340 0.000000 
#    z -0.013220 0.000000 1.822520 
# 
# From -- ./inp_files/55491.got.cif
#   From: 2010.05.17/outbox.cif.g08.bks.cpg/sg5_28_cif.got.tgz:55491.got - 2010.06.03 18:56:24.
