data_PCOD9125013
_publ_section_title
;
Structure prediction by ZEFSAII (Michael W. Deem and Ramdas Pophale) SiO2 
 PCOD9125013
Probable space group: C 2
;
_chemical_formula_sum "Si O2"
_cell_formula_units_Z 20
_cell_length_a 22.970195
_cell_length_b 7.276470
_cell_length_c 15.355284
_cell_angle_alpha 90.000000
_cell_angle_beta 161.551496
_cell_angle_gamma 90.000000
_cell_volume 812.178327
_symmetry_space_group_name_H-M "C 2"
_symmetry_group_IT_number 5
_symmetry_cell_setting 'monoclinic'
loop_
_space_group_symop_operation_xyz
x,y,z
-x,y,-z
1/2+x,1/2+y,z
1/2-x,1/2+y,-z
loop_
_atom_site_type_symbol
_atom_site_label
_atom_site_fract_x
_atom_site_fract_y
_atom_site_fract_z
Si Si1 0.715682 0.750000 0.677101
Si Si2 0.933191 0.437611 0.051502
Si Si3 0.709907 0.655208 0.480570
Si Si4 0.125409 0.485897 0.840926
Si Si5 0.432260 0.369345 0.157004
O O1 0.758024 0.781730 0.633991
O O2 0.515810 0.842019 0.402173
O O3 0.820123 0.832083 0.908603
O O4 0.775590 0.535033 0.771973
O O5 0.101371 0.586706 0.292740
O O6 0.051871 0.255933 0.199549
O O7 0.841985 0.408854 0.015765
O O8 0.609709 0.476541 0.376779
O O9 0.046452 0.687601 0.752423
O O10 0.304635 0.497167 0.036674
#
# Coordination Sequence:
#
# PCOD9125013 Si02
#       5
#     4   4   4   4   4
#     4  10  22  40  64  92 128 172 220 272 330 400
#     4  10  21  39  64  94 130 173 221 275 332 399
#     4  11  23  42  65  94 133 176 225 279 337 403
#     4  10  21  39  64  94 130 173 221 275 332 399
#     4  11  23  42  65  94 133 176 225 279 337 403
#
# _framework density 24.625133999999999
#
# number of rings (size 3 to 8) (size 9 to 14) (size 15 to 20)
#    0.000    1.600    0.000    6.000    0.000    4.800 
#    0.000    8.000    0.000    0.000    0.000    0.000 
#    0.000    0.000    0.000    0.000    0.000    0.000 
#
# Total GULP energy -55708.670989 kJ/mol
# GULP energy per Si atom -5570.867099 kJ/mol
# Density = 2.456909 g / cm^3
# Si number density = 24.625134 Si / 1000 Ang^3
#
#
#
# Elastic Constant Matrix: (Units=GPa)
#
#
# Indices 1 2 3 4 5 6 
#
# 1 96.5748 -0.2867 11.6141 0.0000 7.8125 0.0000
# 2 -0.2867 115.3950 37.2673 0.0000 4.9764 0.0000
# 3 11.6141 37.2673 72.1568 0.0000 -26.9186 0.0000
# 4 0.0000 0.0000 0.0000 47.0047 0.0000 8.6127
# 5 7.8125 4.9764 -26.9186 0.0000 36.6183 0.0000
# 6 0.0000 0.0000 0.0000 8.6127 0.0000 47.5020
#
#
#
# Elastic Compliance Matrix: (Units=1/GPa)
#
#
# Indices 1 2 3 4 5 6 
#
# 1 0.011565 0.002085 -0.005462 0.000000 -0.006766 0.000000
# 2 0.002085 0.012462 -0.010430 0.000000 -0.009806 0.000000
# 3 -0.005462 -0.010430 0.029057 0.000000 0.023943 0.000000
# 4 0.000000 0.000000 0.000000 0.022006 0.000000 -0.003990
# 5 -0.006766 -0.009806 0.023943 0.000000 0.047686 0.000000
# 6 0.000000 0.000000 0.000000 -0.003990 0.000000 0.021775
#
#
# Mechanical properties :
#
#
# Convention : Reuss Voigt Hill
#
# Bulk Modulus (GPa) = 39.26383 42.36845 40.81614
# Shear Modulus (GPa) = 27.67690 41.92711 34.80201
#
# Velocity S-wave (km/s) = 3.35614 4.13075 3.76343
# Velocity P-wave (km/s) = 5.56754 6.32404 5.95781
#
# Compressibility (1/GPa) = 0.02546873
#
# Stress axis : x y z
#
# Youngs Moduli (GPa) = 86.46699 80.24129 34.41522
#
# Poissons Ratio (x) = -0.16727 0.18798
# Poissons Ratio (y) = -0.18025 0.35896
# Poissons Ratio (z) = 0.47231 0.83693
#
# Static dielectric constant tensor:
#      x y z
#    x 1.924690 0.000000 -0.023500 
#    y 0.000000 2.130130 0.000000 
#    z -0.023500 0.000000 1.914250 
# 
# From -- ./inp_files/57557.got.cif
#   From: 2010.05.17/outbox.cif.g08.bks.cpg/sg5_29_cif.got.tgz:57557.got - 2010.06.03 18:56:24.
