data_PCOD9125631
_publ_section_title
;
Structure prediction by ZEFSAII (Michael W. Deem and Ramdas Pophale) SiO2 
 PCOD9125631
Probable space group: C 2
;
_chemical_formula_sum "Si O2"
_cell_formula_units_Z 32
_cell_length_a 29.084308
_cell_length_b 4.935739
_cell_length_c 12.102466
_cell_angle_alpha 90.000000
_cell_angle_beta 42.898644
_cell_angle_gamma 90.000000
_cell_volume 1182.613403
_symmetry_space_group_name_H-M "C 2"
_symmetry_group_IT_number 5
_symmetry_cell_setting 'monoclinic'
loop_
_space_group_symop_operation_xyz
x,y,z
-x,y,-z
1/2+x,1/2+y,z
1/2-x,1/2+y,-z
loop_
_atom_site_type_symbol
_atom_site_label
_atom_site_fract_x
_atom_site_fract_y
_atom_site_fract_z
Si Si1 0.334697 0.159640 0.975064
Si Si2 0.669628 0.580693 0.625911
Si Si3 0.471215 0.249312 0.925945
Si Si4 0.627771 0.740338 0.929253
Si Si5 0.344554 0.458986 0.744167
Si Si6 0.612069 0.065088 0.621640
Si Si7 0.228352 0.281502 0.315334
Si Si8 0.074389 0.499523 0.346799
O O1 0.428812 0.507815 0.959192
O O2 0.305958 0.286842 0.909431
O O3 0.411858 0.142935 0.795547
O O4 0.332386 0.864212 0.036011
O O5 0.675311 0.662448 0.741902
O O6 0.647818 0.278397 0.639727
O O7 0.729924 0.668179 0.437365
O O8 0.609122 0.769848 0.683894
O O9 0.536801 0.169874 0.738148
O O10 0.500000 0.297466 0.000000
O O11 0.417967 0.002815 0.024677
O O12 0.700907 0.336767 0.868196
O O13 0.302019 0.557386 0.715311
O O14 0.376805 0.740052 0.731190
O O15 0.404469 0.248685 0.611616
O O16 0.669630 0.005256 0.428059
O O17 0.000000 0.407707 0.500000
#
# Coordination Sequence:
#
# PCOD9125631 Si02
#       8
#     4   4   4   4   4   4   4   4
#     4  10  28  47  76 114 160 213 264 334 420 479
#     4  10  21  42  68 108 148 194 267 324 401 470
#     4  12  21  41  72 106 158 204 264 326 397 483
#     4  12  24  43  72 113 162 212 259 333 412 499
#     4  10  25  45  80 103 146 201 261 331 390 483
#     4  10  22  39  70 109 143 196 267 325 388 468
#     4  10  25  48  76 111 155 204 282 327 399 478
#     4  10  24  48  71 110 150 194 260 326 412 480
#
# _framework density 27.058716
#
# number of rings (size 3 to 8) (size 9 to 14) (size 15 to 20)
#    1.500    0.000    2.500    1.500    5.250    2.000 
#    0.000    2.500    0.000    0.000    0.000    0.000 
#    0.000    0.000    0.000    0.000    0.000    0.000 
#
# Total GULP energy -89257.010588 kJ/mol
# GULP energy per Si atom -5578.563162 kJ/mol
# Density = 2.699713 g / cm^3
# Si number density = 27.058716 Si / 1000 Ang^3
#
#
#
# Elastic Constant Matrix: (Units=GPa)
#
#
# Indices 1 2 3 4 5 6 
#
# 1 105.0453 64.6083 59.4053 -0.0006 3.9443 0.0025
# 2 64.6083 185.8727 43.6762 -0.0016 0.1268 0.0115
# 3 59.4053 43.6762 193.8666 -0.0002 10.0023 0.0008
# 4 -0.0006 -0.0016 -0.0002 46.2143 -0.0005 7.9345
# 5 3.9443 0.1268 10.0023 -0.0005 41.9316 0.0000
# 6 0.0025 0.0115 0.0008 7.9345 0.0000 48.3194
#
#
#
# Elastic Compliance Matrix: (Units=1/GPa)
#
#
# Indices 1 2 3 4 5 6 
#
# 1 0.013912 -0.004054 -0.003324 0.000000 -0.000504 0.000000
# 2 -0.004054 0.006866 -0.000327 0.000000 0.000439 -0.000001
# 3 -0.003324 -0.000327 0.006312 0.000000 -0.001192 0.000000
# 4 0.000000 0.000000 0.000000 0.022266 0.000000 -0.003656
# 5 -0.000504 0.000439 -0.001192 0.000000 0.024179 0.000000
# 6 0.000000 -0.000001 0.000000 -0.003656 0.000000 0.021296
#
#
# Mechanical properties :
#
#
# Convention : Reuss Voigt Hill
#
# Bulk Modulus (GPa) = 85.62015 91.12937 88.37476
# Shear Modulus (GPa) = 43.80843 48.43272 46.12058
#
# Velocity S-wave (km/s) = 4.02806 4.23532 4.13299
# Velocity P-wave (km/s) = 7.30375 7.59400 7.45029
#
# Compressibility (1/GPa) = 0.01167949
#
# Stress axis : x y z
#
# Youngs Moduli (GPa) = 71.88163 145.64827 158.43402
#
# Poissons Ratio (x) = 0.59051 0.52656
# Poissons Ratio (y) = 0.29143 0.05182
# Poissons Ratio (z) = 0.23890 0.04764
#
# Static dielectric constant tensor:
#      x y z
#    x 2.217040 0.000000 0.028520 
#    y 0.000000 2.167830 0.000000 
#    z 0.028520 0.000000 2.126000 
# 
# From -- ./inp_files/58307.got.cif
#   From: 2010.05.17/outbox.cif.g08.bks.cpg/sg5_30_cif.got.tgz:58307.got - 2010.06.03 18:56:24.
