data_PCOD9125596
_publ_section_title
;
Structure prediction by ZEFSAII (Michael W. Deem and Ramdas Pophale) SiO2 
 PCOD9125596
Probable space group: C 2
;
_chemical_formula_sum "Si O2"
_cell_formula_units_Z 22
_cell_length_a 9.036718
_cell_length_b 10.975236
_cell_length_c 11.505547
_cell_angle_alpha 90.000000
_cell_angle_beta 105.049611
_cell_angle_gamma 90.000000
_cell_volume 1101.982534
_symmetry_space_group_name_H-M "C 2"
_symmetry_group_IT_number 5
_symmetry_cell_setting 'monoclinic'
loop_
_space_group_symop_operation_xyz
x,y,z
-x,y,-z
1/2+x,1/2+y,z
1/2-x,1/2+y,-z
loop_
_atom_site_type_symbol
_atom_site_label
_atom_site_fract_x
_atom_site_fract_y
_atom_site_fract_z
Si Si1 0.595478 0.963660 0.316255
Si Si2 0.121901 0.807204 0.689717
Si Si3 0.672620 0.215317 0.446176
Si Si4 0.137820 0.445458 0.938084
Si Si5 0.000000 0.285330 0.500000
Si Si6 0.659439 0.215733 0.961625
O O1 0.758102 0.919695 0.293883
O O2 0.455369 0.963459 0.199112
O O3 0.553473 0.867274 0.405184
O O4 0.606624 0.092263 0.380850
O O5 0.167320 0.725436 0.585379
O O6 0.139560 0.749627 0.821048
O O7 0.939201 0.822520 0.626358
O O8 0.846099 0.215554 0.437580
O O9 0.219361 0.575639 0.981535
O O10 0.240799 0.325065 0.963843
O O11 0.000000 0.426154 0.000000
O O12 0.500000 0.213767 0.000000
#
# Coordination Sequence:
#
# PCOD9125596 Si02
#       6
#     4   4   4   4   2   4
#     4  11  22  41  67  93 130 174 217 277 331 395
#     4  10  21  42  66  93 135 171 220 274 335 393
#     4  10  22  41  64  94 131 169 214 277 332 388
#     4  11  24  43  69  93 137 178 228 278 337 394
#     4  10  24  36  64  98 124 170 216 266 328 404
#     4  11  25  44  67 101 132 184 224 281 332 399
#
# _framework density 19.964017999999999
#
# number of rings (size 3 to 8) (size 9 to 14) (size 15 to 20)
#    0.000    1.455    3.636    1.091    2.545    3.636 
#    0.000    1.818    0.000    0.000    0.000    0.000 
#    0.000    0.000    0.000    0.000    0.000    0.000 
#
# Total GULP energy -61286.255797 kJ/mol
# GULP energy per Si atom -5571.477800 kJ/mol
# Density = 1.991858 g / cm^3
# Si number density = 19.964018 Si / 1000 Ang^3
#
#
#
# Elastic Constant Matrix: (Units=GPa)
#
#
# Indices 1 2 3 4 5 6 
#
# 1 95.1733 36.7926 12.3579 0.0000 18.1865 0.0000
# 2 36.7926 112.4669 33.0533 0.0000 24.4451 0.0000
# 3 12.3579 33.0533 72.7976 0.0000 16.6501 0.0000
# 4 0.0000 0.0000 0.0000 33.0316 0.0000 6.4957
# 5 18.1865 24.4451 16.6501 0.0000 26.1536 0.0000
# 6 0.0000 0.0000 0.0000 6.4957 0.0000 23.8449
#
#
#
# Elastic Compliance Matrix: (Units=1/GPa)
#
#
# Indices 1 2 3 4 5 6 
#
# 1 0.012822 -0.002963 0.000673 0.000000 -0.006574 0.000000
# 2 -0.002963 0.012491 -0.003476 0.000000 -0.007402 0.000000
# 3 0.000673 -0.003476 0.017047 0.000000 -0.008072 0.000000
# 4 0.000000 0.000000 0.000000 0.031988 0.000000 -0.008714
# 5 -0.006574 -0.007402 -0.008072 0.000000 0.054864 0.000000
# 6 0.000000 0.000000 0.000000 -0.008714 0.000000 0.044311
#
#
# Mechanical properties :
#
#
# Convention : Reuss Voigt Hill
#
# Bulk Modulus (GPa) = 32.43898 49.42727 40.93312
# Shear Modulus (GPa) = 25.59756 29.82162 27.70959
#
# Velocity S-wave (km/s) = 3.58465 3.86912 3.72960
# Velocity P-wave (km/s) = 5.78074 6.69119 6.25256
#
# Compressibility (1/GPa) = 0.03082711
#
# Stress axis : x y z
#
# Youngs Moduli (GPa) = 77.99323 80.05634 58.66243
#
# Poissons Ratio (x) = 0.23722 -0.03945
# Poissons Ratio (y) = 0.23111 0.20388
# Poissons Ratio (z) = -0.05245 0.27824
#
# Static dielectric constant tensor:
#      x y z
#    x 1.787460 0.000000 0.049770 
#    y 0.000000 1.715100 0.000000 
#    z 0.049770 0.000000 1.746500 
# 
# From -- ./inp_files/35167.got.cif
#   From: 2010.05.17/outbox.cif.g08.bks.cpg/sg5_18_cif.got.tgz:35167.got - 2010.06.03 18:56:24.
