data_PCOD9125720
_publ_section_title
;
Structure prediction by ZEFSAII (Michael W. Deem and Ramdas Pophale) SiO2 
 PCOD9125720
Probable space group: C 2
;
_chemical_formula_sum "Si O2"
_cell_formula_units_Z 28
_cell_length_a 17.432212
_cell_length_b 8.526919
_cell_length_c 14.285866
_cell_angle_alpha 90.000000
_cell_angle_beta 38.014560
_cell_angle_gamma 90.000000
_cell_volume 1307.779148
_symmetry_space_group_name_H-M "C 2"
_symmetry_group_IT_number 5
_symmetry_cell_setting 'monoclinic'
loop_
_space_group_symop_operation_xyz
x,y,z
-x,y,-z
1/2+x,1/2+y,z
1/2-x,1/2+y,-z
loop_
_atom_site_type_symbol
_atom_site_label
_atom_site_fract_x
_atom_site_fract_y
_atom_site_fract_z
Si Si1 0.231637 0.866150 0.475247
Si Si2 0.742760 0.596637 0.892218
Si Si3 0.639953 0.777583 0.830157
Si Si4 0.152361 0.266704 0.148834
Si Si5 0.870675 0.205714 0.488361
Si Si6 0.488229 0.264900 0.616985
Si Si7 0.324690 0.546852 0.724557
O O1 0.339456 0.802447 0.300637
O O2 0.279334 0.836688 0.533369
O O3 0.112840 0.764713 0.556095
O O4 0.184064 0.043787 0.504742
O O5 0.695396 0.623971 0.830899
O O6 0.771008 0.424056 0.903413
O O7 0.876843 0.677677 0.772654
O O8 0.652637 0.701604 0.043565
O O9 0.728159 0.918222 0.781970
O O10 0.500000 0.795956 0.000000
O O11 0.225305 0.135432 0.138045
O O12 0.011158 0.258679 0.325648
O O13 0.855320 0.169666 0.613153
O O14 0.500000 0.200178 0.500000
O O15 0.443090 0.444257 0.644326
#
# Coordination Sequence:
#
# PCOD9125720 Si02
#       7
#     4   4   4   4   4   4   4
#     4  11  23  39  65  96 135 170 216 267 328 377
#     4  11  25  38  66  93 124 165 220 275 321 386
#     4  10  21  43  65  91 130 170 208 265 335 388
#     4  12  24  42  63  95 126 171 224 269 323 388
#     4  11  24  40  65  96 133 172 213 273 322 386
#     4  11  18  42  68  89 125 175 216 258 319 389
#     4  10  21  43  68  90 128 177 214 261 321 390
#
# _framework density 21.410343000000001
#
# number of rings (size 3 to 8) (size 9 to 14) (size 15 to 20)
#    0.000    1.143    5.714    3.000    2.000    2.286 
#    2.571    0.714    0.000    0.000    0.000    0.000 
#    0.000    0.000    0.000    0.000    0.000    0.000 
#
# Total GULP energy -78067.998361 kJ/mol
# GULP energy per Si atom -5576.285597 kJ/mol
# Density = 2.136161 g / cm^3
# Si number density = 21.410343 Si / 1000 Ang^3
#
#
#
# Elastic Constant Matrix: (Units=GPa)
#
#
# Indices 1 2 3 4 5 6 
#
# 1 70.2476 12.1942 9.9680 0.0000 -2.0780 0.0000
# 2 12.1942 54.0649 7.7424 0.0000 11.0155 0.0000
# 3 9.9680 7.7424 80.9717 0.0000 -11.9019 0.0000
# 4 0.0000 0.0000 0.0000 25.2962 0.0000 6.8558
# 5 -2.0780 11.0155 -11.9019 0.0000 35.9012 0.0000
# 6 0.0000 0.0000 0.0000 6.8558 0.0000 25.2704
#
#
#
# Elastic Compliance Matrix: (Units=1/GPa)
#
#
# Indices 1 2 3 4 5 6 
#
# 1 0.015076 -0.003526 -0.001295 0.000000 0.001525 0.000000
# 2 -0.003526 0.021233 -0.002716 0.000000 -0.007619 0.000000
# 3 -0.001295 -0.002716 0.013540 0.000000 0.005247 0.000000
# 4 0.000000 0.000000 0.000000 0.042669 0.000000 -0.011576
# 5 0.001525 -0.007619 0.005247 0.000000 0.032020 0.000000
# 6 0.000000 0.000000 0.000000 -0.011576 0.000000 0.042713
#
#
# Mechanical properties :
#
#
# Convention : Reuss Voigt Hill
#
# Bulk Modulus (GPa) = 28.75518 29.45482 29.10500
# Shear Modulus (GPa) = 25.78432 28.98552 27.38492
#
# Velocity S-wave (km/s) = 3.47406 3.68341 3.58026
# Velocity P-wave (km/s) = 5.43615 5.64598 5.54206
#
# Compressibility (1/GPa) = 0.03477634
#
# Stress axis : x y z
#
# Youngs Moduli (GPa) = 66.32965 47.09674 73.85320
#
# Poissons Ratio (x) = 0.16605 0.09561
# Poissons Ratio (y) = 0.23386 0.20060
# Poissons Ratio (z) = 0.08587 0.12792
#
# Static dielectric constant tensor:
#      x y z
#    x 1.788660 0.000000 0.022870 
#    y 0.000000 1.847870 0.000000 
#    z 0.022870 0.000000 1.823610 
# 
# From -- ./inp_files/55732.got.cif
#   From: 2010.05.17/outbox.cif.g08.bks.cpg/sg5_28_cif.got.tgz:55732.got - 2010.06.03 18:56:24.
