data_PCOD9125417
_publ_section_title
;
Structure prediction by ZEFSAII (Michael W. Deem and Ramdas Pophale) SiO2 
 PCOD9125417
Probable space group: C 2
;
_chemical_formula_sum "Si O2"
_cell_formula_units_Z 30
_cell_length_a 13.770510
_cell_length_b 4.970365
_cell_length_c 17.526637
_cell_angle_alpha 90.000000
_cell_angle_beta 84.430229
_cell_angle_gamma 90.000000
_cell_volume 1193.937599
_symmetry_space_group_name_H-M "C 2"
_symmetry_group_IT_number 5
_symmetry_cell_setting 'monoclinic'
loop_
_space_group_symop_operation_xyz
x,y,z
-x,y,-z
1/2+x,1/2+y,z
1/2-x,1/2+y,-z
loop_
_atom_site_type_symbol
_atom_site_label
_atom_site_fract_x
_atom_site_fract_y
_atom_site_fract_z
Si Si1 0.507995 0.783570 0.763187
Si Si2 0.930101 0.767418 0.850449
Si Si3 0.000000 0.651996 0.000000
Si Si4 0.733243 0.843523 0.102866
Si Si5 0.849587 0.186130 0.651060
Si Si6 0.168037 0.328305 0.930226
Si Si7 0.811967 0.295612 0.488417
Si Si8 0.289933 0.685303 0.321226
O O1 0.448162 0.566738 0.818699
O O2 0.445471 0.759893 0.690383
O O3 0.621277 0.709902 0.743844
O O4 0.505100 0.085767 0.795823
O O5 0.938742 0.805319 0.941439
O O6 0.839471 0.553002 0.850763
O O7 0.063524 0.459117 0.941962
O O8 0.831108 0.023522 0.096670
O O9 0.761418 0.538756 0.119846
O O10 0.700162 0.830731 0.016900
O O11 0.870763 0.208855 0.558745
O O12 0.764519 0.401644 0.675681
O O13 0.797881 0.903964 0.676364
O O14 0.785855 0.610404 0.495245
O O15 0.840860 0.230096 0.400288
#
# Coordination Sequence:
#
# PCOD9125417 Si02
#       8
#     4   4   2   4   4   4   4   4
#     4  12  25  43  63  96 132 170 214 263 328 389
#     4  11  25  44  62  89 122 162 210 270 318 387
#     4  10  24  44  64  88 122 150 208 276 318 370
#     4   9  18  36  56  80 109 139 189 233 297 369
#     4  10  21  41  65  94 133 176 210 262 319 371
#     4   9  18  34  60  82 103 141 178 245 307 355
#     4   8  16  33  62  94 126 168 216 258 301 366
#     4  10  21  41  66  96 134 170 217 261 309 383
#
# _framework density 25.126942
#
# number of rings (size 3 to 8) (size 9 to 14) (size 15 to 20)
#    0.000    2.133    0.000    2.400    0.000    5.867 
#   14.400    0.000    0.000   11.200    0.000    0.000 
#    0.000    0.000    0.000    0.000    0.000    0.000 
#
# Total GULP energy -83763.742612 kJ/mol
# GULP energy per Si atom -5584.249507 kJ/mol
# Density = 2.506975 g / cm^3
# Si number density = 25.126942 Si / 1000 Ang^3
#
#
#
# Elastic Constant Matrix: (Units=GPa)
#
#
# Indices 1 2 3 4 5 6 
#
# 1 54.2735 -5.3483 14.0132 0.0000 5.9976 0.0000
# 2 -5.3483 152.4077 -5.5073 0.0000 -6.4715 0.0000
# 3 14.0132 -5.5073 47.3060 0.0000 25.5672 0.0000
# 4 0.0000 0.0000 0.0000 26.5046 0.0000 -2.8941
# 5 5.9976 -6.4715 25.5672 0.0000 49.0336 0.0000
# 6 0.0000 0.0000 0.0000 -2.8941 0.0000 13.8653
#
#
#
# Elastic Compliance Matrix: (Units=1/GPa)
#
#
# Indices 1 2 3 4 5 6 
#
# 1 0.020019 0.000512 -0.006382 0.000000 0.000947 0.000000
# 2 0.000512 0.006617 0.000251 0.000000 0.000680 0.000000
# 3 -0.006382 0.000251 0.031494 0.000000 -0.015608 0.000000
# 4 0.000000 0.000000 0.000000 0.038609 0.000000 0.008059
# 5 0.000947 0.000680 -0.015608 0.000000 0.028506 0.000000
# 6 0.000000 0.000000 0.000000 0.008059 0.000000 0.073804
#
#
# Mechanical properties :
#
#
# Convention : Reuss Voigt Hill
#
# Bulk Modulus (GPa) = 21.32511 28.92248 25.12380
# Shear Modulus (GPa) = 22.13182 34.60269 28.36725
#
# Velocity S-wave (km/s) = 2.97105 3.71498 3.36364
# Velocity P-wave (km/s) = 4.50276 5.47147 5.01058
#
# Compressibility (1/GPa) = 0.04689307
#
# Stress axis : x y z
#
# Youngs Moduli (GPa) = 49.95285 151.11997 31.75171
#
# Poissons Ratio (x) = -0.07739 0.20264
# Poissons Ratio (y) = -0.02558 -0.00798
# Poissons Ratio (z) = 0.31881 -0.03799
#
# Static dielectric constant tensor:
#      x y z
#    x 2.084130 0.000000 -0.004310 
#    y 0.000000 1.916740 0.000000 
#    z -0.004310 0.000000 2.098290 
# 
# From -- ./inp_files/61215.got.cif
#   From: 2010.05.17/outbox.cif.g08.bks.cpg/sg5_31_cif.got.tgz:61215.got - 2010.06.03 18:56:24.
