data_PCOD9125392
_publ_section_title
;
Structure prediction by ZEFSAII (Michael W. Deem and Ramdas Pophale) SiO2 
 PCOD9125392
Probable space group: C 2
;
_chemical_formula_sum "Si O2"
_cell_formula_units_Z 32
_cell_length_a 13.904219
_cell_length_b 7.274625
_cell_length_c 24.465710
_cell_angle_alpha 90.000000
_cell_angle_beta 151.004558
_cell_angle_gamma 90.000000
_cell_volume 1199.565396
_symmetry_space_group_name_H-M "C 2"
_symmetry_group_IT_number 5
_symmetry_cell_setting 'monoclinic'
loop_
_space_group_symop_operation_xyz
x,y,z
-x,y,-z
1/2+x,1/2+y,z
1/2-x,1/2+y,-z
loop_
_atom_site_type_symbol
_atom_site_label
_atom_site_fract_x
_atom_site_fract_y
_atom_site_fract_z
Si Si1 0.510632 0.750000 0.155814
Si Si2 0.682301 0.889489 0.782405
Si Si3 0.820212 0.285633 0.872795
Si Si4 0.146290 0.077244 0.524119
Si Si5 0.052018 0.777579 0.256187
Si Si6 0.180232 0.156993 0.346985
Si Si7 0.897435 0.474146 0.548243
Si Si8 0.935632 0.828149 0.081926
O O1 0.615364 0.834106 0.155497
O O2 0.658466 0.769288 0.279806
O O3 0.469752 0.538776 0.117361
O O4 0.283557 0.813955 0.051529
O O5 0.512478 0.750666 0.718886
O O6 0.882252 0.780117 0.866622
O O7 0.767183 0.068100 0.856565
O O8 0.588158 0.988995 0.681686
O O9 0.620804 0.373208 0.794641
O O10 0.000000 0.337270 0.000000
O O11 0.346035 0.121196 0.657714
O O12 0.080195 0.276428 0.469217
O O13 0.213847 0.978076 0.501331
O O14 0.000000 0.008202 0.500000
O O15 0.968879 0.722676 0.156066
O O16 0.195227 0.952633 0.327312
O O17 0.344259 0.127258 0.476188
#
# Coordination Sequence:
#
# PCOD9125392 Si02
#       8
#     4   4   4   4   4   4   4   4
#     4  10  23  40  61  96 133 174 226 273 348 422
#     4  11  23  40  67  96 131 177 226 288 349 409
#     4  11  22  40  64  96 132 179 217 280 347 416
#     4  11  23  43  73 100 138 185 237 299 364 426
#     4  10  21  41  64  93 129 174 225 277 351 421
#     4  10  24  41  64  96 132 172 229 289 342 417
#     4  11  22  45  69  99 139 182 241 296 357 432
#     4  10  22  40  64  93 131 177 221 274 348 425
#
# _framework density 26.676326
#
# number of rings (size 3 to 8) (size 9 to 14) (size 15 to 20)
#    0.000    1.500    3.750    0.750    3.500    2.000 
#    0.000    3.125    0.000    0.000    0.000    0.000 
#    0.000    0.000    0.000    0.000    0.000    0.000 
#
# Total GULP energy -89297.398566 kJ/mol
# GULP energy per Si atom -5581.087410 kJ/mol
# Density = 2.661561 g / cm^3
# Si number density = 26.676326 Si / 1000 Ang^3
#
#
#
# Elastic Constant Matrix: (Units=GPa)
#
#
# Indices 1 2 3 4 5 6 
#
# 1 116.6847 -2.3540 18.3952 -0.0002 -6.2239 0.0000
# 2 -2.3540 72.8792 12.3800 0.0002 -10.7313 0.0001
# 3 18.3952 12.3800 83.8438 0.0009 -9.0016 0.0000
# 4 -0.0002 0.0002 0.0009 34.3421 0.0001 -6.0790
# 5 -6.2239 -10.7313 -9.0016 0.0001 45.4601 0.0000
# 6 0.0000 0.0001 0.0000 -6.0790 0.0000 24.2616
#
#
#
# Elastic Compliance Matrix: (Units=1/GPa)
#
#
# Indices 1 2 3 4 5 6 
#
# 1 0.008950 0.000773 -0.001969 0.000000 0.001018 0.000000
# 2 0.000773 0.014546 -0.001980 0.000000 0.003148 0.000000
# 3 -0.001969 -0.001980 0.012845 0.000000 0.001807 0.000000
# 4 0.000000 0.000000 0.000000 0.030470 0.000000 0.007635
# 5 0.001018 0.003148 0.001807 0.000000 0.023237 0.000000
# 6 0.000000 0.000000 0.000000 0.007635 0.000000 0.043130
#
#
# Mechanical properties :
#
#
# Convention : Reuss Voigt Hill
#
# Bulk Modulus (GPa) = 33.34215 36.69447 35.01831
# Shear Modulus (GPa) = 33.43893 37.14519 35.29206
#
# Velocity S-wave (km/s) = 3.54433 3.73559 3.64122
# Velocity P-wave (km/s) = 5.41069 5.69135 5.55280
#
# Compressibility (1/GPa) = 0.02999207
#
# Stress axis : x y z
#
# Youngs Moduli (GPa) = 111.72734 68.74711 77.85071
#
# Poissons Ratio (x) = -0.05317 0.15326
# Poissons Ratio (y) = -0.08641 0.15411
# Poissons Ratio (z) = 0.21994 0.13609
#
# Static dielectric constant tensor:
#      x y z
#    x 2.178200 0.000000 0.041830 
#    y 0.000000 2.161430 0.000000 
#    z 0.041830 0.000000 2.044930 
# 
# From -- ./inp_files/68795.got.cif
#   From: 2010.05.17/outbox.cif.g08.bks.cpg/sg5_35_cif.got.tgz:68795.got - 2010.06.03 18:56:24.
