data_PCOD9125923
_publ_section_title
;
Structure prediction by ZEFSAII (Michael W. Deem and Ramdas Pophale) SiO2 
 PCOD9125923
Probable space group: C 2
;
_chemical_formula_sum "Si O2"
_cell_formula_units_Z 20
_cell_length_a 17.481247
_cell_length_b 7.532455
_cell_length_c 16.195087
_cell_angle_alpha 90.000000
_cell_angle_beta 156.141467
_cell_angle_gamma 90.000000
_cell_volume 862.559536
_symmetry_space_group_name_H-M "C 2"
_symmetry_group_IT_number 5
_symmetry_cell_setting 'monoclinic'
loop_
_space_group_symop_operation_xyz
x,y,z
-x,y,-z
1/2+x,1/2+y,z
1/2-x,1/2+y,-z
loop_
_atom_site_type_symbol
_atom_site_label
_atom_site_fract_x
_atom_site_fract_y
_atom_site_fract_z
Si Si1 0.812158 0.939460 0.934582
Si Si2 0.929622 0.248328 0.836578
Si Si3 0.312323 0.762981 0.355514
Si Si4 0.084920 0.585969 0.429907
Si Si5 0.520761 0.102799 0.185531
O O1 0.501593 0.557399 0.876392
O O2 0.771225 0.883897 0.799894
O O3 0.642712 0.069431 0.793771
O O4 0.856979 0.751544 0.022474
O O5 0.702763 0.231166 0.598562
O O6 0.028538 0.398717 0.878735
O O7 0.000000 0.268685 0.000000
O O8 0.155052 0.639075 0.239033
O O9 0.633667 0.113765 0.382490
O O10 0.371750 0.894284 0.487592
O O11 0.000000 0.178052 0.500000
#
# Coordination Sequence:
#
# PCOD9125923 Si02
#       5
#     4   4   4   4   4
#     4  11  24  47  72  99 148 192 233 289 371 439
#     4  12  24  44  73 101 140 188 245 292 352 436
#     4  10  21  47  74  96 141 197 231 288 368 433
#     4  11  25  45  71 107 144 185 233 304 365 417
#     4  12  25  45  73 107 146 184 243 308 357 430
#
# _framework density 23.186803999999999
#
# number of rings (size 3 to 8) (size 9 to 14) (size 15 to 20)
#    0.000    0.800    4.000    3.000    2.800    0.000 
#   10.800    0.000    0.000    0.000    0.000    0.000 
#    0.000    0.000    0.000    0.000    0.000    0.000 
#
# Total GULP energy -55801.942276 kJ/mol
# GULP energy per Si atom -5580.194228 kJ/mol
# Density = 2.313403 g / cm^3
# Si number density = 23.186804 Si / 1000 Ang^3
#
#
#
# Elastic Constant Matrix: (Units=GPa)
#
#
# Indices 1 2 3 4 5 6 
#
# 1 95.3124 27.7501 28.9345 0.0000 -19.6112 0.0000
# 2 27.7501 69.9938 29.6604 0.0000 -8.0384 0.0000
# 3 28.9345 29.6604 99.2780 0.0000 0.3478 0.0000
# 4 0.0000 0.0000 0.0000 21.2515 0.0000 -7.5495
# 5 -19.6112 -8.0384 0.3478 0.0000 39.1555 0.0000
# 6 0.0000 0.0000 0.0000 -7.5495 0.0000 21.4117
#
#
#
# Elastic Compliance Matrix: (Units=1/GPa)
#
#
# Indices 1 2 3 4 5 6 
#
# 1 0.013667 -0.003451 -0.002974 0.000000 0.006163 0.000000
# 2 -0.003451 0.017695 -0.004288 0.000000 0.001943 0.000000
# 3 -0.002974 -0.004288 0.012229 0.000000 -0.002478 0.000000
# 4 0.000000 0.000000 0.000000 0.053793 0.000000 0.018967
# 5 0.006163 0.001943 -0.002478 0.000000 0.029047 0.000000
# 6 0.000000 0.000000 0.000000 0.018967 0.000000 0.053391
#
#
# Mechanical properties :
#
#
# Convention : Reuss Voigt Hill
#
# Bulk Modulus (GPa) = 45.11210 48.58603 46.84906
# Shear Modulus (GPa) = 23.96508 28.24636 26.10572
#
# Velocity S-wave (km/s) = 3.21840 3.49407 3.35906
# Velocity P-wave (km/s) = 5.77139 6.10555 5.94082
#
# Compressibility (1/GPa) = 0.02216700
#
# Stress axis : x y z
#
# Youngs Moduli (GPa) = 73.16645 56.51294 81.77137
#
# Poissons Ratio (x) = 0.19500 0.24319
# Poissons Ratio (y) = 0.25246 0.35061
# Poissons Ratio (z) = 0.21760 0.24231
#
# Static dielectric constant tensor:
#      x y z
#    x 1.895990 0.000000 0.076110 
#    y 0.000000 1.903260 0.000000 
#    z 0.076110 0.000000 1.965630 
# 
# From -- ./inp_files/61337.got.cif
#   From: 2010.05.17/outbox.cif.g08.bks.cpg/sg5_31_cif.got.tgz:61337.got - 2010.06.03 18:56:24.
