data_PCOD9125440
_publ_section_title
;
Structure prediction by ZEFSAII (Michael W. Deem and Ramdas Pophale) SiO2 
 PCOD9125440
Probable space group: C 2
;
_chemical_formula_sum "Si O2"
_cell_formula_units_Z 28
_cell_length_a 12.046027
_cell_length_b 7.454574
_cell_length_c 16.006215
_cell_angle_alpha 90.000000
_cell_angle_beta 111.144033
_cell_angle_gamma 90.000000
_cell_volume 1340.560402
_symmetry_space_group_name_H-M "C 2"
_symmetry_group_IT_number 5
_symmetry_cell_setting 'monoclinic'
loop_
_space_group_symop_operation_xyz
x,y,z
-x,y,-z
1/2+x,1/2+y,z
1/2-x,1/2+y,-z
loop_
_atom_site_type_symbol
_atom_site_label
_atom_site_fract_x
_atom_site_fract_y
_atom_site_fract_z
Si Si1 0.229994 0.307800 0.398695
Si Si2 0.005485 0.442945 0.237736
Si Si3 0.141299 0.178677 0.552561
Si Si4 0.650411 0.207951 0.992622
Si Si5 0.283061 0.977696 0.295465
Si Si6 0.931899 0.798879 0.845100
Si Si7 0.582496 0.793219 0.948979
O O1 0.101872 0.368707 0.328342
O O2 0.209580 0.242218 0.487512
O O3 0.317910 0.476293 0.419389
O O4 0.279200 0.149544 0.353940
O O5 0.061706 0.618749 0.209046
O O6 0.882009 0.494105 0.249803
O O7 0.976081 0.296434 0.158202
O O8 0.179103 0.307204 0.638505
O O9 0.000000 0.190097 0.500000
O O10 0.569337 0.330786 0.909474
O O11 0.603584 0.006005 0.970126
O O12 0.630271 0.263144 0.082612
O O13 0.788209 0.209437 0.010284
O O14 0.151389 0.940642 0.223499
O O15 0.500000 0.720745 0.000000
#
# Coordination Sequence:
#
# PCOD9125440 Si02
#       7
#     4   4   4   4   4   4   4
#     4  12  27  44  73 103 135 180 231 282 356 422
#     4  11  23  43  68 102 139 179 234 286 338 410
#     4  12  26  46  72 103 137 178 225 290 358 415
#     4  10  21  41  66  96 140 187 224 284 343 395
#     4  12  25  44  73 103 140 181 232 288 345 418
#     4  10  21  44  65  96 146 182 227 293 341 397
#     4  11  22  41  66  97 140 184 230 280 336 403
#
# _framework density 20.886787000000002
#
# number of rings (size 3 to 8) (size 9 to 14) (size 15 to 20)
#    0.000    0.857    8.571    0.000    0.000    6.286 
#    2.571    0.000    0.000    0.000    0.000    0.000 
#    0.000    0.000    0.000    0.000    0.000    0.000 
#
# Total GULP energy -78301.354338 kJ/mol
# GULP energy per Si atom -5592.953881 kJ/mol
# Density = 2.083925 g / cm^3
# Si number density = 20.886787 Si / 1000 Ang^3
#
#
#
# Elastic Constant Matrix: (Units=GPa)
#
#
# Indices 1 2 3 4 5 6 
#
# 1 118.3103 25.4055 27.0680 0.0000 1.0243 0.0000
# 2 25.4055 87.4992 27.6909 0.0000 4.7361 0.0000
# 3 27.0680 27.6909 85.9444 0.0000 -2.6778 0.0000
# 4 0.0000 0.0000 0.0000 16.2585 0.0000 8.1231
# 5 1.0243 4.7361 -2.6778 0.0000 30.3357 0.0000
# 6 0.0000 0.0000 0.0000 8.1231 0.0000 26.0796
#
#
#
# Elastic Compliance Matrix: (Units=1/GPa)
#
#
# Indices 1 2 3 4 5 6 
#
# 1 0.009414 -0.001984 -0.002332 0.000000 -0.000214 0.000000
# 2 -0.001984 0.013314 -0.003738 0.000000 -0.002342 0.000000
# 3 -0.002332 -0.003738 0.013633 0.000000 0.001866 0.000000
# 4 0.000000 0.000000 0.000000 0.072842 0.000000 -0.022688
# 5 -0.000214 -0.002342 0.001866 0.000000 0.033502 0.000000
# 6 0.000000 0.000000 0.000000 -0.022688 0.000000 0.045411
#
#
# Mechanical properties :
#
#
# Convention : Reuss Voigt Hill
#
# Bulk Modulus (GPa) = 49.37647 50.23139 49.80393
# Shear Modulus (GPa) = 23.69953 28.64073 26.17013
#
# Velocity S-wave (km/s) = 3.37213 3.70704 3.54355
# Velocity P-wave (km/s) = 6.23323 6.51340 6.37485
#
# Compressibility (1/GPa) = 0.02025256
#
# Stress axis : x y z
#
# Youngs Moduli (GPa) = 106.22728 75.10698 73.35395
#
# Poissons Ratio (x) = 0.14898 0.17109
# Poissons Ratio (y) = 0.21071 0.27420
# Poissons Ratio (z) = 0.24777 0.28075
#
# Static dielectric constant tensor:
#      x y z
#    x 1.723290 0.000000 0.016060 
#    y 0.000000 1.756660 0.000000 
#    z 0.016060 0.000000 1.745340 
# 
# From -- ./inp_files/52221.got.cif
#   From: 2010.05.17/outbox.cif.g08.bks.cpg/sg5_27_cif.got.tgz:52221.got - 2010.06.03 18:56:24.
