data_PCOD9125580
_publ_section_title
;
Structure prediction by ZEFSAII (Michael W. Deem and Ramdas Pophale) SiO2 
 PCOD9125580
Probable space group: C 2
;
_chemical_formula_sum "Si O2"
_cell_formula_units_Z 26
_cell_length_a 31.741071
_cell_length_b 6.866701
_cell_length_c 20.157116
_cell_angle_alpha 90.000000
_cell_angle_beta 165.785669
_cell_angle_gamma 90.000000
_cell_volume 1078.792200
_symmetry_space_group_name_H-M "C 2"
_symmetry_group_IT_number 5
_symmetry_cell_setting 'monoclinic'
loop_
_space_group_symop_operation_xyz
x,y,z
-x,y,-z
1/2+x,1/2+y,z
1/2-x,1/2+y,-z
loop_
_atom_site_type_symbol
_atom_site_label
_atom_site_fract_x
_atom_site_fract_y
_atom_site_fract_z
Si Si1 0.186306 0.448000 0.758570
Si Si2 0.349274 0.248341 0.570775
Si Si3 0.500000 0.272491 0.000000
Si Si4 0.607213 0.527009 0.039048
Si Si5 0.512296 0.934114 0.113620
Si Si6 0.935407 0.671214 0.219630
Si Si7 0.654928 0.350915 0.780177
O O1 0.218007 0.663458 0.835483
O O2 0.000000 0.398333 0.500000
O O3 0.216733 0.453760 0.726206
O O4 0.312708 0.298355 0.984969
O O5 0.463290 0.433042 0.769579
O O6 0.397071 0.065152 0.691006
O O7 0.159223 0.318407 0.297472
O O8 0.392497 0.179231 0.562255
O O9 0.555577 0.435175 0.029957
O O10 0.576568 0.096473 0.067807
O O11 0.596605 0.760220 0.021913
O O12 0.934518 0.775285 0.289058
O O13 0.823127 0.475270 0.053823
O O14 0.500000 0.442913 0.500000
#
# Coordination Sequence:
#
# PCOD9125580 Si02
#       7
#     4   4   2   4   4   4   4
#     4  10  22  43  67  96 130 177 226 277 337 400
#     4  10  22  38  68  92 122 173 222 269 341 392
#     4  10  24  40  60  98 134 170 216 268 338 390
#     4  10  21  42  65  93 134 171 216 278 330 399
#     4  11  20  43  63  93 131 169 219 274 326 406
#     4  11  22  44  64  96 133 173 225 282 335 403
#     4  11  23  43  67  96 134 175 226 277 339 403
#
# _framework density 24.101026000000001
#
# number of rings (size 3 to 8) (size 9 to 14) (size 15 to 20)
#    0.000    1.538    3.077    1.846    0.000    0.000 
#   22.154    0.000    0.000    0.000    0.000    0.000 
#    0.000    0.000    0.000    0.000    0.000    0.000 
#
# Total GULP energy -72406.316289 kJ/mol
# GULP energy per Si atom -5569.716638 kJ/mol
# Density = 2.404617 g / cm^3
# Si number density = 24.101026 Si / 1000 Ang^3
#
#
#
# Elastic Constant Matrix: (Units=GPa)
#
#
# Indices 1 2 3 4 5 6 
#
# 1 264.9316 80.2962 81.2805 0.0000 76.1257 0.0000
# 2 80.2962 164.9728 57.0903 0.0000 26.1902 0.0000
# 3 81.2805 57.0903 119.2072 0.0000 58.9086 0.0000
# 4 0.0000 0.0000 0.0000 -4.7522 0.0000 -14.9830
# 5 76.1257 26.1902 58.9086 0.0000 53.1877 0.0000
# 6 0.0000 0.0000 0.0000 -14.9830 0.0000 28.3173
#
#
#
# Elastic Compliance Matrix: (Units=1/GPa)
#
#
# Indices 1 2 3 4 5 6 
#
# 1 0.007069 -0.002283 0.001585 0.000000 -0.010749 0.000000
# 2 -0.002283 0.008012 -0.004298 0.000000 0.004082 0.000000
# 3 0.001585 -0.004298 0.020857 0.000000 -0.023253 0.000000
# 4 0.000000 0.000000 0.000000 -0.078865 0.000000 -0.041728
# 5 -0.010749 0.004082 -0.023253 0.000000 0.057930 0.000000
# 6 0.000000 0.000000 0.000000 -0.041728 0.000000 0.013235
#
#
# Mechanical properties :
#
#
# Convention : Reuss Voigt Hill
#
# Bulk Modulus (GPa) = 38.53958 109.60506 74.07232
# Shear Modulus (GPa) = 106.65927 37.38019 72.01973
#
# Velocity S-wave (km/s) = 6.65967 3.94252 5.47241
# Velocity P-wave (km/s) = 8.66951 8.14252 8.41015
#
# Compressibility (1/GPa) = 0.02594735
#
# Stress axis : x y z
#
# Youngs Moduli (GPa) = 141.47034 124.81450 47.94490
#
# Poissons Ratio (x) = 0.28491 -0.07601
# Poissons Ratio (y) = 0.32293 0.20606
# Poissons Ratio (z) = -0.22427 0.53644
#
# Static dielectric constant tensor:
#      x y z
#    x 1.966600 0.000000 -0.015240 
#    y 0.000000 1.874510 0.000000 
#    z -0.015240 0.000000 2.043320 
# 
# From -- ./inp_files/67697.got.cif
#   From: 2010.05.17/outbox.cif.g08.bks.cpg/sg5_34_cif.got.tgz:67697.got - 2010.06.03 18:56:24.
