data_PCOD9125914
_publ_section_title
;
Structure prediction by ZEFSAII (Michael W. Deem and Ramdas Pophale) SiO2 
 PCOD9125914
Probable space group: C 2
;
_chemical_formula_sum "Si O2"
_cell_formula_units_Z 26
_cell_length_a 26.451903
_cell_length_b 7.410394
_cell_length_c 5.816156
_cell_angle_alpha 90.000000
_cell_angle_beta 62.331395
_cell_angle_gamma 90.000000
_cell_volume 1009.707338
_symmetry_space_group_name_H-M "C 2"
_symmetry_group_IT_number 5
_symmetry_cell_setting 'monoclinic'
loop_
_space_group_symop_operation_xyz
x,y,z
-x,y,-z
1/2+x,1/2+y,z
1/2-x,1/2+y,-z
loop_
_atom_site_type_symbol
_atom_site_label
_atom_site_fract_x
_atom_site_fract_y
_atom_site_fract_z
Si Si1 0.931415 0.139430 0.143918
Si Si2 0.412924 0.015353 0.996422
Si Si3 0.683927 0.980210 0.177579
Si Si4 0.722834 0.623797 0.343881
Si Si5 0.670776 0.265397 0.586990
Si Si6 0.000000 0.663641 0.500000
Si Si7 0.063595 0.017891 0.370863
O O1 0.911525 0.076664 0.438977
O O2 0.918161 0.351062 0.159084
O O3 0.911773 0.063514 0.932356
O O4 0.000000 0.100294 0.000000
O O5 0.367334 0.957334 0.896281
O O6 0.475262 0.048224 0.758443
O O7 0.386084 0.193170 0.168296
O O8 0.692969 0.803613 0.313560
O O9 0.670971 0.162094 0.344766
O O10 0.744619 0.015626 0.926561
O O11 0.774486 0.683413 0.398102
O O12 0.684289 0.476268 0.551579
O O13 0.551405 0.304726 0.430477
O O14 0.000000 0.104253 0.500000
#
# Coordination Sequence:
#
# PCOD9125914 Si02
#       7
#     4   4   4   4   4   2   4
#     4  10  21  46  75  98 145 202 259 319 380 457
#     4  11  28  46  73 112 151 203 265 314 398 467
#     4  11  24  46  75 118 148 201 246 321 401 477
#     4  11  22  46  82 100 159 188 246 324 395 461
#     4  11  24  46  73 116 144 200 253 311 399 480
#     4  10  24  52  70 102 162 204 258 344 376 458
#     4   8  20  44  72  99 130 207 260 309 389 436
#
# _framework density 25.750035
#
# number of rings (size 3 to 8) (size 9 to 14) (size 15 to 20)
#    0.462    1.231    3.077    0.000    5.385    0.000 
#   13.846    1.538    0.000    0.000    0.000    0.000 
#    0.000    0.000    0.000    0.000    0.000    0.000 
#
# Total GULP energy -72722.773913 kJ/mol
# GULP energy per Si atom -5594.059532 kJ/mol
# Density = 2.569143 g / cm^3
# Si number density = 25.750035 Si / 1000 Ang^3
#
#
#
# Elastic Constant Matrix: (Units=GPa)
#
#
# Indices 1 2 3 4 5 6 
#
# 1 58.6602 22.8063 47.0541 0.0000 5.7138 0.0000
# 2 22.8063 96.9076 27.9865 0.0000 5.4475 0.0000
# 3 47.0541 27.9865 147.1254 0.0000 0.3113 0.0000
# 4 0.0000 0.0000 0.0000 43.9955 0.0000 3.2201
# 5 5.7138 5.4475 0.3113 0.0000 38.0777 0.0000
# 6 0.0000 0.0000 0.0000 3.2201 0.0000 29.4697
#
#
#
# Elastic Compliance Matrix: (Units=1/GPa)
#
#
# Indices 1 2 3 4 5 6 
#
# 1 0.024447 -0.003516 -0.007143 0.000000 -0.003107 0.000000
# 2 -0.003516 0.011516 -0.001064 0.000000 -0.001111 0.000000
# 3 -0.007143 -0.001064 0.009281 0.000000 0.001148 0.000000
# 4 0.000000 0.000000 0.000000 0.022913 0.000000 -0.002504
# 5 -0.003107 -0.001111 0.001148 0.000000 0.026878 0.000000
# 6 0.000000 0.000000 0.000000 -0.002504 0.000000 0.034207
#
#
# Mechanical properties :
#
#
# Convention : Reuss Voigt Hill
#
# Bulk Modulus (GPa) = 45.87435 55.37632 50.62534
# Shear Modulus (GPa) = 31.25897 35.96499 33.61198
#
# Velocity S-wave (km/s) = 3.48794 3.74130 3.61684
# Velocity P-wave (km/s) = 5.83737 6.34154 6.09467
#
# Compressibility (1/GPa) = 0.02179867
#
# Stress axis : x y z
#
# Youngs Moduli (GPa) = 40.90509 86.83407 107.74168
#
# Poissons Ratio (x) = 0.30529 0.76963
# Poissons Ratio (y) = 0.14381 0.11462
# Poissons Ratio (z) = 0.29220 0.09238
#
# Static dielectric constant tensor:
#      x y z
#    x 2.015950 0.000000 -0.023880 
#    y 0.000000 2.026810 0.000000 
#    z -0.023880 0.000000 2.071140 
# 
# From -- ./inp_files/9433.got.cif
#   From: 2010.05.17/outbox.cif.g08.bks.cpg/sg5_5_cif.got.tgz:9433.got - 2010.06.03 18:56:24.
