data_PCOD9125083
_publ_section_title
;
Structure prediction by ZEFSAII (Michael W. Deem and Ramdas Pophale) SiO2 
 PCOD9125083
Probable space group: C 2
;
_chemical_formula_sum "Si O2"
_cell_formula_units_Z 22
_cell_length_a 13.061418
_cell_length_b 9.141964
_cell_length_c 7.885124
_cell_angle_alpha 90.000000
_cell_angle_beta 63.885190
_cell_angle_gamma 90.000000
_cell_volume 845.420983
_symmetry_space_group_name_H-M "C 2"
_symmetry_group_IT_number 5
_symmetry_cell_setting 'monoclinic'
loop_
_space_group_symop_operation_xyz
x,y,z
-x,y,-z
1/2+x,1/2+y,z
1/2-x,1/2+y,-z
loop_
_atom_site_type_symbol
_atom_site_label
_atom_site_fract_x
_atom_site_fract_y
_atom_site_fract_z
Si Si1 0.408740 0.254770 0.820431
Si Si2 0.513217 0.553040 0.318586
Si Si3 0.766721 0.943267 0.527278
Si Si4 0.947681 0.339438 0.208688
Si Si5 0.500000 0.040062 0.500000
Si Si6 0.830188 0.731161 0.232655
O O1 0.396070 0.429578 0.796860
O O2 0.409689 0.153234 0.653280
O O3 0.537489 0.238582 0.805852
O O4 0.326017 0.209912 0.034369
O O5 0.500000 0.647123 0.500000
O O6 0.402001 0.455052 0.443487
O O7 0.497379 0.677121 0.191743
O O8 0.689559 0.836481 0.697395
O O9 0.762632 0.876947 0.340072
O O10 0.724443 0.100751 0.619693
O O11 0.969012 0.439559 0.359895
O O12 0.000000 0.406728 0.000000
#
# Coordination Sequence:
#
# PCOD9125083 Si02
#       6
#     4   4   4   4   2   4
#     4  10  22  40  68  95 136 188 236 283 355 424
#     4  11  24  45  68 101 142 188 239 299 356 422
#     4  11  22  41  67  97 143 186 231 297 350 420
#     4  12  26  44  73 104 144 193 237 295 367 424
#     4  12  22  42  72  98 142 182 246 294 350 420
#     4  10  21  39  67  97 132 189 236 281 357 424
#
# _framework density 26.022538000000001
#
# number of rings (size 3 to 8) (size 9 to 14) (size 15 to 20)
#    0.000    1.091    5.455    1.091    5.091    0.000 
#    0.000    5.455    4.000    0.000    0.000    0.000 
#    0.000    0.000    0.000    0.000    0.000    0.000 
#
# Total GULP energy -61285.948690 kJ/mol
# GULP energy per Si atom -5571.449881 kJ/mol
# Density = 2.596331 g / cm^3
# Si number density = 26.022538 Si / 1000 Ang^3
#
#
#
# Elastic Constant Matrix: (Units=GPa)
#
#
# Indices 1 2 3 4 5 6 
#
# 1 30.7133 14.3041 25.2453 0.0000 6.7150 0.0000
# 2 14.3041 162.7052 71.1490 0.0000 20.1494 0.0000
# 3 25.2453 71.1490 222.5605 0.0000 28.4590 0.0000
# 4 0.0000 0.0000 0.0000 38.3224 0.0000 6.5393
# 5 6.7150 20.1494 28.4590 0.0000 31.8764 0.0000
# 6 0.0000 0.0000 0.0000 6.5393 0.0000 20.3352
#
#
#
# Elastic Compliance Matrix: (Units=1/GPa)
#
#
# Indices 1 2 3 4 5 6 
#
# 1 0.036705 -0.001318 -0.003229 0.000000 -0.004017 0.000000
# 2 -0.001318 0.007420 -0.001872 0.000000 -0.002741 0.000000
# 3 -0.003229 -0.001872 0.005892 0.000000 -0.003397 0.000000
# 4 0.000000 0.000000 0.000000 0.027609 0.000000 -0.008879
# 5 -0.004017 -0.002741 -0.003397 0.000000 0.036983 0.000000
# 6 0.000000 0.000000 0.000000 -0.008879 0.000000 0.052031
#
#
# Mechanical properties :
#
#
# Convention : Reuss Voigt Hill
#
# Bulk Modulus (GPa) = 26.89578 70.81952 48.85765
# Shear Modulus (GPa) = 26.05920 38.45882 32.25901
#
# Velocity S-wave (km/s) = 3.16794 3.84852 3.52470
# Velocity P-wave (km/s) = 4.87228 6.85725 5.94815
#
# Compressibility (1/GPa) = 0.03718055
#
# Stress axis : x y z
#
# Youngs Moduli (GPa) = 27.24434 134.77006 169.71463
#
# Poissons Ratio (x) = 0.17757 0.54795
# Poissons Ratio (y) = 0.03590 0.31772
# Poissons Ratio (z) = 0.08796 0.25230
#
# Static dielectric constant tensor:
#      x y z
#    x 2.413780 0.000000 0.142080 
#    y 0.000000 2.063870 0.000000 
#    z 0.142080 0.000000 2.113920 
# 
# From -- ./inp_files/26658.got.cif
#   From: 2010.05.17/outbox.cif.g08.bks.cpg/sg5_14_cif.got.tgz:26658.got - 2010.06.03 18:56:24.
