data_PCOD9125480
_publ_section_title
;
Structure prediction by ZEFSAII (Michael W. Deem and Ramdas Pophale) SiO2 
 PCOD9125480
Probable space group: C 2
;
_chemical_formula_sum "Si O2"
_cell_formula_units_Z 32
_cell_length_a 13.516622
_cell_length_b 11.387433
_cell_length_c 13.666148
_cell_angle_alpha 90.000000
_cell_angle_beta 138.558673
_cell_angle_gamma 90.000000
_cell_volume 1392.199572
_symmetry_space_group_name_H-M "C 2"
_symmetry_group_IT_number 5
_symmetry_cell_setting 'monoclinic'
loop_
_space_group_symop_operation_xyz
x,y,z
-x,y,-z
1/2+x,1/2+y,z
1/2-x,1/2+y,-z
loop_
_atom_site_type_symbol
_atom_site_label
_atom_site_fract_x
_atom_site_fract_y
_atom_site_fract_z
Si Si1 0.645318 0.008800 0.542548
Si Si2 0.951085 0.524998 0.211044
Si Si3 0.214727 0.097786 0.781777
Si Si4 0.660546 0.754725 0.568273
Si Si5 0.566069 0.632179 0.312109
Si Si6 0.621819 0.868217 0.020040
Si Si7 0.899904 0.015808 0.019855
Si Si8 0.141884 0.757593 0.942227
O O1 0.500000 0.040357 0.500000
O O2 0.571361 0.999843 0.381253
O O3 0.783565 0.093846 0.631535
O O4 0.721121 0.885276 0.628621
O O5 0.956543 0.425714 0.132518
O O6 0.964806 0.654275 0.174575
O O7 0.780123 0.520641 0.125868
O O8 0.229249 0.150087 0.683877
O O9 0.041888 0.071442 0.684133
O O10 0.274067 0.200101 0.900726
O O11 0.307668 0.980593 0.871283
O O12 0.500000 0.767732 0.500000
O O13 0.630801 0.732488 0.431912
O O14 0.449842 0.612385 0.136846
O O15 0.500000 0.811095 0.000000
O O16 0.752683 0.790700 0.071711
O O17 0.925611 0.882778 0.078052
O O18 0.000000 0.031732 0.000000
#
# Coordination Sequence:
#
# PCOD9125480 Si02
#       8
#     4   4   4   4   4   4   4   4
#     4  11  25  43  66  97 129 172 219 267 324 387
#     4  10  23  42  63  92 137 161 217 277 319 391
#     4  10  21  45  65 100 124 175 220 271 317 397
#     4   9  23  40  72  89 129 173 217 261 331 393
#     4  11  22  43  64  98 131 164 216 272 323 383
#     4  10  22  39  66  96 132 167 219 269 330 381
#     4  11  23  39  69  95 125 171 221 274 319 385
#     4  10  21  41  68  93 134 167 222 270 326 382
#
# _framework density 22.985209000000001
#
# number of rings (size 3 to 8) (size 9 to 14) (size 15 to 20)
#    0.000    1.750    3.750    0.750   14.000    3.500 
#    2.250    0.000    2.750    0.000    0.000    0.000 
#    0.000    0.000    0.000    0.000    0.000    0.000 
#
# Total GULP energy -89186.288532 kJ/mol
# GULP energy per Si atom -5574.143033 kJ/mol
# Density = 2.293289 g / cm^3
# Si number density = 22.985209 Si / 1000 Ang^3
#
#
#
# Elastic Constant Matrix: (Units=GPa)
#
#
# Indices 1 2 3 4 5 6 
#
# 1 58.7040 35.9743 3.3003 0.0000 9.8810 0.0000
# 2 35.9743 64.4601 10.5271 0.0000 -11.8102 0.0000
# 3 3.3003 10.5271 69.1038 0.0000 4.4934 0.0000
# 4 0.0000 0.0000 0.0000 6.9515 0.0000 -14.7280
# 5 9.8810 -11.8102 4.4934 0.0000 33.4254 0.0000
# 6 0.0000 0.0000 0.0000 -14.7280 0.0000 -3.1899
#
#
#
# Elastic Compliance Matrix: (Units=1/GPa)
#
#
# Indices 1 2 3 4 5 6 
#
# 1 0.034002 -0.022875 0.003067 0.000000 -0.018546 0.000000
# 2 -0.022875 0.032587 -0.005105 0.000000 0.018962 0.000000
# 3 0.003067 -0.005105 0.015413 0.000000 -0.004782 0.000000
# 4 0.000000 0.000000 0.000000 0.013342 0.000000 -0.061600
# 5 -0.018546 0.018962 -0.004782 0.000000 0.042743 0.000000
# 6 0.000000 0.000000 0.000000 -0.061600 0.000000 -0.029075
#
#
# Mechanical properties :
#
#
# Convention : Reuss Voigt Hill
#
# Bulk Modulus (GPa) = 31.07837 32.43015 31.75426
# Shear Modulus (GPa) = 29.48754 16.93514 23.21134
#
# Velocity S-wave (km/s) = 3.58563 2.71732 3.18124
# Velocity P-wave (km/s) = 5.54010 4.89744 5.22865
#
# Compressibility (1/GPa) = 0.03217671
#
# Stress axis : x y z
#
# Youngs Moduli (GPa) = 29.41037 30.68668 64.87971
#
# Poissons Ratio (x) = 0.70195 -0.19897
# Poissons Ratio (y) = 0.67275 0.33120
# Poissons Ratio (z) = -0.09019 0.15665
#
# Static dielectric constant tensor:
#      x y z
#    x 1.866770 0.000000 0.016190 
#    y 0.000000 1.924260 0.000000 
#    z 0.016190 0.000000 1.915200 
# 
# From -- ./inp_files/54596.got.cif
#   From: 2010.05.17/outbox.cif.g08.bks.cpg/sg5_28_cif.got.tgz:54596.got - 2010.06.03 18:56:24.
