data_PCOD9125955
_publ_section_title
;
Structure prediction by ZEFSAII (Michael W. Deem and Ramdas Pophale) SiO2 
 PCOD9125955
Probable space group: C 2
;
_chemical_formula_sum "Si O2"
_cell_formula_units_Z 28
_cell_length_a 20.255777
_cell_length_b 5.194837
_cell_length_c 11.599937
_cell_angle_alpha 90.000000
_cell_angle_beta 65.202149
_cell_angle_gamma 90.000000
_cell_volume 1108.060295
_symmetry_space_group_name_H-M "C 2"
_symmetry_group_IT_number 5
_symmetry_cell_setting 'monoclinic'
loop_
_space_group_symop_operation_xyz
x,y,z
-x,y,-z
1/2+x,1/2+y,z
1/2-x,1/2+y,-z
loop_
_atom_site_type_symbol
_atom_site_label
_atom_site_fract_x
_atom_site_fract_y
_atom_site_fract_z
Si Si1 0.015387 0.489240 0.671793
Si Si2 0.749873 0.551372 0.346825
Si Si3 0.864632 0.491561 0.863741
Si Si4 0.269181 0.755280 0.111741
Si Si5 0.480523 0.501537 0.193502
Si Si6 0.608938 0.368381 0.955543
Si Si7 0.335275 0.048719 0.521866
O O1 0.045942 0.271980 0.738077
O O2 0.078563 0.499242 0.530686
O O3 0.930353 0.404407 0.734504
O O4 0.009735 0.786010 0.716293
O O5 0.781582 0.470652 0.199964
O O6 0.691131 0.327756 0.417998
O O7 0.809093 0.540535 0.406437
O O8 0.709890 0.824517 0.382558
O O9 0.816244 0.706983 0.836570
O O10 0.802411 0.306621 0.960279
O O11 0.894077 0.619382 0.961003
O O12 0.314875 0.507236 0.115283
O O13 0.427841 0.361787 0.141345
O O14 0.555238 0.552673 0.070106
#
# Coordination Sequence:
#
# PCOD9125955 Si02
#       7
#     4   4   4   4   4   4   4
#     4  11  22  42  66  94 134 168 218 283 334 388
#     4  10  24  40  69  95 130 172 221 271 344 386
#     4  11  25  40  64  96 137 178 227 262 337 401
#     4  12  23  42  64  93 137 182 218 273 320 415
#     4  10  22  35  61  97 128 169 208 267 341 392
#     4  10  22  36  57  92 134 168 214 263 325 402
#     4  10  22  44  64  99 127 166 224 288 327 393
#
# _framework density 25.269380999999999
#
# number of rings (size 3 to 8) (size 9 to 14) (size 15 to 20)
#    0.000    1.429    2.857    1.714    6.000    2.286 
#    0.000    0.714    0.000    1.714    0.000    0.000 
#    0.000    0.000    0.000    0.000    0.000    0.000 
#
# Total GULP energy -78228.755065 kJ/mol
# GULP energy per Si atom -5587.768219 kJ/mol
# Density = 2.521187 g / cm^3
# Si number density = 25.269381 Si / 1000 Ang^3
#
#
#
# Elastic Constant Matrix: (Units=GPa)
#
#
# Indices 1 2 3 4 5 6 
#
# 1 83.6746 0.4369 30.6710 0.0000 -20.6248 0.0000
# 2 0.4369 93.7199 10.2304 0.0000 -7.5108 0.0000
# 3 30.6710 10.2304 109.0606 0.0000 -21.9694 0.0000
# 4 0.0000 0.0000 0.0000 30.9449 0.0000 -10.2206
# 5 -20.6248 -7.5108 -21.9694 0.0000 34.3680 0.0000
# 6 0.0000 0.0000 0.0000 -10.2206 0.0000 23.1974
#
#
#
# Elastic Compliance Matrix: (Units=1/GPa)
#
#
# Indices 1 2 3 4 5 6 
#
# 1 0.014749 0.000815 -0.002761 0.000000 0.007265 0.000000
# 2 0.000815 0.010942 -0.000775 0.000000 0.002385 0.000000
# 3 -0.002761 -0.000775 0.011077 0.000000 0.005254 0.000000
# 4 0.000000 0.000000 0.000000 0.037819 0.000000 0.016663
# 5 0.007265 0.002385 0.005254 0.000000 0.037336 0.000000
# 6 0.000000 0.000000 0.000000 0.016663 0.000000 0.050450
#
#
# Mechanical properties :
#
#
# Convention : Reuss Voigt Hill
#
# Bulk Modulus (GPa) = 31.92277 41.01463 36.46870
# Shear Modulus (GPa) = 28.04922 34.04318 31.04620
#
# Velocity S-wave (km/s) = 3.33529 3.67442 3.50896
# Velocity P-wave (km/s) = 5.24334 5.85389 5.55701
#
# Compressibility (1/GPa) = 0.03132560
#
# Stress axis : x y z
#
# Youngs Moduli (GPa) = 67.79900 91.39074 90.27817
#
# Poissons Ratio (x) = -0.07447 0.24926
# Poissons Ratio (y) = -0.05524 0.06998
# Poissons Ratio (z) = 0.18720 0.07084
#
# Static dielectric constant tensor:
#      x y z
#    x 2.086430 0.000000 0.008630 
#    y 0.000000 2.008880 0.000000 
#    z 0.008630 0.000000 2.041230 
# 
# From -- ./inp_files/45641.got.cif
#   From: 2010.05.17/outbox.cif.g08.bks.cpg/sg5_23_cif.got.tgz:45641.got - 2010.06.03 18:56:24.
