data_PCOD9125732
_publ_section_title
;
Structure prediction by ZEFSAII (Michael W. Deem and Ramdas Pophale) SiO2 
 PCOD9125732
Probable space group: C 2
;
_chemical_formula_sum "Si O2"
_cell_formula_units_Z 16
_cell_length_a 7.473154
_cell_length_b 21.660800
_cell_length_c 7.612487
_cell_angle_alpha 90.000000
_cell_angle_beta 37.719835
_cell_angle_gamma 90.000000
_cell_volume 753.902372
_symmetry_space_group_name_H-M "C 2"
_symmetry_group_IT_number 5
_symmetry_cell_setting 'monoclinic'
loop_
_space_group_symop_operation_xyz
x,y,z
-x,y,-z
1/2+x,1/2+y,z
1/2-x,1/2+y,-z
loop_
_atom_site_type_symbol
_atom_site_label
_atom_site_fract_x
_atom_site_fract_y
_atom_site_fract_z
Si Si1 0.801628 0.250000 0.828853
Si Si2 0.000000 0.631410 0.000000
Si Si3 0.161730 0.956006 0.705418
Si Si4 0.792439 0.849361 0.825542
Si Si5 0.500000 0.541193 0.500000
O O1 0.000000 0.248240 0.500000
O O2 0.500000 0.278934 0.000000
O O3 0.701565 0.180063 0.953658
O O4 0.861727 0.293644 0.945721
O O5 0.774671 0.586739 0.267535
O O6 0.500000 0.948155 0.500000
O O7 0.004329 0.891736 0.777865
O O8 0.087561 0.998491 0.596246
O O9 0.000000 0.983343 0.000000
O O10 0.000000 0.830781 0.500000
O O11 0.500000 0.887961 0.000000
#
# Coordination Sequence:
#
# PCOD9125732 Si02
#       5
#     4   2   4   4   2
#     4  10  21  43  67 101 132 194 235 279 367 416
#     4  10  22  44  76  94 140 200 224 302 356 418
#     4  12  27  47  72 108 146 194 236 300 367 426
#     4  12  25  42  69 109 152 186 239 302 359 438
#     4  12  24  48  74 104 146 182 258 282 358 438
#
# _framework density 21.222906999999999
#
# number of rings (size 3 to 8) (size 9 to 14) (size 15 to 20)
#    0.750    0.000    2.500    5.250    1.750    2.000 
#    0.000    7.500    0.000    0.000    0.000    0.000 
#    0.000    0.000    0.000    0.000    0.000    0.000 
#
# Total GULP energy -44533.883647 kJ/mol
# GULP energy per Si atom -5566.735456 kJ/mol
# Density = 2.117460 g / cm^3
# Si number density = 21.222907 Si / 1000 Ang^3
#
#
#
# Elastic Constant Matrix: (Units=GPa)
#
#
# Indices 1 2 3 4 5 6 
#
# 1 142.5463 53.7271 71.8336 0.0000 -1.5847 0.0000
# 2 53.7271 142.0232 61.4532 0.0000 17.1783 0.0000
# 3 71.8336 61.4532 181.7704 0.0000 -12.1364 0.0000
# 4 0.0000 0.0000 0.0000 42.3261 0.0000 3.4823
# 5 -1.5847 17.1783 -12.1364 0.0000 39.4193 0.0000
# 6 0.0000 0.0000 0.0000 3.4823 0.0000 53.5526
#
#
#
# Elastic Compliance Matrix: (Units=1/GPa)
#
#
# Indices 1 2 3 4 5 6 
#
# 1 0.009355 -0.002364 -0.002863 0.000000 0.000525 0.000000
# 2 -0.002364 0.009728 -0.002700 0.000000 -0.005166 0.000000
# 3 -0.002863 -0.002700 0.007776 0.000000 0.003456 0.000000
# 4 0.000000 0.000000 0.000000 0.023753 0.000000 -0.001545
# 5 0.000525 -0.005166 0.003456 0.000000 0.028704 0.000000
# 6 0.000000 0.000000 0.000000 -0.001545 0.000000 0.018774
#
#
# Mechanical properties :
#
#
# Convention : Reuss Voigt Hill
#
# Bulk Modulus (GPa) = 90.85215 93.37418 92.11316
# Shear Modulus (GPa) = 42.51293 45.68133 44.09713
#
# Velocity S-wave (km/s) = 4.48053 4.64449 4.56324
# Velocity P-wave (km/s) = 8.34675 8.53546 8.44163
#
# Compressibility (1/GPa) = 0.01100689
#
# Stress axis : x y z
#
# Youngs Moduli (GPa) = 106.89969 102.79354 128.59731
#
# Poissons Ratio (x) = 0.24296 0.36813
# Poissons Ratio (y) = 0.25267 0.34718
# Poissons Ratio (z) = 0.30602 0.27752
#
# Static dielectric constant tensor:
#      x y z
#    x 1.570400 0.000000 0.040710 
#    y 0.000000 1.773620 0.000000 
#    z 0.040710 0.000000 1.781180 
# 
# From -- ./inp_files/17165.got.cif
#   From: 2010.05.17/outbox.cif.g08.bks.cpg/sg5_9_cif.got.tgz:17165.got - 2010.06.03 18:56:24.
