data_PCOD9125389
_publ_section_title
;
Structure prediction by ZEFSAII (Michael W. Deem and Ramdas Pophale) SiO2 
 PCOD9125389
Probable space group: C 2
;
_chemical_formula_sum "Si O2"
_cell_formula_units_Z 26
_cell_length_a 9.622697
_cell_length_b 12.323592
_cell_length_c 21.358401
_cell_angle_alpha 90.000000
_cell_angle_beta 26.339390
_cell_angle_gamma 90.000000
_cell_volume 1123.776539
_symmetry_space_group_name_H-M "C 2"
_symmetry_group_IT_number 5
_symmetry_cell_setting 'monoclinic'
loop_
_space_group_symop_operation_xyz
x,y,z
-x,y,-z
1/2+x,1/2+y,z
1/2-x,1/2+y,-z
loop_
_atom_site_type_symbol
_atom_site_label
_atom_site_fract_x
_atom_site_fract_y
_atom_site_fract_z
Si Si1 0.243175 0.011190 0.526159
Si Si2 0.089643 0.227488 0.037310
Si Si3 0.678155 0.640451 0.741103
Si Si4 0.315802 0.438704 0.901282
Si Si5 0.500000 0.600465 0.500000
Si Si6 0.219462 0.160182 0.217887
Si Si7 0.661114 0.804030 0.357064
O O1 0.512159 0.105191 0.420968
O O2 0.154827 0.023960 0.488947
O O3 0.954734 0.052670 0.684611
O O4 0.389964 0.892821 0.480878
O O5 0.206825 0.351479 0.994978
O O6 0.403723 0.158448 0.927597
O O7 0.000000 0.208319 0.000000
O O8 0.824224 0.214687 0.197143
O O9 0.561770 0.528248 0.819578
O O10 0.420833 0.676541 0.794420
O O11 0.512684 0.367779 0.771812
O O12 0.000000 0.486038 0.000000
O O13 0.686112 0.691316 0.384520
O O14 0.118866 0.260210 0.303354
#
# Coordination Sequence:
#
# PCOD9125389 Si02
#       7
#     4   4   4   4   2   4   4
#     4  10  23  39  65  95 130 167 220 267 323 397
#     4  10  22  39  64  90 126 164 212 263 321 391
#     4  11  22  39  65  91 124 166 210 269 319 386
#     4   9  19  35  60  87 119 158 213 247 313 389
#     4  10  22  40  64  90 132 170 216 268 332 378
#     4  10  21  41  64  92 127 168 212 269 326 383
#     4   9  21  39  61  91 127 169 210 270 323 392
#
# _framework density 23.13627
#
# number of rings (size 3 to 8) (size 9 to 14) (size 15 to 20)
#    0.000    2.154    0.000    1.846   12.923    0.000 
#    5.538    4.615    6.769    0.000    0.000    0.000 
#    0.000    0.000    0.000    0.000    0.000    0.000 
#
# Total GULP energy -72439.019927 kJ/mol
# GULP energy per Si atom -5572.232302 kJ/mol
# Density = 2.308361 g / cm^3
# Si number density = 23.136270 Si / 1000 Ang^3
#
#
#
# Elastic Constant Matrix: (Units=GPa)
#
#
# Indices 1 2 3 4 5 6 
#
# 1 144.2369 11.0569 10.3071 -0.0287 3.2354 0.0108
# 2 11.0569 48.2383 15.9303 -0.0360 8.1410 0.0018
# 3 10.3071 15.9303 58.2906 -0.0494 -4.8119 0.0027
# 4 -0.0287 -0.0360 -0.0494 33.3656 0.0024 1.0186
# 5 3.2354 8.1410 -4.8119 0.0024 36.3286 -0.0153
# 6 0.0108 0.0018 0.0027 1.0186 -0.0153 24.3653
#
#
#
# Elastic Compliance Matrix: (Units=1/GPa)
#
#
# Indices 1 2 3 4 5 6 
#
# 1 0.007107 -0.001230 -0.000960 0.000003 -0.000485 -0.000003
# 2 -0.001230 0.024370 -0.006960 0.000016 -0.006274 -0.000005
# 3 -0.000960 -0.006960 0.019577 0.000020 0.004238 0.000001
# 4 0.000003 0.000016 0.000020 0.030009 -0.000004 -0.001255
# 5 -0.000485 -0.006274 0.004238 -0.000004 0.029537 0.000019
# 6 -0.000003 -0.000005 0.000001 -0.001255 0.000019 0.041094
#
#
# Mechanical properties :
#
#
# Convention : Reuss Voigt Hill
#
# Bulk Modulus (GPa) = 30.53234 36.15046 33.34140
# Shear Modulus (GPa) = 27.63745 33.04333 30.34039
#
# Velocity S-wave (km/s) = 3.45998 3.78326 3.62522
# Velocity P-wave (km/s) = 5.40253 5.89432 5.65377
#
# Compressibility (1/GPa) = 0.03275216
#
# Stress axis : x y z
#
# Youngs Moduli (GPa) = 140.70959 41.03445 51.07936
#
# Poissons Ratio (x) = 0.05047 0.04906
# Poissons Ratio (y) = 0.17308 0.35553
# Poissons Ratio (z) = 0.13515 0.28562
#
# Static dielectric constant tensor:
#      x y z
#    x 1.934760 -0.000020 0.024410 
#    y -0.000020 1.908710 -0.000070 
#    z 0.024410 -0.000070 2.004510 
# 
# From -- ./inp_files/64633.got.cif
#   From: 2010.05.17/outbox.cif.g08.bks.cpg/sg5_33_cif.got.tgz:64633.got - 2010.06.03 18:56:24.
