data_PCOD9125066
_publ_section_title
;
Structure prediction by ZEFSAII (Michael W. Deem and Ramdas Pophale) SiO2 
 PCOD9125066
Probable space group: C 2
;
_chemical_formula_sum "Si O2"
_cell_formula_units_Z 30
_cell_length_a 17.888315
_cell_length_b 5.430977
_cell_length_c 14.209181
_cell_angle_alpha 90.000000
_cell_angle_beta 66.355372
_cell_angle_gamma 90.000000
_cell_volume 1264.549737
_symmetry_space_group_name_H-M "C 2"
_symmetry_group_IT_number 5
_symmetry_cell_setting 'monoclinic'
loop_
_space_group_symop_operation_xyz
x,y,z
-x,y,-z
1/2+x,1/2+y,z
1/2-x,1/2+y,-z
loop_
_atom_site_type_symbol
_atom_site_label
_atom_site_fract_x
_atom_site_fract_y
_atom_site_fract_z
Si Si1 0.000000 0.153360 0.000000
Si Si2 0.924432 0.662213 0.410118
Si Si3 0.783994 0.585969 0.848198
Si Si4 0.240774 0.012823 0.345823
Si Si5 0.356793 0.322369 0.983025
Si Si6 0.392729 0.191450 0.647594
Si Si7 0.361539 0.937299 0.139812
Si Si8 0.166627 0.167352 0.575695
O O1 0.948265 0.304271 0.104857
O O2 0.070010 0.003789 0.022385
O O3 0.908573 0.641727 0.530243
O O4 0.895474 0.397423 0.388187
O O5 0.019714 0.707712 0.349055
O O6 0.876939 0.903849 0.397139
O O7 0.845082 0.747910 0.881195
O O8 0.837349 0.498925 0.733211
O O9 0.708770 0.740077 0.844717
O O10 0.735304 0.400750 0.939303
O O11 0.317866 0.096826 0.243736
O O12 0.213867 0.165459 0.451181
O O13 0.160436 0.942440 0.327527
O O14 0.270405 0.748779 0.375749
O O15 0.373746 0.088596 0.039068
#
# Coordination Sequence:
#
# PCOD9125066 Si02
#       8
#     2   4   4   4   4   4   4   4
#     4  10  24  42  64  94 136 174 218 282 344 396
#     4  10  23  43  64  95 140 166 224 267 344 393
#     4  10  21  39  66  94 125 169 225 270 335 394
#     4  10  22  42  70  93 131 174 229 271 340 408
#     4  11  21  41  65  93 129 174 221 283 328 408
#     4   9  21  40  62  94 126 174 210 276 330 404
#     4  10  22  43  64  97 128 179 222 276 338 404
#     4  11  23  43  65  97 132 178 213 284 321 405
#
# _framework density 23.723860999999999
#
# number of rings (size 3 to 8) (size 9 to 14) (size 15 to 20)
#    0.000    1.867    1.333    2.000    1.867    5.333 
#   14.400    0.000    0.000    0.000    0.000    0.000 
#    0.000    0.000    0.000    0.000    0.000    0.000 
#
# Total GULP energy -83680.943716 kJ/mol
# GULP energy per Si atom -5578.729581 kJ/mol
# Density = 2.366986 g / cm^3
# Si number density = 23.723861 Si / 1000 Ang^3
#
#
#
# Elastic Constant Matrix: (Units=GPa)
#
#
# Indices 1 2 3 4 5 6 
#
# 1 152.6463 51.3643 38.4620 0.0000 -27.9856 -0.0001
# 2 51.3643 85.8999 15.3125 -0.0001 -5.7616 -0.0002
# 3 38.4620 15.3125 82.9522 0.0000 -19.3537 0.0000
# 4 0.0000 -0.0001 0.0000 17.8991 0.0000 -4.0678
# 5 -27.9856 -5.7616 -19.3537 0.0000 36.7751 0.0000
# 6 -0.0001 -0.0002 0.0000 -4.0678 0.0000 16.2380
#
#
#
# Elastic Compliance Matrix: (Units=1/GPa)
#
#
# Indices 1 2 3 4 5 6 
#
# 1 0.009868 -0.005114 -0.002356 0.000000 0.005469 0.000000
# 2 -0.005114 0.014709 -0.000814 0.000000 -0.002016 0.000000
# 3 -0.002356 -0.000814 0.014648 0.000000 0.005789 0.000000
# 4 0.000000 0.000000 0.000000 0.059242 0.000000 0.014841
# 5 0.005469 -0.002016 0.005789 0.000000 0.034085 0.000000
# 6 0.000000 0.000000 0.000000 0.014841 0.000000 0.065302
#
#
# Mechanical properties :
#
#
# Convention : Reuss Voigt Hill
#
# Bulk Modulus (GPa) = 44.13488 59.08625 51.61057
# Shear Modulus (GPa) = 22.52517 28.60639 25.56578
#
# Velocity S-wave (km/s) = 3.08470 3.47624 3.28630
# Velocity P-wave (km/s) = 5.59742 6.40876 6.01678
#
# Compressibility (1/GPa) = 0.02265781
#
# Stress axis : x y z
#
# Youngs Moduli (GPa) = 101.33753 67.98404 68.26745
#
# Poissons Ratio (x) = 0.34767 0.16081
# Poissons Ratio (y) = 0.51823 0.05560
# Poissons Ratio (z) = 0.23871 0.05537
#
# Static dielectric constant tensor:
#      x y z
#    x 1.924650 0.000000 0.004230 
#    y 0.000000 1.949790 0.000000 
#    z 0.004230 0.000000 1.991130 
# 
# From -- ./inp_files/55289.got.cif
#   From: 2010.05.17/outbox.cif.g08.bks.cpg/sg5_28_cif.got.tgz:55289.got - 2010.06.03 18:56:24.
