data_PCOD9125811
_publ_section_title
;
Structure prediction by ZEFSAII (Michael W. Deem and Ramdas Pophale) SiO2 
 PCOD9125811
Probable space group: C 2
;
_chemical_formula_sum "Si O2"
_cell_formula_units_Z 20
_cell_length_a 12.388489
_cell_length_b 8.099339
_cell_length_c 17.618428
_cell_angle_alpha 90.000000
_cell_angle_beta 29.416847
_cell_angle_gamma 90.000000
_cell_volume 868.276356
_symmetry_space_group_name_H-M "C 2"
_symmetry_group_IT_number 5
_symmetry_cell_setting 'monoclinic'
loop_
_space_group_symop_operation_xyz
x,y,z
-x,y,-z
1/2+x,1/2+y,z
1/2-x,1/2+y,-z
loop_
_atom_site_type_symbol
_atom_site_label
_atom_site_fract_x
_atom_site_fract_y
_atom_site_fract_z
Si Si1 0.301298 0.203460 0.225669
Si Si2 0.314793 0.698727 0.871787
Si Si3 0.348702 0.402471 0.342323
Si Si4 0.706437 0.846109 0.704935
Si Si5 0.046216 0.684172 0.584871
O O1 0.184341 0.244089 0.218076
O O2 0.264181 0.332014 0.315102
O O3 0.237654 0.021966 0.294109
O O4 0.562645 0.193127 0.050067
O O5 0.445281 0.525317 0.796312
O O6 0.451909 0.822478 0.840755
O O7 0.163243 0.511754 0.497305
O O8 0.420272 0.251031 0.351711
O O9 0.825621 0.806836 0.552246
O O10 0.797645 0.708017 0.707818
#
# Coordination Sequence:
#
# PCOD9125811 Si02
#       5
#     4   4   4   4   4
#     4  11  22  43  71  91 135 182 215 273 329 387
#     4  10  23  43  66 100 129 174 231 264 327 398
#     4  11  22  44  68 100 133 177 217 277 330 392
#     4  10  21  44  63  95 140 166 220 276 321 397
#     4  10  22  42  66  98 134 173 223 268 338 394
#
# _framework density 23.034143
#
# number of rings (size 3 to 8) (size 9 to 14) (size 15 to 20)
#    0.000    1.600    2.000    2.400    0.000    0.000 
#   39.600    0.000    0.000    0.000    0.000    0.000 
#    0.000    0.000    0.000    0.000    0.000    0.000 
#
# Total GULP energy -55962.254447 kJ/mol
# GULP energy per Si atom -5596.225445 kJ/mol
# Density = 2.298172 g / cm^3
# Si number density = 23.034143 Si / 1000 Ang^3
#
#
#
# Elastic Constant Matrix: (Units=GPa)
#
#
# Indices 1 2 3 4 5 6 
#
# 1 136.6896 50.0679 24.4943 -0.0007 -8.0451 -0.0008
# 2 50.0679 85.6021 22.1831 -0.0006 1.6685 -0.0009
# 3 24.4943 22.1831 52.1935 -0.0015 -14.6394 -0.0002
# 4 -0.0007 -0.0006 -0.0015 33.3142 0.0007 -5.4391
# 5 -8.0451 1.6685 -14.6394 0.0007 38.2471 0.0005
# 6 -0.0008 -0.0009 -0.0002 -5.4391 0.0005 15.8929
#
#
#
# Elastic Compliance Matrix: (Units=1/GPa)
#
#
# Indices 1 2 3 4 5 6 
#
# 1 0.009642 -0.005178 -0.001896 0.000000 0.001529 0.000000
# 2 -0.005178 0.016231 -0.005570 0.000000 -0.003929 0.000001
# 3 -0.001896 -0.005570 0.025064 0.000001 0.009438 0.000000
# 4 0.000000 0.000000 0.000001 0.031794 0.000000 0.010881
# 5 0.001529 -0.003929 0.009438 0.000000 0.030251 -0.000001
# 6 0.000000 0.000001 0.000000 0.010881 -0.000001 0.066645
#
#
# Mechanical properties :
#
#
# Convention : Reuss Voigt Hill
#
# Bulk Modulus (GPa) = 38.98871 51.99732 45.49301
# Shear Modulus (GPa) = 23.42318 29.34018 26.38168
#
# Velocity S-wave (km/s) = 3.19233 3.57286 3.38794
# Velocity P-wave (km/s) = 5.52731 6.29631 5.92430
#
# Compressibility (1/GPa) = 0.02564845
#
# Stress axis : x y z
#
# Youngs Moduli (GPa) = 103.71073 61.61145 39.89849
#
# Poissons Ratio (x) = 0.31904 0.07563
# Poissons Ratio (y) = 0.53704 0.22225
# Poissons Ratio (z) = 0.19658 0.34320
#
# Static dielectric constant tensor:
#      x y z
#    x 1.860030 0.000000 -0.048530 
#    y 0.000000 1.867960 0.000000 
#    z -0.048530 0.000000 1.918800 
# 
# From -- ./inp_files/60283.got.cif
#   From: 2010.05.17/outbox.cif.g08.bks.cpg/sg5_31_cif.got.tgz:60283.got - 2010.06.03 18:56:24.
