data_PCOD9125207
_publ_section_title
;
Structure prediction by ZEFSAII (Michael W. Deem and Ramdas Pophale) SiO2 
 PCOD9125207
Probable space group: C 2
;
_chemical_formula_sum "Si O2"
_cell_formula_units_Z 32
_cell_length_a 15.078163
_cell_length_b 20.299416
_cell_length_c 15.330910
_cell_angle_alpha 90.000000
_cell_angle_beta 160.447537
_cell_angle_gamma 90.000000
_cell_volume 1570.422474
_symmetry_space_group_name_H-M "C 2"
_symmetry_group_IT_number 5
_symmetry_cell_setting 'monoclinic'
loop_
_space_group_symop_operation_xyz
x,y,z
-x,y,-z
1/2+x,1/2+y,z
1/2-x,1/2+y,-z
loop_
_atom_site_type_symbol
_atom_site_label
_atom_site_fract_x
_atom_site_fract_y
_atom_site_fract_z
Si Si1 0.365558 0.214680 0.614148
Si Si2 0.215657 0.881375 0.628670
Si Si3 0.698626 0.155014 0.256175
Si Si4 0.963247 0.569460 0.635345
Si Si5 0.411699 0.422631 0.176228
Si Si6 0.970503 0.007937 0.873073
Si Si7 0.970261 0.514085 0.828757
Si Si8 0.603388 0.798230 0.902844
O O1 0.322231 0.197588 0.675501
O O2 0.401306 0.144775 0.599503
O O3 0.111192 0.254744 0.346185
O O4 0.633278 0.255267 0.844240
O O5 0.447784 0.827444 0.842242
O O6 0.000000 0.864808 0.500000
O O7 0.089585 0.887793 0.414613
O O8 0.322781 0.955286 0.741653
O O9 0.579124 0.082860 0.169744
O O10 0.000000 0.149724 0.500000
O O11 0.500000 0.183384 0.000000
O O12 0.793207 0.547705 0.394956
O O13 0.878076 0.527820 0.643242
O O14 0.271943 0.552982 0.908940
O O15 0.533834 0.448690 0.200402
O O16 0.195774 0.367938 0.947565
O O17 0.264235 0.484137 0.087346
O O18 0.000000 0.986961 0.000000
#
# Coordination Sequence:
#
# PCOD9125207 Si02
#       8
#     4   4   4   4   4   4   4   4
#     4  11  23  44  68  85 129 184 215 262 327 377
#     4  11  22  39  66  97 132 165 214 269 329 393
#     4  11  24  39  63 101 132 162 218 272 325 396
#     4  10  21  40  64  93 122 168 208 259 323 386
#     4  10  22  41  65  95 130 171 209 263 334 390
#     4  11  22  40  67  95 127 158 214 272 322 378
#     4   9  21  34  63  94 135 162 199 257 339 398
#     4  11  23  43  66  89 125 177 222 260 314 393
#
# _framework density 20.376681000000001
#
# number of rings (size 3 to 8) (size 9 to 14) (size 15 to 20)
#    0.000    1.500    2.500    2.250    3.500    3.500 
#    0.000    4.375    0.000    0.000    0.000    0.000 
#    0.000    0.000    0.000    0.000    0.000    0.000 
#
# Total GULP energy -89293.888128 kJ/mol
# GULP energy per Si atom -5580.868008 kJ/mol
# Density = 2.033030 g / cm^3
# Si number density = 20.376681 Si / 1000 Ang^3
#
#
#
# Elastic Constant Matrix: (Units=GPa)
#
#
# Indices 1 2 3 4 5 6 
#
# 1 85.1876 27.4506 17.2899 0.0027 -2.5496 0.0052
# 2 27.4506 77.0567 27.6368 0.0024 7.2224 0.0009
# 3 17.2899 27.6368 108.6920 0.0066 -0.0498 -0.0020
# 4 0.0027 0.0024 0.0066 24.7188 0.0017 3.7508
# 5 -2.5496 7.2224 -0.0498 0.0017 31.9700 -0.0002
# 6 0.0052 0.0009 -0.0020 3.7508 -0.0002 -15.7586
#
#
#
# Elastic Compliance Matrix: (Units=1/GPa)
#
#
# Indices 1 2 3 4 5 6 
#
# 1 0.013501 -0.004664 -0.000961 -0.000002 0.002129 0.000004
# 2 -0.004664 0.016233 -0.003387 0.000000 -0.004045 0.000000
# 3 -0.000961 -0.003387 0.010215 -0.000002 0.000705 -0.000002
# 4 -0.000002 0.000000 -0.000002 0.039045 -0.000002 0.009293
# 5 0.002129 -0.004045 0.000705 -0.000002 0.032364 -0.000001
# 6 0.000004 0.000000 -0.000002 0.009293 -0.000001 -0.061246
#
#
# Mechanical properties :
#
#
# Convention : Reuss Voigt Hill
#
# Bulk Modulus (GPa) = 45.61310 46.18787 45.90049
# Shear Modulus (GPa) = 66.27415 21.42332 43.84874
#
# Velocity S-wave (km/s) = 5.70921 3.24599 4.64390
# Velocity P-wave (km/s) = 8.11749 6.06340 7.16445
#
# Compressibility (1/GPa) = 0.02192353
#
# Stress axis : x y z
#
# Youngs Moduli (GPa) = 74.07118 61.60243 97.89774
#
# Poissons Ratio (x) = 0.28734 0.09404
# Poissons Ratio (y) = 0.34550 0.33162
# Poissons Ratio (z) = 0.07115 0.20867
#
# Static dielectric constant tensor:
#      x y z
#    x 1.729030 0.000000 0.002930 
#    y 0.000000 1.713970 0.000000 
#    z 0.002930 0.000000 1.781750 
# 
# From -- ./inp_files/55041.got.cif
#   From: 2010.05.17/outbox.cif.g08.bks.cpg/sg5_28_cif.got.tgz:55041.got - 2010.06.03 18:56:24.
