data_PCOD9125963
_publ_section_title
;
Structure prediction by ZEFSAII (Michael W. Deem and Ramdas Pophale) SiO2 
 PCOD9125963
Probable space group: C 2
;
_chemical_formula_sum "Si O2"
_cell_formula_units_Z 30
_cell_length_a 22.869129
_cell_length_b 11.311308
_cell_length_c 6.578209
_cell_angle_alpha 90.000000
_cell_angle_beta 59.480647
_cell_angle_gamma 90.000000
_cell_volume 1465.899060
_symmetry_space_group_name_H-M "C 2"
_symmetry_group_IT_number 5
_symmetry_cell_setting 'monoclinic'
loop_
_space_group_symop_operation_xyz
x,y,z
-x,y,-z
1/2+x,1/2+y,z
1/2-x,1/2+y,-z
loop_
_atom_site_type_symbol
_atom_site_label
_atom_site_fract_x
_atom_site_fract_y
_atom_site_fract_z
Si Si1 0.739270 0.547850 0.674431
Si Si2 0.741390 0.262036 0.121576
Si Si3 0.864984 0.964094 0.810409
Si Si4 0.828205 0.165095 0.591722
Si Si5 0.500000 0.132073 0.500000
Si Si6 0.568418 0.069567 0.012407
Si Si7 0.968555 0.812895 0.853399
Si Si8 0.167109 0.368885 0.683525
O O1 0.783801 0.642296 0.722385
O O2 0.718280 0.601750 0.495450
O O3 0.777024 0.427264 0.561001
O O4 0.674168 0.522352 0.929283
O O5 0.683971 0.358981 0.183050
O O6 0.796023 0.314684 0.184720
O O7 0.780253 0.221922 0.849500
O O8 0.871731 0.064394 0.627282
O O9 0.933178 0.906095 0.772957
O O10 0.866262 0.266053 0.394236
O O11 0.552124 0.053415 0.281727
O O12 0.479114 0.226874 0.361838
O O13 0.500000 0.055407 0.000000
O O14 0.585385 0.210276 0.980363
O O15 0.620740 0.976514 0.836838
O O16 0.000000 0.865187 0.000000
#
# Coordination Sequence:
#
# PCOD9125963 Si02
#       8
#     4   4   4   4   2   4   4   4
#     4  10  22  36  58  92 128 163 204 254 311 381
#     4  10  22  36  56  91 125 165 209 244 317 382
#     4  11  21  38  63  89 131 171 202 259 317 389
#     4  10  22  39  54  92 131 161 218 246 311 394
#     4   8  18  40  56  94 126 150 214 266 310 382
#     4   9  21  38  61  94 124 156 212 266 318 368
#     4   9  21  39  60  93 129 153 214 271 320 364
#     4  11  21  38  62  90 133 168 198 266 315 374
#
# _framework density 20.465256
#
# number of rings (size 3 to 8) (size 9 to 14) (size 15 to 20)
#    0.800    1.333    2.667    0.000    1.867    3.200 
#    0.000    0.000    0.000   13.600    0.000    0.000 
#    0.000    0.000    0.000    0.000    0.000    0.000 
#
# Total GULP energy -83526.763640 kJ/mol
# GULP energy per Si atom -5568.450909 kJ/mol
# Density = 2.041868 g / cm^3
# Si number density = 20.465256 Si / 1000 Ang^3
#
#
#
# Elastic Constant Matrix: (Units=GPa)
#
#
# Indices 1 2 3 4 5 6 
#
# 1 47.1633 32.9955 35.8461 0.0000 20.0763 0.0000
# 2 32.9955 97.4705 43.6528 0.0000 18.0914 0.0000
# 3 35.8461 43.6528 101.3723 0.0000 27.3868 0.0000
# 4 0.0000 0.0000 0.0000 46.0041 0.0000 15.1799
# 5 20.0763 18.0914 27.3868 0.0000 23.8606 0.0000
# 6 0.0000 0.0000 0.0000 15.1799 0.0000 12.9133
#
#
#
# Elastic Compliance Matrix: (Units=1/GPa)
#
#
# Indices 1 2 3 4 5 6 
#
# 1 0.039203 -0.006983 -0.004891 0.000000 -0.022077 0.000000
# 2 -0.006983 0.014356 -0.003420 0.000000 -0.001085 0.000000
# 3 -0.004891 -0.003420 0.016313 0.000000 -0.012015 0.000000
# 4 0.000000 0.000000 0.000000 0.035512 0.000000 -0.041745
# 5 -0.022077 -0.001085 -0.012015 0.000000 0.075099 0.000000
# 6 0.000000 0.000000 0.000000 -0.041745 0.000000 0.126512
#
#
# Mechanical properties :
#
#
# Convention : Reuss Voigt Hill
#
# Bulk Modulus (GPa) = 25.45537 52.33276 38.89406
# Shear Modulus (GPa) = 14.25812 25.45638 19.85725
#
# Velocity S-wave (km/s) = 2.64237 3.53070 3.11833
# Velocity P-wave (km/s) = 4.66635 6.49986 5.65787
#
# Compressibility (1/GPa) = 0.03928444
#
# Stress axis : x y z
#
# Youngs Moduli (GPa) = 25.50804 69.65635 61.30083
#
# Poissons Ratio (x) = 0.48639 0.29985
# Poissons Ratio (y) = 0.17811 0.20964
# Poissons Ratio (z) = 0.12477 0.23822
#
# Static dielectric constant tensor:
#      x y z
#    x 1.720860 0.000000 -0.021180 
#    y 0.000000 1.782860 0.000000 
#    z -0.021180 0.000000 1.802860 
# 
# From -- ./inp_files/10324.got.cif
#   From: 2010.05.17/outbox.cif.g08.bks.cpg/sg5_6_cif.got.tgz:10324.got - 2010.06.03 18:56:24.
