data_PCOD9125444
_publ_section_title
;
Structure prediction by ZEFSAII (Michael W. Deem and Ramdas Pophale) SiO2 
 PCOD9125444
Probable space group: C 2
;
_chemical_formula_sum "Si O2"
_cell_formula_units_Z 24
_cell_length_a 19.602604
_cell_length_b 7.086882
_cell_length_c 11.288627
_cell_angle_alpha 90.000000
_cell_angle_beta 143.500002
_cell_angle_gamma 90.000000
_cell_volume 932.819612
_symmetry_space_group_name_H-M "C 2"
_symmetry_group_IT_number 5
_symmetry_cell_setting 'monoclinic'
loop_
_space_group_symop_operation_xyz
x,y,z
-x,y,-z
1/2+x,1/2+y,z
1/2-x,1/2+y,-z
loop_
_atom_site_type_symbol
_atom_site_label
_atom_site_fract_x
_atom_site_fract_y
_atom_site_fract_z
Si Si1 0.313533 0.709660 0.278835
Si Si2 0.133353 0.638209 0.204392
Si Si3 0.236038 0.134135 0.138506
Si Si4 0.978547 0.146295 0.724755
Si Si5 0.081202 0.869534 0.716079
Si Si6 0.287918 0.565114 0.636197
O O1 0.211036 0.593473 0.198417
O O2 0.264101 0.909771 0.167639
O O3 0.409773 0.737240 0.517855
O O4 0.371787 0.571696 0.265702
O O5 0.189173 0.550674 0.399944
O O6 0.161182 0.861847 0.257029
O O7 0.000000 0.602862 0.000000
O O8 0.257075 0.165525 0.308290
O O9 0.185232 0.728290 0.850590
O O10 0.106117 0.203392 0.937830
O O11 0.004871 0.926630 0.721825
O O12 0.895030 0.158699 0.719155
O O13 0.000000 0.793293 0.500000
#
# Coordination Sequence:
#
# PCOD9125444 Si02
#       6
#     4   4   4   4   4   4
#     4   9  22  45  62  95 141 172 225 290 341 401
#     4  10  21  41  66  98 133 180 218 285 343 407
#     4  11  23  43  70 103 128 186 234 279 350 418
#     4  10  22  43  70  94 141 181 220 296 347 406
#     4  10  24  43  65  94 137 179 226 288 339 413
#     4  10  22  41  70  98 138 174 228 285 344 405
#
# _framework density 25.728446999999999
#
# number of rings (size 3 to 8) (size 9 to 14) (size 15 to 20)
#    0.000    2.000    0.000    2.500    9.333    2.000 
#    9.000    0.833    0.000    0.000    0.000    0.000 
#    0.000    0.000    0.000    0.000    0.000    0.000 
#
# Total GULP energy -67089.743563 kJ/mol
# GULP energy per Si atom -5590.811964 kJ/mol
# Density = 2.566989 g / cm^3
# Si number density = 25.728447 Si / 1000 Ang^3
#
#
#
# Elastic Constant Matrix: (Units=GPa)
#
#
# Indices 1 2 3 4 5 6 
#
# 1 92.6167 32.7687 46.4622 0.0000 -0.2399 0.0000
# 2 32.7687 89.4598 18.0376 0.0000 2.9100 0.0000
# 3 46.4622 18.0376 145.3000 0.0000 38.6338 0.0000
# 4 0.0000 0.0000 0.0000 25.0928 0.0000 -0.9893
# 5 -0.2399 2.9100 38.6338 0.0000 50.0230 0.0000
# 6 0.0000 0.0000 0.0000 -0.9893 0.0000 22.5956
#
#
#
# Elastic Compliance Matrix: (Units=1/GPa)
#
#
# Indices 1 2 3 4 5 6 
#
# 1 0.015205 -0.004608 -0.005513 0.000000 0.004599 0.000000
# 2 -0.004608 0.012873 0.000101 0.000000 -0.000849 0.000000
# 3 -0.005513 0.000101 0.010874 0.000000 -0.008431 0.000000
# 4 0.000000 0.000000 0.000000 0.039921 0.000000 0.001748
# 5 0.004599 -0.000849 -0.008431 0.000000 0.026573 0.000000
# 6 0.000000 0.000000 0.000000 0.001748 0.000000 0.044333
#
#
# Mechanical properties :
#
#
# Convention : Reuss Voigt Hill
#
# Bulk Modulus (GPa) = 52.87185 57.99039 55.43112
# Shear Modulus (GPa) = 28.38933 34.88282 31.63607
#
# Velocity S-wave (km/s) = 3.32538 3.68612 3.51039
# Velocity P-wave (km/s) = 5.94464 6.38005 6.16619
#
# Compressibility (1/GPa) = 0.01891366
#
# Stress axis : x y z
#
# Youngs Moduli (GPa) = 65.76870 77.68098 91.96081
#
# Poissons Ratio (x) = 0.35792 0.50695
# Poissons Ratio (y) = 0.30303 -0.00929
# Poissons Ratio (z) = 0.36256 -0.00784
#
# Static dielectric constant tensor:
#      x y z
#    x 2.046290 0.000000 -0.033250 
#    y 0.000000 2.060650 0.000000 
#    z -0.033250 0.000000 2.109680 
# 
# From -- ./inp_files/47424.got.cif
#   From: 2010.05.17/outbox.cif.g08.bks.cpg/sg5_24_cif.got.tgz:47424.got - 2010.06.03 18:56:24.
