data_PCOD9125369
_publ_section_title
;
Structure prediction by ZEFSAII (Michael W. Deem and Ramdas Pophale) SiO2 
 PCOD9125369
Probable space group: C 2
;
_chemical_formula_sum "Si O2"
_cell_formula_units_Z 22
_cell_length_a 20.782314
_cell_length_b 8.520741
_cell_length_c 7.947451
_cell_angle_alpha 90.000000
_cell_angle_beta 143.914752
_cell_angle_gamma 90.000000
_cell_volume 828.906979
_symmetry_space_group_name_H-M "C 2"
_symmetry_group_IT_number 5
_symmetry_cell_setting 'monoclinic'
loop_
_space_group_symop_operation_xyz
x,y,z
-x,y,-z
1/2+x,1/2+y,z
1/2-x,1/2+y,-z
loop_
_atom_site_type_symbol
_atom_site_label
_atom_site_fract_x
_atom_site_fract_y
_atom_site_fract_z
Si Si1 0.665636 0.266350 0.521434
Si Si2 0.622920 0.754534 0.566849
Si Si3 0.075902 0.699912 0.897360
Si Si4 0.211698 0.086835 0.452439
Si Si5 0.324819 0.448959 0.106840
Si Si6 0.000000 0.467178 0.500000
O O1 0.544334 0.192449 0.275763
O O2 0.764664 0.149310 0.683596
O O3 0.677223 0.408368 0.409860
O O4 0.678398 0.347886 0.727305
O O5 0.630160 0.686289 0.396268
O O6 0.646510 0.618340 0.754266
O O7 0.514533 0.848285 0.377523
O O8 0.711723 0.891913 0.783251
O O9 0.090085 0.874190 0.848098
O O10 0.087045 0.589038 0.756330
O O11 0.170351 0.629376 0.214116
#
# Coordination Sequence:
#
# PCOD9125369 Si02
#       6
#     4   4   4   4   4   2
#     4  11  22  40  67  87 131 170 204 267 318 378
#     4  10  23  38  63  94 126 162 214 266 318 385
#     4  11  23  42  66  94 125 169 215 267 319 385
#     4  10  25  41  63  94 128 169 214 255 325 388
#     4  10  21  41  63  92 125 165 215 263 318 382
#     4  12  22  36  68  94 122 168 212 270 322 370
#
# _framework density 26.540973999999999
#
# number of rings (size 3 to 8) (size 9 to 14) (size 15 to 20)
#    0.000    1.455    1.818    3.818    7.636    1.455 
#    0.000    0.000    8.000    0.000    0.000    0.000 
#    0.000    0.000    0.000    0.000    0.000    0.000 
#
# Total GULP energy -61458.783407 kJ/mol
# GULP energy per Si atom -5587.162128 kJ/mol
# Density = 2.648057 g / cm^3
# Si number density = 26.540974 Si / 1000 Ang^3
#
#
#
# Elastic Constant Matrix: (Units=GPa)
#
#
# Indices 1 2 3 4 5 6 
#
# 1 117.9143 61.5250 -14.4768 0.0000 9.2358 0.0000
# 2 61.5250 155.3448 2.1172 0.0000 9.4585 0.0000
# 3 -14.4768 2.1172 23.6319 0.0000 -8.8510 0.0000
# 4 0.0000 0.0000 0.0000 25.1929 0.0000 -2.4886
# 5 9.2358 9.4585 -8.8510 0.0000 28.4768 0.0000
# 6 0.0000 0.0000 0.0000 -2.4886 0.0000 72.4791
#
#
#
# Elastic Compliance Matrix: (Units=1/GPa)
#
#
# Indices 1 2 3 4 5 6 
#
# 1 0.011961 -0.004854 0.007824 0.000000 0.000165 0.000000
# 2 -0.004854 0.008593 -0.004779 0.000000 -0.002765 0.000000
# 3 0.007824 -0.004779 0.053397 0.000000 0.015647 0.000000
# 4 0.000000 0.000000 0.000000 0.039829 0.000000 0.001368
# 5 0.000165 -0.002765 0.015647 0.000000 0.040845 0.000000
# 6 0.000000 0.000000 0.000000 0.001368 0.000000 0.013844
#
#
# Mechanical properties :
#
#
# Convention : Reuss Voigt Hill
#
# Bulk Modulus (GPa) = 14.21809 43.91354 29.06581
# Shear Modulus (GPa) = 25.57136 41.74481 33.65809
#
# Velocity S-wave (km/s) = 3.10734 3.97021 3.56498
# Velocity P-wave (km/s) = 4.27116 6.13174 5.28399
#
# Compressibility (1/GPa) = 0.07033296
#
# Stress axis : x y z
#
# Youngs Moduli (GPa) = 83.60472 116.37103 18.72766
#
# Poissons Ratio (x) = 0.56485 -0.14652
# Poissons Ratio (y) = 0.40581 0.08950
# Poissons Ratio (z) = -0.65411 0.55615
#
# Static dielectric constant tensor:
#      x y z
#    x 2.381750 0.000000 -0.007510 
#    y 0.000000 2.024680 0.000000 
#    z -0.007510 0.000000 2.214060 
# 
# From -- ./inp_files/22654.got.cif
#   From: 2010.05.17/outbox.cif.g08.bks.cpg/sg5_12_cif.got.tgz:22654.got - 2010.06.03 18:56:24.
