data_PCOD9125806
_publ_section_title
;
Structure prediction by ZEFSAII (Michael W. Deem and Ramdas Pophale) SiO2 
 PCOD9125806
Probable space group: C 2
;
_chemical_formula_sum "Si O2"
_cell_formula_units_Z 28
_cell_length_a 11.061702
_cell_length_b 14.548338
_cell_length_c 9.424296
_cell_angle_alpha 90.000000
_cell_angle_beta 44.966186
_cell_angle_gamma 90.000000
_cell_volume 1071.797649
_symmetry_space_group_name_H-M "C 2"
_symmetry_group_IT_number 5
_symmetry_cell_setting 'monoclinic'
loop_
_space_group_symop_operation_xyz
x,y,z
-x,y,-z
1/2+x,1/2+y,z
1/2-x,1/2+y,-z
loop_
_atom_site_type_symbol
_atom_site_label
_atom_site_fract_x
_atom_site_fract_y
_atom_site_fract_z
Si Si1 0.202047 0.223340 0.165533
Si Si2 0.000079 0.842072 0.789033
Si Si3 0.263232 0.102487 0.384476
Si Si4 0.774735 0.004193 0.322325
Si Si5 0.366306 0.839413 0.391695
Si Si6 0.156816 0.558029 0.108490
Si Si7 0.750678 0.922608 0.783648
O O1 0.210550 0.175920 0.311385
O O2 0.966693 0.283268 0.709983
O O3 0.367313 0.287371 0.997064
O O4 0.215889 0.139000 0.045215
O O5 0.901401 0.864517 0.726486
O O6 0.180887 0.798269 0.590858
O O7 0.058691 0.939275 0.807783
O O8 0.195764 0.092096 0.600599
O O9 0.468458 0.098937 0.233551
O O10 0.202959 0.007133 0.358511
O O11 0.704736 0.030445 0.227696
O O12 0.639706 0.935939 0.515717
O O13 0.356792 0.858796 0.232265
O O14 0.170480 0.473176 0.987374
#
# Coordination Sequence:
#
# PCOD9125806 Si02
#       7
#     4   4   4   4   4   4   4
#     4  11  24  48  84 118 171 215 274 348 435 478
#     4  10  24  46  86 119 159 213 284 342 406 502
#     4  10  23  47  79 120 163 225 268 346 417 510
#     4   9  23  50  85 116 166 216 287 337 405 508
#     4   9  23  47  83 122 162 213 280 345 406 506
#     4  11  24  48  81 124 163 220 276 345 415 516
#     4  10  21  43  82 115 162 215 275 334 415 501
#
# _framework density 26.124334000000001
#
# number of rings (size 3 to 8) (size 9 to 14) (size 15 to 20)
#    0.857    1.143    0.000    2.571    6.000    0.571 
#    5.143   15.714    3.143    0.000    0.000    0.000 
#    0.000    0.000    0.000    0.000    0.000    0.000 
#
# Total GULP energy -78424.338607 kJ/mol
# GULP energy per Si atom -5601.738472 kJ/mol
# Density = 2.606487 g / cm^3
# Si number density = 26.124334 Si / 1000 Ang^3
#
#
#
# Elastic Constant Matrix: (Units=GPa)
#
#
# Indices 1 2 3 4 5 6 
#
# 1 226.0479 108.2854 116.2819 0.0000 22.3675 0.0001
# 2 108.2854 122.3783 79.3748 0.0000 5.0613 0.0000
# 3 116.2819 79.3748 168.9203 0.0000 19.6079 0.0001
# 4 0.0000 0.0000 0.0000 52.5450 0.0000 7.3484
# 5 22.3675 5.0613 19.6079 0.0000 72.9421 -0.0001
# 6 0.0001 0.0000 0.0001 7.3484 -0.0001 57.0029
#
#
#
# Elastic Compliance Matrix: (Units=1/GPa)
#
#
# Indices 1 2 3 4 5 6 
#
# 1 0.009066 -0.005788 -0.003349 0.000000 -0.001478 0.000000
# 2 -0.005788 0.015483 -0.003481 0.000000 0.001636 0.000000
# 3 -0.003349 -0.003481 0.010027 0.000000 -0.001427 0.000000
# 4 0.000000 0.000000 0.000000 0.019381 0.000000 -0.002498
# 5 -0.001478 0.001636 -0.001427 0.000000 0.014433 0.000000
# 6 0.000000 0.000000 0.000000 -0.002498 0.000000 0.017865
#
#
# Mechanical properties :
#
#
# Convention : Reuss Voigt Hill
#
# Bulk Modulus (GPa) = 107.07913 125.02564 116.05239
# Shear Modulus (GPa) = 43.62847 50.72496 47.17671
#
# Velocity S-wave (km/s) = 4.09104 4.41122 4.25414
# Velocity P-wave (km/s) = 7.96195 8.59692 8.28552
#
# Compressibility (1/GPa) = 0.00933889
#
# Stress axis : x y z
#
# Youngs Moduli (GPa) = 110.30403 64.58641 99.73301
#
# Poissons Ratio (x) = 0.37385 0.33404
# Poissons Ratio (y) = 0.63848 0.34715
# Poissons Ratio (z) = 0.36944 0.22481
#
# Static dielectric constant tensor:
#      x y z
#    x 2.005180 0.000000 -0.101370 
#    y 0.000000 2.155550 0.000000 
#    z -0.101370 0.000000 2.129130 
# 
# From -- ./inp_files/24562.got.cif
#   From: 2010.05.17/outbox.cif.g08.bks.cpg/sg5_13_cif.got.tgz:24562.got - 2010.06.03 18:56:24.
