data_PCOD9125696
_publ_section_title
;
Structure prediction by ZEFSAII (Michael W. Deem and Ramdas Pophale) SiO2 
 PCOD9125696
Probable space group: C 2
;
_chemical_formula_sum "Si O2"
_cell_formula_units_Z 24
_cell_length_a 14.938339
_cell_length_b 13.583185
_cell_length_c 7.940854
_cell_angle_alpha 90.000000
_cell_angle_beta 137.692329
_cell_angle_gamma 90.000000
_cell_volume 1084.571453
_symmetry_space_group_name_H-M "C 2"
_symmetry_group_IT_number 5
_symmetry_cell_setting 'monoclinic'
loop_
_space_group_symop_operation_xyz
x,y,z
-x,y,-z
1/2+x,1/2+y,z
1/2-x,1/2+y,-z
loop_
_atom_site_type_symbol
_atom_site_label
_atom_site_fract_x
_atom_site_fract_y
_atom_site_fract_z
Si Si1 0.351073 0.106210 0.539909
Si Si2 0.687820 0.426205 0.803028
Si Si3 0.500000 0.244401 0.500000
Si Si4 0.087896 0.047282 0.976856
Si Si5 0.496614 0.902190 0.190284
Si Si6 0.845169 0.117170 0.451509
Si Si7 0.000000 0.258170 0.500000
O O1 0.459180 0.174900 0.599773
O O2 0.284767 0.142328 0.622432
O O3 0.222454 0.093242 0.239598
O O4 0.414711 0.999745 0.665762
O O5 0.623457 0.319466 0.692006
O O6 0.655033 0.503985 0.609184
O O7 0.631726 0.472621 0.894872
O O8 0.845099 0.425226 0.023864
O O9 0.000000 0.995951 0.000000
O O10 0.978454 0.123536 0.751424
O O11 0.532058 0.824746 0.383681
O O12 0.500000 0.868513 0.000000
O O13 0.872415 0.185126 0.328105
#
# Coordination Sequence:
#
# PCOD9125696 Si02
#       7
#     4   4   2   4   4   4   2
#     4  11  26  48  70 102 145 191 243 292 375 426
#     4  12  23  47  70 102 147 184 238 299 370 424
#     4  12  26  42  72 110 134 184 246 308 348 436
#     4  10  21  42  75  97 138 194 237 289 359 434
#     4  12  28  48  74 104 151 196 239 303 365 438
#     4  11  23  45  74 104 145 189 234 299 363 432
#     4  12  26  44  72 120 136 192 248 294 362 430
#
# _framework density 22.128556
#
# number of rings (size 3 to 8) (size 9 to 14) (size 15 to 20)
#    0.000    0.667    5.000    2.500    4.667    2.000 
#    3.000    0.000    0.000    0.000    0.000    0.000 
#    0.000    0.000    0.000    0.000    0.000    0.000 
#
# Total GULP energy -67016.982566 kJ/mol
# GULP energy per Si atom -5584.748547 kJ/mol
# Density = 2.207819 g / cm^3
# Si number density = 22.128556 Si / 1000 Ang^3
#
#
#
# Elastic Constant Matrix: (Units=GPa)
#
#
# Indices 1 2 3 4 5 6 
#
# 1 190.7402 52.7498 -2.7254 0.0000 1.9064 0.0000
# 2 52.7498 90.5663 6.7477 0.0000 -6.6496 0.0000
# 3 -2.7254 6.7477 44.1421 0.0000 17.4663 0.0000
# 4 0.0000 0.0000 0.0000 4.9675 0.0000 0.6484
# 5 1.9064 -6.6496 17.4663 0.0000 37.6621 0.0000
# 6 0.0000 0.0000 0.0000 0.6484 0.0000 30.4995
#
#
#
# Elastic Compliance Matrix: (Units=1/GPa)
#
#
# Indices 1 2 3 4 5 6 
#
# 1 0.006387 -0.003983 0.001726 0.000000 -0.001827 0.000000
# 2 -0.003983 0.014016 -0.004222 0.000000 0.004634 0.000000
# 3 0.001726 -0.004222 0.029070 0.000000 -0.014315 0.000000
# 4 0.000000 0.000000 0.000000 0.201867 0.000000 -0.004291
# 5 -0.001827 0.004634 -0.014315 0.000000 0.034101 0.000000
# 6 0.000000 0.000000 0.000000 -0.004291 0.000000 0.032879
#
#
# Mechanical properties :
#
#
# Convention : Reuss Voigt Hill
#
# Bulk Modulus (GPa) = 27.38567 48.77700 38.08134
# Shear Modulus (GPa) = 14.55816 32.53759 23.54787
#
# Velocity S-wave (km/s) = 2.56772 3.83873 3.26565
# Velocity P-wave (km/s) = 4.60364 6.46051 5.60944
#
# Compressibility (1/GPa) = 0.03651545
#
# Stress axis : x y z
#
# Youngs Moduli (GPa) = 156.56453 71.34542 34.39959
#
# Poissons Ratio (x) = 0.28416 -0.05938
# Poissons Ratio (y) = 0.62358 0.14524
# Poissons Ratio (z) = -0.27025 0.30124
#
# Static dielectric constant tensor:
#      x y z
#    x 1.830750 0.000000 -0.089310 
#    y 0.000000 1.839790 0.000000 
#    z -0.089310 0.000000 1.981620 
# 
# From -- ./inp_files/24769.got.cif
#   From: 2010.05.17/outbox.cif.g08.bks.cpg/sg5_13_cif.got.tgz:24769.got - 2010.06.03 18:56:24.
