data_PCOD9125597
_publ_section_title
;
Structure prediction by ZEFSAII (Michael W. Deem and Ramdas Pophale) SiO2 
 PCOD9125597
Probable space group: C 2
;
_chemical_formula_sum "Si O2"
_cell_formula_units_Z 30
_cell_length_a 22.309950
_cell_length_b 9.369760
_cell_length_c 7.068969
_cell_angle_alpha 90.000000
_cell_angle_beta 110.949438
_cell_angle_gamma 90.000000
_cell_volume 1380.008629
_symmetry_space_group_name_H-M "C 2"
_symmetry_group_IT_number 5
_symmetry_cell_setting 'monoclinic'
loop_
_space_group_symop_operation_xyz
x,y,z
-x,y,-z
1/2+x,1/2+y,z
1/2-x,1/2+y,-z
loop_
_atom_site_type_symbol
_atom_site_label
_atom_site_fract_x
_atom_site_fract_y
_atom_site_fract_z
Si Si1 0.538813 0.281870 0.728599
Si Si2 0.880694 0.391551 0.027515
Si Si3 0.500000 0.495360 0.000000
Si Si4 0.985140 0.481058 0.706842
Si Si5 0.642645 0.844536 0.551024
Si Si6 0.373598 0.631257 0.744415
Si Si7 0.233626 0.952526 0.202776
Si Si8 0.319874 0.170769 0.059872
O O1 0.500000 0.332648 0.500000
O O2 0.537127 0.399736 0.888289
O O3 0.611569 0.224627 0.770932
O O4 0.496338 0.147934 0.753866
O O5 0.866179 0.360324 0.233792
O O6 0.846885 0.544616 0.952145
O O7 0.957837 0.406961 0.113927
O O8 0.860176 0.262251 0.872980
O O9 0.447404 0.589994 0.837924
O O10 0.913314 0.423196 0.630393
O O11 0.000000 0.461604 0.500000
O O12 0.641581 0.682608 0.483006
O O13 0.711848 0.908007 0.587499
O O14 0.329230 0.504997 0.763490
O O15 0.267987 0.082530 0.126372
O O16 0.214113 0.811335 0.061729
#
# Coordination Sequence:
#
# PCOD9125597 Si02
#       8
#     4   4   2   4   4   4   4   4
#     4  10  21  42  66  96 131 172 217 274 341 383
#     4   9  20  40  70  90 125 168 215 275 332 384
#     4  12  26  42  62  98 138 166 224 284 326 396
#     4   8  16  36  65  94 118 161 221 265 322 395
#     4  10  22  40  62  94 125 168 222 267 320 400
#     4  12  25  42  62  97 133 172 220 273 335 392
#     4  11  22  42  65  96 135 175 225 267 329 402
#     4  10  21  43  69  97 131 176 222 270 326 401
#
# _framework density 21.738994000000002
#
# number of rings (size 3 to 8) (size 9 to 14) (size 15 to 20)
#    0.000    1.867    1.333    4.800    0.000    4.267 
#    7.200    0.000    0.000    0.000    0.000    0.000 
#    0.000    0.000    0.000    0.000    0.000    0.000 
#
# Total GULP energy -83680.256687 kJ/mol
# GULP energy per Si atom -5578.683779 kJ/mol
# Density = 2.168952 g / cm^3
# Si number density = 21.738994 Si / 1000 Ang^3
#
#
#
# Elastic Constant Matrix: (Units=GPa)
#
#
# Indices 1 2 3 4 5 6 
#
# 1 91.2925 34.6063 25.6117 0.0000 25.0001 0.0000
# 2 34.6063 82.9465 30.5538 0.0000 10.4052 0.0000
# 3 25.6117 30.5538 58.1751 0.0000 14.0662 0.0000
# 4 0.0000 0.0000 0.0000 33.2795 0.0000 7.1343
# 5 25.0001 10.4052 14.0662 0.0000 33.5430 0.0000
# 6 0.0000 0.0000 0.0000 7.1343 0.0000 35.0314
#
#
#
# Elastic Compliance Matrix: (Units=1/GPa)
#
#
# Indices 1 2 3 4 5 6 
#
# 1 0.015948 -0.004615 -0.002303 0.000000 -0.009489 0.000000
# 2 -0.004615 0.016351 -0.006856 0.000000 0.001243 0.000000
# 3 -0.002303 -0.006856 0.023231 0.000000 -0.005898 0.000000
# 4 0.000000 0.000000 0.000000 0.031420 0.000000 -0.006399
# 5 -0.009489 0.001243 -0.005898 0.000000 0.038973 0.000000
# 6 0.000000 0.000000 0.000000 -0.006399 0.000000 0.029849
#
#
# Mechanical properties :
#
#
# Convention : Reuss Voigt Hill
#
# Bulk Modulus (GPa) = 35.73879 45.99532 40.86705
# Shear Modulus (GPa) = 25.95426 29.81360 27.88393
#
# Velocity S-wave (km/s) = 3.45904 3.70731 3.58532
# Velocity P-wave (km/s) = 5.69464 6.28724 5.99826
#
# Compressibility (1/GPa) = 0.02798080
#
# Stress axis : x y z
#
# Youngs Moduli (GPa) = 62.70484 61.15806 43.04684
#
# Poissons Ratio (x) = 0.28224 0.09913
# Poissons Ratio (y) = 0.28938 0.29514
# Poissons Ratio (z) = 0.14441 0.41932
#
# Static dielectric constant tensor:
#      x y z
#    x 1.841040 0.000000 -0.012620 
#    y 0.000000 1.801560 0.000000 
#    z -0.012620 0.000000 1.795660 
# 
# From -- ./inp_files/30687.got.cif
#   From: 2010.05.17/outbox.cif.g08.bks.cpg/sg5_16_cif.got.tgz:30687.got - 2010.06.03 18:56:24.
