data_PCOD9125172
_publ_section_title
;
Structure prediction by ZEFSAII (Michael W. Deem and Ramdas Pophale) SiO2 
 PCOD9125172
Probable space group: C 2
;
_chemical_formula_sum "Si O2"
_cell_formula_units_Z 24
_cell_length_a 8.806905
_cell_length_b 19.075727
_cell_length_c 15.640314
_cell_angle_alpha 90.000000
_cell_angle_beta 150.256037
_cell_angle_gamma 90.000000
_cell_volume 1303.589968
_symmetry_space_group_name_H-M "C 2"
_symmetry_group_IT_number 5
_symmetry_cell_setting 'monoclinic'
loop_
_space_group_symop_operation_xyz
x,y,z
-x,y,-z
1/2+x,1/2+y,z
1/2-x,1/2+y,-z
loop_
_atom_site_type_symbol
_atom_site_label
_atom_site_fract_x
_atom_site_fract_y
_atom_site_fract_z
Si Si1 0.829314 0.538320 0.007038
Si Si2 0.373747 0.280366 0.172477
Si Si3 0.796370 0.792574 0.319034
Si Si4 0.637888 0.127943 0.306310
Si Si5 0.809082 0.883321 0.993272
Si Si6 0.710553 0.126378 0.685756
O O1 0.751000 0.460728 0.001250
O O2 0.030383 0.576197 0.178727
O O3 0.519633 0.582295 0.840958
O O4 0.000000 0.534796 0.000000
O O5 0.473208 0.302880 0.316045
O O6 0.519095 0.205507 0.223017
O O7 0.453620 0.336454 0.139645
O O8 0.000000 0.274460 0.000000
O O9 0.506559 0.842756 0.179053
O O10 0.712603 0.709678 0.279698
O O11 0.000000 0.806926 0.500000
O O12 0.472102 0.112365 0.315618
O O13 0.000000 0.127222 0.500000
O O14 0.000000 0.885331 0.000000
O O15 0.500000 0.111115 0.500000
#
# Coordination Sequence:
#
# PCOD9125172 Si02
#       6
#     4   4   4   4   4   4
#     4  12  24  40  60  83 118 158 197 241 291 346
#     4   9  19  38  59  83 117 153 191 235 286 343
#     4   9  19  37  61  85 114 148 187 238 286 338
#     4  11  22  37  61  91 121 153 191 237 290 347
#     4  11  23  38  58  83 114 153 194 237 291 347
#     4  10  21  40  63  89 118 151 195 242 288 341
#
# _framework density 18.410696000000002
#
# number of rings (size 3 to 8) (size 9 to 14) (size 15 to 20)
#    0.000    1.667    0.000    7.000    0.000    7.333 
#    0.000    5.833    0.000    0.000    0.000    0.000 
#    0.000    0.000    0.000    0.000    0.000    0.000 
#
# Total GULP energy -67016.365837 kJ/mol
# GULP energy per Si atom -5584.697153 kJ/mol
# Density = 1.836879 g / cm^3
# Si number density = 18.410696 Si / 1000 Ang^3
#
#
#
# Elastic Constant Matrix: (Units=GPa)
#
#
# Indices 1 2 3 4 5 6 
#
# 1 152.7407 100.5366 61.6448 -0.0017 -23.7539 0.0011
# 2 100.5366 119.9330 75.1880 0.0007 -16.0078 0.0000
# 3 61.6448 75.1880 107.5709 0.0007 -25.0107 0.0041
# 4 -0.0017 0.0007 0.0007 -0.2501 -0.0009 -2.3886
# 5 -23.7539 -16.0078 -25.0107 -0.0009 39.5919 0.0016
# 6 0.0011 0.0000 0.0041 -2.3886 0.0016 32.5972
#
#
#
# Elastic Compliance Matrix: (Units=1/GPa)
#
#
# Indices 1 2 3 4 5 6 
#
# 1 0.015372 -0.013213 0.001557 -0.000085 0.004864 -0.000007
# 2 -0.013213 0.026213 -0.011873 0.000074 -0.004829 0.000008
# 3 0.001557 -0.011873 0.018524 0.000003 0.007836 -0.000003
# 4 -0.000085 0.000074 0.000003 -2.352118 -0.000069 -0.172354
# 5 0.004864 -0.004829 0.007836 -0.000069 0.031174 -0.000008
# 6 -0.000007 0.000008 -0.000003 -0.172354 -0.000008 0.018048
#
#
# Mechanical properties :
#
#
# Convention : Reuss Voigt Hill
#
# Bulk Modulus (GPa) = 76.61583 94.99815 85.80699
# Shear Modulus (GPa) = -2.28167 23.91280 10.81557
#
# Velocity S-wave (km/s) = -1.11445 3.60787 2.42639
# Velocity P-wave (km/s) = 6.32844 8.31066 7.38635
#
# Compressibility (1/GPa) = 0.01305213
#
# Stress axis : x y z
#
# Youngs Moduli (GPa) = 65.05309 38.14957 53.98341
#
# Poissons Ratio (x) = 0.50407 -0.08406
# Poissons Ratio (y) = 0.85954 0.64092
# Poissons Ratio (z) = -0.10130 0.45293
#
# Static dielectric constant tensor:
#      x y z
#    x 1.634210 0.000000 -0.016370 
#    y 0.000000 1.612750 0.000000 
#    z -0.016370 0.000000 1.644280 
# 
# From -- ./inp_files/15829.got.cif
#   From: 2010.05.17/outbox.cif.g08.bks.cpg/sg5_8_cif.got.tgz:15829.got - 2010.06.03 18:56:24.
