data_PCOD9125924
_publ_section_title
;
Structure prediction by ZEFSAII (Michael W. Deem and Ramdas Pophale) SiO2 
 PCOD9125924
Probable space group: C 2
;
_chemical_formula_sum "Si O2"
_cell_formula_units_Z 14
_cell_length_a 6.150864
_cell_length_b 18.886049
_cell_length_c 5.154076
_cell_angle_alpha 90.000000
_cell_angle_beta 89.718645
_cell_angle_gamma 90.000000
_cell_volume 598.718694
_symmetry_space_group_name_H-M "C 2"
_symmetry_group_IT_number 5
_symmetry_cell_setting 'monoclinic'
loop_
_space_group_symop_operation_xyz
x,y,z
-x,y,-z
1/2+x,1/2+y,z
1/2-x,1/2+y,-z
loop_
_atom_site_type_symbol
_atom_site_label
_atom_site_fract_x
_atom_site_fract_y
_atom_site_fract_z
Si Si1 0.844823 0.029680 0.251539
Si Si2 0.000000 0.631911 0.000000
Si Si3 0.638774 0.722013 0.248548
Si Si4 0.152823 0.870092 0.746304
O O1 0.653830 0.083266 0.179053
O O2 0.000000 0.043417 0.500000
O O3 0.754410 0.949395 0.277788
O O4 0.000000 0.029605 0.000000
O O5 0.862770 0.681350 0.196131
O O6 0.500000 0.702954 0.500000
O O7 0.679652 0.806063 0.247754
O O8 0.500000 0.702582 0.000000
O O9 0.000000 0.858284 0.500000
O O10 0.000000 0.866337 0.000000
#
# Coordination Sequence:
#
# PCOD9125924 Si02
#       4
#     4   2   4   4
#     4  10  25  48  76 109 148 191 250 302 366 443
#     4  12  28  50  76 110 156 198 234 314 376 432
#     4  12  28  46  76 111 148 194 250 295 367 444
#     4  10  21  47  76 106 143 190 245 306 357 434
#
# _framework density 23.38327
#
# number of rings (size 3 to 8) (size 9 to 14) (size 15 to 20)
#    0.000    1.143    1.429    2.571    2.000    8.000 
#    0.000    0.000    0.000    0.000    0.000    0.000 
#    0.000    0.000    0.000    0.000    0.000    0.000 
#
# Total GULP energy -39227.209096 kJ/mol
# GULP energy per Si atom -5603.887014 kJ/mol
# Density = 2.333005 g / cm^3
# Si number density = 23.383270 Si / 1000 Ang^3
#
#
#
# Elastic Constant Matrix: (Units=GPa)
#
#
# Indices 1 2 3 4 5 6 
#
# 1 101.2102 79.1677 63.1482 0.0000 -8.0749 0.0000
# 2 79.1677 185.0950 41.8870 0.0000 -5.7531 0.0000
# 3 63.1482 41.8870 209.9791 0.0000 0.3572 0.0000
# 4 0.0000 0.0000 0.0000 7.5390 0.0000 90.7530
# 5 -8.0749 -5.7531 0.3572 0.0000 42.0628 0.0000
# 6 0.0000 0.0000 0.0000 90.7530 0.0000 -250.0933
#
#
#
# Elastic Compliance Matrix: (Units=1/GPa)
#
#
# Indices 1 2 3 4 5 6 
#
# 1 0.017766 -0.006608 -0.004029 0.000000 0.002541 0.000000
# 2 -0.006608 0.008142 0.000363 0.000000 -0.000158 0.000000
# 3 -0.004029 0.000363 0.005903 0.000000 -0.000774 0.000000
# 4 0.000000 0.000000 0.000000 0.024709 0.000000 0.008966
# 5 0.002541 -0.000158 -0.000774 0.000000 0.024247 0.000000
# 6 0.000000 0.000000 0.000000 0.008966 0.000000 -0.000745
#
#
# Mechanical properties :
#
#
# Convention : Reuss Voigt Hill
#
# Bulk Modulus (GPa) = 88.78338 96.07668 92.43003
# Shear Modulus (GPa) = 47.92824 -19.29287 14.31768
#
# Velocity S-wave (km/s) = 4.53225 -2.87552 2.47716
# Velocity P-wave (km/s) = 8.08947 5.49110 6.91346
#
# Compressibility (1/GPa) = 0.01126337
#
# Stress axis : x y z
#
# Youngs Moduli (GPa) = 56.28822 122.82319 169.40950
#
# Poissons Ratio (x) = 0.81160 0.68254
# Poissons Ratio (y) = 0.37195 -0.06156
# Poissons Ratio (z) = 0.22678 -0.04463
#
# Static dielectric constant tensor:
#      x y z
#    x 1.822340 0.000000 -0.008120 
#    y 0.000000 1.913860 0.000000 
#    z -0.008120 0.000000 1.821640 
# 
# From -- ./inp_files/363.got.cif
#   From: 2010.05.17/outbox.cif.g08.bks.cpg/sg5_1_cif.got.tgz:363.got - 2010.06.03 18:56:24.
