data_PCOD9125976
_publ_section_title
;
Structure prediction by ZEFSAII (Michael W. Deem and Ramdas Pophale) SiO2 
 PCOD9125976
Probable space group: C 2
;
_chemical_formula_sum "Si O2"
_cell_formula_units_Z 28
_cell_length_a 30.809104
_cell_length_b 5.507673
_cell_length_c 8.006675
_cell_angle_alpha 90.000000
_cell_angle_beta 125.562134
_cell_angle_gamma 90.000000
_cell_volume 1105.220994
_symmetry_space_group_name_H-M "C 2"
_symmetry_group_IT_number 5
_symmetry_cell_setting 'monoclinic'
loop_
_space_group_symop_operation_xyz
x,y,z
-x,y,-z
1/2+x,1/2+y,z
1/2-x,1/2+y,-z
loop_
_atom_site_type_symbol
_atom_site_label
_atom_site_fract_x
_atom_site_fract_y
_atom_site_fract_z
Si Si1 0.893914 0.321670 0.254094
Si Si2 0.841775 0.715193 0.945892
Si Si3 0.000000 0.639441 0.500000
Si Si4 0.000000 0.298233 0.000000
Si Si5 0.327547 0.378289 0.576996
Si Si6 0.779258 0.901596 0.109553
Si Si7 0.385226 0.871708 0.617872
Si Si8 0.448844 0.446590 0.151158
O O1 0.875248 0.305617 0.401472
O O2 0.944671 0.501672 0.373745
O O3 0.922731 0.089000 0.245743
O O4 0.850619 0.439479 0.030389
O O5 0.804624 0.807795 0.710400
O O6 0.827537 0.855300 0.085382
O O7 0.899540 0.777623 0.992591
O O8 0.001848 0.796922 0.670644
O O9 0.051799 0.415347 0.202837
O O10 0.971266 0.133432 0.072020
O O11 0.290123 0.417346 0.331622
O O12 0.361587 0.632589 0.660642
O O13 0.356706 0.125788 0.590528
O O14 0.746395 0.655388 0.002144
#
# Coordination Sequence:
#
# PCOD9125976 Si02
#       8
#     4   4   2   2   4   4   4   4
#     4  11  23  42  68  99 147 211 256 321 381 451
#     4  11  26  47  79 106 155 199 249 320 404 464
#     4  10  22  36  60  96 138 196 270 304 372 434
#     4  12  24  40  68 110 162 210 278 308 356 450
#     4  12  27  51  77 117 153 206 251 320 409 457
#     4  12  29  52  84 118 149 193 260 330 401 491
#     4  12  26  44  75 111 161 208 265 319 368 462
#     4  11  23  41  63 102 146 205 257 313 372 445
#
# _framework density 25.334302999999998
#
# number of rings (size 3 to 8) (size 9 to 14) (size 15 to 20)
#    0.000    0.571    2.857    4.714    6.000    2.857 
#    0.000    0.000    0.000    0.000    0.000    0.000 
#    0.000    0.000    0.000    0.000    0.000    0.000 
#
# Total GULP energy -78219.390595 kJ/mol
# GULP energy per Si atom -5587.099328 kJ/mol
# Density = 2.527664 g / cm^3
# Si number density = 25.334303 Si / 1000 Ang^3
#
#
#
# Elastic Constant Matrix: (Units=GPa)
#
#
# Indices 1 2 3 4 5 6 
#
# 1 69.3182 25.5047 6.8429 0.0000 -12.5843 0.0000
# 2 25.5047 111.4916 22.6801 0.0000 12.6386 0.0000
# 3 6.8429 22.6801 121.0700 0.0000 -10.2206 0.0000
# 4 0.0000 0.0000 0.0000 55.9786 0.0000 -9.2680
# 5 -12.5843 12.6386 -10.2206 0.0000 40.6043 0.0000
# 6 0.0000 0.0000 0.0000 -9.2680 0.0000 50.1956
#
#
#
# Elastic Compliance Matrix: (Units=1/GPa)
#
#
# Indices 1 2 3 4 5 6 
#
# 1 0.017462 -0.004904 0.000529 0.000000 0.007071 0.000000
# 2 -0.004904 0.011189 -0.002290 0.000000 -0.005579 0.000000
# 3 0.000529 -0.002290 0.008922 0.000000 0.003122 0.000000
# 4 0.000000 0.000000 0.000000 0.018427 0.000000 0.003402
# 5 0.007071 -0.005579 0.003122 0.000000 0.029342 0.000000
# 6 0.000000 0.000000 0.000000 0.003402 0.000000 0.020550
#
#
# Mechanical properties :
#
#
# Convention : Reuss Voigt Hill
#
# Bulk Modulus (GPa) = 41.24785 45.77056 43.50920
# Shear Modulus (GPa) = 39.27587 45.81250 42.54418
#
# Velocity S-wave (km/s) = 3.94166 4.25705 4.10239
# Velocity P-wave (km/s) = 6.08542 6.50147 6.29688
#
# Compressibility (1/GPa) = 0.02424369
#
# Stress axis : x y z
#
# Youngs Moduli (GPa) = 57.26699 89.37092 112.07772
#
# Poissons Ratio (x) = 0.43825 -0.05925
# Poissons Ratio (y) = 0.28082 0.25665
# Poissons Ratio (z) = -0.03027 0.20465
#
# Static dielectric constant tensor:
#      x y z
#    x 1.995620 0.000000 0.018910 
#    y 0.000000 2.038700 0.000000 
#    z 0.018910 0.000000 2.190910 
# 
# From -- ./inp_files/32344.got.cif
#   From: 2010.05.17/outbox.cif.g08.bks.cpg/sg5_17_cif.got.tgz:32344.got - 2010.06.03 18:56:24.
