data_PCOD9125024
_publ_section_title
;
Structure prediction by ZEFSAII (Michael W. Deem and Ramdas Pophale) SiO2 
 PCOD9125024
Probable space group: C 2
;
_chemical_formula_sum "Si O2"
_cell_formula_units_Z 30
_cell_length_a 12.046548
_cell_length_b 22.989196
_cell_length_c 5.166939
_cell_angle_alpha 90.000000
_cell_angle_beta 87.352840
_cell_angle_gamma 90.000000
_cell_volume 1429.407468
_symmetry_space_group_name_H-M "C 2"
_symmetry_group_IT_number 5
_symmetry_cell_setting 'monoclinic'
loop_
_space_group_symop_operation_xyz
x,y,z
-x,y,-z
1/2+x,1/2+y,z
1/2-x,1/2+y,-z
loop_
_atom_site_type_symbol
_atom_site_label
_atom_site_fract_x
_atom_site_fract_y
_atom_site_fract_z
Si Si1 0.747441 0.296400 0.990019
Si Si2 0.577513 0.024147 0.249920
Si Si3 0.575233 0.888420 0.244225
Si Si4 0.322124 0.569206 0.176215
Si Si5 0.500000 0.639672 0.500000
Si Si6 0.373916 0.682327 0.907196
Si Si7 0.071089 0.949269 0.750038
Si Si8 0.369133 0.332285 0.466531
O O1 0.834396 0.340577 0.845310
O O2 0.803847 0.234192 0.024278
O O3 0.658015 0.290662 0.770538
O O4 0.698316 0.319958 0.264236
O O5 0.500000 0.039091 0.500000
O O6 0.692125 0.060486 0.252583
O O7 0.611135 0.955736 0.276728
O O8 0.500000 0.030703 0.000000
O O9 0.500000 0.871574 0.500000
O O10 0.500000 0.890827 0.000000
O O11 0.418883 0.596150 0.349835
O O12 0.367273 0.504179 0.131028
O O13 0.326351 0.617692 0.952213
O O14 0.403719 0.684413 0.604359
O O15 0.500000 0.683122 0.000000
O O16 0.148899 0.898306 0.632735
O O17 0.000000 0.965916 0.500000
O O18 0.000000 0.924475 0.000000
O O19 0.500000 0.329088 0.500000
#
# Coordination Sequence:
#
# PCOD9125024 Si02
#       8
#     4   4   4   4   2   4   4   4
#     4  12  24  42  69  94 131 182 219 275 341 392
#     4  10  24  41  63  94 135 177 217 273 329 407
#     4  10  21  39  64  98 130 167 221 270 332 402
#     4  11  23  42  68  99 137 173 232 276 348 402
#     4  10  22  42  68 100 126 168 218 302 334 404
#     4  10  25  42  67  98 130 167 222 284 342 394
#     4  11  22  39  68 103 136 173 218 284 354 402
#     4  11  25  43  64  97 137 175 227 273 330 406
#
# _framework density 20.987715000000001
#
# number of rings (size 3 to 8) (size 9 to 14) (size 15 to 20)
#    0.000    1.333    0.667    5.200    6.533    2.133 
#    0.000    2.000    0.000    0.000    0.000    0.000 
#    0.000    0.000    0.000    0.000    0.000    0.000 
#
# Total GULP energy -83511.931775 kJ/mol
# GULP energy per Si atom -5567.462118 kJ/mol
# Density = 2.093995 g / cm^3
# Si number density = 20.987715 Si / 1000 Ang^3
#
#
#
# Elastic Constant Matrix: (Units=GPa)
#
#
# Indices 1 2 3 4 5 6 
#
# 1 85.4328 43.0291 37.0082 0.0000 -7.2458 0.0000
# 2 43.0291 95.9367 57.3612 0.0000 -23.6793 0.0000
# 3 37.0082 57.3612 156.0420 0.0000 -26.8288 0.0000
# 4 0.0000 0.0000 0.0000 17.9810 0.0000 -6.5097
# 5 -7.2458 -23.6793 -26.8288 0.0000 26.0914 0.0000
# 6 0.0000 0.0000 0.0000 -6.5097 0.0000 30.3443
#
#
#
# Elastic Compliance Matrix: (Units=1/GPa)
#
#
# Indices 1 2 3 4 5 6 
#
# 1 0.015626 -0.006836 -0.001839 0.000000 -0.003755 0.000000
# 2 -0.006836 0.018151 -0.003092 0.000000 0.011395 0.000000
# 3 -0.001839 -0.003092 0.009002 0.000000 0.005940 0.000000
# 4 0.000000 0.000000 0.000000 0.060297 0.000000 0.012935
# 5 -0.003755 0.011395 0.005940 0.000000 0.053734 0.000000
# 6 0.000000 0.000000 0.000000 0.012935 0.000000 0.035730
#
#
# Mechanical properties :
#
#
# Convention : Reuss Voigt Hill
#
# Bulk Modulus (GPa) = 51.95785 68.02318 59.99052
# Shear Modulus (GPa) = 22.47297 28.21754 25.34525
#
# Velocity S-wave (km/s) = 3.27581 3.67069 3.47886
# Velocity P-wave (km/s) = 6.25443 7.10258 6.69196
#
# Compressibility (1/GPa) = 0.01924637
#
# Stress axis : x y z
#
# Youngs Moduli (GPa) = 63.99515 55.09392 111.08032
#
# Poissons Ratio (x) = 0.37663 0.20425
# Poissons Ratio (y) = 0.43748 0.34343
# Poissons Ratio (z) = 0.11767 0.17034
#
# Static dielectric constant tensor:
#      x y z
#    x 1.824910 0.000000 0.118450 
#    y 0.000000 1.768540 0.000000 
#    z 0.118450 0.000000 2.274210 
# 
# From -- ./inp_files/5935.got.cif
#   From: 2010.05.17/outbox.cif.g08.bks.cpg/sg5_3_cif.got.tgz:5935.got - 2010.06.03 18:56:24.
