data_PCOD9125779
_publ_section_title
;
Structure prediction by ZEFSAII (Michael W. Deem and Ramdas Pophale) SiO2 
 PCOD9125779
Probable space group: C 2
;
_chemical_formula_sum "Si O2"
_cell_formula_units_Z 26
_cell_length_a 30.538879
_cell_length_b 5.239625
_cell_length_c 22.527633
_cell_angle_alpha 90.000000
_cell_angle_beta 162.926327
_cell_angle_gamma 90.000000
_cell_volume 1058.343285
_symmetry_space_group_name_H-M "C 2"
_symmetry_group_IT_number 5
_symmetry_cell_setting 'monoclinic'
loop_
_space_group_symop_operation_xyz
x,y,z
-x,y,-z
1/2+x,1/2+y,z
1/2-x,1/2+y,-z
loop_
_atom_site_type_symbol
_atom_site_label
_atom_site_fract_x
_atom_site_fract_y
_atom_site_fract_z
Si Si1 0.530364 0.311740 0.133273
Si Si2 0.726500 0.551671 0.619883
Si Si3 0.784317 0.102601 0.261924
Si Si4 0.796168 0.609380 0.202762
Si Si5 0.500000 0.686960 0.000000
Si Si6 0.752908 0.313711 0.039817
Si Si7 0.506604 0.433434 0.229118
O O1 0.449589 0.538414 0.993927
O O2 0.586827 0.353045 0.272898
O O3 0.668258 0.276690 0.267742
O O4 0.397818 0.104742 0.966768
O O5 0.657235 0.582224 0.595096
O O6 0.613445 0.505694 0.420301
O O7 0.854173 0.339398 0.790978
O O8 0.818295 0.376192 0.276976
O O9 0.835298 0.874588 0.284557
O O10 0.856425 0.481803 0.219037
O O11 0.619357 0.632428 0.956683
O O12 0.698842 0.545830 0.926250
O O13 0.609783 0.230574 0.893992
#
# Coordination Sequence:
#
# PCOD9125779 Si02
#       7
#     4   4   4   4   2   4   4
#     4  11  23  38  55  93 124 181 213 250 310 384
#     4  12  23  37  61  89 135 175 213 261 302 384
#     4  11  19  40  61  89 127 169 210 243 311 384
#     4   9  22  39  66  92 118 163 210 258 322 377
#     4  12  22  40  56  88 132 184 212 246 312 392
#     4  10  21  43  70  94 122 160 214 272 334 379
#     4   9  25  39  60  97 122 167 213 276 309 370
#
# _framework density 24.566697000000001
#
# number of rings (size 3 to 8) (size 9 to 14) (size 15 to 20)
#    0.923    0.615    3.077    2.769    2.154    0.000 
#    5.538    0.000    0.000    5.538    0.000    0.000 
#    0.000    0.000    0.000    0.000    0.000    0.000 
#
# Total GULP energy -72392.653282 kJ/mol
# GULP energy per Si atom -5568.665637 kJ/mol
# Density = 2.451078 g / cm^3
# Si number density = 24.566697 Si / 1000 Ang^3
#
#
#
# Elastic Constant Matrix: (Units=GPa)
#
#
# Indices 1 2 3 4 5 6 
#
# 1 98.9803 37.5645 30.1423 0.0003 -41.9372 -0.0011
# 2 37.5645 123.3896 27.0492 0.0001 -17.1927 -0.0049
# 3 30.1423 27.0492 114.3026 -0.0001 -37.3440 0.0001
# 4 0.0003 0.0001 -0.0001 -17.2593 0.0001 -14.7155
# 5 -41.9372 -17.1927 -37.3440 0.0001 48.0716 0.0003
# 6 -0.0011 -0.0049 0.0001 -14.7155 0.0003 35.2368
#
#
#
# Elastic Compliance Matrix: (Units=1/GPa)
#
#
# Indices 1 2 3 4 5 6 
#
# 1 0.017318 -0.003456 0.001049 0.000000 0.014687 0.000000
# 2 -0.003456 0.009382 -0.001605 -0.000001 -0.000906 0.000001
# 3 0.001049 -0.001605 0.012012 0.000000 0.009673 0.000000
# 4 0.000000 -0.000001 0.000000 -0.042726 0.000000 -0.017843
# 5 0.014687 -0.000906 0.009673 0.000000 0.040806 0.000000
# 6 0.000000 0.000001 0.000000 -0.017843 0.000000 0.020928
#
#
# Mechanical properties :
#
#
# Convention : Reuss Voigt Hill
#
# Bulk Modulus (GPa) = 32.58457 58.46494 45.52476
# Shear Modulus (GPa) = 65.81429 29.33757 47.57593
#
# Velocity S-wave (km/s) = 5.18153 3.45947 4.40546
# Velocity P-wave (km/s) = 7.00643 6.30931 6.66699
#
# Compressibility (1/GPa) = 0.03068937
#
# Stress axis : x y z
#
# Youngs Moduli (GPa) = 57.74400 106.58633 83.24986
#
# Poissons Ratio (x) = 0.36834 -0.08737
# Poissons Ratio (y) = 0.19955 0.13361
# Poissons Ratio (z) = -0.06060 0.17106
#
# Static dielectric constant tensor:
#      x y z
#    x 2.095120 0.000000 0.002980 
#    y 0.000000 2.030080 0.000000 
#    z 0.002980 0.000000 2.030930 
# 
# From -- ./inp_files/67699.got.cif
#   From: 2010.05.17/outbox.cif.g08.bks.cpg/sg5_34_cif.got.tgz:67699.got - 2010.06.03 18:56:24.
