data_PCOD9125840
_publ_section_title
;
Structure prediction by ZEFSAII (Michael W. Deem and Ramdas Pophale) SiO2 
 PCOD9125840
Probable space group: C 2
;
_chemical_formula_sum "Si O2"
_cell_formula_units_Z 22
_cell_length_a 19.086572
_cell_length_b 4.674536
_cell_length_c 9.195495
_cell_angle_alpha 90.000000
_cell_angle_beta 112.421554
_cell_angle_gamma 90.000000
_cell_volume 758.407678
_symmetry_space_group_name_H-M "C 2"
_symmetry_group_IT_number 5
_symmetry_cell_setting 'monoclinic'
loop_
_space_group_symop_operation_xyz
x,y,z
-x,y,-z
1/2+x,1/2+y,z
1/2-x,1/2+y,-z
loop_
_atom_site_type_symbol
_atom_site_label
_atom_site_fract_x
_atom_site_fract_y
_atom_site_fract_z
Si Si1 0.140923 0.261090 0.963155
Si Si2 0.000000 0.321480 0.000000
Si Si3 0.944786 0.696107 0.681142
Si Si4 0.285529 0.481984 0.605814
Si Si5 0.904035 0.675266 0.339795
Si Si6 0.266983 0.572531 0.200779
O O1 0.067192 0.139943 0.982087
O O2 0.118711 0.455524 0.806052
O O3 0.202773 0.058752 0.941991
O O4 0.184601 0.435285 0.120278
O O5 0.968004 0.511364 0.840376
O O6 0.873743 0.897724 0.664949
O O7 0.920484 0.534301 0.510693
O O8 0.022418 0.829421 0.674886
O O9 0.233864 0.305822 0.448287
O O10 0.249833 0.364167 0.727020
O O11 0.839026 0.904991 0.322136
#
# Coordination Sequence:
#
# PCOD9125840 Si02
#       6
#     4   2   4   4   4   4
#     4  11  23  41  67 100 142 186 239 302 364 440
#     4  10  22  44  68 100 140 186 242 306 368 438
#     4  10  21  44  69 100 143 185 241 299 367 436
#     4  12  26  47  77 111 149 193 251 306 369 442
#     4  10  22  44  66  99 145 186 241 292 371 434
#     4  12  23  41  71 104 141 191 247 307 366 438
#
# _framework density 29.008144000000001
#
# number of rings (size 3 to 8) (size 9 to 14) (size 15 to 20)
#    0.000    1.091    5.455    1.091    0.000    0.000 
#    6.545    7.273    0.000    0.000    0.000    0.000 
#    0.000    0.000    0.000    0.000    0.000    0.000 
#
# Total GULP energy -61581.395776 kJ/mol
# GULP energy per Si atom -5598.308707 kJ/mol
# Density = 2.894212 g / cm^3
# Si number density = 29.008144 Si / 1000 Ang^3
#
#
#
# Elastic Constant Matrix: (Units=GPa)
#
#
# Indices 1 2 3 4 5 6 
#
# 1 256.5418 15.4869 23.5271 0.0000 -32.5453 0.0000
# 2 15.4869 48.4620 29.6925 0.0000 4.5022 0.0000
# 3 23.5271 29.6925 233.6065 0.0000 -8.2291 0.0000
# 4 0.0000 0.0000 0.0000 57.5366 0.0000 -5.6126
# 5 -32.5453 4.5022 -8.2291 0.0000 42.3117 0.0000
# 6 0.0000 0.0000 0.0000 -5.6126 0.0000 14.8175
#
#
#
# Elastic Compliance Matrix: (Units=1/GPa)
#
#
# Indices 1 2 3 4 5 6 
#
# 1 0.004466 -0.001695 -0.000108 0.000000 0.003595 0.000000
# 2 -0.001695 0.023394 -0.002957 0.000000 -0.004368 0.000000
# 3 -0.000108 -0.002957 0.004708 0.000000 0.001147 0.000000
# 4 0.000000 0.000000 0.000000 0.018047 0.000000 0.006836
# 5 0.003595 -0.004368 0.001147 0.000000 0.027087 0.000000
# 6 0.000000 0.000000 0.000000 0.006836 0.000000 0.070077
#
#
# Mechanical properties :
#
#
# Convention : Reuss Voigt Hill
#
# Bulk Modulus (GPa) = 43.38638 75.11369 59.25004
# Shear Modulus (GPa) = 30.30647 54.26007 42.28327
#
# Velocity S-wave (km/s) = 3.23578 4.32963 3.82204
# Velocity P-wave (km/s) = 5.38047 7.13754 6.32036
#
# Compressibility (1/GPa) = 0.02304871
#
# Stress axis : x y z
#
# Youngs Moduli (GPa) = 223.90103 42.74636 212.41497
#
# Poissons Ratio (x) = 0.07247 0.02288
# Poissons Ratio (y) = 0.37957 0.62803
# Poissons Ratio (z) = 0.02411 0.12638
#
# Static dielectric constant tensor:
#      x y z
#    x 2.274290 0.000000 -0.018190 
#    y 0.000000 2.278290 0.000000 
#    z -0.018190 0.000000 2.354570 
# 
# From -- ./inp_files/28304.got.cif
#   From: 2010.05.17/outbox.cif.g08.bks.cpg/sg5_15_cif.got.tgz:28304.got - 2010.06.03 18:56:24.
