data_PCOD9125173
_publ_section_title
;
Structure prediction by ZEFSAII (Michael W. Deem and Ramdas Pophale) SiO2 
 PCOD9125173
Probable space group: C 2
;
_chemical_formula_sum "Si O2"
_cell_formula_units_Z 24
_cell_length_a 14.245591
_cell_length_b 15.727045
_cell_length_c 9.209523
_cell_angle_alpha 90.000000
_cell_angle_beta 34.944693
_cell_angle_gamma 90.000000
_cell_volume 1181.834641
_symmetry_space_group_name_H-M "C 2"
_symmetry_group_IT_number 5
_symmetry_cell_setting 'monoclinic'
loop_
_space_group_symop_operation_xyz
x,y,z
-x,y,-z
1/2+x,1/2+y,z
1/2-x,1/2+y,-z
loop_
_atom_site_type_symbol
_atom_site_label
_atom_site_fract_x
_atom_site_fract_y
_atom_site_fract_z
Si Si1 0.922596 0.121300 0.756333
Si Si2 0.095482 0.464916 0.725692
Si Si3 0.955882 0.286220 0.884396
Si Si4 0.085605 0.811632 0.254550
Si Si5 0.521357 0.455461 0.801665
Si Si6 0.966468 0.623556 0.711022
O O1 0.003842 0.203372 0.731478
O O2 0.000000 0.112004 0.500000
O O3 0.724697 0.124551 0.001201
O O4 0.956418 0.040437 0.811747
O O5 0.289379 0.449784 0.487770
O O6 0.027357 0.377006 0.743750
O O7 0.058901 0.552090 0.686439
O O8 0.000000 0.471727 0.000000
O O9 0.763203 0.290903 0.093271
O O10 0.000000 0.276146 0.000000
O O11 0.990677 0.724239 0.334230
O O12 0.000000 0.856028 0.500000
O O13 0.079834 0.875336 0.129387
O O14 0.500000 0.460319 0.000000
O O15 0.000000 0.601820 0.500000
#
# Coordination Sequence:
#
# PCOD9125173 Si02
#       6
#     4   4   4   4   4   4
#     4  11  23  40  63  90 123 163 206 256 309 366
#     4  11  23  39  61  88 121 161 203 251 303 364
#     4  10  22  40  63  90 123 164 208 256 312 369
#     4  10  21  40  63  89 124 165 206 255 313 367
#     4  12  25  39  62  93 126 164 207 257 307 368
#     4  10  22  40  62  86 118 161 203 251 305 362
#
# _framework density 20.307410000000001
#
# number of rings (size 3 to 8) (size 9 to 14) (size 15 to 20)
#    0.000    1.333    0.000    6.000    0.000    8.000 
#    0.000    0.000    0.000    0.000    0.000    0.000 
#    0.000    0.000    0.000    0.000    0.000    0.000 
#
# Total GULP energy -66971.474357 kJ/mol
# GULP energy per Si atom -5580.956196 kJ/mol
# Density = 2.026119 g / cm^3
# Si number density = 20.307410 Si / 1000 Ang^3
#
#
#
# Elastic Constant Matrix: (Units=GPa)
#
#
# Indices 1 2 3 4 5 6 
#
# 1 88.6224 51.0502 22.3523 0.0000 22.5895 -0.0001
# 2 51.0502 112.4488 -10.3293 0.0000 26.7321 -0.0001
# 3 22.3523 -10.3293 85.0923 0.0001 22.1485 -0.0001
# 4 0.0000 0.0000 0.0001 30.6518 -0.0001 12.0264
# 5 22.5895 26.7321 22.1485 -0.0001 40.5372 0.0001
# 6 -0.0001 -0.0001 -0.0001 12.0264 0.0001 -8.0730
#
#
#
# Elastic Compliance Matrix: (Units=1/GPa)
#
#
# Indices 1 2 3 4 5 6 
#
# 1 0.017694 -0.008114 -0.005198 0.000000 -0.001669 0.000000
# 2 -0.008114 0.015308 0.006342 0.000000 -0.009038 0.000000
# 3 -0.005198 0.006342 0.016580 0.000000 -0.010344 0.000000
# 4 0.000000 0.000000 0.000000 0.020590 0.000000 0.030673
# 5 -0.001669 -0.009038 -0.010344 0.000000 0.037211 0.000001
# 6 0.000000 0.000000 0.000000 0.030673 0.000001 -0.078176
#
#
# Mechanical properties :
#
#
# Convention : Reuss Voigt Hill
#
# Bulk Modulus (GPa) = 28.05679 45.81222 36.93451
# Shear Modulus (GPa) = 90.86457 27.49589 59.18023
#
# Velocity S-wave (km/s) = 6.69639 3.68364 5.40421
# Velocity P-wave (km/s) = 8.58108 6.37970 7.56094
#
# Compressibility (1/GPa) = 0.03564199
#
# Stress axis : x y z
#
# Youngs Moduli (GPa) = 56.51555 65.32694 60.31436
#
# Poissons Ratio (x) = 0.53003 0.31353
# Poissons Ratio (y) = 0.45854 -0.38252
# Poissons Ratio (z) = 0.29379 -0.41431
#
# Static dielectric constant tensor:
#      x y z
#    x 1.711820 0.000000 -0.016910 
#    y 0.000000 1.748400 0.000000 
#    z -0.016910 0.000000 1.691440 
# 
# From -- ./inp_files/24504.got.cif
#   From: 2010.05.17/outbox.cif.g08.bks.cpg/sg5_13_cif.got.tgz:24504.got - 2010.06.03 18:56:24.
