data_PCOD9125076
_publ_section_title
;
Structure prediction by ZEFSAII (Michael W. Deem and Ramdas Pophale) SiO2 
 PCOD9125076
Probable space group: C 2
;
_chemical_formula_sum "Si O2"
_cell_formula_units_Z 32
_cell_length_a 8.547146
_cell_length_b 13.167033
_cell_length_c 24.491236
_cell_angle_alpha 90.000000
_cell_angle_beta 149.824493
_cell_angle_gamma 90.000000
_cell_volume 1385.433914
_symmetry_space_group_name_H-M "C 2"
_symmetry_group_IT_number 5
_symmetry_cell_setting 'monoclinic'
loop_
_space_group_symop_operation_xyz
x,y,z
-x,y,-z
1/2+x,1/2+y,z
1/2-x,1/2+y,-z
loop_
_atom_site_type_symbol
_atom_site_label
_atom_site_fract_x
_atom_site_fract_y
_atom_site_fract_z
Si Si1 0.348052 0.532670 0.115938
Si Si2 0.281121 0.980228 0.545272
Si Si3 0.798997 0.725098 0.552642
Si Si4 0.306742 0.441311 0.886407
Si Si5 0.469539 0.715376 0.344273
Si Si6 0.922891 0.877938 0.740141
Si Si7 0.509124 0.738391 0.228087
Si Si8 0.932097 0.975195 0.331440
O O1 0.528605 0.496953 0.115509
O O2 0.327540 0.430146 0.146014
O O3 0.477170 0.627209 0.190941
O O4 0.000000 0.566162 0.000000
O O5 0.325619 0.101852 0.560869
O O6 0.000000 0.956006 0.500000
O O7 0.165794 0.946110 0.450893
O O8 0.595828 0.928452 0.659657
O O9 0.500000 0.750223 0.500000
O O10 0.720532 0.748009 0.465669
O O11 0.128526 0.766313 0.673260
O O12 0.255997 0.318227 0.870176
O O13 0.940431 0.470045 0.773114
O O14 0.500000 0.466895 0.000000
O O15 0.144807 0.759719 0.271040
O O16 0.495848 0.746263 0.289643
O O17 0.489003 0.595367 0.345779
O O18 0.977982 0.921350 0.697318
#
# Coordination Sequence:
#
# PCOD9125076 Si02
#       8
#     4   4   4   4   4   4   4   4
#     4  12  26  50  79 104 147 199 253 326 389 449
#     4  10  21  39  67 104 148 196 243 301 381 456
#     4  10  23  40  68 111 159 194 243 305 378 461
#     4  12  29  50  75 109 143 197 262 321 383 459
#     4  11  25  42  71 111 151 198 246 304 377 461
#     4  12  23  42  71 107 148 195 252 303 381 461
#     4  12  25  48  77 110 149 199 253 315 384 458
#     4  11  25  45  71 104 153 193 250 315 378 460
#
# _framework density 23.097456000000001
#
# number of rings (size 3 to 8) (size 9 to 14) (size 15 to 20)
#    0.000    0.750    3.750    2.625    7.000    2.000 
#    0.000    1.875    0.000    0.000    0.000    0.000 
#    0.000    0.000    0.000    0.000    0.000    0.000 
#
# Total GULP energy -89397.026389 kJ/mol
# GULP energy per Si atom -5587.314149 kJ/mol
# Density = 2.304489 g / cm^3
# Si number density = 23.097456 Si / 1000 Ang^3
#
#
#
# Elastic Constant Matrix: (Units=GPa)
#
#
# Indices 1 2 3 4 5 6 
#
# 1 119.2752 50.6833 41.0877 -0.0001 -17.3279 0.0000
# 2 50.6833 72.9850 11.2811 -0.0002 -12.6353 0.0001
# 3 41.0877 11.2811 108.3222 -0.0012 -10.0480 -0.0001
# 4 -0.0001 -0.0002 -0.0012 33.2057 0.0002 -2.3108
# 5 -17.3279 -12.6353 -10.0480 0.0002 41.0380 0.0001
# 6 0.0000 0.0001 -0.0001 -2.3108 0.0001 33.9930
#
#
#
# Elastic Compliance Matrix: (Units=1/GPa)
#
#
# Indices 1 2 3 4 5 6 
#
# 1 0.013745 -0.008533 -0.004124 0.000000 0.002167 0.000000
# 2 -0.008533 0.019903 0.001430 0.000000 0.002876 0.000000
# 3 -0.004124 0.001430 0.010771 0.000000 0.001336 0.000000
# 4 0.000000 0.000000 0.000000 0.030258 0.000000 0.002057
# 5 0.002167 0.002876 0.001336 0.000000 0.026495 0.000000
# 6 0.000000 0.000000 0.000000 0.002057 0.000000 0.029558
#
#
# Mechanical properties :
#
#
# Convention : Reuss Voigt Hill
#
# Bulk Modulus (GPa) = 45.52237 56.29852 50.91045
# Shear Modulus (GPa) = 31.15157 34.81604 32.98380
#
# Velocity S-wave (km/s) = 3.67645 3.88668 3.78302
# Velocity P-wave (km/s) = 6.14600 6.67600 6.41647
#
# Compressibility (1/GPa) = 0.02196722
#
# Stress axis : x y z
#
# Youngs Moduli (GPa) = 72.75314 50.24256 92.84190
#
# Poissons Ratio (x) = 0.42869 0.38288
# Poissons Ratio (y) = 0.62077 -0.13280
# Poissons Ratio (z) = 0.30004 -0.07187
#
# Static dielectric constant tensor:
#      x y z
#    x 1.860970 0.000000 -0.003080 
#    y 0.000000 2.008310 0.000000 
#    z -0.003080 0.000000 1.854510 
# 
# From -- ./inp_files/68046.got.cif
#   From: 2010.05.17/outbox.cif.g08.bks.cpg/sg5_35_cif.got.tgz:68046.got - 2010.06.03 18:56:24.
