data_PCOD9125885
_publ_section_title
;
Structure prediction by ZEFSAII (Michael W. Deem and Ramdas Pophale) SiO2 
 PCOD9125885
Probable space group: C 2
;
_chemical_formula_sum "Si O2"
_cell_formula_units_Z 32
_cell_length_a 18.094384
_cell_length_b 9.462777
_cell_length_c 8.042973
_cell_angle_alpha 90.000000
_cell_angle_beta 107.802613
_cell_angle_gamma 90.000000
_cell_volume 1311.199068
_symmetry_space_group_name_H-M "C 2"
_symmetry_group_IT_number 5
_symmetry_cell_setting 'monoclinic'
loop_
_space_group_symop_operation_xyz
x,y,z
-x,y,-z
1/2+x,1/2+y,z
1/2-x,1/2+y,-z
loop_
_atom_site_type_symbol
_atom_site_label
_atom_site_fract_x
_atom_site_fract_y
_atom_site_fract_z
Si Si1 0.948872 0.413640 0.236290
Si Si2 0.736465 0.164857 0.310323
Si Si3 0.775050 0.992184 0.670173
Si Si4 0.078041 0.521028 0.124767
Si Si5 0.091038 0.894460 0.427307
Si Si6 0.350746 0.170475 0.271207
Si Si7 0.052182 0.862469 0.874949
Si Si8 0.109176 0.112705 0.728100
O O1 0.912771 0.542530 0.314616
O O2 0.928970 0.265066 0.299193
O O3 0.039613 0.438348 0.252800
O O4 0.905960 0.421966 0.023793
O O5 0.754868 0.071748 0.485110
O O6 0.754755 0.330733 0.343979
O O7 0.797643 0.117204 0.213720
O O8 0.647906 0.122951 0.212476
O O9 0.732550 0.091892 0.774966
O O10 0.865808 0.956934 0.706430
O O11 0.000000 0.596585 0.000000
O O12 0.139013 0.776456 0.564596
O O13 0.010195 0.829506 0.314776
O O14 0.085072 0.025284 0.547956
O O15 0.374815 0.262131 0.124817
O O16 0.081125 0.020937 0.862886
O O17 0.000000 0.862722 0.000000
#
# Coordination Sequence:
#
# PCOD9125885 Si02
#       8
#     4   4   4   4   4   4   4   4
#     4   9  21  41  71 107 141 184 249 302 361 445
#     4  11  22  45  71 107 153 189 246 319 369 450
#     4  11  23  41  72 102 144 191 248 310 378 429
#     4   8  23  43  68 104 151 193 244 299 373 443
#     4  10  24  46  71 102 150 193 246 312 372 454
#     4  11  21  42  70 105 136 188 254 297 367 448
#     4  11  27  47  72 101 153 202 245 304 382 459
#     4  10  21  45  70 107 147 185 251 308 375 431
#
# _framework density 24.405142000000001
#
# number of rings (size 3 to 8) (size 9 to 14) (size 15 to 20)
#    0.750    1.000    2.500    1.500    5.250    1.000 
#    9.000    6.250    0.000    0.000    0.000    0.000 
#    0.000    0.000    0.000    0.000    0.000    0.000 
#
# Total GULP energy -89281.948713 kJ/mol
# GULP energy per Si atom -5580.121795 kJ/mol
# Density = 2.434959 g / cm^3
# Si number density = 24.405142 Si / 1000 Ang^3
#
#
#
# Elastic Constant Matrix: (Units=GPa)
#
#
# Indices 1 2 3 4 5 6 
#
# 1 143.4686 53.5483 31.1559 0.0000 -28.9749 0.0000
# 2 53.5483 163.2701 28.2963 0.0000 -19.4432 0.0000
# 3 31.1559 28.2963 68.3367 0.0000 -24.5101 0.0000
# 4 0.0000 0.0000 0.0000 7.8481 0.0000 1.3294
# 5 -28.9749 -19.4432 -24.5101 0.0000 40.5834 0.0000
# 6 0.0000 0.0000 0.0000 1.3294 0.0000 19.4089
#
#
#
# Elastic Compliance Matrix: (Units=1/GPa)
#
#
# Indices 1 2 3 4 5 6 
#
# 1 0.009021 -0.002148 -0.001637 0.000000 0.004423 0.000000
# 2 -0.002148 0.007230 -0.001688 0.000000 0.000911 0.000000
# 3 -0.001637 -0.001688 0.019619 0.000000 0.009872 0.000000
# 4 0.000000 0.000000 0.000000 0.128916 0.000000 -0.008830
# 5 0.004423 0.000911 0.009872 0.000000 0.034197 0.000000
# 6 0.000000 0.000000 0.000000 -0.008830 0.000000 0.052128
#
#
# Mechanical properties :
#
#
# Convention : Reuss Voigt Hill
#
# Bulk Modulus (GPa) = 40.12120 66.78626 53.45373
# Shear Modulus (GPa) = 18.49360 31.03974 24.76667
#
# Velocity S-wave (km/s) = 2.75576 3.57017 3.18907
# Velocity P-wave (km/s) = 5.15761 6.66483 5.95906
#
# Compressibility (1/GPa) = 0.02492448
#
# Stress axis : x y z
#
# Youngs Moduli (GPa) = 110.85734 138.30594 50.97049
#
# Poissons Ratio (x) = 0.29710 0.08344
# Poissons Ratio (y) = 0.23814 0.08603
# Poissons Ratio (z) = 0.18147 0.23343
#
# Static dielectric constant tensor:
#      x y z
#    x 2.069600 0.000000 -0.045280 
#    y 0.000000 1.915620 0.000000 
#    z -0.045280 0.000000 2.060780 
# 
# From -- ./inp_files/23898.got.cif
#   From: 2010.05.17/outbox.cif.g08.bks.cpg/sg5_12_cif.got.tgz:23898.got - 2010.06.03 18:56:24.
