data_PCOD9125112
_publ_section_title
;
Structure prediction by ZEFSAII (Michael W. Deem and Ramdas Pophale) SiO2 
 PCOD9125112
Probable space group: C 2
;
_chemical_formula_sum "Si O2"
_cell_formula_units_Z 20
_cell_length_a 6.558715
_cell_length_b 15.895218
_cell_length_c 10.712274
_cell_angle_alpha 90.000000
_cell_angle_beta 137.003643
_cell_angle_gamma 90.000000
_cell_volume 761.588956
_symmetry_space_group_name_H-M "C 2"
_symmetry_group_IT_number 5
_symmetry_cell_setting 'monoclinic'
loop_
_space_group_symop_operation_xyz
x,y,z
-x,y,-z
1/2+x,1/2+y,z
1/2-x,1/2+y,-z
loop_
_atom_site_type_symbol
_atom_site_label
_atom_site_fract_x
_atom_site_fract_y
_atom_site_fract_z
Si Si1 0.394471 0.868750 0.183917
Si Si2 0.929016 0.985895 0.099503
Si Si3 0.916934 0.110689 0.323964
Si Si4 0.183627 0.721729 0.909017
Si Si5 0.237881 0.774291 0.483207
O O1 0.267038 0.784809 0.059778
O O2 0.823776 0.910616 0.807077
O O3 0.383231 0.939814 0.073220
O O4 0.695784 0.844795 0.386420
O O5 0.940583 0.043352 0.224439
O O6 0.415253 0.154993 0.819594
O O7 0.000000 0.031632 0.000000
O O8 0.447534 0.271109 0.269789
O O9 0.168190 0.183820 0.415590
O O10 0.000000 0.077649 0.500000
O O11 0.500000 0.691787 0.000000
O O12 0.500000 0.783967 0.500000
#
# Coordination Sequence:
#
# PCOD9125112 Si02
#       5
#     4   4   4   4   4
#     4   9  19  38  73 105 147 195 257 323 389 448
#     4   8  17  35  71 113 154 194 244 327 406 452
#     4   9  18  36  70 117 150 200 256 324 391 464
#     4  10  21  39  74 111 154 201 265 320 379 464
#     4   9  18  36  71 109 137 195 269 319 367 447
#
# _framework density 26.260884999999998
#
# number of rings (size 3 to 8) (size 9 to 14) (size 15 to 20)
#    1.200    2.000    0.000    4.800    0.000    0.800 
#    0.000    1.000   13.200   40.800   10.400    0.000 
#    0.000    0.000    0.000    0.000    0.000    0.000 
#
# Total GULP energy -55744.230417 kJ/mol
# GULP energy per Si atom -5574.423042 kJ/mol
# Density = 2.620111 g / cm^3
# Si number density = 26.260885 Si / 1000 Ang^3
#
#
#
# Elastic Constant Matrix: (Units=GPa)
#
#
# Indices 1 2 3 4 5 6 
#
# 1 143.3013 62.1364 72.9059 0.0003 -10.6115 0.0001
# 2 62.1364 132.3199 100.9749 0.0001 -26.5005 0.0000
# 3 72.9059 100.9749 234.5981 0.0004 -11.9986 0.0001
# 4 0.0003 0.0001 0.0004 40.9649 0.0003 -35.4787
# 5 -10.6115 -26.5005 -11.9986 0.0003 54.7470 0.0001
# 6 0.0001 0.0000 0.0001 -35.4787 0.0001 20.6723
#
#
#
# Elastic Compliance Matrix: (Units=1/GPa)
#
#
# Indices 1 2 3 4 5 6 
#
# 1 0.009091 -0.003169 -0.001466 0.000000 -0.000093 0.000000
# 2 -0.003169 0.013535 -0.004589 0.000000 0.004932 0.000000
# 3 -0.001466 -0.004589 0.006639 0.000000 -0.001050 0.000000
# 4 0.000000 0.000000 0.000000 -0.050188 0.000000 -0.086134
# 5 -0.000093 0.004932 -0.001050 0.000000 0.020405 0.000001
# 6 0.000000 0.000000 0.000000 -0.086134 0.000001 -0.099453
#
#
# Mechanical properties :
#
#
# Convention : Reuss Voigt Hill
#
# Bulk Modulus (GPa) = 92.43561 109.13929 100.78745
# Shear Modulus (GPa) = -64.17116 41.55700 -11.30708
#
# Velocity S-wave (km/s) = -4.94864 3.98234 -2.07726
# Velocity P-wave (km/s) = 1.61966 7.92434 5.71920
#
# Compressibility (1/GPa) = 0.01081834
#
# Stress axis : x y z
#
# Youngs Moduli (GPa) = 109.99363 73.88281 150.61398
#
# Poissons Ratio (x) = 0.23415 0.22081
# Poissons Ratio (y) = 0.34859 0.69110
# Poissons Ratio (z) = 0.16125 0.33902
#
# Static dielectric constant tensor:
#      x y z
#    x 2.230590 0.000000 0.032180 
#    y 0.000000 2.118280 0.000000 
#    z 0.032180 0.000000 2.060690 
# 
# From -- ./inp_files/36943.got.cif
#   From: 2010.05.17/outbox.cif.g08.bks.cpg/sg5_19_cif.got.tgz:36943.got - 2010.06.03 18:56:24.
