data_PCOD9125264
_publ_section_title
;
Structure prediction by ZEFSAII (Michael W. Deem and Ramdas Pophale) SiO2 
 PCOD9125264
Probable space group: C 2
;
_chemical_formula_sum "Si O2"
_cell_formula_units_Z 22
_cell_length_a 7.538212
_cell_length_b 11.888457
_cell_length_c 12.493775
_cell_angle_alpha 90.000000
_cell_angle_beta 56.113856
_cell_angle_gamma 90.000000
_cell_volume 929.485450
_symmetry_space_group_name_H-M "C 2"
_symmetry_group_IT_number 5
_symmetry_cell_setting 'monoclinic'
loop_
_space_group_symop_operation_xyz
x,y,z
-x,y,-z
1/2+x,1/2+y,z
1/2-x,1/2+y,-z
loop_
_atom_site_type_symbol
_atom_site_label
_atom_site_fract_x
_atom_site_fract_y
_atom_site_fract_z
Si Si1 0.973472 0.924830 0.826008
Si Si2 0.564946 0.182917 0.826165
Si Si3 0.347881 0.150132 0.449013
Si Si4 0.863445 0.147221 0.905579
Si Si5 0.732591 0.904081 0.475378
Si Si6 0.500000 0.844999 0.000000
O O1 0.058623 0.815340 0.856811
O O2 0.081901 0.916975 0.674770
O O3 0.022235 0.043172 0.863809
O O4 0.717247 0.912102 0.910259
O O5 0.559272 0.169307 0.701273
O O6 0.780166 0.143242 0.811542
O O7 0.351022 0.134195 0.951163
O O8 0.500000 0.136275 0.500000
O O9 0.242954 0.273480 0.512429
O O10 0.246858 0.023767 0.469269
O O11 0.968611 0.261962 0.909361
O O12 0.500000 0.906030 0.500000
#
# Coordination Sequence:
#
# PCOD9125264 Si02
#       6
#     4   4   4   4   4   2
#     4  10  22  42  66  96 129 168 214 266 326 386
#     4   9  21  42  65  95 132 168 214 266 326 389
#     4  10  23  45  69  98 132 176 225 270 324 388
#     4  10  21  40  66  95 128 167 209 266 330 387
#     4  10  24  44  67  96 133 176 223 271 323 386
#     4  10  22  38  64 100 128 164 212 264 328 392
#
# _framework density 23.669008999999999
#
# number of rings (size 3 to 8) (size 9 to 14) (size 15 to 20)
#    0.000    2.182    0.000    1.091    0.000   18.182 
#    0.000   21.818    0.000    0.000    0.000    0.000 
#    0.000    0.000    0.000    0.000    0.000    0.000 
#
# Total GULP energy -61302.554805 kJ/mol
# GULP energy per Si atom -5572.959528 kJ/mol
# Density = 2.361514 g / cm^3
# Si number density = 23.669009 Si / 1000 Ang^3
#
#
#
# Elastic Constant Matrix: (Units=GPa)
#
#
# Indices 1 2 3 4 5 6 
#
# 1 75.4276 18.2769 11.7606 0.0000 15.0815 -0.0001
# 2 18.2769 178.9191 23.8441 0.0001 -6.9373 0.0000
# 3 11.7606 23.8441 63.9240 0.0000 14.3641 0.0000
# 4 0.0000 0.0001 0.0000 9.8904 0.0000 11.4852
# 5 15.0815 -6.9373 14.3641 0.0000 35.1450 0.0000
# 6 -0.0001 0.0000 0.0000 11.4852 0.0000 14.5655
#
#
#
# Elastic Compliance Matrix: (Units=1/GPa)
#
#
# Indices 1 2 3 4 5 6 
#
# 1 0.015082 -0.001705 -0.000671 -0.000002 -0.006534 0.000001
# 2 -0.001705 0.006243 -0.002705 0.000000 0.003069 0.000000
# 3 -0.000671 -0.002705 0.018533 -0.000001 -0.007821 0.000001
# 4 -0.000002 0.000000 -0.000001 1.199015 0.000002 -0.945449
# 5 -0.006534 0.003069 -0.007821 0.000002 0.035060 -0.000002
# 6 0.000001 0.000000 0.000001 -0.945449 -0.000002 0.814162
#
#
# Mechanical properties :
#
#
# Convention : Reuss Voigt Hill
#
# Bulk Modulus (GPa) = 33.67217 47.33709 40.50463
# Shear Modulus (GPa) = 2.37174 29.54612 15.95893
#
# Velocity S-wave (km/s) = 1.00211 3.53697 2.59946
# Velocity P-wave (km/s) = 3.94919 6.05997 5.11465
#
# Compressibility (1/GPa) = 0.02969811
#
# Stress axis : x y z
#
# Youngs Moduli (GPa) = 66.30478 160.18747 53.95726
#
# Poissons Ratio (x) = 0.27306 0.03618
# Poissons Ratio (y) = 0.11303 0.14593
# Poissons Ratio (z) = 0.04446 0.43324
#
# Static dielectric constant tensor:
#      x y z
#    x 1.881530 0.000000 -0.004850 
#    y 0.000000 1.970100 0.000000 
#    z -0.004850 0.000000 1.913720 
# 
# From -- ./inp_files/50056.got.cif
#   From: 2010.05.17/outbox.cif.g08.bks.cpg/sg5_26_cif.got.tgz:50056.got - 2010.06.03 18:56:24.
