data_PCOD9125353
_publ_section_title
;
Structure prediction by ZEFSAII (Michael W. Deem and Ramdas Pophale) SiO2 
 PCOD9125353
Probable space group: C 2
;
_chemical_formula_sum "Si O2"
_cell_formula_units_Z 32
_cell_length_a 13.218123
_cell_length_b 13.505509
_cell_length_c 18.969421
_cell_angle_alpha 90.000000
_cell_angle_beta 152.608354
_cell_angle_gamma 90.000000
_cell_volume 1557.969851
_symmetry_space_group_name_H-M "C 2"
_symmetry_group_IT_number 5
_symmetry_cell_setting 'monoclinic'
loop_
_space_group_symop_operation_xyz
x,y,z
-x,y,-z
1/2+x,1/2+y,z
1/2-x,1/2+y,-z
loop_
_atom_site_type_symbol
_atom_site_label
_atom_site_fract_x
_atom_site_fract_y
_atom_site_fract_z
Si Si1 0.515689 0.449770 0.779831
Si Si2 0.578587 0.140506 0.261816
Si Si3 0.295125 0.831453 0.334126
Si Si4 0.257225 0.260694 0.146574
Si Si5 0.867721 0.022668 0.547586
Si Si6 0.553715 0.731638 0.713485
Si Si7 0.869722 0.610281 0.988836
Si Si8 0.928485 0.806044 0.534565
O O1 0.405549 0.405612 0.780697
O O2 0.670677 0.365283 0.842409
O O3 0.339581 0.479887 0.609783
O O4 0.669576 0.541771 0.887590
O O5 0.734270 0.236872 0.346881
O O6 0.348217 0.178539 0.149753
O O7 0.679842 0.063444 0.379361
O O8 0.537558 0.108290 0.156844
O O9 0.500000 0.879177 0.500000
O O10 0.354440 0.798648 0.292748
O O11 0.406408 0.253215 0.308881
O O12 0.000000 0.255872 0.000000
O O13 0.006147 0.122836 0.649368
O O14 0.958692 0.924793 0.564851
O O15 0.747131 0.712294 0.890260
O O16 0.323057 0.773813 0.601607
O O17 0.000000 0.575737 0.000000
O O18 0.000000 0.780832 0.500000
#
# Coordination Sequence:
#
# PCOD9125353 Si02
#       8
#     4   4   4   4   4   4   4   4
#     4   9  22  39  62  96 130 165 222 269 335 385
#     4  11  22  38  64  93 124 172 222 274 331 381
#     4  11  19  38  70  93 123 176 220 275 326 394
#     4  10  21  41  62  88 132 174 207 263 342 406
#     4  10  21  41  64  95 126 169 222 273 323 400
#     4  11  22  43  66  94 136 173 231 272 323 411
#     4  11  23  40  64 101 130 175 227 277 329 399
#     4  11  25  41  65 104 129 169 226 280 334 392
#
# _framework density 20.539549000000001
#
# number of rings (size 3 to 8) (size 9 to 14) (size 15 to 20)
#    0.000    1.500    3.750    1.875    3.500    2.000 
#    2.250    7.500    0.000    0.000    0.000    0.000 
#    0.000    0.000    0.000    0.000    0.000    0.000 
#
# Total GULP energy -89198.979965 kJ/mol
# GULP energy per Si atom -5574.936248 kJ/mol
# Density = 2.049280 g / cm^3
# Si number density = 20.539549 Si / 1000 Ang^3
#
#
#
# Elastic Constant Matrix: (Units=GPa)
#
#
# Indices 1 2 3 4 5 6 
#
# 1 131.6921 37.7549 29.5030 -0.0013 23.3062 -0.0001
# 2 37.7549 41.9336 12.0520 0.0018 1.9554 0.0014
# 3 29.5030 12.0520 64.1587 0.0059 9.0785 0.0018
# 4 -0.0013 0.0018 0.0059 20.2276 0.0036 0.1799
# 5 23.3062 1.9554 9.0785 0.0036 32.9075 0.0009
# 6 -0.0001 0.0014 0.0018 0.1799 0.0009 18.2987
#
#
#
# Elastic Compliance Matrix: (Units=1/GPa)
#
#
# Indices 1 2 3 4 5 6 
#
# 1 0.012401 -0.010023 -0.002769 0.000004 -0.007423 0.000001
# 2 -0.010023 0.033311 -0.002469 -0.000004 0.005801 -0.000003
# 3 -0.002769 -0.002469 0.017717 -0.000005 -0.002780 -0.000001
# 4 0.000004 -0.000004 -0.000005 0.049442 -0.000007 -0.000486
# 5 -0.007423 0.005801 -0.002780 -0.000007 0.036068 -0.000002
# 6 0.000001 -0.000003 -0.000001 -0.000486 -0.000002 0.054653
#
#
# Mechanical properties :
#
#
# Convention : Reuss Voigt Hill
#
# Bulk Modulus (GPa) = 30.38992 44.04491 37.21742
# Shear Modulus (GPa) = 20.40117 24.85173 22.62645
#
# Velocity S-wave (km/s) = 3.15503 3.48220 3.32264
# Velocity P-wave (km/s) = 5.30096 6.13662 5.73403
#
# Compressibility (1/GPa) = 0.03290565
#
# Stress axis : x y z
#
# Youngs Moduli (GPa) = 80.63705 30.02025 56.44319
#
# Poissons Ratio (x) = 0.30090 0.15631
# Poissons Ratio (y) = 0.80825 0.13936
# Poissons Ratio (z) = 0.22331 0.07412
#
# Static dielectric constant tensor:
#      x y z
#    x 1.737160 0.000000 -0.014350 
#    y 0.000000 1.761270 0.000000 
#    z -0.014350 0.000000 1.782750 
# 
# From -- ./inp_files/60706.got.cif
#   From: 2010.05.17/outbox.cif.g08.bks.cpg/sg5_31_cif.got.tgz:60706.got - 2010.06.03 18:56:24.
