data_PCOD9125909
_publ_section_title
;
Structure prediction by ZEFSAII (Michael W. Deem and Ramdas Pophale) SiO2 
 PCOD9125909
Probable space group: C 2
;
_chemical_formula_sum "Si O2"
_cell_formula_units_Z 18
_cell_length_a 15.629868
_cell_length_b 8.561930
_cell_length_c 5.014557
_cell_angle_alpha 90.000000
_cell_angle_beta 76.054675
_cell_angle_gamma 90.000000
_cell_volume 651.278577
_symmetry_space_group_name_H-M "C 2"
_symmetry_group_IT_number 5
_symmetry_cell_setting 'monoclinic'
loop_
_space_group_symop_operation_xyz
x,y,z
-x,y,-z
1/2+x,1/2+y,z
1/2-x,1/2+y,-z
loop_
_atom_site_type_symbol
_atom_site_label
_atom_site_fract_x
_atom_site_fract_y
_atom_site_fract_z
Si Si1 0.160523 0.540570 0.963649
Si Si2 0.402626 0.319737 0.643854
Si Si3 0.243773 0.391855 0.381738
Si Si4 0.000000 0.306698 0.000000
Si Si5 0.409767 0.663505 0.503853
O O1 0.134935 0.712418 0.092453
O O2 0.236802 0.485478 0.112532
O O3 0.072871 0.433074 0.056290
O O4 0.193788 0.496870 0.643110
O O5 0.500000 0.255794 0.500000
O O6 0.333182 0.334484 0.451986
O O7 0.416996 0.505407 0.663083
O O8 0.181099 0.245059 0.375699
O O9 0.927845 0.180518 0.176477
O O10 0.500000 0.758427 0.500000
#
# Coordination Sequence:
#
# PCOD9125909 Si02
#       5
#     4   4   4   2   4
#     4  11  26  48  81 110 158 204 269 322 401 471
#     4  11  27  48  74 121 160 203 268 340 393 465
#     4  11  25  51  77 109 156 218 258 319 398 490
#     4  10  22  46  84 110 150 218 260 320 398 490
#     4  10  21  46  73 105 153 198 266 313 397 457
#
# _framework density 27.637944999999998
#
# number of rings (size 3 to 8) (size 9 to 14) (size 15 to 20)
#    0.000    1.333    2.222    1.333    6.222    3.556 
#   20.000    0.000    0.000    0.000    0.000    0.000 
#    0.000    0.000    0.000    0.000    0.000    0.000 
#
# Total GULP energy -50172.586637 kJ/mol
# GULP energy per Si atom -5574.731849 kJ/mol
# Density = 2.757504 g / cm^3
# Si number density = 27.637945 Si / 1000 Ang^3
#
#
#
# Elastic Constant Matrix: (Units=GPa)
#
#
# Indices 1 2 3 4 5 6 
#
# 1 174.9914 17.5744 4.1603 0.0000 14.5736 0.0000
# 2 17.5744 149.3158 60.4207 0.0000 -6.3521 0.0000
# 3 4.1603 60.4207 88.0110 0.0000 8.7839 0.0000
# 4 0.0000 0.0000 0.0000 46.8251 0.0000 4.9150
# 5 14.5736 -6.3521 8.7839 0.0000 35.5470 0.0000
# 6 0.0000 0.0000 0.0000 4.9150 0.0000 56.3052
#
#
#
# Elastic Compliance Matrix: (Units=1/GPa)
#
#
# Indices 1 2 3 4 5 6 
#
# 1 0.006052 -0.001157 0.000796 0.000000 -0.002885 0.000000
# 2 -0.001157 0.009891 -0.007135 0.000000 0.004005 0.000000
# 3 0.000796 -0.007135 0.016797 0.000000 -0.005752 0.000000
# 4 0.000000 0.000000 0.000000 0.021554 0.000000 -0.001881
# 5 -0.002885 0.004005 -0.005752 0.000000 0.031452 0.000000
# 6 0.000000 0.000000 0.000000 -0.001881 0.000000 0.017925
#
#
# Mechanical properties :
#
#
# Convention : Reuss Voigt Hill
#
# Bulk Modulus (GPa) = 56.34526 64.06989 60.20757
# Shear Modulus (GPa) = 40.13516 49.74632 44.94074
#
# Velocity S-wave (km/s) = 3.81488 4.24716 4.03681
# Velocity P-wave (km/s) = 6.31154 6.87629 6.59996
#
# Compressibility (1/GPa) = 0.01774772
#
# Stress axis : x y z
#
# Youngs Moduli (GPa) = 165.23151 101.10017 59.53348
#
# Poissons Ratio (x) = 0.11700 -0.04741
# Poissons Ratio (y) = 0.19122 0.42480
# Poissons Ratio (z) = -0.13158 0.72140
#
# Static dielectric constant tensor:
#      x y z
#    x 2.104850 0.000000 -0.138850 
#    y 0.000000 2.305210 0.000000 
#    z -0.138850 0.000000 1.301260 
# 
# From -- ./inp_files/8009.got.cif
#   From: 2010.05.17/outbox.cif.g08.bks.cpg/sg5_5_cif.got.tgz:8009.got - 2010.06.03 18:56:24.
