data_PCOD9125618
_publ_section_title
;
Structure prediction by ZEFSAII (Michael W. Deem and Ramdas Pophale) SiO2 
 PCOD9125618
Probable space group: C 2
;
_chemical_formula_sum "Si O2"
_cell_formula_units_Z 28
_cell_length_a 18.448314
_cell_length_b 7.258476
_cell_length_c 15.348622
_cell_angle_alpha 90.000000
_cell_angle_beta 43.032305
_cell_angle_gamma 90.000000
_cell_volume 1402.546562
_symmetry_space_group_name_H-M "C 2"
_symmetry_group_IT_number 5
_symmetry_cell_setting 'monoclinic'
loop_
_space_group_symop_operation_xyz
x,y,z
-x,y,-z
1/2+x,1/2+y,z
1/2-x,1/2+y,-z
loop_
_atom_site_type_symbol
_atom_site_label
_atom_site_fract_x
_atom_site_fract_y
_atom_site_fract_z
Si Si1 0.540396 0.638470 0.562605
Si Si2 0.904933 0.053973 0.851281
Si Si3 0.323317 0.932475 0.004572
Si Si4 0.268790 0.351232 0.584192
Si Si5 0.868035 0.500518 0.442361
Si Si6 0.984762 0.710189 0.181624
Si Si7 0.612119 0.954960 0.865050
O O1 0.500000 0.625398 0.500000
O O2 0.457613 0.574051 0.709540
O O3 0.646473 0.512851 0.473887
O O4 0.563668 0.849304 0.568489
O O5 0.789578 0.960080 0.941590
O O6 0.985869 0.922623 0.832712
O O7 0.881433 0.248929 0.918208
O O8 0.310801 0.941102 0.120231
O O9 0.404215 0.100030 0.917956
O O10 0.223202 0.386547 0.527711
O O11 0.168517 0.354931 0.736222
O O12 0.321658 0.153488 0.546251
O O13 0.926185 0.622086 0.316769
O O14 0.919732 0.650889 0.152074
O O15 0.500000 0.880304 0.000000
#
# Coordination Sequence:
#
# PCOD9125618 Si02
#       7
#     4   4   4   4   4   4   4
#     4  12  26  42  65 103 133 169 223 276 327 384
#     4  12  23  41  72  94 133 182 215 263 337 390
#     4  11  22  42  66  98 134 174 218 266 325 393
#     4  11  22  42  69  96 129 171 218 272 330 394
#     4  11  22  42  69  94 130 171 218 267 334 392
#     4  10  21  42  67  95 129 171 218 270 322 387
#     4   9  22  43  65  92 132 164 213 276 313 383
#
# _framework density 19.963685999999999
#
# number of rings (size 3 to 8) (size 9 to 14) (size 15 to 20)
#    0.000    1.143    5.714    0.857    0.000    0.571 
#    5.143    6.429    0.000    0.000    0.000    0.000 
#    0.000    0.000    0.000    0.000    0.000    0.000 
#
# Total GULP energy -78107.286448 kJ/mol
# GULP energy per Si atom -5579.091889 kJ/mol
# Density = 1.991825 g / cm^3
# Si number density = 19.963686 Si / 1000 Ang^3
#
#
#
# Elastic Constant Matrix: (Units=GPa)
#
#
# Indices 1 2 3 4 5 6 
#
# 1 66.6865 8.1806 0.7865 0.0000 17.4351 0.0000
# 2 8.1806 84.2772 33.4270 -0.0010 8.7953 0.0008
# 3 0.7865 33.4270 84.3965 -0.0002 12.7704 0.0002
# 4 0.0000 -0.0010 -0.0002 26.0723 0.0003 -11.7311
# 5 17.4351 8.7953 12.7704 0.0003 24.0025 -0.0003
# 6 0.0000 0.0008 0.0002 -11.7311 -0.0003 20.3878
#
#
#
# Elastic Compliance Matrix: (Units=1/GPa)
#
#
# Indices 1 2 3 4 5 6 
#
# 1 0.018958 -0.001329 0.002567 0.000000 -0.014650 0.000000
# 2 -0.001329 0.014297 -0.005442 0.000000 -0.001378 0.000000
# 3 0.002567 -0.005442 0.015183 0.000000 -0.007948 0.000000
# 4 0.000000 0.000000 0.000000 0.051754 0.000000 0.029779
# 5 -0.014650 -0.001378 -0.007948 0.000000 0.057037 0.000001
# 6 0.000000 0.000000 0.000000 0.029779 0.000001 0.066184
#
#
# Mechanical properties :
#
#
# Convention : Reuss Voigt Hill
#
# Bulk Modulus (GPa) = 24.98178 35.57204 30.27691
# Shear Modulus (GPa) = 20.39440 26.95693 23.67566
#
# Velocity S-wave (km/s) = 3.19968 3.67863 3.44748
# Velocity P-wave (km/s) = 5.11775 5.99167 5.57187
#
# Compressibility (1/GPa) = 0.04002917
#
# Stress axis : x y z
#
# Youngs Moduli (GPa) = 52.74693 69.94588 65.86368
#
# Poissons Ratio (x) = 0.09298 -0.16904
# Poissons Ratio (y) = 0.07012 0.35841
# Poissons Ratio (z) = -0.13538 0.38062
#
# Static dielectric constant tensor:
#      x y z
#    x 1.718800 0.000000 0.004480 
#    y 0.000000 1.695460 0.000000 
#    z 0.004480 0.000000 1.734680 
# 
# From -- ./inp_files/62615.got.cif
#   From: 2010.05.17/outbox.cif.g08.bks.cpg/sg5_32_cif.got.tgz:62615.got - 2010.06.03 18:56:24.
