data_PCOD9125430
_publ_section_title
;
Structure prediction by ZEFSAII (Michael W. Deem and Ramdas Pophale) SiO2 
 PCOD9125430
Probable space group: C 2
;
_chemical_formula_sum "Si O2"
_cell_formula_units_Z 26
_cell_length_a 6.876207
_cell_length_b 12.540727
_cell_length_c 13.627876
_cell_angle_alpha 90.000000
_cell_angle_beta 115.704917
_cell_angle_gamma 90.000000
_cell_volume 1058.872831
_symmetry_space_group_name_H-M "C 2"
_symmetry_group_IT_number 5
_symmetry_cell_setting 'monoclinic'
loop_
_space_group_symop_operation_xyz
x,y,z
-x,y,-z
1/2+x,1/2+y,z
1/2-x,1/2+y,-z
loop_
_atom_site_type_symbol
_atom_site_label
_atom_site_fract_x
_atom_site_fract_y
_atom_site_fract_z
Si Si1 0.408929 0.813720 0.814493
Si Si2 0.716488 0.485627 0.096247
Si Si3 0.311481 0.673374 0.605658
Si Si4 0.236650 0.660225 0.054965
Si Si5 0.419431 0.011899 0.331980
Si Si6 0.500000 0.824756 0.500000
Si Si7 0.186693 0.016213 0.735699
O O1 0.384532 0.758279 0.704252
O O2 0.533784 0.721310 0.901709
O O3 0.598815 0.898937 0.867761
O O4 0.199744 0.892368 0.778358
O O5 0.719182 0.513447 0.211633
O O6 0.500000 0.446007 0.000000
O O7 0.776793 0.583469 0.040955
O O8 0.104536 0.616948 0.608122
O O9 0.326641 0.744319 0.511059
O O10 0.478008 0.572507 0.641149
O O11 0.250730 0.591874 0.158957
O O12 0.000000 0.716333 0.000000
O O13 0.633763 0.017714 0.312222
O O14 0.416169 0.906627 0.398386
#
# Coordination Sequence:
#
# PCOD9125430 Si02
#       7
#     4   4   4   4   4   2   4
#     4  10  21  41  65  98 144 183 235 287 350 418
#     4  11  21  42  68 104 149 188 237 292 352 442
#     4  11  25  47  73 101 143 188 237 310 361 409
#     4  11  20  39  66 102 148 189 233 296 356 417
#     4  11  25  49  73 107 146 185 250 293 357 444
#     4  12  26  50  76 106 146 186 244 320 352 418
#     4  10  22  47  69 103 148 185 241 298 348 443
#
# _framework density 24.554410000000001
#
# number of rings (size 3 to 8) (size 9 to 14) (size 15 to 20)
#    0.000    1.231    6.154    2.308    2.154    0.000 
#   11.077    1.538    0.000    0.000    0.000    0.000 
#    0.000    0.000    0.000    0.000    0.000    0.000 
#
# Total GULP energy -72420.067462 kJ/mol
# GULP energy per Si atom -5570.774420 kJ/mol
# Density = 2.449852 g / cm^3
# Si number density = 24.554410 Si / 1000 Ang^3
#
#
#
# Elastic Constant Matrix: (Units=GPa)
#
#
# Indices 1 2 3 4 5 6 
#
# 1 57.7863 41.0268 18.7763 0.0000 -17.5077 0.0000
# 2 41.0268 130.5779 43.3723 0.0000 -16.0110 0.0000
# 3 18.7763 43.3723 118.8356 0.0000 -29.7998 0.0000
# 4 0.0000 0.0000 0.0000 51.2860 0.0000 8.1220
# 5 -17.5077 -16.0110 -29.7998 0.0000 31.9261 0.0000
# 6 0.0000 0.0000 0.0000 8.1220 0.0000 35.4620
#
#
#
# Elastic Compliance Matrix: (Units=1/GPa)
#
#
# Indices 1 2 3 4 5 6 
#
# 1 0.025382 -0.007031 0.001517 0.000000 0.011809 0.000000
# 2 -0.007031 0.010745 -0.003168 0.000000 -0.001424 0.000000
# 3 0.001517 -0.003168 0.011935 0.000000 0.010384 0.000000
# 4 0.000000 0.000000 0.000000 0.020232 0.000000 -0.004634
# 5 0.011809 -0.001424 0.010384 0.000000 0.046776 0.000000
# 6 0.000000 0.000000 0.000000 -0.004634 0.000000 0.029260
#
#
# Mechanical properties :
#
#
# Convention : Reuss Voigt Hill
#
# Bulk Modulus (GPa) = 32.57458 57.06117 44.81788
# Shear Modulus (GPa) = 29.08214 37.33645 33.20929
#
# Velocity S-wave (km/s) = 3.44524 3.90367 3.68159
# Velocity P-wave (km/s) = 5.39642 6.60358 6.03028
#
# Compressibility (1/GPa) = 0.03069878
#
# Stress axis : x y z
#
# Youngs Moduli (GPa) = 39.39863 93.06762 83.78485
#
# Poissons Ratio (x) = 0.65432 -0.12709
# Poissons Ratio (y) = 0.27700 0.26541
# Poissons Ratio (z) = -0.05976 0.29482
#
# Static dielectric constant tensor:
#      x y z
#    x 2.078190 0.000000 0.073530 
#    y 0.000000 1.989520 0.000000 
#    z 0.073530 0.000000 1.987870 
# 
# From -- ./inp_files/50369.got.cif
#   From: 2010.05.17/outbox.cif.g08.bks.cpg/sg5_26_cif.got.tgz:50369.got - 2010.06.03 18:56:24.
