data_PCOD9125579
_publ_section_title
;
Structure prediction by ZEFSAII (Michael W. Deem and Ramdas Pophale) SiO2 
 PCOD9125579
Probable space group: C 2
;
_chemical_formula_sum "Si O2"
_cell_formula_units_Z 32
_cell_length_a 9.401737
_cell_length_b 10.868679
_cell_length_c 30.000650
_cell_angle_alpha 90.000000
_cell_angle_beta 148.750991
_cell_angle_gamma 90.000000
_cell_volume 1590.306107
_symmetry_space_group_name_H-M "C 2"
_symmetry_group_IT_number 5
_symmetry_cell_setting 'monoclinic'
loop_
_space_group_symop_operation_xyz
x,y,z
-x,y,-z
1/2+x,1/2+y,z
1/2-x,1/2+y,-z
loop_
_atom_site_type_symbol
_atom_site_label
_atom_site_fract_x
_atom_site_fract_y
_atom_site_fract_z
Si Si1 0.681276 0.144420 0.755616
Si Si2 0.317723 0.471073 0.597522
Si Si3 0.335935 0.242422 0.346376
Si Si4 0.734491 0.361249 0.960674
Si Si5 0.313433 0.869558 0.243867
Si Si6 0.771845 0.858675 0.674481
Si Si7 0.729322 0.221381 0.527931
Si Si8 0.234820 0.142068 0.960266
O O1 0.717842 0.165633 0.712599
O O2 0.469927 0.245493 0.715972
O O3 0.967971 0.157862 0.857924
O O4 0.580457 0.006883 0.738105
O O5 0.517775 0.369156 0.630545
O O6 0.349959 0.464016 0.659857
O O7 0.361852 0.604438 0.587972
O O8 0.000000 0.442692 0.500000
O O9 0.560951 0.182296 0.439205
O O10 0.057280 0.276195 0.297582
O O11 0.456151 0.344917 0.857693
O O12 0.727187 0.501964 0.977476
O O13 0.754956 0.251939 0.001630
O O14 0.000000 0.354914 0.000000
O O15 0.225145 0.875692 0.271866
O O16 0.462300 0.818380 0.580373
O O17 0.500000 0.274304 0.500000
O O18 0.500000 0.149386 0.000000
#
# Coordination Sequence:
#
# PCOD9125579 Si02
#       8
#     4   4   4   4   4   4   4   4
#     4  10  24  39  61  90 120 155 198 251 303 358
#     4  10  22  37  58  81 113 157 201 242 293 344
#     4  11  22  40  59  86 120 156 204 249 296 351
#     4  10  22  41  66  93 125 160 204 249 310 380
#     4  11  23  39  62  90 118 156 200 250 301 360
#     4  11  22  40  58  83 121 155 197 249 296 346
#     4  11  22  37  57  83 114 157 201 243 288 349
#     4  10  21  42  65  93 126 160 201 252 311 377
#
# _framework density 20.12191
#
# number of rings (size 3 to 8) (size 9 to 14) (size 15 to 20)
#    0.000    1.500    2.500    2.250    3.500    0.500 
#    0.000    3.750    0.000    0.000    0.000    0.000 
#    0.000    0.000    0.000    0.000    0.000    0.000 
#
# Total GULP energy -89371.188888 kJ/mol
# GULP energy per Si atom -5585.699306 kJ/mol
# Density = 2.007611 g / cm^3
# Si number density = 20.121910 Si / 1000 Ang^3
#
#
#
# Elastic Constant Matrix: (Units=GPa)
#
#
# Indices 1 2 3 4 5 6 
#
# 1 71.7054 38.3174 22.6176 0.0000 -10.6147 0.0000
# 2 38.3174 92.9918 39.4556 0.0000 -15.3108 0.0000
# 3 22.6176 39.4556 78.0500 0.0000 -17.2980 0.0000
# 4 0.0000 0.0000 0.0000 105.5958 -0.0001 -19.1305
# 5 -10.6147 -15.3108 -17.2980 -0.0001 35.0921 0.0000
# 6 0.0000 0.0000 0.0000 -19.1305 0.0000 36.2193
#
#
#
# Elastic Compliance Matrix: (Units=1/GPa)
#
#
# Indices 1 2 3 4 5 6 
#
# 1 0.018206 -0.006531 -0.001555 0.000000 0.001891 0.000000
# 2 -0.006531 0.016296 -0.005846 0.000000 0.002253 0.000000
# 3 -0.001555 -0.005846 0.017456 0.000000 0.005583 0.000000
# 4 0.000000 0.000000 0.000000 0.010472 0.000000 0.005531
# 5 0.001891 0.002253 0.005583 0.000000 0.032804 0.000000
# 6 0.000000 0.000000 0.000000 0.005531 0.000000 0.030531
#
#
# Mechanical properties :
#
#
# Convention : Reuss Voigt Hill
#
# Bulk Modulus (GPa) = 41.50475 49.28093 45.39284
# Shear Modulus (GPa) = 30.92902 44.87186 37.90044
#
# Velocity S-wave (km/s) = 3.92482 4.72741 4.34469
# Velocity P-wave (km/s) = 6.41953 7.37172 6.91204
#
# Compressibility (1/GPa) = 0.02409363
#
# Stress axis : x y z
#
# Youngs Moduli (GPa) = 54.92608 61.36482 57.28764
#
# Poissons Ratio (x) = 0.40075 0.08911
# Poissons Ratio (y) = 0.35870 0.33491
# Poissons Ratio (z) = 0.08544 0.35875
#
# Static dielectric constant tensor:
#      x y z
#    x 1.676180 0.000000 -0.057020 
#    y 0.000000 1.723010 0.000000 
#    z -0.057020 0.000000 1.646520 
# 
# From -- ./inp_files/64544.got.cif
#   From: 2010.05.17/outbox.cif.g08.bks.cpg/sg5_33_cif.got.tgz:64544.got - 2010.06.03 18:56:24.
