data_PCOD9125551
_publ_section_title
;
Structure prediction by ZEFSAII (Michael W. Deem and Ramdas Pophale) SiO2 
 PCOD9125551
Probable space group: C 2
;
_chemical_formula_sum "Si O2"
_cell_formula_units_Z 32
_cell_length_a 7.768939
_cell_length_b 16.251358
_cell_length_c 19.093844
_cell_angle_alpha 90.000000
_cell_angle_beta 145.502884
_cell_angle_gamma 90.000000
_cell_volume 1365.340450
_symmetry_space_group_name_H-M "C 2"
_symmetry_group_IT_number 5
_symmetry_cell_setting 'monoclinic'
loop_
_space_group_symop_operation_xyz
x,y,z
-x,y,-z
1/2+x,1/2+y,z
1/2-x,1/2+y,-z
loop_
_atom_site_type_symbol
_atom_site_label
_atom_site_fract_x
_atom_site_fract_y
_atom_site_fract_z
Si Si1 0.760855 0.365830 0.260540
Si Si2 0.271908 0.012329 0.036501
Si Si3 0.319222 0.828176 0.012152
Si Si4 0.186418 0.044055 0.235403
Si Si5 0.297010 0.723012 0.757225
Si Si6 0.634974 0.374091 0.373213
Si Si7 0.141354 0.213601 0.379136
Si Si8 0.072157 0.047184 0.696600
O O1 0.856364 0.458856 0.273250
O O2 0.568816 0.375619 0.267450
O O3 0.018464 0.300397 0.363937
O O4 0.535430 0.328546 0.127172
O O5 0.579015 0.055379 0.163362
O O6 0.356922 0.915861 0.062682
O O7 0.000000 0.026671 0.000000
O O8 0.132477 0.035434 0.913963
O O9 0.456561 0.756934 0.105693
O O10 0.500000 0.827448 0.000000
O O11 0.321127 0.132603 0.260724
O O12 0.131909 0.044819 0.300548
O O13 0.450888 0.711930 0.733516
O O14 0.035672 0.791643 0.660359
O O15 0.502325 0.458274 0.361768
O O16 0.000000 0.374499 0.500000
O O17 0.500000 0.209956 0.500000
O O18 0.018699 0.130545 0.373490
#
# Coordination Sequence:
#
# PCOD9125551 Si02
#       8
#     4   4   4   4   4   4   4   4
#     4  10  22  40  62  88 129 169 204 268 328 363
#     4  11  22  36  61  98 130 160 208 266 325 384
#     4  11  21  40  64  93 131 169 207 262 326 388
#     4   9  22  39  60  88 130 167 206 256 323 390
#     4  11  23  39  65  93 125 167 222 256 317 381
#     4  11  21  39  66  91 121 170 222 258 307 383
#     4  11  25  43  63  93 130 169 219 267 310 374
#     4  10  21  42  63  89 124 173 209 256 321 385
#
# _framework density 23.437377000000001
#
# number of rings (size 3 to 8) (size 9 to 14) (size 15 to 20)
#    0.000    1.500    2.500    3.000    5.250    1.500 
#    0.000    0.625    0.000    0.000    0.000    0.000 
#    0.000    0.000    0.000    0.000    0.000    0.000 
#
# Total GULP energy -89373.748109 kJ/mol
# GULP energy per Si atom -5585.859257 kJ/mol
# Density = 2.338403 g / cm^3
# Si number density = 23.437377 Si / 1000 Ang^3
#
#
#
# Elastic Constant Matrix: (Units=GPa)
#
#
# Indices 1 2 3 4 5 6 
#
# 1 19.4846 11.1230 -6.5809 0.0022 -2.6884 0.0005
# 2 11.1230 212.1680 53.7597 0.0026 25.5945 0.0007
# 3 -6.5809 53.7597 72.5194 0.0067 4.8350 0.0031
# 4 0.0022 0.0026 0.0067 18.9157 0.0022 12.4944
# 5 -2.6884 25.5945 4.8350 0.0022 22.4605 0.0003
# 6 0.0005 0.0007 0.0031 12.4944 0.0003 17.3736
#
#
#
# Elastic Compliance Matrix: (Units=1/GPa)
#
#
# Indices 1 2 3 4 5 6 
#
# 1 0.060799 -0.007371 0.010081 -0.000017 0.013507 0.000009
# 2 -0.007371 0.007541 -0.005709 0.000004 -0.008247 -0.000002
# 3 0.010081 -0.005709 0.018691 -0.000010 0.003689 0.000004
# 4 -0.000017 0.000004 -0.000010 0.100703 -0.000013 -0.072421
# 5 0.013507 -0.008247 0.003689 -0.000013 0.054742 0.000008
# 6 0.000009 -0.000002 0.000004 -0.072421 0.000008 0.109641
#
#
# Mechanical properties :
#
#
# Convention : Reuss Voigt Hill
#
# Bulk Modulus (GPa) = 12.34083 46.75284 29.54683
# Shear Modulus (GPa) = 12.98273 28.14131 20.56202
#
# Velocity S-wave (km/s) = 2.35613 3.46887 2.96517
# Velocity P-wave (km/s) = 3.56071 6.00295 4.93529
#
# Compressibility (1/GPa) = 0.08103184
#
# Stress axis : x y z
#
# Youngs Moduli (GPa) = 16.44767 132.60509 53.50228
#
# Poissons Ratio (x) = 0.97745 -0.53936
# Poissons Ratio (y) = 0.12124 0.30547
# Poissons Ratio (z) = -0.16581 0.75711
#
# Static dielectric constant tensor:
#      x y z
#    x 1.904340 0.000000 -0.044020 
#    y 0.000000 1.983300 0.000000 
#    z -0.044020 0.000000 1.880820 
# 
# From -- ./inp_files/68039.got.cif
#   From: 2010.05.17/outbox.cif.g08.bks.cpg/sg5_35_cif.got.tgz:68039.got - 2010.06.03 18:56:24.
