data_PCOD9125809
_publ_section_title
;
Structure prediction by ZEFSAII (Michael W. Deem and Ramdas Pophale) SiO2 
 PCOD9125809
Probable space group: C 2
;
_chemical_formula_sum "Si O2"
_cell_formula_units_Z 24
_cell_length_a 12.034485
_cell_length_b 8.533563
_cell_length_c 24.558483
_cell_angle_alpha 90.000000
_cell_angle_beta 152.498933
_cell_angle_gamma 90.000000
_cell_volume 1164.610178
_symmetry_space_group_name_H-M "C 2"
_symmetry_group_IT_number 5
_symmetry_cell_setting 'monoclinic'
loop_
_space_group_symop_operation_xyz
x,y,z
-x,y,-z
1/2+x,1/2+y,z
1/2-x,1/2+y,-z
loop_
_atom_site_type_symbol
_atom_site_label
_atom_site_fract_x
_atom_site_fract_y
_atom_site_fract_z
Si Si1 0.500000 0.998111 0.000000
Si Si2 0.420273 0.810122 0.361335
Si Si3 0.000000 0.488121 0.500000
Si Si4 0.774808 0.293056 0.805700
Si Si5 0.183205 0.931435 0.154902
Si Si6 0.696582 0.789687 0.901815
Si Si7 0.635630 0.496654 0.425220
O O1 0.627780 0.893921 0.101271
O O2 0.689936 0.116017 0.053866
O O3 0.366301 0.878502 0.397466
O O4 0.227665 0.850149 0.232104
O O5 0.483714 0.628197 0.388880
O O6 0.664611 0.906556 0.452781
O O7 0.799939 0.574770 0.448637
O O8 0.534378 0.369985 0.677301
O O9 0.968862 0.295469 0.841257
O O10 0.751912 0.113012 0.813249
O O11 0.338791 0.848070 0.175311
O O12 0.907243 0.900352 0.017833
#
# Coordination Sequence:
#
# PCOD9125809 Si02
#       7
#     2   4   2   4   4   4   4
#     4  10  22  40  62  92 132 160 210 248 306 368
#     4  10  21  44  63  89 122 163 205 257 302 370
#     4   8  24  40  62  86 124 156 204 256 308 352
#     4  12  23  39  65  96 122 168 205 253 311 367
#     4  10  22  40  65  91 131 159 209 252 304 372
#     4  10  23  42  61  96 126 166 204 255 303 364
#     4  10  22  42  62  89 124 157 210 250 310 363
#
# _framework density 20.607755999999998
#
# number of rings (size 3 to 8) (size 9 to 14) (size 15 to 20)
#    1.000    1.000    0.000    5.000    0.000    5.333 
#    0.000    0.000    0.000    0.000    0.000    0.000 
#    0.000    0.000    0.000    0.000    0.000    0.000 
#
# Total GULP energy -66950.593475 kJ/mol
# GULP energy per Si atom -5579.216123 kJ/mol
# Density = 2.056085 g / cm^3
# Si number density = 20.607756 Si / 1000 Ang^3
#
#
#
# Elastic Constant Matrix: (Units=GPa)
#
#
# Indices 1 2 3 4 5 6 
#
# 1 48.1569 -18.5473 14.0328 -0.0001 -6.4843 -0.0001
# 2 -18.5473 59.6982 -18.1471 -0.0001 -1.6546 -0.0002
# 3 14.0328 -18.1471 35.6773 0.0005 -11.8086 0.0002
# 4 -0.0001 -0.0001 0.0005 -0.9884 0.0001 -20.5472
# 5 -6.4843 -1.6546 -11.8086 0.0001 33.2720 0.0001
# 6 -0.0001 -0.0002 0.0002 -20.5472 0.0001 5.4078
#
#
#
# Elastic Compliance Matrix: (Units=1/GPa)
#
#
# Indices 1 2 3 4 5 6 
#
# 1 0.025249 0.006194 -0.005722 0.000000 0.003198 0.000000
# 2 0.006194 0.022151 0.010872 0.000000 0.006167 0.000000
# 3 -0.005722 0.010872 0.040361 0.000001 0.013750 0.000001
# 4 0.000000 0.000000 0.000001 -0.012649 0.000000 -0.048060
# 5 0.003198 0.006167 0.013750 0.000000 0.035865 0.000000
# 6 0.000000 0.000000 0.000001 -0.048060 0.000000 0.002312
#
#
# Mechanical properties :
#
#
# Convention : Reuss Voigt Hill
#
# Bulk Modulus (GPa) = 9.05404 10.91214 9.98309
# Shear Modulus (GPa) = 39.24091 18.61787 28.92939
#
# Velocity S-wave (km/s) = 4.36843 3.00899 3.75081
# Velocity P-wave (km/s) = 5.46326 4.16877 4.85932
#
# Compressibility (1/GPa) = 0.11044792
#
# Stress axis : x y z
#
# Youngs Moduli (GPa) = 39.60566 45.14461 24.77648
#
# Poissons Ratio (x) = -0.27961 0.14178
# Poissons Ratio (y) = -0.24530 -0.26937
# Poissons Ratio (z) = 0.22663 -0.49082
#
# Static dielectric constant tensor:
#      x y z
#    x 1.771130 0.000000 0.002570 
#    y 0.000000 1.712050 0.000000 
#    z 0.002570 0.000000 1.749720 
# 
# From -- ./inp_files/47379.got.cif
#   From: 2010.05.17/outbox.cif.g08.bks.cpg/sg5_24_cif.got.tgz:47379.got - 2010.06.03 18:56:24.
