data_PCOD9125191
_publ_section_title
;
Structure prediction by ZEFSAII (Michael W. Deem and Ramdas Pophale) SiO2 
 PCOD9125191
Probable space group: C 2
;
_chemical_formula_sum "Si O2"
_cell_formula_units_Z 22
_cell_length_a 22.897503
_cell_length_b 4.888546
_cell_length_c 12.419496
_cell_angle_alpha 90.000000
_cell_angle_beta 138.709005
_cell_angle_gamma 90.000000
_cell_volume 917.358583
_symmetry_space_group_name_H-M "C 2"
_symmetry_group_IT_number 5
_symmetry_cell_setting 'monoclinic'
loop_
_space_group_symop_operation_xyz
x,y,z
-x,y,-z
1/2+x,1/2+y,z
1/2-x,1/2+y,-z
loop_
_atom_site_type_symbol
_atom_site_label
_atom_site_fract_x
_atom_site_fract_y
_atom_site_fract_z
Si Si1 0.453570 0.408890 0.195964
Si Si2 0.664413 0.892130 0.971297
Si Si3 0.813611 0.494968 0.242320
Si Si4 0.220135 0.173294 0.593839
Si Si5 0.500000 0.275509 0.500000
Si Si6 0.865776 0.674672 0.629215
O O1 0.419199 0.702756 0.113552
O O2 0.480450 0.427338 0.360197
O O3 0.535339 0.281473 0.244866
O O4 0.371114 0.200235 0.069444
O O5 0.684085 0.854968 0.871500
O O6 0.747495 0.753113 0.144408
O O7 0.786121 0.285840 0.295953
O O8 0.913192 0.595840 0.401312
O O9 0.151792 0.364197 0.431269
O O10 0.316751 0.213811 0.675193
O O11 0.190369 0.864454 0.531346
#
# Coordination Sequence:
#
# PCOD9125191 Si02
#       6
#     4   4   4   4   2   4
#     4  11  23  41  62  96 129 168 209 273 314 390
#     4  11  26  39  63  90 140 167 206 261 335 383
#     4  11  23  44  62  99 126 177 212 263 327 384
#     4  10  22  38  67  93 129 165 214 276 316 376
#     4  10  22  34  68  90 124 158 226 256 314 368
#     4  10  21  40  63  98 126 162 218 274 320 370
#
# _framework density 23.981895999999999
#
# number of rings (size 3 to 8) (size 9 to 14) (size 15 to 20)
#    0.000    1.455    1.818    3.273    5.091    3.636 
#    0.000    0.909    0.000    4.364    0.000    0.000 
#    0.000    0.000    0.000    0.000    0.000    0.000 
#
# Total GULP energy -61610.082088 kJ/mol
# GULP energy per Si atom -5600.916553 kJ/mol
# Density = 2.392731 g / cm^3
# Si number density = 23.981896 Si / 1000 Ang^3
#
#
#
# Elastic Constant Matrix: (Units=GPa)
#
#
# Indices 1 2 3 4 5 6 
#
# 1 106.1596 -12.6883 17.9196 -0.0001 24.0171 0.0000
# 2 -12.6883 78.0488 12.3788 -0.0001 3.7365 0.0001
# 3 17.9196 12.3788 81.9182 -0.0003 26.1835 0.0000
# 4 -0.0001 -0.0001 -0.0003 28.5861 -0.0001 2.2208
# 5 24.0171 3.7365 26.1835 -0.0001 34.4036 -0.0002
# 6 0.0000 0.0001 0.0000 2.2208 -0.0002 27.6578
#
#
#
# Elastic Compliance Matrix: (Units=1/GPa)
#
#
# Indices 1 2 3 4 5 6 
#
# 1 0.011582 0.002317 -0.000289 0.000000 -0.008117 0.000000
# 2 0.002317 0.013591 -0.002077 0.000000 -0.001513 0.000000
# 3 -0.000289 -0.002077 0.016449 0.000000 -0.012091 0.000000
# 4 0.000000 0.000000 0.000000 0.035202 0.000000 -0.002827
# 5 -0.008117 -0.001513 -0.012091 0.000000 0.044100 0.000000
# 6 0.000000 0.000000 0.000000 -0.002827 0.000000 0.036383
#
#
# Mechanical properties :
#
#
# Convention : Reuss Voigt Hill
#
# Bulk Modulus (GPa) = 24.08245 33.48298 28.78272
# Shear Modulus (GPa) = 29.19771 34.69725 31.94748
#
# Velocity S-wave (km/s) = 3.49304 3.80782 3.65382
# Velocity P-wave (km/s) = 5.13149 5.77276 5.46154
#
# Compressibility (1/GPa) = 0.04152402
#
# Stress axis : x y z
#
# Youngs Moduli (GPa) = 86.34167 73.57762 60.79310
#
# Poissons Ratio (x) = -0.17050 0.01759
# Poissons Ratio (y) = -0.20008 0.12627
# Poissons Ratio (z) = 0.02498 0.15283
#
# Static dielectric constant tensor:
#      x y z
#    x 1.902020 0.000000 -0.003740 
#    y 0.000000 1.899240 0.000000 
#    z -0.003740 0.000000 1.938480 
# 
# From -- ./inp_files/47008.got.cif
#   From: 2010.05.17/outbox.cif.g08.bks.cpg/sg5_24_cif.got.tgz:47008.got - 2010.06.03 18:56:24.
