data_PCOD9125249
_publ_section_title
;
Structure prediction by ZEFSAII (Michael W. Deem and Ramdas Pophale) SiO2 
 PCOD9125249
Probable space group: C 2
;
_chemical_formula_sum "Si O2"
_cell_formula_units_Z 30
_cell_length_a 22.006365
_cell_length_b 8.229220
_cell_length_c 24.414897
_cell_angle_alpha 90.000000
_cell_angle_beta 161.777978
_cell_angle_gamma 90.000000
_cell_volume 1382.578487
_symmetry_space_group_name_H-M "C 2"
_symmetry_group_IT_number 5
_symmetry_cell_setting 'monoclinic'
loop_
_space_group_symop_operation_xyz
x,y,z
-x,y,-z
1/2+x,1/2+y,z
1/2-x,1/2+y,-z
loop_
_atom_site_type_symbol
_atom_site_label
_atom_site_fract_x
_atom_site_fract_y
_atom_site_fract_z
Si Si1 0.892809 0.695510 0.012279
Si Si2 0.775557 0.786836 0.314007
Si Si3 0.513446 0.552841 0.947101
Si Si4 0.601252 0.174537 0.771534
Si Si5 0.402402 0.321145 0.706962
Si Si6 0.000000 0.476451 0.000000
Si Si7 0.784020 0.196800 0.624677
Si Si8 0.012764 0.302921 0.309819
O O1 0.018378 0.709544 0.175681
O O2 0.935922 0.578309 0.998458
O O3 0.925791 0.874262 0.015886
O O4 0.667101 0.684310 0.834557
O O5 0.706792 0.598963 0.257151
O O6 0.702189 0.821106 0.312511
O O7 0.000000 0.810435 0.500000
O O8 0.669635 0.871244 0.172969
O O9 0.500000 0.564455 0.000000
O O10 0.675769 0.673734 0.059272
O O11 0.540559 0.287824 0.771492
O O12 0.444474 0.194150 0.588149
O O13 0.562026 0.987711 0.754769
O O14 0.377604 0.511682 0.704718
O O15 0.184770 0.277617 0.500865
O O16 0.893874 0.273988 0.668334
#
# Coordination Sequence:
#
# PCOD9125249 Si02
#       8
#     4   4   4   4   4   2   4   4
#     4  11  24  44  69  96 135 182 231 283 348 404
#     4  12  27  46  67  98 135 182 238 283 347 409
#     4  11  21  44  71  96 132 176 231 280 335 416
#     4   9  21  39  68 103 137 170 225 285 341 407
#     4  10  21  40  66 103 134 174 224 281 343 407
#     4  12  30  48  64 102 140 190 234 292 340 408
#     4  10  21  42  66 100 137 177 223 276 350 410
#     4   9  22  40  64 103 138 171 218 283 342 411
#
# _framework density 21.698585999999999
#
# number of rings (size 3 to 8) (size 9 to 14) (size 15 to 20)
#    0.000    1.600    2.667    0.800    3.733    2.133 
#    4.800    0.667    0.000    0.000    0.000    0.000 
#    0.000    0.000    0.000    0.000    0.000    0.000 
#
# Total GULP energy -83558.792569 kJ/mol
# GULP energy per Si atom -5570.586171 kJ/mol
# Density = 2.164920 g / cm^3
# Si number density = 21.698586 Si / 1000 Ang^3
#
#
#
# Elastic Constant Matrix: (Units=GPa)
#
#
# Indices 1 2 3 4 5 6 
#
# 1 128.1515 38.4865 72.8005 0.0053 -20.0965 0.0000
# 2 38.4865 50.8385 40.4930 0.0048 -9.8423 -0.0011
# 3 72.8005 40.4930 133.2994 0.0293 2.8458 -0.0044
# 4 0.0053 0.0048 0.0293 9.6151 0.0015 -2.8626
# 5 -20.0965 -9.8423 2.8458 0.0015 23.8102 -0.0016
# 6 0.0000 -0.0011 -0.0044 -2.8626 -0.0016 36.0576
#
#
#
# Elastic Compliance Matrix: (Units=1/GPa)
#
#
# Indices 1 2 3 4 5 6 
#
# 1 0.014846 -0.002911 -0.007485 0.000014 0.012222 0.000001
# 2 -0.002911 0.030235 -0.007829 0.000009 0.010977 0.000001
# 3 -0.007485 -0.007829 0.014208 -0.000034 -0.011252 -0.000002
# 4 0.000014 0.000009 -0.000034 0.106521 0.000013 0.008457
# 5 0.012222 0.010977 -0.011252 0.000013 0.058196 0.000003
# 6 0.000001 0.000001 -0.000002 0.008457 0.000003 0.028405
#
#
# Mechanical properties :
#
#
# Convention : Reuss Voigt Hill
#
# Bulk Modulus (GPa) = 43.78432 68.42771 56.10601
# Shear Modulus (GPa) = 16.86492 24.59722 20.73107
#
# Velocity S-wave (km/s) = 2.79092 3.37053 3.09433
# Velocity P-wave (km/s) = 5.53244 6.83749 6.21929
#
# Compressibility (1/GPa) = 0.02283923
#
# Stress axis : x y z
#
# Youngs Moduli (GPa) = 67.35815 33.07433 70.38290
#
# Poissons Ratio (x) = 0.09629 0.52679
# Poissons Ratio (y) = 0.19610 0.55102
# Poissons Ratio (z) = 0.50415 0.25894
#
# Static dielectric constant tensor:
#      x y z
#    x 2.007570 -0.000010 -0.143270 
#    y -0.000010 1.832010 0.000000 
#    z -0.143270 0.000000 1.893140 
# 
# From -- ./inp_files/69465.got.cif
#   From: 2010.05.17/outbox.cif.g08.bks.cpg/sg5_35_cif.got.tgz:69465.got - 2010.06.03 18:56:24.
