data_PCOD9125608
_publ_section_title
;
Structure prediction by ZEFSAII (Michael W. Deem and Ramdas Pophale) SiO2 
 PCOD9125608
Probable space group: C 2
;
_chemical_formula_sum "Si O2"
_cell_formula_units_Z 20
_cell_length_a 15.869730
_cell_length_b 5.069497
_cell_length_c 10.852995
_cell_angle_alpha 90.000000
_cell_angle_beta 110.334195
_cell_angle_gamma 90.000000
_cell_volume 818.727648
_symmetry_space_group_name_H-M "C 2"
_symmetry_group_IT_number 5
_symmetry_cell_setting 'monoclinic'
loop_
_space_group_symop_operation_xyz
x,y,z
-x,y,-z
1/2+x,1/2+y,z
1/2-x,1/2+y,-z
loop_
_atom_site_type_symbol
_atom_site_label
_atom_site_fract_x
_atom_site_fract_y
_atom_site_fract_z
Si Si1 0.112176 0.921480 0.676883
Si Si2 0.186411 0.734308 0.460057
Si Si3 0.617225 0.560102 0.021215
Si Si4 0.460650 0.431199 0.779992
Si Si5 0.682355 0.902289 0.845937
O O1 0.126392 0.827552 0.545751
O O2 0.145458 0.667861 0.769269
O O3 0.173723 0.169330 0.741620
O O4 0.015621 0.009421 0.684415
O O5 0.236062 0.458404 0.510007
O O6 0.117257 0.738362 0.309519
O O7 0.591935 0.620694 0.149952
O O8 0.714208 0.429846 0.067548
O O9 0.544252 0.376504 0.914710
O O10 0.626758 0.810415 0.937144
#
# Coordination Sequence:
#
# PCOD9125608 Si02
#       5
#     4   4   4   4   4
#     4  11  24  45  70 100 138 180 227 280 337 403
#     4  12  26  46  71  98 135 182 233 282 336 403
#     4  10  21  42  67 100 137 175 221 276 337 403
#     4  10  23  42  67 100 135 175 224 280 337 397
#     4  11  23  43  71  99 136 180 223 275 340 408
#
# _framework density 24.428148
#
# number of rings (size 3 to 8) (size 9 to 14) (size 15 to 20)
#    0.000    1.200    0.000    6.600    0.000    3.200 
#    0.000   42.000    0.000    0.000    0.000    0.000 
#    0.000    0.000    0.000    0.000    0.000    0.000 
#
# Total GULP energy -55768.175958 kJ/mol
# GULP energy per Si atom -5576.817596 kJ/mol
# Density = 2.437255 g / cm^3
# Si number density = 24.428148 Si / 1000 Ang^3
#
#
#
# Elastic Constant Matrix: (Units=GPa)
#
#
# Indices 1 2 3 4 5 6 
#
# 1 118.0651 20.5613 63.5066 0.0000 -14.3781 0.0000
# 2 20.5613 87.0041 28.6638 0.0000 40.9364 0.0000
# 3 63.5066 28.6638 111.6099 0.0000 2.5833 0.0000
# 4 0.0000 0.0000 0.0000 -30.7948 0.0000 14.8161
# 5 -14.3781 40.9364 2.5833 0.0000 41.0096 0.0000
# 6 0.0000 0.0000 0.0000 14.8161 0.0000 -13.0714
#
#
#
# Elastic Compliance Matrix: (Units=1/GPa)
#
#
# Indices 1 2 3 4 5 6 
#
# 1 0.015159 -0.007511 -0.007003 0.000000 0.013254 0.000000
# 2 -0.007511 0.028700 -0.002376 0.000000 -0.031132 0.000000
# 3 -0.007003 -0.002376 0.013577 0.000000 -0.000939 0.000000
# 4 0.000000 0.000000 0.000000 -0.071423 0.000000 -0.080956
# 5 0.013254 -0.031132 -0.000939 0.000000 0.060167 0.000000
# 6 0.000000 0.000000 0.000000 -0.080956 0.000000 -0.168264
#
#
# Mechanical properties :
#
#
# Convention : Reuss Voigt Hill
#
# Bulk Modulus (GPa) = 42.27613 60.23805 51.25709
# Shear Modulus (GPa) = -62.17581 13.02517 -24.57532
#
# Velocity S-wave (km/s) = -5.05052 2.31162 -3.17523
# Velocity P-wave (km/s) = 4.08246 5.64248 2.75419
#
# Compressibility (1/GPa) = 0.02365401
#
# Stress axis : x y z
#
# Youngs Moduli (GPa) = 65.96666 34.84336 73.65570
#
# Poissons Ratio (x) = 0.26172 0.51584
# Poissons Ratio (y) = 0.49550 0.17502
# Poissons Ratio (z) = 0.46199 0.08279
#
# Static dielectric constant tensor:
#      x y z
#    x 2.128150 0.000000 -0.075990 
#    y 0.000000 1.994760 0.000000 
#    z -0.075990 0.000000 2.015680 
# 
# From -- ./inp_files/43634.got.cif
#   From: 2010.05.17/outbox.cif.g08.bks.cpg/sg5_22_cif.got.tgz:43634.got - 2010.06.03 18:56:24.
