data_PCOD9125276
_publ_section_title
;
Structure prediction by ZEFSAII (Michael W. Deem and Ramdas Pophale) SiO2 
 PCOD9125276
Probable space group: C 2
;
_chemical_formula_sum "Si O2"
_cell_formula_units_Z 22
_cell_length_a 17.077552
_cell_length_b 7.007678
_cell_length_c 11.846860
_cell_angle_alpha 90.000000
_cell_angle_beta 33.912634
_cell_angle_gamma 90.000000
_cell_volume 791.008698
_symmetry_space_group_name_H-M "C 2"
_symmetry_group_IT_number 5
_symmetry_cell_setting 'monoclinic'
loop_
_space_group_symop_operation_xyz
x,y,z
-x,y,-z
1/2+x,1/2+y,z
1/2-x,1/2+y,-z
loop_
_atom_site_type_symbol
_atom_site_label
_atom_site_fract_x
_atom_site_fract_y
_atom_site_fract_z
Si Si1 0.220631 0.461710 0.576462
Si Si2 0.500000 0.210009 0.500000
Si Si3 0.799018 0.191300 0.185966
Si Si4 0.235492 0.814880 0.700741
Si Si5 0.962418 0.907762 0.774733
Si Si6 0.727134 0.073256 0.916659
O O1 0.194773 0.294626 0.699090
O O2 0.165829 0.650707 0.704478
O O3 0.169097 0.415344 0.511482
O O4 0.390435 0.486363 0.356064
O O5 0.646895 0.109049 0.328179
O O6 0.508589 0.345060 0.595413
O O7 0.825480 0.368304 0.069514
O O8 0.862044 0.980273 0.126941
O O9 0.298112 0.685519 0.726272
O O10 0.831492 0.043842 0.897751
O O11 0.898052 0.713381 0.900864
#
# Coordination Sequence:
#
# PCOD9125276 Si02
#       6
#     4   2   4   4   4   4
#     4  10  21  40  67  96 132 172 229 277 338 403
#     4   8  18  36  64  88 122 160 226 274 324 388
#     4   9  19  38  62  96 126 173 217 280 332 404
#     4  11  21  39  69  98 133 177 223 285 335 414
#     4  10  22  44  64  95 136 178 226 285 331 414
#     4  10  24  39  65  93 140 177 224 278 345 397
#
# _framework density 27.812587000000001
#
# number of rings (size 3 to 8) (size 9 to 14) (size 15 to 20)
#    0.000    2.182    1.818    1.091    5.091    2.182 
#    3.273    0.000    4.000    0.000    0.000    0.000 
#    0.000    0.000    0.000    0.000    0.000    0.000 
#
# Total GULP energy -61327.896936 kJ/mol
# GULP energy per Si atom -5575.263358 kJ/mol
# Density = 2.774928 g / cm^3
# Si number density = 27.812587 Si / 1000 Ang^3
#
#
#
# Elastic Constant Matrix: (Units=GPa)
#
#
# Indices 1 2 3 4 5 6 
#
# 1 114.7331 49.4774 36.3202 -0.0009 -9.7241 0.0002
# 2 49.4774 243.6452 56.3753 -0.0017 17.5166 0.0009
# 3 36.3202 56.3753 66.2735 -0.0012 5.6285 0.0007
# 4 -0.0009 -0.0017 -0.0012 48.5856 0.0005 25.3743
# 5 -9.7241 17.5166 5.6285 0.0005 42.5363 -0.0001
# 6 0.0002 0.0009 0.0007 25.3743 -0.0001 43.1429
#
#
#
# Elastic Compliance Matrix: (Units=1/GPa)
#
#
# Indices 1 2 3 4 5 6 
#
# 1 0.011325 -0.001326 -0.005406 0.000000 0.003850 0.000000
# 2 -0.001326 0.005368 -0.003667 0.000000 -0.002028 0.000000
# 3 -0.005406 -0.003667 0.021388 0.000001 -0.002556 -0.000001
# 4 0.000000 0.000000 0.000001 0.029707 -0.000001 -0.017472
# 5 0.003850 -0.002028 -0.002556 -0.000001 0.025563 0.000000
# 6 0.000000 0.000000 -0.000001 -0.017472 0.000000 0.033455
#
#
# Mechanical properties :
#
#
# Convention : Reuss Voigt Hill
#
# Bulk Modulus (GPa) = 57.85891 78.77751 68.31821
# Shear Modulus (GPa) = 32.60180 45.68488 39.14334
#
# Velocity S-wave (km/s) = 3.42745 4.05729 3.75560
# Velocity P-wave (km/s) = 6.04248 7.09470 6.58962
#
# Compressibility (1/GPa) = 0.01728342
#
# Stress axis : x y z
#
# Youngs Moduli (GPa) = 88.29833 186.29041 46.75466
#
# Poissons Ratio (x) = 0.24699 0.25275
# Poissons Ratio (y) = 0.11707 0.17147
# Poissons Ratio (z) = 0.47732 0.68320
#
# Static dielectric constant tensor:
#      x y z
#    x 2.387340 0.000000 -0.074950 
#    y 0.000000 2.242110 0.000000 
#    z -0.074950 0.000000 2.372400 
# 
# From -- ./inp_files/45828.got.cif
#   From: 2010.05.17/outbox.cif.g08.bks.cpg/sg5_23_cif.got.tgz:45828.got - 2010.06.03 18:56:24.
