data_PCOD9125487
_publ_section_title
;
Structure prediction by ZEFSAII (Michael W. Deem and Ramdas Pophale) SiO2 
 PCOD9125487
Probable space group: C 2
;
_chemical_formula_sum "Si O2"
_cell_formula_units_Z 28
_cell_length_a 12.896731
_cell_length_b 5.175558
_cell_length_c 23.782265
_cell_angle_alpha 90.000000
_cell_angle_beta 123.740406
_cell_angle_gamma 90.000000
_cell_volume 1320.033640
_symmetry_space_group_name_H-M "C 2"
_symmetry_group_IT_number 5
_symmetry_cell_setting 'monoclinic'
loop_
_space_group_symop_operation_xyz
x,y,z
-x,y,-z
1/2+x,1/2+y,z
1/2-x,1/2+y,-z
loop_
_atom_site_type_symbol
_atom_site_label
_atom_site_fract_x
_atom_site_fract_y
_atom_site_fract_z
Si Si1 0.706870 0.410700 0.423245
Si Si2 0.543486 0.778581 0.241578
Si Si3 0.075183 0.682591 0.476281
Si Si4 0.092498 0.635823 0.976855
Si Si5 0.200907 0.752460 0.302587
Si Si6 0.519616 0.823523 0.651222
Si Si7 0.884154 0.135388 0.087434
O O1 0.851510 0.487066 0.460946
O O2 0.690568 0.321172 0.482008
O O3 0.689324 0.211654 0.366712
O O4 0.594019 0.618079 0.386687
O O5 0.641347 0.538661 0.277058
O O6 0.477075 0.858554 0.280331
O O7 0.444131 0.693492 0.165458
O O8 0.620730 0.033156 0.248219
O O9 0.000000 0.844395 0.500000
O O10 0.009040 0.554356 0.402263
O O11 0.072292 0.357907 0.942467
O O12 0.078966 0.857446 0.925916
O O13 0.234215 0.647994 0.042257
O O14 0.000000 0.680699 0.000000
O O15 0.343637 0.730201 0.326525
#
# Coordination Sequence:
#
# PCOD9125487 Si02
#       7
#     4   4   4   4   4   4   4
#     4  11  24  39  61  89 120 159 214 275 327 387
#     4  11  25  43  64  94 134 170 214 259 314 383
#     4  12  23  38  62  89 115 161 214 268 331 382
#     4  10  21  41  69 100 133 168 211 262 308 365
#     4  11  25  43  64  90 128 172 215 263 320 383
#     4  11  25  41  62  89 124 167 212 267 323 384
#     4  10  22  40  65 100 133 170 212 259 310 371
#
# _framework density 21.211580999999999
#
# number of rings (size 3 to 8) (size 9 to 14) (size 15 to 20)
#    0.000    1.143    4.286    1.286    2.000    4.000 
#    0.000    0.000    0.000    0.000    0.000    0.000 
#    0.000    0.000    0.000    0.000    0.000    0.000 
#
# Total GULP energy -78056.997875 kJ/mol
# GULP energy per Si atom -5575.499848 kJ/mol
# Density = 2.116330 g / cm^3
# Si number density = 21.211581 Si / 1000 Ang^3
#
#
#
# Elastic Constant Matrix: (Units=GPa)
#
#
# Indices 1 2 3 4 5 6 
#
# 1 93.8907 5.4411 31.2865 0.0000 -18.4943 0.0000
# 2 5.4411 55.7677 -11.6004 0.0000 6.1694 0.0000
# 3 31.2865 -11.6004 84.5642 0.0000 1.0871 0.0000
# 4 0.0000 0.0000 0.0000 25.0988 0.0000 3.5012
# 5 -18.4943 6.1694 1.0871 0.0000 16.0890 0.0000
# 6 0.0000 0.0000 0.0000 3.5012 0.0000 17.8718
#
#
#
# Elastic Compliance Matrix: (Units=1/GPa)
#
#
# Indices 1 2 3 4 5 6 
#
# 1 0.018380 -0.006102 -0.007946 0.000000 0.024005 0.000000
# 2 -0.006102 0.021371 0.005389 0.000000 -0.015573 0.000000
# 3 -0.007946 0.005389 0.015662 0.000000 -0.012259 0.000000
# 4 0.000000 0.000000 0.000000 0.040962 0.000000 -0.008025
# 5 0.024005 -0.015573 -0.012259 0.000000 0.096548 0.000000
# 6 0.000000 0.000000 0.000000 -0.008025 0.000000 0.057526
#
#
# Mechanical properties :
#
#
# Convention : Reuss Voigt Hill
#
# Bulk Modulus (GPa) = 26.24925 31.60856 28.92890
# Shear Modulus (GPa) = 17.82754 25.75160 21.78957
#
# Velocity S-wave (km/s) = 2.90222 3.48808 3.20855
# Velocity P-wave (km/s) = 4.86131 5.58177 5.23395
#
# Compressibility (1/GPa) = 0.03809633
#
# Stress axis : x y z
#
# Youngs Moduli (GPa) = 54.40552 46.79307 63.84880
#
# Poissons Ratio (x) = 0.28552 0.50734
# Poissons Ratio (y) = 0.33197 -0.34410
# Poissons Ratio (z) = 0.43230 -0.25218
#
# Static dielectric constant tensor:
#      x y z
#    x 1.721470 0.000000 -0.000450 
#    y 0.000000 1.884850 0.000000 
#    z -0.000450 0.000000 1.769380 
# 
# From -- ./inp_files/64895.got.cif
#   From: 2010.05.17/outbox.cif.g08.bks.cpg/sg5_33_cif.got.tgz:64895.got - 2010.06.03 18:56:24.
