data_PCOD9125493
_publ_section_title
;
Structure prediction by ZEFSAII (Michael W. Deem and Ramdas Pophale) SiO2 
 PCOD9125493
Probable space group: C 2
;
_chemical_formula_sum "Si O2"
_cell_formula_units_Z 28
_cell_length_a 14.262524
_cell_length_b 9.081924
_cell_length_c 9.093522
_cell_angle_alpha 90.000000
_cell_angle_beta 64.236757
_cell_angle_gamma 90.000000
_cell_volume 1060.809145
_symmetry_space_group_name_H-M "C 2"
_symmetry_group_IT_number 5
_symmetry_cell_setting 'monoclinic'
loop_
_space_group_symop_operation_xyz
x,y,z
-x,y,-z
1/2+x,1/2+y,z
1/2-x,1/2+y,-z
loop_
_atom_site_type_symbol
_atom_site_label
_atom_site_fract_x
_atom_site_fract_y
_atom_site_fract_z
Si Si1 0.722971 0.411960 0.952604
Si Si2 0.539818 0.619022 0.135566
Si Si3 0.236889 0.190926 0.482174
Si Si4 0.388690 0.159904 0.153234
Si Si5 0.592182 0.857790 0.341803
Si Si6 0.750651 0.862090 0.751009
Si Si7 0.418323 0.458175 0.448161
O O1 0.656286 0.299753 0.901205
O O2 0.825749 0.461457 0.795887
O O3 0.652316 0.545779 0.048632
O O4 0.750911 0.321081 0.078998
O O5 0.545007 0.755789 0.244153
O O6 0.473247 0.485688 0.255043
O O7 0.500000 0.656425 0.000000
O O8 0.357910 0.201648 0.346753
O O9 0.164910 0.265416 0.405694
O O10 0.203541 0.256016 0.660809
O O11 0.196317 0.024246 0.511752
O O12 0.315867 0.014882 0.191384
O O13 0.500000 0.130096 0.000000
O O14 0.500000 0.925956 0.500000
O O15 0.872434 0.856786 0.612228
O O16 0.500000 0.544441 0.500000
#
# Coordination Sequence:
#
# PCOD9125493 Si02
#       7
#     4   4   4   4   4   4   4
#     4  11  24  41  66 100 133 178 226 282 337 401
#     4  12  24  40  72 104 132 179 233 280 340 399
#     4  10  21  41  69  93 130 183 222 271 344 394
#     4  10  24  46  62  96 141 172 223 289 332 409
#     4  11  23  44  65  98 140 172 224 287 329 404
#     4  11  25  42  69  98 136 184 225 278 347 403
#     4  11  20  43  68  98 137 174 228 292 321 402
#
# _framework density 26.394946999999998
#
# number of rings (size 3 to 8) (size 9 to 14) (size 15 to 20)
#    0.000    1.143    4.286    2.143    8.000    1.143 
#    0.000    0.000    0.000    0.000    0.000    0.000 
#    0.000    0.000    0.000    0.000    0.000    0.000 
#
# Total GULP energy -78019.877632 kJ/mol
# GULP energy per Si atom -5572.848402 kJ/mol
# Density = 2.633487 g / cm^3
# Si number density = 26.394947 Si / 1000 Ang^3
#
#
#
# Elastic Constant Matrix: (Units=GPa)
#
#
# Indices 1 2 3 4 5 6 
#
# 1 73.0556 -2.5406 63.3285 0.0000 -9.2610 0.0000
# 2 -2.5406 17.5349 10.6807 0.0000 -6.9349 0.0000
# 3 63.3285 10.6807 224.5144 0.0000 -41.6755 0.0000
# 4 0.0000 0.0000 0.0000 16.6060 0.0000 -17.8009
# 5 -9.2610 -6.9349 -41.6755 0.0000 79.6270 0.0000
# 6 0.0000 0.0000 0.0000 -17.8009 0.0000 15.8605
#
#
#
# Elastic Compliance Matrix: (Units=1/GPa)
#
#
# Indices 1 2 3 4 5 6 
#
# 1 0.018737 0.006043 -0.005616 0.000000 -0.000234 0.000000
# 2 0.006043 0.061881 -0.003896 0.000000 0.004053 0.000000
# 3 -0.005616 -0.003896 0.006689 0.000000 0.002509 0.000000
# 4 0.000000 0.000000 0.000000 -0.296490 0.000000 -0.332764
# 5 -0.000234 0.004053 0.002509 0.000000 0.014197 0.000000
# 6 0.000000 0.000000 0.000000 -0.332764 0.000000 -0.310425
#
#
# Mechanical properties :
#
#
# Convention : Reuss Voigt Hill
#
# Bulk Modulus (GPa) = 12.44259 50.89355 31.66807
# Shear Modulus (GPa) = -10.60033 38.66112 14.03040
#
# Velocity S-wave (km/s) = -2.00618 3.83131 2.30805
# Velocity P-wave (km/s) = 0.80132 6.23661 4.37340
#
# Compressibility (1/GPa) = 0.08036912
#
# Stress axis : x y z
#
# Youngs Moduli (GPa) = 53.37036 16.16008 149.49599
#
# Poissons Ratio (x) = -0.09766 0.83957
# Poissons Ratio (y) = -0.32252 0.58244
# Poissons Ratio (z) = 0.29973 0.06296
#
# Static dielectric constant tensor:
#      x y z
#    x 2.154700 0.000000 -0.025640 
#    y 0.000000 2.287880 0.000000 
#    z -0.025640 0.000000 2.206640 
# 
# From -- ./inp_files/23753.got.cif
#   From: 2010.05.17/outbox.cif.g08.bks.cpg/sg5_12_cif.got.tgz:23753.got - 2010.06.03 18:56:24.
