data_PCOD9125894
_publ_section_title
;
Structure prediction by ZEFSAII (Michael W. Deem and Ramdas Pophale) SiO2 
 PCOD9125894
Probable space group: C 2
;
_chemical_formula_sum "Si O2"
_cell_formula_units_Z 16
_cell_length_a 11.937503
_cell_length_b 7.037101
_cell_length_c 13.134334
_cell_angle_alpha 90.000000
_cell_angle_beta 34.704839
_cell_angle_gamma 90.000000
_cell_volume 628.194115
_symmetry_space_group_name_H-M "C 2"
_symmetry_group_IT_number 5
_symmetry_cell_setting 'monoclinic'
loop_
_space_group_symop_operation_xyz
x,y,z
-x,y,-z
1/2+x,1/2+y,z
1/2-x,1/2+y,-z
loop_
_atom_site_type_symbol
_atom_site_label
_atom_site_fract_x
_atom_site_fract_y
_atom_site_fract_z
Si Si1 0.293743 0.456360 0.704030
Si Si2 0.506423 0.878759 0.236971
Si Si3 0.310583 0.862202 0.592339
Si Si4 0.898144 0.818813 0.844507
O O1 0.500000 0.398915 0.500000
O O2 0.120267 0.358389 0.770912
O O3 0.278677 0.680470 0.689439
O O4 0.305463 0.408989 0.812991
O O5 0.500000 0.967324 0.500000
O O6 0.410413 0.435460 0.260697
O O7 0.529401 0.106785 0.235660
O O8 0.387655 0.803457 0.422685
O O9 0.273601 0.805530 0.944171
#
# Coordination Sequence:
#
# PCOD9125894 Si02
#       4
#     4   4   4   4
#     4  10  21  45  75  96 139 186 228 287 347 402
#     4  11  25  44  73 106 139 184 233 284 353 414
#     4  10  24  45  70 101 139 187 231 281 349 410
#     4  11  25  45  73 105 141 182 232 292 345 413
#
# _framework density 25.469835
#
# number of rings (size 3 to 8) (size 9 to 14) (size 15 to 20)
#    0.000    1.500    2.500    0.750    7.000    2.000 
#    9.000    0.000    0.000    0.000    0.000    0.000 
#    0.000    0.000    0.000    0.000    0.000    0.000 
#
# Total GULP energy -44783.972535 kJ/mol
# GULP energy per Si atom -5597.996567 kJ/mol
# Density = 2.541186 g / cm^3
# Si number density = 25.469835 Si / 1000 Ang^3
#
#
#
# Elastic Constant Matrix: (Units=GPa)
#
#
# Indices 1 2 3 4 5 6 
#
# 1 222.1701 13.5451 69.2800 0.0000 -8.1088 0.0000
# 2 13.5451 84.5158 1.4064 0.0000 27.1962 0.0000
# 3 69.2800 1.4064 139.5550 0.0000 -20.3521 0.0000
# 4 0.0000 0.0000 0.0000 27.0413 0.0000 10.5049
# 5 -8.1088 27.1962 -20.3521 0.0000 45.8353 0.0000
# 6 0.0000 0.0000 0.0000 10.5049 0.0000 18.6394
#
#
#
# Elastic Compliance Matrix: (Units=1/GPa)
#
#
# Indices 1 2 3 4 5 6 
#
# 1 0.005385 -0.000930 -0.002614 0.000000 0.000344 0.000000
# 2 -0.000930 0.015089 -0.001091 0.000000 -0.009602 0.000000
# 3 -0.002614 -0.001091 0.009090 0.000000 0.004221 0.000000
# 4 0.000000 0.000000 0.000000 0.047346 0.000000 -0.026684
# 5 0.000344 -0.009602 0.004221 0.000000 0.029450 0.000000
# 6 0.000000 0.000000 0.000000 -0.026684 0.000000 0.068688
#
#
# Mechanical properties :
#
#
# Convention : Reuss Voigt Hill
#
# Bulk Modulus (GPa) = 49.27375 68.30041 58.78708
# Shear Modulus (GPa) = 26.16659 42.43715 34.30187
#
# Velocity S-wave (km/s) = 3.20872 4.08631 3.67381
# Velocity P-wave (km/s) = 5.75463 7.00987 6.41303
#
# Compressibility (1/GPa) = 0.02029478
#
# Stress axis : x y z
#
# Youngs Moduli (GPa) = 185.68524 66.27286 110.01314
#
# Poissons Ratio (x) = 0.06166 0.28757
# Poissons Ratio (y) = 0.17275 0.11997
# Poissons Ratio (z) = 0.48538 0.07227
#
# Static dielectric constant tensor:
#      x y z
#    x 2.038210 0.000000 -0.023450 
#    y 0.000000 2.111650 0.000000 
#    z -0.023450 0.000000 1.905080 
# 
# From -- ./inp_files/13876.got.cif
#   From: 2010.05.17/outbox.cif.g08.bks.cpg/sg5_7_cif.got.tgz:13876.got - 2010.06.03 18:56:24.
