data_PCOD9125656
_publ_section_title
;
Structure prediction by ZEFSAII (Michael W. Deem and Ramdas Pophale) SiO2 
 PCOD9125656
Probable space group: C 2
;
_chemical_formula_sum "Si O2"
_cell_formula_units_Z 32
_cell_length_a 12.080755
_cell_length_b 11.483973
_cell_length_c 12.601858
_cell_angle_alpha 90.000000
_cell_angle_beta 115.845554
_cell_angle_gamma 90.000000
_cell_volume 1573.439453
_symmetry_space_group_name_H-M "C 2"
_symmetry_group_IT_number 5
_symmetry_cell_setting 'monoclinic'
loop_
_space_group_symop_operation_xyz
x,y,z
-x,y,-z
1/2+x,1/2+y,z
1/2-x,1/2+y,-z
loop_
_atom_site_type_symbol
_atom_site_label
_atom_site_fract_x
_atom_site_fract_y
_atom_site_fract_z
Si Si1 0.829536 0.346050 0.193670
Si Si2 0.513418 0.638796 0.634019
Si Si3 0.259188 0.227736 0.419956
Si Si4 0.867148 0.681995 0.899510
Si Si5 0.917571 0.525252 0.379227
Si Si6 0.141558 0.440616 0.022717
Si Si7 0.645377 0.384668 0.728927
Si Si8 0.073481 0.702579 0.317137
O O1 0.900979 0.236372 0.274076
O O2 0.698559 0.300793 0.106013
O O3 0.826347 0.442288 0.281684
O O4 0.875265 0.401379 0.104614
O O5 0.500000 0.647211 0.500000
O O6 0.377856 0.674536 0.624494
O O7 0.578177 0.511648 0.684776
O O8 0.344455 0.126956 0.405962
O O9 0.290936 0.336722 0.354651
O O10 0.317784 0.247419 0.560650
O O11 0.812426 0.573030 0.939730
O O12 0.874819 0.670466 0.776131
O O13 0.000000 0.691150 0.000000
O O14 0.000000 0.458887 0.500000
O O15 0.011791 0.585451 0.337568
O O16 0.243219 0.376989 0.138527
O O17 0.000000 0.434157 0.000000
O O18 0.536118 0.297711 0.721394
#
# Coordination Sequence:
#
# PCOD9125656 Si02
#       8
#     4   4   4   4   4   4   4   4
#     4  12  24  42  64  97 131 174 232 293 350 419
#     4  12  25  44  68 108 144 178 233 295 356 427
#     4  10  23  42  68 102 139 181 226 281 357 420
#     4  11  23  41  63  93 125 175 227 280 346 417
#     4   9  20  40  64  95 134 175 222 280 345 418
#     4  11  24  43  67  92 132 184 234 286 353 420
#     4  11  23  46  71 103 141 187 232 292 358 425
#     4  10  21  42  69  98 136 180 228 279 352 432
#
# _framework density 20.337612
#
# number of rings (size 3 to 8) (size 9 to 14) (size 15 to 20)
#    0.000    1.250    1.250    6.000    1.750    1.000 
#    6.750    0.000    0.000    0.000    0.000    0.000 
#    0.000    0.000    0.000    0.000    0.000    0.000 
#
# Total GULP energy -89144.258182 kJ/mol
# GULP energy per Si atom -5571.516136 kJ/mol
# Density = 2.029132 g / cm^3
# Si number density = 20.337612 Si / 1000 Ang^3
#
#
#
# Elastic Constant Matrix: (Units=GPa)
#
#
# Indices 1 2 3 4 5 6 
#
# 1 51.5177 6.7414 1.4608 0.0000 -1.1171 0.0000
# 2 6.7414 76.2301 43.0767 0.0000 -5.7684 0.0000
# 3 1.4608 43.0767 101.0362 0.0000 5.5345 0.0000
# 4 0.0000 0.0000 0.0000 20.8661 0.0000 6.8279
# 5 -1.1171 -5.7684 5.5345 0.0000 35.7908 0.0000
# 6 0.0000 0.0000 0.0000 6.8279 0.0000 18.1967
#
#
#
# Elastic Compliance Matrix: (Units=1/GPa)
#
#
# Indices 1 2 3 4 5 6 
#
# 1 0.019667 -0.002052 0.000580 0.000000 0.000193 0.000000
# 2 -0.002052 0.018070 -0.007898 0.000000 0.004070 0.000000
# 3 0.000580 -0.007898 0.013439 0.000000 -0.003333 0.000000
# 4 0.000000 0.000000 0.000000 0.054633 0.000000 -0.020500
# 5 0.000193 0.004070 -0.003333 0.000000 0.029117 0.000000
# 6 0.000000 0.000000 0.000000 -0.020500 0.000000 0.062647
#
#
# Mechanical properties :
#
#
# Convention : Reuss Voigt Hill
#
# Bulk Modulus (GPa) = 30.82944 36.81576 33.82260
# Shear Modulus (GPa) = 22.01428 26.80440 24.40934
#
# Velocity S-wave (km/s) = 3.29362 3.63433 3.46816
# Velocity P-wave (km/s) = 5.44570 5.97936 5.71876
#
# Compressibility (1/GPa) = 0.03243653
#
# Stress axis : x y z
#
# Youngs Moduli (GPa) = 50.84628 55.33892 74.41168
#
# Poissons Ratio (x) = 0.11358 -0.04317
# Poissons Ratio (y) = 0.10436 0.58767
# Poissons Ratio (z) = -0.02950 0.43704
#
# Static dielectric constant tensor:
#      x y z
#    x 1.737330 0.000000 0.038750 
#    y 0.000000 1.773950 0.000000 
#    z 0.038750 0.000000 1.699200 
# 
# From -- ./inp_files/39421.got.cif
#   From: 2010.05.17/outbox.cif.g08.bks.cpg/sg5_20_cif.got.tgz:39421.got - 2010.06.03 18:56:24.
