data_PCOD9125148
_publ_section_title
;
Structure prediction by ZEFSAII (Michael W. Deem and Ramdas Pophale) SiO2 
 PCOD9125148
Probable space group: C 2
;
_chemical_formula_sum "Si O2"
_cell_formula_units_Z 28
_cell_length_a 13.999756
_cell_length_b 4.931394
_cell_length_c 16.124942
_cell_angle_alpha 90.000000
_cell_angle_beta 103.944109
_cell_angle_gamma 90.000000
_cell_volume 1080.433039
_symmetry_space_group_name_H-M "C 2"
_symmetry_group_IT_number 5
_symmetry_cell_setting 'monoclinic'
loop_
_space_group_symop_operation_xyz
x,y,z
-x,y,-z
1/2+x,1/2+y,z
1/2-x,1/2+y,-z
loop_
_atom_site_type_symbol
_atom_site_label
_atom_site_fract_x
_atom_site_fract_y
_atom_site_fract_z
Si Si1 0.669714 0.590640 0.760843
Si Si2 0.369480 0.389063 0.618952
Si Si3 0.502550 0.902233 0.907004
Si Si4 0.031298 0.905893 0.193741
Si Si5 0.057668 0.170836 0.584405
Si Si6 0.749427 0.371937 0.616161
Si Si7 0.775890 0.270314 0.059147
O O1 0.578467 0.451949 0.790598
O O2 0.612203 0.783379 0.679601
O O3 0.728432 0.394563 0.710685
O O4 0.741919 0.702751 0.847679
O O5 0.392003 0.467625 0.719299
O O6 0.472455 0.469655 0.599110
O O7 0.337263 0.077857 0.611065
O O8 0.275426 0.582143 0.584379
O O9 0.460503 0.605209 0.882581
O O10 0.616984 0.898283 0.911608
O O11 0.455858 0.102422 0.832402
O O12 0.500000 0.996577 0.000000
O O13 0.853742 0.995714 0.436840
O O14 0.000000 0.334506 0.500000
O O15 0.717408 0.496168 0.994626
#
# Coordination Sequence:
#
# PCOD9125148 Si02
#       7
#     4   4   4   4   4   4   4
#     4   8  21  43  60  96 132 174 227 277 333 416
#     4  11  23  43  69 103 135 182 229 275 341 414
#     4  11  23  39  58  90 125 170 226 276 331 407
#     4  10  21  40  62  83 132 179 213 280 344 391
#     4   9  22  47  73 102 145 185 221 292 351 397
#     4  10  24  41  70 103 136 180 232 280 335 421
#     4  11  23  39  63  91 128 177 219 281 338 393
#
# _framework density 25.915535999999999
#
# number of rings (size 3 to 8) (size 9 to 14) (size 15 to 20)
#    0.857    1.143    0.000    3.000    0.000    9.143 
#    0.000    1.429    0.000    0.000    0.000    0.000 
#    0.000    0.000    0.000    0.000    0.000    0.000 
#
# Total GULP energy -78139.704527 kJ/mol
# GULP energy per Si atom -5581.407466 kJ/mol
# Density = 2.585655 g / cm^3
# Si number density = 25.915536 Si / 1000 Ang^3
#
#
#
# Elastic Constant Matrix: (Units=GPa)
#
#
# Indices 1 2 3 4 5 6 
#
# 1 90.2676 10.2315 23.7243 0.0000 -9.3411 0.0000
# 2 10.2315 75.6771 16.7509 0.0000 -6.3437 0.0000
# 3 23.7243 16.7509 164.0529 0.0000 1.5184 0.0000
# 4 0.0000 0.0000 0.0000 8.2451 0.0000 -3.3152
# 5 -9.3411 -6.3437 1.5184 0.0000 38.3492 0.0000
# 6 0.0000 0.0000 0.0000 -3.3152 0.0000 24.3911
#
#
#
# Elastic Compliance Matrix: (Units=1/GPa)
#
#
# Indices 1 2 3 4 5 6 
#
# 1 0.011915 -0.001012 -0.001646 0.000000 0.002800 0.000000
# 2 -0.001012 0.013810 -0.001283 0.000000 0.002089 0.000000
# 3 -0.001646 -0.001283 0.006473 0.000000 -0.000869 0.000000
# 4 0.000000 0.000000 0.000000 0.128296 0.000000 0.017438
# 5 0.002800 0.002089 -0.000869 0.000000 0.027138 0.000000
# 6 0.000000 0.000000 0.000000 0.017438 0.000000 0.043369
#
#
# Mechanical properties :
#
#
# Convention : Reuss Voigt Hill
#
# Bulk Modulus (GPa) = 41.12464 47.93456 44.52960
# Shear Modulus (GPa) = 20.24392 32.81647 26.53020
#
# Velocity S-wave (km/s) = 2.79794 3.56235 3.20303
# Velocity P-wave (km/s) = 5.13236 5.95458 5.55870
#
# Compressibility (1/GPa) = 0.02431632
#
# Stress axis : x y z
#
# Youngs Moduli (GPa) = 83.92681 72.41155 154.49647
#
# Poissons Ratio (x) = 0.07328 0.25425
# Poissons Ratio (y) = 0.08493 0.19823
# Poissons Ratio (z) = 0.13812 0.09291
#
# Static dielectric constant tensor:
#      x y z
#    x 1.938910 0.000000 0.185690 
#    y 0.000000 1.997430 0.000000 
#    z 0.185690 0.000000 1.591160 
# 
# From -- ./inp_files/55362.got.cif
#   From: 2010.05.17/outbox.cif.g08.bks.cpg/sg5_28_cif.got.tgz:55362.got - 2010.06.03 18:56:24.
