data_PCOD9125370
_publ_section_title
;
Structure prediction by ZEFSAII (Michael W. Deem and Ramdas Pophale) SiO2 
 PCOD9125370
Probable space group: C 2
;
_chemical_formula_sum "Si O2"
_cell_formula_units_Z 26
_cell_length_a 7.660071
_cell_length_b 16.954677
_cell_length_c 7.971217
_cell_angle_alpha 90.000000
_cell_angle_beta 87.859881
_cell_angle_gamma 90.000000
_cell_volume 1034.531973
_symmetry_space_group_name_H-M "C 2"
_symmetry_group_IT_number 5
_symmetry_cell_setting 'monoclinic'
loop_
_space_group_symop_operation_xyz
x,y,z
-x,y,-z
1/2+x,1/2+y,z
1/2-x,1/2+y,-z
loop_
_atom_site_type_symbol
_atom_site_label
_atom_site_fract_x
_atom_site_fract_y
_atom_site_fract_z
Si Si1 0.500000 0.094561 0.000000
Si Si2 0.396375 0.537269 0.330930
Si Si3 0.854682 0.203716 0.237383
Si Si4 0.793666 0.983564 0.884439
Si Si5 0.394853 0.871704 0.332382
Si Si6 0.258161 0.211784 0.151122
Si Si7 0.743072 0.382195 0.817015
O O1 0.582313 0.149783 0.851490
O O2 0.663008 0.034810 0.003356
O O3 0.500000 0.539930 0.500000
O O4 0.293497 0.619523 0.313012
O O5 0.538865 0.532222 0.175358
O O6 0.302322 0.452860 0.308435
O O7 0.805438 0.285865 0.328918
O O8 0.068806 0.197809 0.242820
O O9 0.792648 0.212048 0.046402
O O10 0.716013 0.947469 0.716070
O O11 0.820036 0.907710 0.998123
O O12 0.500000 0.879198 0.500000
O O13 0.548809 0.870700 0.188318
O O14 0.326863 0.295326 0.215507
#
# Coordination Sequence:
#
# PCOD9125370 Si02
#       7
#     2   4   4   4   4   4   4
#     4  12  22  38  62  98 122 156 212 276 314 360
#     4  12  26  42  64  98 132 169 213 269 330 381
#     4  10  21  41  63  92 129 168 216 259 318 385
#     4  12  23  42  64  94 127 168 217 266 319 381
#     4  11  22  40  65  93 131 174 210 262 328 386
#     4  10  22  38  64  96 121 164 218 268 311 371
#     4  11  23  42  65  93 126 171 219 265 310 385
#
# _framework density 25.132135999999999
#
# number of rings (size 3 to 8) (size 9 to 14) (size 15 to 20)
#    0.000    0.923    4.615    2.769    4.308    0.000 
#    0.000    0.000    0.000    0.923    0.000    0.000 
#    0.000    0.000    0.000    0.000    0.000    0.000 
#
# Total GULP energy -72592.479633 kJ/mol
# GULP energy per Si atom -5584.036895 kJ/mol
# Density = 2.507493 g / cm^3
# Si number density = 25.132136 Si / 1000 Ang^3
#
#
#
# Elastic Constant Matrix: (Units=GPa)
#
#
# Indices 1 2 3 4 5 6 
#
# 1 80.1901 24.9209 -4.7653 0.0000 -10.1011 0.0000
# 2 24.9209 188.9207 12.2788 0.0000 22.7465 0.0000
# 3 -4.7653 12.2788 91.4553 0.0000 25.3093 0.0000
# 4 0.0000 0.0000 0.0000 15.8278 0.0000 9.7631
# 5 -10.1011 22.7465 25.3093 0.0000 34.3796 0.0000
# 6 0.0000 0.0000 0.0000 9.7631 0.0000 29.1391
#
#
#
# Elastic Compliance Matrix: (Units=1/GPa)
#
#
# Indices 1 2 3 4 5 6 
#
# 1 0.014023 -0.002566 -0.000672 0.000000 0.006313 0.000000
# 2 -0.002566 0.006230 0.000476 0.000000 -0.005227 0.000000
# 3 -0.000672 0.000476 0.013786 0.000000 -0.010661 0.000000
# 4 0.000000 0.000000 0.000000 0.079639 0.000000 -0.026683
# 5 0.006313 -0.005227 -0.010661 0.000000 0.042248 0.000000
# 6 0.000000 0.000000 0.000000 -0.026683 0.000000 0.043258
#
#
# Mechanical properties :
#
#
# Convention : Reuss Voigt Hill
#
# Bulk Modulus (GPa) = 35.06859 47.27054 41.16957
# Shear Modulus (GPa) = 23.34125 37.74476 30.54300
#
# Velocity S-wave (km/s) = 3.05083 3.87958 3.48989
# Velocity P-wave (km/s) = 5.13752 6.23841 5.71454
#
# Compressibility (1/GPa) = 0.02851554
#
# Stress axis : x y z
#
# Youngs Moduli (GPa) = 71.31084 160.51172 72.53897
#
# Poissons Ratio (x) = 0.41191 0.04872
# Poissons Ratio (y) = 0.18300 -0.03455
# Poissons Ratio (z) = 0.04790 -0.07644
#
# Static dielectric constant tensor:
#      x y z
#    x 2.061240 0.000000 0.012280 
#    y 0.000000 2.093450 0.000000 
#    z 0.012280 0.000000 2.015960 
# 
# From -- ./inp_files/16059.got.cif
#   From: 2010.05.17/outbox.cif.g08.bks.cpg/sg5_9_cif.got.tgz:16059.got - 2010.06.03 18:56:24.
