data_PCOD9125898
_publ_section_title
;
Structure prediction by ZEFSAII (Michael W. Deem and Ramdas Pophale) SiO2 
 PCOD9125898
Probable space group: C 2
;
_chemical_formula_sum "Si O2"
_cell_formula_units_Z 30
_cell_length_a 9.658786
_cell_length_b 10.701797
_cell_length_c 19.581285
_cell_angle_alpha 90.000000
_cell_angle_beta 47.631583
_cell_angle_gamma 90.000000
_cell_volume 1495.419893
_symmetry_space_group_name_H-M "C 2"
_symmetry_group_IT_number 5
_symmetry_cell_setting 'monoclinic'
loop_
_space_group_symop_operation_xyz
x,y,z
-x,y,-z
1/2+x,1/2+y,z
1/2-x,1/2+y,-z
loop_
_atom_site_type_symbol
_atom_site_label
_atom_site_fract_x
_atom_site_fract_y
_atom_site_fract_z
Si Si1 0.021601 0.581720 0.912458
Si Si2 0.709950 0.630432 0.908674
Si Si3 0.824983 0.998496 0.218553
Si Si4 0.831417 0.239467 0.738074
Si Si5 0.451441 0.518231 0.383716
Si Si6 0.154133 0.890962 0.194326
Si Si7 0.724325 0.692087 0.656947
Si Si8 0.500000 0.386809 0.500000
O O1 0.151652 0.690574 0.837932
O O2 0.144608 0.456135 0.862667
O O3 0.830919 0.582322 0.932607
O O4 0.000000 0.601310 0.000000
O O5 0.688125 0.526062 0.857071
O O6 0.815378 0.751135 0.841730
O O7 0.500000 0.667673 0.000000
O O8 0.710241 0.874916 0.276640
O O9 0.033339 0.969897 0.178505
O O10 0.744471 0.119601 0.283742
O O11 0.011507 0.243520 0.727640
O O12 0.893083 0.130139 0.664958
O O13 0.538707 0.415471 0.302775
O O14 0.283242 0.585505 0.399507
O O15 0.403192 0.468631 0.473685
O O16 0.858871 0.799983 0.588555
#
# Coordination Sequence:
#
# PCOD9125898 Si02
#       8
#     4   4   4   4   4   4   4   2
#     4  11  22  43  64  90 135 170 207 272 317 366
#     4  12  26  36  62 102 119 170 225 259 320 375
#     4  11  21  43  65  92 125 167 225 254 312 398
#     4   9  21  43  63  90 124 174 207 255 329 364
#     4   8  21  41  61  94 124 163 213 256 321 383
#     4  10  21  46  63  86 133 170 206 272 321 373
#     4   9  23  41  63  95 127 169 207 267 317 379
#     4  12  20  42  64  98 130 162 214 260 320 388
#
# _framework density 20.061254999999999
#
# number of rings (size 3 to 8) (size 9 to 14) (size 15 to 20)
#    0.800    1.067    2.667    2.000    0.000    4.800 
#    7.200    0.000    0.000    0.000    0.000    0.000 
#    0.000    0.000    0.000    0.000    0.000    0.000 
#
# Total GULP energy -83606.906744 kJ/mol
# GULP energy per Si atom -5573.793783 kJ/mol
# Density = 2.001559 g / cm^3
# Si number density = 20.061255 Si / 1000 Ang^3
#
#
#
# Elastic Constant Matrix: (Units=GPa)
#
#
# Indices 1 2 3 4 5 6 
#
# 1 92.9220 18.7699 27.1956 0.0000 26.8998 0.0000
# 2 18.7699 45.0087 8.5334 0.0000 7.4342 0.0000
# 3 27.1956 8.5334 36.3189 0.0000 21.8563 0.0000
# 4 0.0000 0.0000 0.0000 14.5995 0.0000 0.1997
# 5 26.8998 7.4342 21.8563 0.0000 24.5951 0.0000
# 6 0.0000 0.0000 0.0000 0.1997 0.0000 27.8078
#
#
#
# Elastic Compliance Matrix: (Units=1/GPa)
#
#
# Indices 1 2 3 4 5 6 
#
# 1 0.016561 -0.003995 -0.002770 0.000000 -0.014443 0.000000
# 2 -0.003995 0.024470 -0.002013 0.000000 -0.001238 0.000000
# 3 -0.002770 -0.002013 0.059953 0.000000 -0.049639 0.000000
# 4 0.000000 0.000000 0.000000 0.068502 0.000000 -0.000492
# 5 -0.014443 -0.001238 -0.049639 0.000000 0.100940 0.000000
# 6 0.000000 0.000000 0.000000 -0.000492 0.000000 0.035965
#
#
# Mechanical properties :
#
#
# Convention : Reuss Voigt Hill
#
# Bulk Modulus (GPa) = 11.98646 31.47194 21.72920
# Shear Modulus (GPa) = 14.21436 21.38386 17.79911
#
# Velocity S-wave (km/s) = 2.66474 3.26840 2.98189
# Velocity P-wave (km/s) = 3.93138 5.47405 4.76555
#
# Compressibility (1/GPa) = 0.08342747
#
# Stress axis : x y z
#
# Youngs Moduli (GPa) = 60.38428 40.86604 16.67970
#
# Poissons Ratio (x) = 0.16328 0.04621
# Poissons Ratio (y) = 0.24126 0.03357
# Poissons Ratio (z) = 0.16727 0.08225
#
# Static dielectric constant tensor:
#      x y z
#    x 1.720950 0.000000 0.000320 
#    y 0.000000 1.729390 0.000000 
#    z 0.000320 0.000000 1.705360 
# 
# From -- ./inp_files/59572.got.cif
#   From: 2010.05.17/outbox.cif.g08.bks.cpg/sg5_30_cif.got.tgz:59572.got - 2010.06.03 18:56:24.
