data_PCOD9125893
_publ_section_title
;
Structure prediction by ZEFSAII (Michael W. Deem and Ramdas Pophale) SiO2 
 PCOD9125893
Probable space group: C 2
;
_chemical_formula_sum "Si O2"
_cell_formula_units_Z 18
_cell_length_a 5.178863
_cell_length_b 25.493899
_cell_length_c 5.512512
_cell_angle_alpha 90.000000
_cell_angle_beta 85.425735
_cell_angle_gamma 90.000000
_cell_volume 725.495476
_symmetry_space_group_name_H-M "C 2"
_symmetry_group_IT_number 5
_symmetry_cell_setting 'monoclinic'
loop_
_space_group_symop_operation_xyz
x,y,z
-x,y,-z
1/2+x,1/2+y,z
1/2-x,1/2+y,-z
loop_
_atom_site_type_symbol
_atom_site_label
_atom_site_fract_x
_atom_site_fract_y
_atom_site_fract_z
Si Si1 0.158746 0.972830 0.731741
Si Si2 0.263354 0.746804 0.830586
Si Si3 0.765146 0.359710 0.828076
Si Si4 0.500000 0.657167 0.500000
Si Si5 0.224865 0.582332 0.159270
O O1 0.268610 0.914398 0.686032
O O2 0.000000 0.985377 0.500000
O O3 0.343555 0.022858 0.756553
O O4 0.000000 0.969334 0.000000
O O5 0.264207 0.803381 0.694898
O O6 0.323822 0.696570 0.667735
O O7 0.500000 0.749643 0.000000
O O8 0.000000 0.741289 0.000000
O O9 0.500000 0.358356 0.000000
O O10 0.000000 0.361978 0.000000
O O11 0.301162 0.620450 0.370167
O O12 0.500000 0.578963 0.000000
O O13 0.000000 0.601803 0.000000
#
# Coordination Sequence:
#
# PCOD9125893 Si02
#       5
#     4   4   4   2   4
#     4  10  21  45  74 111 148 194 247 317 388 461
#     4  10  24  46  71 105 149 195 255 312 375 456
#     4   9  19  42  69 102 145 191 240 309 379 451
#     4  12  26  48  76 110 146 212 254 316 384 462
#     4  11  26  47  73 108 148 193 253 318 382 458
#
# _framework density 24.810628999999999
#
# number of rings (size 3 to 8) (size 9 to 14) (size 15 to 20)
#    0.000    1.778    1.111    1.333    0.000    7.111 
#   20.000    6.667    0.000    0.000    0.000    0.000 
#    0.000    0.000    0.000    0.000    0.000    0.000 
#
# Total GULP energy -50362.623421 kJ/mol
# GULP energy per Si atom -5595.847047 kJ/mol
# Density = 2.475416 g / cm^3
# Si number density = 24.810629 Si / 1000 Ang^3
#
#
#
# Elastic Constant Matrix: (Units=GPa)
#
#
# Indices 1 2 3 4 5 6 
#
# 1 165.2262 31.5405 46.0280 0.0000 6.4530 0.0000
# 2 31.5405 247.9006 55.5656 0.0000 15.4687 0.0000
# 3 46.0280 55.5656 96.1819 0.0000 10.7422 0.0000
# 4 0.0000 0.0000 0.0000 -122.8967 0.0000 59.1901
# 5 6.4530 15.4687 10.7422 0.0000 57.8348 0.0000
# 6 0.0000 0.0000 0.0000 59.1901 0.0000 21.3788
#
#
#
# Elastic Compliance Matrix: (Units=1/GPa)
#
#
# Indices 1 2 3 4 5 6 
#
# 1 0.006990 -0.000154 -0.003241 0.000000 -0.000137 0.000000
# 2 -0.000154 0.004670 -0.002539 0.000000 -0.000760 0.000000
# 3 -0.003241 -0.002539 0.013580 0.000000 -0.001482 0.000000
# 4 0.000000 0.000000 0.000000 -0.003487 0.000000 0.009654
# 5 -0.000137 -0.000760 -0.001482 0.000000 0.017784 0.000000
# 6 0.000000 0.000000 0.000000 0.009654 0.000000 0.020046
#
#
# Mechanical properties :
#
#
# Convention : Reuss Voigt Hill
#
# Bulk Modulus (GPa) = 74.78413 86.17520 80.47967
# Shear Modulus (GPa) = 65.86875 16.34168 41.10521
#
# Velocity S-wave (km/s) = 5.15812 2.56921 4.07475
# Velocity P-wave (km/s) = 8.10447 6.60377 7.39230
#
# Compressibility (1/GPa) = 0.01337182
#
# Stress axis : x y z
#
# Youngs Moduli (GPa) = 143.06440 214.12815 73.63717
#
# Poissons Ratio (x) = 0.03307 0.23862
# Poissons Ratio (y) = 0.02210 0.18698
# Poissons Ratio (z) = 0.46360 0.54371
#
# Static dielectric constant tensor:
#      x y z
#    x 1.937130 0.000000 -0.012060 
#    y 0.000000 2.028560 0.000000 
#    z -0.012060 0.000000 1.884290 
# 
# From -- ./inp_files/871.got.cif
#   From: 2010.05.17/outbox.cif.g08.bks.cpg/sg5_1_cif.got.tgz:871.got - 2010.06.03 18:56:24.
