data_PCOD9125043
_publ_section_title
;
Structure prediction by ZEFSAII (Michael W. Deem and Ramdas Pophale) SiO2 
 PCOD9125043
Probable space group: C 2
;
_chemical_formula_sum "Si O2"
_cell_formula_units_Z 32
_cell_length_a 22.768478
_cell_length_b 12.394928
_cell_length_c 5.124702
_cell_angle_alpha 90.000000
_cell_angle_beta 106.147747
_cell_angle_gamma 90.000000
_cell_volume 1389.202550
_symmetry_space_group_name_H-M "C 2"
_symmetry_group_IT_number 5
_symmetry_cell_setting 'monoclinic'
loop_
_space_group_symop_operation_xyz
x,y,z
-x,y,-z
1/2+x,1/2+y,z
1/2-x,1/2+y,-z
loop_
_atom_site_type_symbol
_atom_site_label
_atom_site_fract_x
_atom_site_fract_y
_atom_site_fract_z
Si Si1 0.706726 0.488740 0.044125
Si Si2 0.699159 0.296706 0.413239
Si Si3 0.907016 0.889986 0.415938
Si Si4 0.303944 0.895627 0.835065
Si Si5 0.936224 0.659529 0.287076
Si Si6 0.129246 0.185635 0.987089
Si Si7 0.136382 0.590859 0.304391
Si Si8 0.058896 0.120346 0.407717
O O1 0.720900 0.391764 0.255686
O O2 0.683962 0.602030 0.129900
O O3 0.646423 0.444876 0.820243
O O4 0.768051 0.487567 0.952243
O O5 0.630584 0.331833 0.402863
O O6 0.748128 0.313931 0.699719
O O7 0.690667 0.176236 0.308379
O O8 0.936577 0.791518 0.291491
O O9 0.943901 0.989244 0.586312
O O10 0.353142 0.810522 0.997433
O O11 0.339994 0.969052 0.673634
O O12 0.886123 0.619213 0.433425
O O13 0.000000 0.625388 0.500000
O O14 0.916106 0.614298 0.979885
O O15 0.076295 0.159666 0.138187
O O16 0.112500 0.156819 0.669130
O O17 0.000000 0.159638 0.500000
#
# Coordination Sequence:
#
# PCOD9125043 Si02
#       8
#     4   4   4   4   4   4   4   4
#     4  10  21  39  65  94 130 166 204 268 326 395
#     4  10  21  39  65  94 130 166 204 268 326 395
#     4   9  19  38  61 102 129 160 207 277 334 398
#     4  11  28  40  68  94 136 184 214 263 336 394
#     4  11  23  43  68  95 131 175 222 280 333 380
#     4  11  26  44  65  99 134 168 229 268 322 405
#     4  11  26  44  65  99 134 168 229 268 322 405
#     4  11  23  43  68  95 131 175 222 280 333 380
#
# _framework density 23.034796
#
# number of rings (size 3 to 8) (size 9 to 14) (size 15 to 20)
#    0.000    1.500    2.500    1.125    7.000    0.000 
#    0.000    6.250    0.000    0.000    0.000    0.000 
#    0.000    0.000    0.000    0.000    0.000    0.000 
#
# Total GULP energy -89132.050221 kJ/mol
# GULP energy per Si atom -5570.753139 kJ/mol
# Density = 2.298237 g / cm^3
# Si number density = 23.034796 Si / 1000 Ang^3
#
#
#
# Elastic Constant Matrix: (Units=GPa)
#
#
# Indices 1 2 3 4 5 6 
#
# 1 43.4654 17.7676 -4.9225 0.0000 -2.8812 0.0000
# 2 17.7676 106.9156 -4.7596 0.0000 5.5300 0.0000
# 3 -4.9225 -4.7596 56.2539 0.0000 -1.4116 0.0000
# 4 0.0000 0.0000 0.0000 24.4582 0.0000 -0.1754
# 5 -2.8812 5.5300 -1.4116 0.0000 26.9629 0.0000
# 6 0.0000 0.0000 0.0000 -0.1754 0.0000 -0.3470
#
#
#
# Elastic Compliance Matrix: (Units=1/GPa)
#
#
# Indices 1 2 3 4 5 6 
#
# 1 0.025226 -0.004296 0.001936 0.000000 0.003678 0.000000
# 2 -0.004296 0.010217 0.000425 0.000000 -0.002532 0.000000
# 3 0.001936 0.000425 0.018009 0.000000 0.001063 0.000000
# 4 0.000000 0.000000 0.000000 0.040738 0.000000 -0.020596
# 5 0.003678 -0.002532 0.001063 0.000000 0.038056 0.000000
# 6 0.000000 0.000000 0.000000 -0.020596 0.000000 -2.871593
#
#
# Mechanical properties :
#
#
# Convention : Reuss Voigt Hill
#
# Bulk Modulus (GPa) = 20.16873 24.75620 22.46246
# Shear Modulus (GPa) = -1.83895 23.45147 10.80626
#
# Velocity S-wave (km/s) = -0.89446 3.19421 2.16829
# Velocity P-wave (km/s) = 2.77633 4.93707 4.00516
#
# Compressibility (1/GPa) = 0.04958170
#
# Stress axis : x y z
#
# Youngs Moduli (GPa) = 39.64149 97.87585 55.52905
#
# Poissons Ratio (x) = 0.42049 -0.10752
# Poissons Ratio (y) = 0.17031 -0.02360
# Poissons Ratio (z) = -0.07675 -0.04160
#
# Static dielectric constant tensor:
#      x y z
#    x 1.884360 0.000000 -0.017420 
#    y 0.000000 1.883260 0.000000 
#    z -0.017420 0.000000 2.046550 
# 
# From -- ./inp_files/10394.got.cif
#   From: 2010.05.17/outbox.cif.g08.bks.cpg/sg5_6_cif.got.tgz:10394.got - 2010.06.03 18:56:24.
