data_PCOD9125128
_publ_section_title
;
Structure prediction by ZEFSAII (Michael W. Deem and Ramdas Pophale) SiO2 
 PCOD9125128
Probable space group: C 2
;
_chemical_formula_sum "Si O2"
_cell_formula_units_Z 32
_cell_length_a 15.105623
_cell_length_b 9.516885
_cell_length_c 22.499883
_cell_angle_alpha 90.000000
_cell_angle_beta 149.704742
_cell_angle_gamma 90.000000
_cell_volume 1631.688138
_symmetry_space_group_name_H-M "C 2"
_symmetry_group_IT_number 5
_symmetry_cell_setting 'monoclinic'
loop_
_space_group_symop_operation_xyz
x,y,z
-x,y,-z
1/2+x,1/2+y,z
1/2-x,1/2+y,-z
loop_
_atom_site_type_symbol
_atom_site_label
_atom_site_fract_x
_atom_site_fract_y
_atom_site_fract_z
Si Si1 0.884124 0.759920 0.800151
Si Si2 0.328882 0.551223 0.625562
Si Si3 0.096786 0.241445 0.730983
Si Si4 0.358506 0.101636 0.971285
Si Si5 0.011617 0.549015 0.642575
Si Si6 0.875704 0.275681 0.986655
Si Si7 0.367601 0.595206 0.785195
Si Si8 0.521843 0.246836 0.273361
O O1 0.721187 0.711903 0.746310
O O2 0.867688 0.719670 0.722090
O O3 0.905069 0.928613 0.816018
O O4 0.057311 0.689985 0.927273
O O5 0.415316 0.659352 0.629644
O O6 0.131374 0.516976 0.490992
O O7 0.337538 0.612191 0.697405
O O8 0.444485 0.409621 0.691884
O O9 0.197488 0.183135 0.847732
O O10 0.065415 0.407043 0.708083
O O11 0.338042 0.940142 0.978844
O O12 0.500000 0.097970 0.000000
O O13 0.930938 0.653040 0.643739
O O14 0.184639 0.617580 0.713793
O O15 0.683011 0.217747 0.859840
O O16 0.000000 0.268320 0.000000
O O17 0.980326 0.191343 0.098320
#
# Coordination Sequence:
#
# PCOD9125128 Si02
#       8
#     4   4   4   4   4   4   4   4
#     4   9  22  37  59  89 124 158 201 248 304 376
#     4  11  23  43  62  88 124 170 212 255 311 371
#     4  10  21  40  60  89 121 166 205 252 307 367
#     4   9  19  36  57  85 123 161 190 242 313 369
#     4  11  23  41  64  89 123 164 216 263 301 370
#     4  11  21  36  61  95 129 158 196 259 317 375
#     4  10  23  39  63  92 121 162 206 259 310 364
#     4  11  23  39  62  93 124 161 209 256 316 370
#
# _framework density 19.61159
#
# number of rings (size 3 to 8) (size 9 to 14) (size 15 to 20)
#    0.000    1.750    2.500    1.125    3.500    1.500 
#    0.000    1.875    0.000    0.000    0.000    0.000 
#    0.000    0.000    0.000    0.000    0.000    0.000 
#
# Total GULP energy -89284.855086 kJ/mol
# GULP energy per Si atom -5580.303443 kJ/mol
# Density = 1.956695 g / cm^3
# Si number density = 19.611590 Si / 1000 Ang^3
#
#
#
# Elastic Constant Matrix: (Units=GPa)
#
#
# Indices 1 2 3 4 5 6 
#
# 1 96.7782 49.5474 21.3256 0.0000 -13.7148 0.0000
# 2 49.5474 50.1783 37.3535 0.0001 -13.0176 0.0000
# 3 21.3256 37.3535 103.8786 -0.0001 -13.2326 0.0000
# 4 0.0000 0.0001 -0.0001 15.8900 0.0000 2.7652
# 5 -13.7148 -13.0176 -13.2326 0.0000 24.8430 0.0000
# 6 0.0000 0.0000 0.0000 2.7652 0.0000 26.9141
#
#
#
# Elastic Compliance Matrix: (Units=1/GPa)
#
#
# Indices 1 2 3 4 5 6 
#
# 1 0.022445 -0.025204 0.004668 0.000000 0.001670 0.000000
# 2 -0.025204 0.057888 -0.014536 0.000000 0.008676 0.000000
# 3 0.004668 -0.014536 0.014218 0.000000 0.002533 0.000000
# 4 0.000000 0.000000 0.000000 0.064078 0.000000 -0.006583
# 5 0.001670 0.008676 0.002533 0.000000 0.047071 0.000000
# 6 0.000000 0.000000 0.000000 -0.006583 0.000000 0.037832
#
#
# Mechanical properties :
#
#
# Convention : Reuss Voigt Hill
#
# Bulk Modulus (GPa) = 40.97343 51.92089 46.44716
# Shear Modulus (GPa) = 15.53699 23.03666 19.28682
#
# Velocity S-wave (km/s) = 2.81772 3.43103 3.13939
# Velocity P-wave (km/s) = 5.61461 6.49831 6.07256
#
# Compressibility (1/GPa) = 0.02440606
#
# Stress axis : x y z
#
# Youngs Moduli (GPa) = 44.55366 17.27461 70.33276
#
# Poissons Ratio (x) = 0.43540 -0.32833
# Poissons Ratio (y) = 1.12295 1.02239
# Poissons Ratio (z) = -0.20799 0.25111
#
# Static dielectric constant tensor:
#      x y z
#    x 1.694340 0.000000 0.023420 
#    y 0.000000 1.668330 0.000000 
#    z 0.023420 0.000000 1.695680 
# 
# From -- ./inp_files/47321.got.cif
#   From: 2010.05.17/outbox.cif.g08.bks.cpg/sg5_24_cif.got.tgz:47321.got - 2010.06.03 18:56:24.
