data_PCOD9125773
_publ_section_title
;
Structure prediction by ZEFSAII (Michael W. Deem and Ramdas Pophale) SiO2 
 PCOD9125773
Probable space group: C 2
;
_chemical_formula_sum "Si O2"
_cell_formula_units_Z 22
_cell_length_a 7.874901
_cell_length_b 18.174571
_cell_length_c 8.925698
_cell_angle_alpha 90.000000
_cell_angle_beta 129.617558
_cell_angle_gamma 90.000000
_cell_volume 984.059669
_symmetry_space_group_name_H-M "C 2"
_symmetry_group_IT_number 5
_symmetry_cell_setting 'monoclinic'
loop_
_space_group_symop_operation_xyz
x,y,z
-x,y,-z
1/2+x,1/2+y,z
1/2-x,1/2+y,-z
loop_
_atom_site_type_symbol
_atom_site_label
_atom_site_fract_x
_atom_site_fract_y
_atom_site_fract_z
Si Si1 0.336371 0.429350 0.630586
Si Si2 0.316980 0.958400 0.762823
Si Si3 0.740005 0.274678 0.363111
Si Si4 0.276590 0.116774 0.787004
Si Si5 0.500000 0.203743 0.500000
Si Si6 0.633277 0.586625 0.228664
O O1 0.584854 0.439115 0.709193
O O2 0.177211 0.417598 0.394811
O O3 0.339653 0.355173 0.729502
O O4 0.281520 0.504724 0.685590
O O5 0.285658 0.043818 0.690077
O O6 0.500000 0.948669 0.000000
O O7 0.693918 0.198574 0.253574
O O8 0.630927 0.256178 0.461197
O O9 0.000000 0.279790 0.500000
O O10 0.048686 0.110946 0.749902
O O11 0.500000 0.102953 0.000000
O O12 0.322858 0.147997 0.326746
O O13 0.500000 0.582747 0.000000
#
# Coordination Sequence:
#
# PCOD9125773 Si02
#       6
#     4   4   4   4   2   4
#     4  10  23  41  65 101 139 175 227 283 344 409
#     4   9  19  42  74  97 131 180 229 282 343 406
#     4  12  25  45  65  99 141 181 221 286 353 404
#     4  10  21  43  69  98 134 179 232 286 340 410
#     4  12  24  44  74  96 136 184 234 284 338 414
#     4  11  24  43  70 103 135 182 238 286 338 409
#
# _framework density 22.356369000000001
#
# number of rings (size 3 to 8) (size 9 to 14) (size 15 to 20)
#    0.000    1.455    1.818    3.273    3.818    3.636 
#    3.273    1.818    0.000    0.000    0.000    0.000 
#    0.000    0.000    0.000    0.000    0.000    0.000 
#
# Total GULP energy -61346.799050 kJ/mol
# GULP energy per Si atom -5576.981732 kJ/mol
# Density = 2.230549 g / cm^3
# Si number density = 22.356369 Si / 1000 Ang^3
#
#
#
# Elastic Constant Matrix: (Units=GPa)
#
#
# Indices 1 2 3 4 5 6 
#
# 1 82.1170 27.7631 16.0736 0.0000 13.2765 0.0000
# 2 27.7631 141.8901 17.9489 0.0000 -0.8135 0.0000
# 3 16.0736 17.9489 106.5112 0.0000 15.0057 0.0000
# 4 0.0000 0.0000 0.0000 25.4641 0.0000 -7.2717
# 5 13.2765 -0.8135 15.0057 0.0000 28.8269 0.0000
# 6 0.0000 0.0000 0.0000 -7.2717 0.0000 40.7049
#
#
#
# Elastic Compliance Matrix: (Units=1/GPa)
#
#
# Indices 1 2 3 4 5 6 
#
# 1 0.014264 -0.002723 -0.000817 0.000000 -0.006221 0.000000
# 2 -0.002723 0.007743 -0.001188 0.000000 0.002091 0.000000
# 3 -0.000817 -0.001188 0.010429 0.000000 -0.005086 0.000000
# 4 0.000000 0.000000 0.000000 0.041382 0.000000 0.007393
# 5 -0.006221 0.002091 -0.005086 0.000000 0.040261 0.000000
# 6 0.000000 0.000000 0.000000 0.007393 0.000000 0.025888
#
#
# Mechanical properties :
#
#
# Convention : Reuss Voigt Hill
#
# Bulk Modulus (GPa) = 43.52019 50.45440 46.98729
# Shear Modulus (GPa) = 31.82999 36.91468 34.37234
#
# Velocity S-wave (km/s) = 3.77736 4.06790 3.92532
# Velocity P-wave (km/s) = 6.20753 6.68438 6.45036
#
# Compressibility (1/GPa) = 0.02297784
#
# Stress axis : x y z
#
# Youngs Moduli (GPa) = 70.10538 129.15060 95.88834
#
# Poissons Ratio (x) = 0.35172 0.07837
# Poissons Ratio (y) = 0.19092 0.11396
# Poissons Ratio (z) = 0.05729 0.15349
#
# Static dielectric constant tensor:
#      x y z
#    x 1.770160 0.000000 0.024190 
#    y 0.000000 1.915290 0.000000 
#    z 0.024190 0.000000 1.720030 
# 
# From -- ./inp_files/16230.got.cif
#   From: 2010.05.17/outbox.cif.g08.bks.cpg/sg5_9_cif.got.tgz:16230.got - 2010.06.03 18:56:24.
