data_PCOD9125635
_publ_section_title
;
Structure prediction by ZEFSAII (Michael W. Deem and Ramdas Pophale) SiO2 
 PCOD9125635
Probable space group: C 2
;
_chemical_formula_sum "Si O2"
_cell_formula_units_Z 30
_cell_length_a 8.223782
_cell_length_b 16.494790
_cell_length_c 11.476788
_cell_angle_alpha 90.000000
_cell_angle_beta 107.250071
_cell_angle_gamma 90.000000
_cell_volume 1486.794733
_symmetry_space_group_name_H-M "C 2"
_symmetry_group_IT_number 5
_symmetry_cell_setting 'monoclinic'
loop_
_space_group_symop_operation_xyz
x,y,z
-x,y,-z
1/2+x,1/2+y,z
1/2-x,1/2+y,-z
loop_
_atom_site_type_symbol
_atom_site_label
_atom_site_fract_x
_atom_site_fract_y
_atom_site_fract_z
Si Si1 0.973454 0.067210 0.627327
Si Si2 0.986765 0.388763 0.300737
Si Si3 0.277271 0.167458 0.268375
Si Si4 0.000000 0.762122 0.500000
Si Si5 0.629718 0.479961 0.856189
Si Si6 0.746475 0.007197 0.871411
Si Si7 0.740171 0.402706 0.457986
Si Si8 0.351826 0.817012 0.871749
O O1 0.875753 0.135985 0.679740
O O2 0.000000 0.094131 0.500000
O O3 0.865854 0.983081 0.592856
O O4 0.129518 0.035238 0.740457
O O5 0.896071 0.441054 0.182730
O O6 0.845386 0.373958 0.368034
O O7 0.136235 0.427002 0.409585
O O8 0.069621 0.318942 0.242281
O O9 0.416523 0.207071 0.382422
O O10 0.237432 0.230169 0.155514
O O11 0.319908 0.084301 0.212421
O O12 0.865653 0.825208 0.525061
O O13 0.430356 0.478333 0.856827
O O14 0.718501 0.392159 0.855237
O O15 0.724630 0.519705 0.986083
O O16 0.500000 0.820551 0.000000
#
# Coordination Sequence:
#
# PCOD9125635 Si02
#       8
#     4   4   4   2   4   4   4   4
#     4  11  22  40  68  94 128 173 218 262 327 393
#     4  11  22  39  66  96 127 170 228 266 309 386
#     4  11  26  39  64  99 133 166 206 280 336 373
#     4  12  24  44  66  98 136 172 210 264 344 388
#     4  10  21  42  68  94 123 178 221 259 315 400
#     4  10  22  42  69  92 129 170 227 266 321 387
#     4  11  22  40  69  95 128 173 226 264 311 401
#     4  12  24  41  67  96 132 169 221 272 329 383
#
# _framework density 20.177634000000001
#
# number of rings (size 3 to 8) (size 9 to 14) (size 15 to 20)
#    0.000    1.067    6.000    1.600    5.600    1.067 
#    0.000    0.000    0.000    3.200    0.000    0.000 
#    0.000    0.000    0.000    0.000    0.000    0.000 
#
# Total GULP energy -83606.606042 kJ/mol
# GULP energy per Si atom -5573.773736 kJ/mol
# Density = 2.013171 g / cm^3
# Si number density = 20.177634 Si / 1000 Ang^3
#
#
#
# Elastic Constant Matrix: (Units=GPa)
#
#
# Indices 1 2 3 4 5 6 
#
# 1 35.9422 23.0586 25.4654 0.0000 5.6371 0.0000
# 2 23.0586 67.4552 17.7538 0.0000 13.6685 0.0000
# 3 25.4654 17.7538 143.7809 0.0000 13.4499 0.0000
# 4 0.0000 0.0000 0.0000 47.9309 0.0000 -14.7792
# 5 5.6371 13.6685 13.4499 0.0000 37.3025 0.0000
# 6 0.0000 0.0000 0.0000 -14.7792 0.0000 11.6010
#
#
#
# Elastic Compliance Matrix: (Units=1/GPa)
#
#
# Indices 1 2 3 4 5 6 
#
# 1 0.039447 -0.012124 -0.005534 0.000000 0.000477 0.000000
# 2 -0.012124 0.020050 0.000194 0.000000 -0.005584 0.000000
# 3 -0.005534 0.000194 0.008113 0.000000 -0.002160 0.000000
# 4 0.000000 0.000000 0.000000 0.034361 0.000000 0.043775
# 5 0.000477 -0.005584 -0.002160 0.000000 0.029561 0.000000
# 6 0.000000 0.000000 0.000000 0.043775 0.000000 0.141968
#
#
# Mechanical properties :
#
#
# Convention : Reuss Voigt Hill
#
# Bulk Modulus (GPa) = 30.59869 42.19263 36.39566
# Shear Modulus (GPa) = 15.65815 31.42689 23.54252
#
# Velocity S-wave (km/s) = 2.78873 3.95081 3.41950
# Velocity P-wave (km/s) = 5.05637 6.46281 5.80236
#
# Compressibility (1/GPa) = 0.03268114
#
# Stress axis : x y z
#
# Youngs Moduli (GPa) = 25.35044 49.87597 123.25460
#
# Poissons Ratio (x) = 0.60472 0.68210
# Poissons Ratio (y) = 0.30736 -0.02392
# Poissons Ratio (z) = 0.14029 -0.00968
#
# Static dielectric constant tensor:
#      x y z
#    x 1.749230 0.000000 -0.014360 
#    y 0.000000 1.664200 0.000000 
#    z -0.014360 0.000000 1.657520 
# 
# From -- ./inp_files/36373.got.cif
#   From: 2010.05.17/outbox.cif.g08.bks.cpg/sg5_19_cif.got.tgz:36373.got - 2010.06.03 18:56:24.
