data_PCOD9125966
_publ_section_title
;
Structure prediction by ZEFSAII (Michael W. Deem and Ramdas Pophale) SiO2 
 PCOD9125966
Probable space group: C 2
;
_chemical_formula_sum "Si O2"
_cell_formula_units_Z 24
_cell_length_a 19.837323
_cell_length_b 5.046163
_cell_length_c 16.636673
_cell_angle_alpha 90.000000
_cell_angle_beta 32.145009
_cell_angle_gamma 90.000000
_cell_volume 886.083388
_symmetry_space_group_name_H-M "C 2"
_symmetry_group_IT_number 5
_symmetry_cell_setting 'monoclinic'
loop_
_space_group_symop_operation_xyz
x,y,z
-x,y,-z
1/2+x,1/2+y,z
1/2-x,1/2+y,-z
loop_
_atom_site_type_symbol
_atom_site_label
_atom_site_fract_x
_atom_site_fract_y
_atom_site_fract_z
Si Si1 0.576981 0.144440 0.252866
Si Si2 0.278316 0.850413 0.289626
Si Si3 0.187353 0.585779 0.529450
Si Si4 0.481558 0.641488 0.434202
Si Si5 0.656172 0.737109 0.961207
Si Si6 0.494280 0.231135 0.908084
O O1 0.456172 0.200134 0.315784
O O2 0.554520 0.366445 0.344616
O O3 0.728887 0.155082 0.096006
O O4 0.534851 0.846917 0.316838
O O5 0.230237 0.611130 0.393443
O O6 0.309972 0.742592 0.168968
O O7 0.160729 0.046947 0.413062
O O8 0.387667 0.029897 0.219568
O O9 0.216984 0.290689 0.525532
O O10 0.500000 0.783234 0.500000
O O11 0.541131 0.526128 0.085469
O O12 0.618360 0.042527 0.010954
O O13 0.500000 0.258683 0.000000
#
# Coordination Sequence:
#
# PCOD9125966 Si02
#       6
#     4   4   4   4   4   4
#     4  11  23  38  61  91 127 157 206 266 314 371
#     4  10  23  41  63  92 131 167 202 261 307 378
#     4  11  25  43  63  91 123 170 219 258 307 362
#     4  11  21  34  57  91 125 158 196 246 326 377
#     4  11  22  38  61  94 128 156 199 250 321 386
#     4  10  22  36  57  92 128 164 195 238 317 388
#
# _framework density 27.085488999999999
#
# number of rings (size 3 to 8) (size 9 to 14) (size 15 to 20)
#    0.000    1.333    1.667    5.000    4.667    6.667 
#    0.000    0.000    0.000    4.000    0.000    0.000 
#    0.000    0.000    0.000    0.000    0.000    0.000 
#
# Total GULP energy -67021.621987 kJ/mol
# GULP energy per Si atom -5585.135166 kJ/mol
# Density = 2.702384 g / cm^3
# Si number density = 27.085489 Si / 1000 Ang^3
#
#
#
# Elastic Constant Matrix: (Units=GPa)
#
#
# Indices 1 2 3 4 5 6 
#
# 1 64.4663 14.8885 20.7660 -0.0213 -23.3803 -0.0056
# 2 14.8885 155.2726 19.9677 -0.0457 -3.7159 0.0439
# 3 20.7660 19.9677 76.1675 -0.0606 -20.4020 -0.0240
# 4 -0.0213 -0.0457 -0.0606 31.0014 0.0272 0.2071
# 5 -23.3803 -3.7159 -20.4020 0.0272 52.9218 0.0143
# 6 -0.0056 0.0439 -0.0240 0.2071 0.0143 13.5364
#
#
#
# Elastic Compliance Matrix: (Units=1/GPa)
#
#
# Indices 1 2 3 4 5 6 
#
# 1 0.019440 -0.001304 -0.002991 -0.000001 0.007344 -0.000001
# 2 -0.001304 0.006755 -0.001609 0.000007 -0.000722 -0.000025
# 3 -0.002991 -0.001609 0.015592 0.000022 0.004576 0.000026
# 4 -0.000001 0.000007 0.000022 0.032260 -0.000008 -0.000493
# 5 0.007344 -0.000722 0.004576 -0.000008 0.023854 -0.000012
# 6 -0.000001 -0.000025 0.000026 -0.000493 -0.000012 0.073883
#
#
# Mechanical properties :
#
#
# Convention : Reuss Voigt Hill
#
# Bulk Modulus (GPa) = 33.35587 45.23898 39.29742
# Shear Modulus (GPa) = 25.82859 35.51086 30.66973
#
# Velocity S-wave (km/s) = 3.09138 3.62479 3.36866
# Velocity P-wave (km/s) = 5.00839 5.85298 5.44708
#
# Compressibility (1/GPa) = 0.02997973
#
# Stress axis : x y z
#
# Youngs Moduli (GPa) = 51.44037 148.04053 64.13513
#
# Poissons Ratio (x) = 0.19299 0.19184
# Poissons Ratio (y) = 0.06706 0.10318
# Poissons Ratio (z) = 0.15387 0.23816
#
# Static dielectric constant tensor:
#      x y z
#    x 2.398330 -0.000040 -0.035540 
#    y -0.000040 1.977450 0.000040 
#    z -0.035540 0.000040 2.199050 
# 
# From -- ./inp_files/66908.got.cif
#   From: 2010.05.17/outbox.cif.g08.bks.cpg/sg5_34_cif.got.tgz:66908.got - 2010.06.03 18:56:24.
