data_PCOD9125979
_publ_section_title
;
Structure prediction by ZEFSAII (Michael W. Deem and Ramdas Pophale) SiO2 
 PCOD9125979
Probable space group: C 2
;
_chemical_formula_sum "Si O2"
_cell_formula_units_Z 30
_cell_length_a 24.827390
_cell_length_b 9.207054
_cell_length_c 5.489120
_cell_angle_alpha 90.000000
_cell_angle_beta 106.298413
_cell_angle_gamma 90.000000
_cell_volume 1204.317895
_symmetry_space_group_name_H-M "C 2"
_symmetry_group_IT_number 5
_symmetry_cell_setting 'monoclinic'
loop_
_space_group_symop_operation_xyz
x,y,z
-x,y,-z
1/2+x,1/2+y,z
1/2-x,1/2+y,-z
loop_
_atom_site_type_symbol
_atom_site_label
_atom_site_fract_x
_atom_site_fract_y
_atom_site_fract_z
Si Si1 0.186677 0.452290 0.708526
Si Si2 0.391228 0.755800 0.635377
Si Si3 0.000000 0.324694 0.500000
Si Si4 0.289248 0.342767 0.085702
Si Si5 0.804240 0.724216 0.606365
Si Si6 0.580732 0.001097 0.921286
Si Si7 0.576415 0.337072 0.760643
Si Si8 0.412374 0.432548 0.742528
O O1 0.165284 0.299475 0.576049
O O2 0.246021 0.456071 0.917722
O O3 0.186964 0.566262 0.490379
O O4 0.136116 0.487785 0.826010
O O5 0.446334 0.741567 0.534303
O O6 0.384684 0.591903 0.714523
O O7 0.405327 0.894274 0.830115
O O8 0.973873 0.425370 0.259396
O O9 0.284033 0.226207 0.857541
O O10 0.271918 0.301400 0.338930
O O11 0.355912 0.372140 0.180999
O O12 0.862877 0.811633 0.694495
O O13 0.568343 0.173097 0.856230
O O14 0.556517 0.380554 0.464755
O O15 0.555542 0.430688 0.960190
#
# Coordination Sequence:
#
# PCOD9125979 Si02
#       8
#     4   4   2   4   4   4   4   4
#     4  11  24  39  70  98 138 189 240 283 347 424
#     4  11  25  43  73 102 137 184 231 299 371 431
#     4  10  26  46  74 102 136 172 242 298 370 428
#     4  10  22  36  61  98 140 178 229 282 331 397
#     4  10  22  43  61  95 144 188 235 285 330 413
#     4  11  23  47  75  99 136 187 245 297 355 432
#     4  10  22  44  70  99 145 189 232 289 343 422
#     4  10  22  42  68  98 141 184 223 291 357 416
#
# _framework density 24.910364999999999
#
# number of rings (size 3 to 8) (size 9 to 14) (size 15 to 20)
#    0.000    1.600    2.667    2.000    7.467    4.267 
#    0.000    0.667    0.000    0.000    0.000    0.000 
#    0.000    0.000    0.000    0.000    0.000    0.000 
#
# Total GULP energy -83553.086186 kJ/mol
# GULP energy per Si atom -5570.205746 kJ/mol
# Density = 2.485367 g / cm^3
# Si number density = 24.910365 Si / 1000 Ang^3
#
#
#
# Elastic Constant Matrix: (Units=GPa)
#
#
# Indices 1 2 3 4 5 6 
#
# 1 68.4855 -5.7623 5.1210 0.0000 9.6784 0.0000
# 2 -5.7623 44.1317 9.1091 0.0000 -1.9626 0.0000
# 3 5.1210 9.1091 147.3222 0.0000 -7.6319 0.0000
# 4 0.0000 0.0000 0.0000 4.1938 0.0000 -19.3534
# 5 9.6784 -1.9626 -7.6319 0.0000 44.7262 0.0000
# 6 0.0000 0.0000 0.0000 -19.3534 0.0000 1.4485
#
#
#
# Elastic Compliance Matrix: (Units=1/GPa)
#
#
# Indices 1 2 3 4 5 6 
#
# 1 0.015310 0.002021 -0.000831 0.000000 -0.003366 0.000000
# 2 0.002021 0.023246 -0.001491 0.000000 0.000328 0.000000
# 3 -0.000831 -0.001491 0.006977 0.000000 0.001305 0.000000
# 4 0.000000 0.000000 0.000000 -0.003931 0.000000 -0.052522
# 5 -0.003366 0.000328 0.001305 0.000000 0.023324 0.000000
# 6 0.000000 0.000000 0.000000 -0.052522 0.000000 -0.011382
#
#
# Mechanical properties :
#
#
# Convention : Reuss Voigt Hill
#
# Bulk Modulus (GPa) = 22.25716 30.76390 26.51053
# Shear Modulus (GPa) = 72.33644 26.83848 49.58746
#
# Velocity S-wave (km/s) = 5.39460 3.28594 4.46649
# Velocity P-wave (km/s) = 6.91062 5.17428 6.10450
#
# Compressibility (1/GPa) = 0.04492936
#
# Stress axis : x y z
#
# Youngs Moduli (GPa) = 65.31882 43.01890 143.33816
#
# Poissons Ratio (x) = -0.08694 0.11919
# Poissons Ratio (y) = -0.13200 0.21365
# Poissons Ratio (z) = 0.05431 0.06412
#
# Static dielectric constant tensor:
#      x y z
#    x 2.009900 0.000000 -0.020340 
#    y 0.000000 2.038860 0.000000 
#    z -0.020340 0.000000 2.074860 
# 
# From -- ./inp_files/11262.got.cif
#   From: 2010.05.17/outbox.cif.g08.bks.cpg/sg5_6_cif.got.tgz:11262.got - 2010.06.03 18:56:24.
