data_PCOD9125209
_publ_section_title
;
Structure prediction by ZEFSAII (Michael W. Deem and Ramdas Pophale) SiO2 
 PCOD9125209
Probable space group: C 2
;
_chemical_formula_sum "Si O2"
_cell_formula_units_Z 22
_cell_length_a 7.648917
_cell_length_b 26.481933
_cell_length_c 9.577434
_cell_angle_alpha 90.000000
_cell_angle_beta 32.036640
_cell_angle_gamma 90.000000
_cell_volume 1029.088312
_symmetry_space_group_name_H-M "C 2"
_symmetry_group_IT_number 5
_symmetry_cell_setting 'monoclinic'
loop_
_space_group_symop_operation_xyz
x,y,z
-x,y,-z
1/2+x,1/2+y,z
1/2-x,1/2+y,-z
loop_
_atom_site_type_symbol
_atom_site_label
_atom_site_fract_x
_atom_site_fract_y
_atom_site_fract_z
Si Si1 0.367906 0.641850 0.240681
Si Si2 0.325783 0.996936 0.875014
Si Si3 0.464760 0.554686 0.359061
Si Si4 0.000000 0.740599 0.500000
Si Si5 0.753659 0.320760 0.532707
Si Si6 0.246057 0.883870 0.965545
O O1 0.524071 0.611755 0.261570
O O2 0.311634 0.701907 0.285105
O O3 0.000000 0.620938 0.500000
O O4 0.500000 0.628007 0.000000
O O5 0.613019 0.024869 0.594318
O O6 0.404597 0.939139 0.863918
O O7 0.000000 0.996761 0.000000
O O8 0.215062 0.024223 0.091888
O O9 0.500000 0.555912 0.500000
O O10 0.057591 0.773810 0.599173
O O11 0.490248 0.363820 0.752846
O O12 0.000000 0.310604 0.500000
O O13 0.982986 0.342284 0.254786
O O14 0.000000 0.885651 0.000000
#
# Coordination Sequence:
#
# PCOD9125209 Si02
#       6
#     4   4   4   2   4   4
#     4  10  23  42  64  87 123 162 226 255 317 396
#     4  11  22  41  68  91 128 177 220 257 322 401
#     4  12  24  40  62  96 134 167 210 279 330 381
#     4  10  26  40  70  94 124 172 222 264 334 374
#     4  10  21  40  64  93 131 164 212 268 317 384
#     4   9  20  39  62  92 126 168 210 254 317 387
#
# _framework density 21.378145
#
# number of rings (size 3 to 8) (size 9 to 14) (size 15 to 20)
#    0.545    1.091    0.000    4.909    2.545    3.636 
#    9.818    0.000    0.000    0.000    0.000    0.000 
#    0.000    0.000    0.000    0.000    0.000    0.000 
#
# Total GULP energy -61271.864954 kJ/mol
# GULP energy per Si atom -5570.169541 kJ/mol
# Density = 2.132949 g / cm^3
# Si number density = 21.378145 Si / 1000 Ang^3
#
#
#
# Elastic Constant Matrix: (Units=GPa)
#
#
# Indices 1 2 3 4 5 6 
#
# 1 61.3587 35.2586 5.7427 0.0000 16.8108 0.0000
# 2 35.2586 125.5437 17.5841 0.0000 3.7479 0.0000
# 3 5.7427 17.5841 111.6245 0.0000 4.7733 0.0000
# 4 0.0000 0.0000 0.0000 25.0055 0.0000 11.5832
# 5 16.8108 3.7479 4.7733 0.0000 26.7006 0.0000
# 6 0.0000 0.0000 0.0000 11.5832 0.0000 3.6828
#
#
#
# Elastic Compliance Matrix: (Units=1/GPa)
#
#
# Indices 1 2 3 4 5 6 
#
# 1 0.023759 -0.006303 0.000375 0.000000 -0.014141 0.000000
# 2 -0.006303 0.009840 -0.001347 0.000000 0.002828 0.000000
# 3 0.000375 -0.001347 0.009224 0.000000 -0.001696 0.000000
# 4 0.000000 0.000000 0.000000 -0.087524 0.000000 0.275277
# 5 -0.014141 0.002828 -0.001696 0.000000 0.046262 0.000000
# 6 0.000000 0.000000 0.000000 0.275277 0.000000 -0.594264
#
#
# Mechanical properties :
#
#
# Convention : Reuss Voigt Hill
#
# Bulk Modulus (GPa) = 35.36872 46.18862 40.77867
# Shear Modulus (GPa) = -8.79151 27.07389 9.14119
#
# Velocity S-wave (km/s) = -2.03010 3.56255 2.07008
# Velocity P-wave (km/s) = 3.32944 6.21086 4.98297
#
# Compressibility (1/GPa) = 0.02827357
#
# Stress axis : x y z
#
# Youngs Moduli (GPa) = 42.09003 101.62886 108.41306
#
# Poissons Ratio (x) = 0.64056 -0.04069
# Poissons Ratio (y) = 0.26529 0.14600
# Poissons Ratio (z) = -0.01580 0.13686
#
# Static dielectric constant tensor:
#      x y z
#    x 1.877090 0.000000 -0.036210 
#    y 0.000000 1.801880 0.000000 
#    z -0.036210 0.000000 1.736670 
# 
# From -- ./inp_files/17609.got.cif
#   From: 2010.05.17/outbox.cif.g08.bks.cpg/sg5_9_cif.got.tgz:17609.got - 2010.06.03 18:56:24.
