data_PCOD9125813
_publ_section_title
;
Structure prediction by ZEFSAII (Michael W. Deem and Ramdas Pophale) SiO2 
 PCOD9125813
Probable space group: C 2
;
_chemical_formula_sum "Si O2"
_cell_formula_units_Z 20
_cell_length_a 15.209578
_cell_length_b 5.190767
_cell_length_c 13.041048
_cell_angle_alpha 90.000000
_cell_angle_beta 135.309615
_cell_angle_gamma 90.000000
_cell_volume 724.080124
_symmetry_space_group_name_H-M "C 2"
_symmetry_group_IT_number 5
_symmetry_cell_setting 'monoclinic'
loop_
_space_group_symop_operation_xyz
x,y,z
-x,y,-z
1/2+x,1/2+y,z
1/2-x,1/2+y,-z
loop_
_atom_site_type_symbol
_atom_site_label
_atom_site_fract_x
_atom_site_fract_y
_atom_site_fract_z
Si Si1 0.493587 0.938850 0.371317
Si Si2 0.692375 0.058898 0.215700
Si Si3 0.749585 0.560753 0.371785
Si Si4 0.504683 0.405586 0.887570
Si Si5 0.851337 0.938375 0.175359
O O1 0.500000 0.973076 0.500000
O O2 0.434990 0.667456 0.292628
O O3 0.640021 0.983764 0.461106
O O4 0.413077 0.168552 0.257401
O O5 0.751011 0.340524 0.284249
O O6 0.553077 0.117963 0.141788
O O7 0.763701 0.846793 0.341246
O O8 0.718751 0.974967 0.121474
O O9 0.602672 0.530560 0.273256
O O10 0.633076 0.444828 0.934418
O O11 0.500000 0.515002 0.000000
#
# Coordination Sequence:
#
# PCOD9125813 Si02
#       5
#     4   4   4   4   4
#     4  12  21  40  71 105 143 175 224 294 355 441
#     4  10  21  44  64 102 132 173 232 280 337 426
#     4  10  22  41  68  96 140 170 221 291 344 406
#     4  10  27  49  67 100 143 187 241 299 332 415
#     4  12  24  41  74 103 135 191 225 279 381 410
#
# _framework density 27.621254
#
# number of rings (size 3 to 8) (size 9 to 14) (size 15 to 20)
#    1.200    0.000    4.000    1.800    2.800    2.400 
#    3.600    0.000    0.000    0.000    0.000    0.000 
#    0.000    0.000    0.000    0.000    0.000    0.000 
#
# Total GULP energy -55851.507180 kJ/mol
# GULP energy per Si atom -5585.150718 kJ/mol
# Density = 2.755839 g / cm^3
# Si number density = 27.621254 Si / 1000 Ang^3
#
#
#
# Elastic Constant Matrix: (Units=GPa)
#
#
# Indices 1 2 3 4 5 6 
#
# 1 154.9493 23.2039 39.5077 0.0001 -29.5992 0.0000
# 2 23.2039 81.7181 37.0290 0.0001 -0.5774 0.0001
# 3 39.5077 37.0290 86.9725 0.0000 -5.1948 0.0000
# 4 0.0001 0.0001 0.0000 52.3462 0.0000 1.0552
# 5 -29.5992 -0.5774 -5.1948 0.0000 64.2186 0.0000
# 6 0.0000 0.0001 0.0000 1.0552 0.0000 23.2169
#
#
#
# Elastic Compliance Matrix: (Units=1/GPa)
#
#
# Indices 1 2 3 4 5 6 
#
# 1 0.008024 -0.000862 -0.003072 0.000000 0.003442 0.000000
# 2 -0.000862 0.015265 -0.006153 0.000000 -0.000758 0.000000
# 3 -0.003072 -0.006153 0.015500 0.000000 -0.000218 0.000000
# 4 0.000000 0.000000 0.000000 0.019121 0.000000 -0.000869
# 5 0.003442 -0.000758 -0.000218 0.000000 0.017134 0.000000
# 6 0.000000 0.000000 0.000000 -0.000869 0.000000 0.043112
#
#
# Mechanical properties :
#
#
# Convention : Reuss Voigt Hill
#
# Bulk Modulus (GPa) = 53.72141 58.12458 55.92300
# Shear Modulus (GPa) = 34.59414 42.88295 38.73855
#
# Velocity S-wave (km/s) = 3.54283 3.94450 3.74905
# Velocity P-wave (km/s) = 6.01889 6.46796 6.24746
#
# Compressibility (1/GPa) = 0.01861455
#
# Stress axis : x y z
#
# Youngs Moduli (GPa) = 124.63204 65.51130 64.51604
#
# Poissons Ratio (x) = 0.05646 0.19821
# Poissons Ratio (y) = 0.10742 0.39695
# Poissons Ratio (z) = 0.38290 0.40307
#
# Static dielectric constant tensor:
#      x y z
#    x 2.388650 0.000000 0.009240 
#    y 0.000000 2.082670 0.000000 
#    z 0.009240 0.000000 2.118860 
# 
# From -- ./inp_files/43654.got.cif
#   From: 2010.05.17/outbox.cif.g08.bks.cpg/sg5_22_cif.got.tgz:43654.got - 2010.06.03 18:56:24.
