data_PCOD9125050
_publ_section_title
;
Structure prediction by ZEFSAII (Michael W. Deem and Ramdas Pophale) SiO2 
 PCOD9125050
Probable space group: C 2
;
_chemical_formula_sum "Si O2"
_cell_formula_units_Z 32
_cell_length_a 26.674869
_cell_length_b 7.867591
_cell_length_c 17.359924
_cell_angle_alpha 90.000000
_cell_angle_beta 157.270075
_cell_angle_gamma 90.000000
_cell_volume 1407.716884
_symmetry_space_group_name_H-M "C 2"
_symmetry_group_IT_number 5
_symmetry_cell_setting 'monoclinic'
loop_
_space_group_symop_operation_xyz
x,y,z
-x,y,-z
1/2+x,1/2+y,z
1/2-x,1/2+y,-z
loop_
_atom_site_type_symbol
_atom_site_label
_atom_site_fract_x
_atom_site_fract_y
_atom_site_fract_z
Si Si1 0.817442 0.703750 0.582070
Si Si2 0.359421 0.749185 0.262038
Si Si3 0.537900 0.449214 0.328382
Si Si4 0.026002 0.461233 0.957086
Si Si5 0.691334 0.413461 0.905829
Si Si6 0.237331 0.172386 0.711697
Si Si7 0.169474 0.419419 0.497604
Si Si8 0.603949 0.788529 0.919849
O O1 0.897401 0.849302 0.650740
O O2 0.764599 0.592936 0.435927
O O3 0.719721 0.779206 0.506076
O O4 0.903980 0.557682 0.746160
O O5 0.500000 0.778415 0.500000
O O6 0.355142 0.594237 0.194554
O O7 0.274561 0.685416 0.213814
O O8 0.297147 0.902725 0.125057
O O9 0.438658 0.337216 0.239346
O O10 0.639661 0.540756 0.530552
O O11 0.449082 0.599876 0.168112
O O12 0.121378 0.614949 0.111495
O O13 0.101824 0.341599 0.005500
O O14 0.000000 0.369567 0.000000
O O15 0.763375 0.323232 0.936722
O O16 0.210611 0.355990 0.638818
O O17 0.012713 0.411079 0.277247
#
# Coordination Sequence:
#
# PCOD9125050 Si02
#       8
#     4   4   4   4   4   4   4   4
#     4  11  23  41  67  95 138 181 237 289 364 438
#     4  12  24  46  73 101 142 189 239 306 359 434
#     4  11  24  42  68 101 135 186 239 303 361 433
#     4  11  22  39  66  97 134 186 225 288 358 430
#     4  12  23  44  73 101 138 192 241 296 369 430
#     4  11  21  42  67  98 140 178 238 289 370 425
#     4  10  21  39  65  97 134 184 232 292 357 435
#     4  10  22  39  64  94 132 179 234 287 356 434
#
# _framework density 22.731843000000001
#
# number of rings (size 3 to 8) (size 9 to 14) (size 15 to 20)
#    0.000    1.000    5.000    3.000    3.500    0.000 
#    0.000    5.000    0.000    0.000    0.000    0.000 
#    0.000    0.000    0.000    0.000    0.000    0.000 
#
# Total GULP energy -89275.382306 kJ/mol
# GULP energy per Si atom -5579.711394 kJ/mol
# Density = 2.268010 g / cm^3
# Si number density = 22.731843 Si / 1000 Ang^3
#
#
#
# Elastic Constant Matrix: (Units=GPa)
#
#
# Indices 1 2 3 4 5 6 
#
# 1 145.3675 13.9456 17.3833 0.0000 -5.8432 0.0000
# 2 13.9456 50.5048 11.7695 0.0000 -7.5220 0.0000
# 3 17.3833 11.7695 79.5357 0.0000 -6.2202 0.0000
# 4 0.0000 0.0000 0.0000 18.0413 0.0000 -0.3552
# 5 -5.8432 -7.5220 -6.2202 0.0000 40.2259 0.0000
# 6 0.0000 0.0000 0.0000 -0.3552 0.0000 33.1386
#
#
#
# Elastic Compliance Matrix: (Units=1/GPa)
#
#
# Indices 1 2 3 4 5 6 
#
# 1 0.007210 -0.001608 -0.001295 0.000000 0.000546 0.000000
# 2 -0.001608 0.021338 -0.002543 0.000000 0.003363 0.000000
# 3 -0.001295 -0.002543 0.013342 0.000000 0.001399 0.000000
# 4 0.000000 0.000000 0.000000 0.055440 0.000000 0.000594
# 5 0.000546 0.003363 0.001399 0.000000 0.025784 0.000000
# 6 0.000000 0.000000 0.000000 0.000594 0.000000 0.030183
#
#
# Mechanical properties :
#
#
# Convention : Reuss Voigt Hill
#
# Bulk Modulus (GPa) = 32.26058 40.17830 36.21944
# Shear Modulus (GPa) = 28.64986 33.76848 31.20917
#
# Velocity S-wave (km/s) = 3.55398 3.85842 3.70932
# Velocity P-wave (km/s) = 5.57348 6.12888 5.85776
#
# Compressibility (1/GPa) = 0.03099758
#
# Stress axis : x y z
#
# Youngs Moduli (GPa) = 138.69242 46.86574 74.95234
#
# Poissons Ratio (x) = 0.07535 0.09708
# Poissons Ratio (y) = 0.22297 0.19061
# Poissons Ratio (z) = 0.17964 0.11918
#
# Static dielectric constant tensor:
#      x y z
#    x 1.923350 0.000000 -0.009810 
#    y 0.000000 1.873550 0.000000 
#    z -0.009810 0.000000 1.880450 
# 
# From -- ./inp_files/57711.got.cif
#   From: 2010.05.17/outbox.cif.g08.bks.cpg/sg5_29_cif.got.tgz:57711.got - 2010.06.03 18:56:24.
