data_PCOD9125379
_publ_section_title
;
Structure prediction by ZEFSAII (Michael W. Deem and Ramdas Pophale) SiO2 
 PCOD9125379
Probable space group: C 2
;
_chemical_formula_sum "Si O2"
_cell_formula_units_Z 24
_cell_length_a 12.556737
_cell_length_b 7.614230
_cell_length_c 11.068963
_cell_angle_alpha 90.000000
_cell_angle_beta 97.004743
_cell_angle_gamma 90.000000
_cell_volume 1050.403159
_symmetry_space_group_name_H-M "C 2"
_symmetry_group_IT_number 5
_symmetry_cell_setting 'monoclinic'
loop_
_space_group_symop_operation_xyz
x,y,z
-x,y,-z
1/2+x,1/2+y,z
1/2-x,1/2+y,-z
loop_
_atom_site_type_symbol
_atom_site_label
_atom_site_fract_x
_atom_site_fract_y
_atom_site_fract_z
Si Si1 0.276971 0.207720 0.726129
Si Si2 0.892492 0.854261 0.957769
Si Si3 0.540342 0.748277 0.636399
Si Si4 0.703393 0.351016 0.804088
Si Si5 0.563432 0.724186 0.127673
Si Si6 0.001148 0.823955 0.363172
O O1 0.303722 0.256431 0.868058
O O2 0.166519 0.290609 0.664363
O O3 0.384326 0.265053 0.672983
O O4 0.248122 0.002574 0.722818
O O5 0.940597 0.012504 0.884242
O O6 0.841664 0.921193 0.074883
O O7 0.000000 0.741783 0.000000
O O8 0.500000 0.811713 0.500000
O O9 0.484847 0.802219 0.755341
O O10 0.515591 0.536555 0.635772
O O11 0.809120 0.247192 0.853447
O O12 0.602665 0.257898 0.725897
O O13 0.500000 0.789895 0.000000
O O14 0.000000 0.761237 0.500000
#
# Coordination Sequence:
#
# PCOD9125379 Si02
#       6
#     4   4   4   4   4   4
#     4  11  21  41  65  90 120 164 209 255 312 373
#     4  11  19  39  65  89 120 165 208 250 318 374
#     4  10  22  41  65  91 123 169 209 251 317 379
#     4  11  23  38  62  95 126 156 211 264 308 376
#     4  11  22  41  61  90 131 163 207 261 316 373
#     4  10  21  41  64  89 121 167 208 252 313 376
#
# _framework density 22.848369000000002
#
# number of rings (size 3 to 8) (size 9 to 14) (size 15 to 20)
#    0.000    1.333    3.333    5.000    2.333    0.667 
#    6.000    0.833    0.000    0.000    0.000    0.000 
#    0.000    0.000    0.000    0.000    0.000    0.000 
#
# Total GULP energy -66937.939373 kJ/mol
# GULP energy per Si atom -5578.161614 kJ/mol
# Density = 2.279636 g / cm^3
# Si number density = 22.848369 Si / 1000 Ang^3
#
#
#
# Elastic Constant Matrix: (Units=GPa)
#
#
# Indices 1 2 3 4 5 6 
#
# 1 241.1606 27.8862 103.3520 0.0000 19.0764 0.0000
# 2 27.8862 19.5362 2.5406 0.0000 -4.0854 0.0000
# 3 103.3520 2.5406 176.6044 0.0000 9.8224 0.0000
# 4 0.0000 0.0000 0.0000 -33.9692 0.0000 18.9083
# 5 19.0764 -4.0854 9.8224 0.0000 45.3804 0.0000
# 6 0.0000 0.0000 0.0000 18.9083 0.0000 25.5377
#
#
#
# Elastic Compliance Matrix: (Units=1/GPa)
#
#
# Indices 1 2 3 4 5 6 
#
# 1 0.007317 -0.010594 -0.003953 0.000000 -0.003174 0.000000
# 2 -0.010594 0.067691 0.004696 0.000000 0.009531 0.000000
# 3 -0.003953 0.004696 0.007887 0.000000 0.000377 0.000000
# 4 0.000000 0.000000 0.000000 -0.020847 0.000000 0.015435
# 5 -0.003174 0.009531 0.000377 0.000000 0.024146 0.000000
# 6 0.000000 0.000000 0.000000 0.015435 0.000000 0.027729
#
#
# Mechanical properties :
#
#
# Convention : Reuss Voigt Hill
#
# Bulk Modulus (GPa) = 15.82452 78.31764 47.07108
# Shear Modulus (GPa) = 32.32269 27.62461 29.97365
#
# Velocity S-wave (km/s) = 3.76528 3.48090 3.62588
# Velocity P-wave (km/s) = 5.08370 7.10683 6.17864
#
# Compressibility (1/GPa) = 0.06319309
#
# Stress axis : x y z
#
# Youngs Moduli (GPa) = 136.67312 14.77303 126.78804
#
# Poissons Ratio (x) = 0.15650 0.50119
# Poissons Ratio (y) = 1.44786 -0.59536
# Poissons Ratio (z) = 0.54026 -0.06937
#
# Static dielectric constant tensor:
#      x y z
#    x 2.136190 0.000000 -0.046760 
#    y 0.000000 1.916240 0.000000 
#    z -0.046760 0.000000 1.942340 
# 
# From -- ./inp_files/38364.got.cif
#   From: 2010.05.17/outbox.cif.g08.bks.cpg/sg5_20_cif.got.tgz:38364.got - 2010.06.03 18:56:24.
