data_PCOD9125176
_publ_section_title
;
Structure prediction by ZEFSAII (Michael W. Deem and Ramdas Pophale) SiO2 
 PCOD9125176
Probable space group: C 2
;
_chemical_formula_sum "Si O2"
_cell_formula_units_Z 30
_cell_length_a 8.674177
_cell_length_b 11.495071
_cell_length_c 22.615788
_cell_angle_alpha 90.000000
_cell_angle_beta 39.708703
_cell_angle_gamma 90.000000
_cell_volume 1440.701923
_symmetry_space_group_name_H-M "C 2"
_symmetry_group_IT_number 5
_symmetry_cell_setting 'monoclinic'
loop_
_space_group_symop_operation_xyz
x,y,z
-x,y,-z
1/2+x,1/2+y,z
1/2-x,1/2+y,-z
loop_
_atom_site_type_symbol
_atom_site_label
_atom_site_fract_x
_atom_site_fract_y
_atom_site_fract_z
Si Si1 0.500000 0.224700 0.000000
Si Si2 0.279153 0.847898 0.250420
Si Si3 0.726456 0.240790 0.583678
Si Si4 0.275407 0.376840 0.170283
Si Si5 0.003681 0.118775 0.850412
Si Si6 0.808955 0.307479 0.676963
Si Si7 0.743096 0.670338 0.547126
Si Si8 0.023081 0.023819 0.715068
O O1 0.421387 0.308430 0.076997
O O2 0.270755 0.145370 0.050851
O O3 0.496906 0.875913 0.230471
O O4 0.351256 0.739104 0.187713
O O5 0.223216 0.956659 0.225185
O O6 0.018485 0.813556 0.356153
O O7 0.716074 0.211628 0.656664
O O8 0.733933 0.145114 0.529647
O O9 0.000000 0.294798 0.500000
O O10 0.378035 0.506140 0.153942
O O11 0.290341 0.307253 0.227833
O O12 0.004974 0.100958 0.778569
O O13 0.721842 0.427022 0.673411
O O14 0.094529 0.290227 0.595270
O O15 0.596270 0.585674 0.633105
O O16 0.000000 0.680095 0.500000
#
# Coordination Sequence:
#
# PCOD9125176 Si02
#       8
#     2   4   4   4   4   4   4   4
#     4  10  22  40  64  98 130 154 200 264 314 376
#     4  10  21  40  63  90 125 166 214 259 303 367
#     4   9  19  34  57  88 122 161 208 257 304 351
#     4  10  21  40  66  94 124 164 210 254 315 380
#     4  10  22  42  65  91 126 163 201 253 317 382
#     4   9  20  39  59  84 121 163 208 253 306 373
#     4  11  20  34  59  87 119 161 209 262 310 354
#     4  10  22  38  62  88 119 166 207 249 317 375
#
# _framework density 20.823184000000001
#
# number of rings (size 3 to 8) (size 9 to 14) (size 15 to 20)
#    0.000    2.133    0.000    3.200    0.000    9.600 
#    0.000    5.333    0.000   22.400    0.000    0.000 
#    0.000    0.000    0.000    0.000    0.000    0.000 
#
# Total GULP energy -83535.667819 kJ/mol
# GULP energy per Si atom -5569.044521 kJ/mol
# Density = 2.077579 g / cm^3
# Si number density = 20.823184 Si / 1000 Ang^3
#
#
#
# Elastic Constant Matrix: (Units=GPa)
#
#
# Indices 1 2 3 4 5 6 
#
# 1 114.9665 56.7896 62.3485 0.0001 -11.0700 0.0002
# 2 56.7896 58.5390 37.2229 0.0000 -2.1385 0.0000
# 3 62.3485 37.2229 96.5372 0.0011 -14.3158 0.0007
# 4 0.0001 0.0000 0.0011 16.6599 -0.0004 -14.1922
# 5 -11.0700 -2.1385 -14.3158 -0.0004 36.6492 -0.0002
# 6 0.0002 0.0000 0.0007 -14.1922 -0.0002 18.8333
#
#
#
# Elastic Compliance Matrix: (Units=1/GPa)
#
#
# Indices 1 2 3 4 5 6 
#
# 1 0.020048 -0.015053 -0.006768 0.000001 0.002533 0.000001
# 2 -0.015053 0.034104 -0.004041 0.000001 -0.004135 0.000001
# 3 -0.006768 -0.004041 0.016931 -0.000004 0.004333 -0.000003
# 4 0.000001 0.000001 -0.000004 0.167643 0.000002 0.126331
# 5 0.002533 -0.004135 0.004333 0.000002 0.029502 0.000001
# 6 0.000001 0.000001 -0.000003 0.126331 0.000001 0.148297
#
#
# Mechanical properties :
#
#
# Convention : Reuss Voigt Hill
#
# Bulk Modulus (GPa) = 51.65724 64.75162 58.20443
# Shear Modulus (GPa) = 10.53286 22.00724 16.27005
#
# Velocity S-wave (km/s) = 2.25149 3.25447 2.79828
# Velocity P-wave (km/s) = 5.62320 6.72945 6.20104
#
# Compressibility (1/GPa) = 0.01935837
#
# Stress axis : x y z
#
# Youngs Moduli (GPa) = 49.87920 29.32171 59.06342
#
# Poissons Ratio (x) = 0.44138 0.39977
# Poissons Ratio (y) = 0.75083 0.23869
# Poissons Ratio (z) = 0.33760 0.11850
#
# Static dielectric constant tensor:
#      x y z
#    x 1.789930 0.000000 0.020400 
#    y 0.000000 1.790660 0.000000 
#    z 0.020400 0.000000 1.791800 
# 
# From -- ./inp_files/67950.got.cif
#   From: 2010.05.17/outbox.cif.g08.bks.cpg/sg5_34_cif.got.tgz:67950.got - 2010.06.03 18:56:24.
