data_PCOD9125047
_publ_section_title
;
Structure prediction by ZEFSAII (Michael W. Deem and Ramdas Pophale) SiO2 
 PCOD9125047
Probable space group: C 2
;
_chemical_formula_sum "Si O2"
_cell_formula_units_Z 28
_cell_length_a 22.451597
_cell_length_b 10.902174
_cell_length_c 8.972244
_cell_angle_alpha 90.000000
_cell_angle_beta 29.541750
_cell_angle_gamma 90.000000
_cell_volume 1082.827089
_symmetry_space_group_name_H-M "C 2"
_symmetry_group_IT_number 5
_symmetry_cell_setting 'monoclinic'
loop_
_space_group_symop_operation_xyz
x,y,z
-x,y,-z
1/2+x,1/2+y,z
1/2-x,1/2+y,-z
loop_
_atom_site_type_symbol
_atom_site_label
_atom_site_fract_x
_atom_site_fract_y
_atom_site_fract_z
Si Si1 0.031144 0.680110 0.714144
Si Si2 0.069789 0.931546 0.141049
Si Si3 0.583249 0.939259 0.171760
Si Si4 0.386939 0.527905 0.349065
Si Si5 0.709426 0.023840 0.495552
Si Si6 0.105591 0.287458 0.557106
Si Si7 0.708363 0.319376 0.109045
O O1 0.117660 0.635222 0.662209
O O2 0.945187 0.799204 0.910841
O O3 0.949611 0.565404 0.841319
O O4 0.127947 0.720633 0.374289
O O5 0.165915 0.030074 0.869221
O O6 0.120824 0.893440 0.188932
O O7 0.938655 0.988399 0.396494
O O8 0.500000 0.950424 0.500000
O O9 0.528050 0.823329 0.203758
O O10 0.713120 0.903252 0.951080
O O11 0.261712 0.490724 0.544575
O O12 0.382478 0.673204 0.362962
O O13 0.500000 0.487768 0.000000
O O14 0.648177 0.906558 0.554257
O O15 0.192076 0.266394 0.225105
#
# Coordination Sequence:
#
# PCOD9125047 Si02
#       7
#     4   4   4   4   4   4   4
#     4  11  22  42  67  95 131 171 211 264 329 391
#     4  10  22  39  59 100 121 166 216 257 323 388
#     4   9  19  38  61  89 132 164 199 260 318 384
#     4  10  22  41  65  88 128 168 214 280 313 376
#     4   9  22  42  69  86 129 173 211 272 324 367
#     4   9  20  41  62  95 124 166 216 262 328 384
#     4  10  21  39  65  96 129 169 209 260 334 397
#
# _framework density 25.858236999999999
#
# number of rings (size 3 to 8) (size 9 to 14) (size 15 to 20)
#    0.000    2.286    0.000    2.143    6.000    0.000 
#   18.000    0.000    9.429    0.000    0.000    0.000 
#    0.000    0.000    0.000    0.000    0.000    0.000 
#
# Total GULP energy -78218.161930 kJ/mol
# GULP energy per Si atom -5587.011566 kJ/mol
# Density = 2.579938 g / cm^3
# Si number density = 25.858237 Si / 1000 Ang^3
#
#
#
# Elastic Constant Matrix: (Units=GPa)
#
#
# Indices 1 2 3 4 5 6 
#
# 1 154.6723 20.3132 53.7441 0.0000 -38.0759 0.0000
# 2 20.3132 52.4461 25.5519 0.0000 0.5549 0.0000
# 3 53.7441 25.5519 148.5548 0.0000 -34.0616 0.0000
# 4 0.0000 0.0000 0.0000 28.5951 0.0000 -0.6451
# 5 -38.0759 0.5549 -34.0616 0.0000 47.4494 0.0000
# 6 0.0000 0.0000 0.0000 -0.6451 0.0000 44.7973
#
#
#
# Elastic Compliance Matrix: (Units=1/GPa)
#
#
# Indices 1 2 3 4 5 6 
#
# 1 0.008806 -0.002854 -0.001277 0.000000 0.006183 0.000000
# 2 -0.002854 0.022195 -0.004034 0.000000 -0.005445 0.000000
# 3 -0.001277 -0.004034 0.009173 0.000000 0.005607 0.000000
# 4 0.000000 0.000000 0.000000 0.034982 0.000000 0.000504
# 5 0.006183 -0.005445 0.005607 0.000000 0.030125 0.000000
# 6 0.000000 0.000000 0.000000 0.000504 0.000000 0.022330
#
#
# Mechanical properties :
#
#
# Convention : Reuss Voigt Hill
#
# Bulk Modulus (GPa) = 41.93808 61.65463 51.79636
# Shear Modulus (GPa) = 32.91860 41.23931 37.07896
#
# Velocity S-wave (km/s) = 3.57184 3.99786 3.79084
# Velocity P-wave (km/s) = 5.76753 6.72351 6.26378
#
# Compressibility (1/GPa) = 0.02384468
#
# Stress axis : x y z
#
# Youngs Moduli (GPa) = 113.55998 45.05446 109.01472
#
# Poissons Ratio (x) = 0.12858 0.13925
# Poissons Ratio (y) = 0.32407 0.43974
# Poissons Ratio (z) = 0.14505 0.18174
#
# Static dielectric constant tensor:
#      x y z
#    x 2.122330 0.000000 0.066510 
#    y 0.000000 2.005200 0.000000 
#    z 0.066510 0.000000 2.105960 
# 
# From -- ./inp_files/47434.got.cif
#   From: 2010.05.17/outbox.cif.g08.bks.cpg/sg5_24_cif.got.tgz:47434.got - 2010.06.03 18:56:24.
