data_PCOD9125699
_publ_section_title
;
Structure prediction by ZEFSAII (Michael W. Deem and Ramdas Pophale) SiO2 
 PCOD9125699
Probable space group: C 2
;
_chemical_formula_sum "Si O2"
_cell_formula_units_Z 20
_cell_length_a 12.672735
_cell_length_b 7.329892
_cell_length_c 10.836530
_cell_angle_alpha 90.000000
_cell_angle_beta 120.797071
_cell_angle_gamma 90.000000
_cell_volume 864.657850
_symmetry_space_group_name_H-M "C 2"
_symmetry_group_IT_number 5
_symmetry_cell_setting 'monoclinic'
loop_
_space_group_symop_operation_xyz
x,y,z
-x,y,-z
1/2+x,1/2+y,z
1/2-x,1/2+y,-z
loop_
_atom_site_type_symbol
_atom_site_label
_atom_site_fract_x
_atom_site_fract_y
_atom_site_fract_z
Si Si1 0.441374 0.828760 0.592145
Si Si2 0.531718 0.379533 0.148900
Si Si3 0.674015 0.336113 0.806826
Si Si4 0.865595 0.204432 0.124012
Si Si5 0.248430 0.088439 0.371717
O O1 0.500000 0.760658 0.500000
O O2 0.552561 0.850684 0.755453
O O3 0.348398 0.682538 0.594886
O O4 0.362631 0.004961 0.511622
O O5 0.463100 0.293631 0.225383
O O6 0.458008 0.574332 0.101537
O O7 0.672500 0.426718 0.257633
O O8 0.500000 0.286480 0.000000
O O9 0.684314 0.556001 0.807282
O O10 0.709255 0.232946 0.704990
O O11 0.763805 0.280378 0.972826
#
# Coordination Sequence:
#
# PCOD9125699 Si02
#       5
#     4   4   4   4   4
#     4  11  28  44  67 105 144 183 236 285 346 431
#     4   9  19  39  71 100 137 170 234 287 337 413
#     4  10  21  42  79 101 137 187 232 294 344 415
#     4   9  22  42  72 104 141 176 238 287 344 415
#     4  11  24  47  70  98 148 185 226 292 356 401
#
# _framework density 23.130535999999999
#
# number of rings (size 3 to 8) (size 9 to 14) (size 15 to 20)
#    1.200    0.800    2.000    0.000    8.400    1.600 
#    0.000    2.000    0.000    0.000    0.000    0.000 
#    0.000    0.000    0.000    0.000    0.000    0.000 
#
# Total GULP energy -55846.179569 kJ/mol
# GULP energy per Si atom -5584.617957 kJ/mol
# Density = 2.307789 g / cm^3
# Si number density = 23.130536 Si / 1000 Ang^3
#
#
#
# Elastic Constant Matrix: (Units=GPa)
#
#
# Indices 1 2 3 4 5 6 
#
# 1 129.3922 36.4438 22.9207 0.0000 -19.2733 0.0000
# 2 36.4438 74.8288 52.6621 0.0000 10.0913 0.0000
# 3 22.9207 52.6621 81.9269 0.0000 15.0126 0.0000
# 4 0.0000 0.0000 0.0000 30.6073 0.0000 10.2583
# 5 -19.2733 10.0913 15.0126 0.0000 32.3985 0.0000
# 6 0.0000 0.0000 0.0000 10.2583 0.0000 22.1262
#
#
#
# Elastic Compliance Matrix: (Units=1/GPa)
#
#
# Indices 1 2 3 4 5 6 
#
# 1 0.010809 -0.005820 -0.000867 0.000000 0.008644 0.000000
# 2 -0.005820 0.027541 -0.015155 0.000000 -0.005018 0.000000
# 3 -0.000867 -0.015155 0.023407 0.000000 -0.006642 0.000000
# 4 0.000000 0.000000 0.000000 0.038683 0.000000 -0.017934
# 5 0.008644 -0.005018 -0.006642 0.000000 0.040649 0.000000
# 6 0.000000 0.000000 0.000000 -0.017934 0.000000 0.053510
#
#
# Mechanical properties :
#
#
# Convention : Reuss Voigt Hill
#
# Bulk Modulus (GPa) = 55.33263 56.68900 56.01081
# Shear Modulus (GPa) = 20.46605 28.63449 24.55027
#
# Velocity S-wave (km/s) = 2.97780 3.52227 3.26142
# Velocity P-wave (km/s) = 5.98305 6.41119 6.20081
#
# Compressibility (1/GPa) = 0.01807252
#
# Stress axis : x y z
#
# Youngs Moduli (GPa) = 92.51720 36.30988 42.72146
#
# Poissons Ratio (x) = 0.21131 0.03705
# Poissons Ratio (y) = 0.53842 0.64746
# Poissons Ratio (z) = 0.08023 0.55029
#
# Static dielectric constant tensor:
#      x y z
#    x 1.902530 0.000000 0.010540 
#    y 0.000000 1.871660 0.000000 
#    z 0.010540 0.000000 1.853090 
# 
# From -- ./inp_files/38480.got.cif
#   From: 2010.05.17/outbox.cif.g08.bks.cpg/sg5_20_cif.got.tgz:38480.got - 2010.06.03 18:56:24.
