data_PCOD9125868
_publ_section_title
;
Structure prediction by ZEFSAII (Michael W. Deem and Ramdas Pophale) SiO2 
 PCOD9125868
Probable space group: C 2
;
_chemical_formula_sum "Si O2"
_cell_formula_units_Z 16
_cell_length_a 26.158959
_cell_length_b 5.146677
_cell_length_c 9.468287
_cell_angle_alpha 90.000000
_cell_angle_beta 27.385659
_cell_angle_gamma 90.000000
_cell_volume 586.347965
_symmetry_space_group_name_H-M "C 2"
_symmetry_group_IT_number 5
_symmetry_cell_setting 'monoclinic'
loop_
_space_group_symop_operation_xyz
x,y,z
-x,y,-z
1/2+x,1/2+y,z
1/2-x,1/2+y,-z
loop_
_atom_site_type_symbol
_atom_site_label
_atom_site_fract_x
_atom_site_fract_y
_atom_site_fract_z
Si Si1 0.074926 0.188370 0.529468
Si Si2 0.872853 0.685640 0.766991
Si Si3 0.620633 0.381520 0.682688
Si Si4 0.176106 0.025608 0.864547
O O1 0.135161 0.430514 0.309495
O O2 0.131475 0.939207 0.319603
O O3 0.088842 0.126197 0.661081
O O4 0.942495 0.172345 0.816837
O O5 0.000000 0.666651 0.500000
O O6 0.817278 0.772463 0.051058
O O7 0.716721 0.204754 0.380437
O O8 0.665758 0.450310 0.726318
O O9 0.500000 0.243820 0.000000
#
# Coordination Sequence:
#
# PCOD9125868 Si02
#       4
#     4   4   4   4
#     4  10  23  46  77 114 154 201 265 328 389 469
#     4  10  21  44  77 112 152 202 260 325 394 464
#     4  10  24  47  77 120 162 210 268 325 395 481
#     4  10  23  45  79 116 163 213 261 330 403 468
#
# _framework density 27.28755
#
# number of rings (size 3 to 8) (size 9 to 14) (size 15 to 20)
#    0.000    2.000    0.000    2.250    0.000   10.000 
#    0.000   25.000    0.000    3.000    0.000    0.000 
#    0.000    0.000    0.000    0.000    0.000    0.000 
#
# Total GULP energy -44809.665254 kJ/mol
# GULP energy per Si atom -5601.208157 kJ/mol
# Density = 2.722544 g / cm^3
# Si number density = 27.287550 Si / 1000 Ang^3
#
#
#
# Elastic Constant Matrix: (Units=GPa)
#
#
# Indices 1 2 3 4 5 6 
#
# 1 196.3306 87.1795 63.2588 0.0000 27.1937 0.0000
# 2 87.1795 225.1659 86.0577 0.0000 20.9754 0.0000
# 3 63.2588 86.0577 203.4791 0.0000 -38.8711 0.0000
# 4 0.0000 0.0000 0.0000 48.4015 0.0000 12.0747
# 5 27.1937 20.9754 -38.8711 0.0000 67.1913 0.0000
# 6 0.0000 0.0000 0.0000 12.0747 0.0000 0.8090
#
#
#
# Elastic Compliance Matrix: (Units=1/GPa)
#
#
# Indices 1 2 3 4 5 6 
#
# 1 0.006989 -0.001515 -0.002228 0.000000 -0.003645 0.000000
# 2 -0.001515 0.006376 -0.002798 0.000000 -0.002996 0.000000
# 3 -0.002228 -0.002798 0.008016 0.000000 0.006413 0.000000
# 4 0.000000 0.000000 0.000000 -0.007586 0.000000 0.113225
# 5 -0.003645 -0.002996 0.006413 0.000000 0.021003 0.000000
# 6 0.000000 0.000000 0.000000 0.113225 0.000000 -0.453863
#
#
# Mechanical properties :
#
#
# Convention : Reuss Voigt Hill
#
# Bulk Modulus (GPa) = 120.50748 121.99642 121.25195
# Shear Modulus (GPa) = -12.40031 49.17898 18.38933
#
# Velocity S-wave (km/s) = -2.13405 4.24990 2.59879
# Velocity P-wave (km/s) = 6.17946 8.29982 7.31685
#
# Compressibility (1/GPa) = 0.00829824
#
# Stress axis : x y z
#
# Youngs Moduli (GPa) = 143.08375 156.83305 124.75443
#
# Poissons Ratio (x) = 0.23756 0.27801
# Poissons Ratio (y) = 0.21673 0.34908
# Poissons Ratio (z) = 0.31885 0.43885
#
# Static dielectric constant tensor:
#      x y z
#    x 2.114230 0.000000 0.040390 
#    y 0.000000 2.207460 0.000000 
#    z 0.040390 0.000000 2.257810 
# 
# From -- ./inp_files/31332.got.cif
#   From: 2010.05.17/outbox.cif.g08.bks.cpg/sg5_16_cif.got.tgz:31332.got - 2010.06.03 18:56:24.
