data_PCOD9125544
_publ_section_title
;
Structure prediction by ZEFSAII (Michael W. Deem and Ramdas Pophale) SiO2 
 PCOD9125544
Probable space group: C 2
;
_chemical_formula_sum "Si O2"
_cell_formula_units_Z 24
_cell_length_a 25.492924
_cell_length_b 8.213180
_cell_length_c 9.436699
_cell_angle_alpha 90.000000
_cell_angle_beta 33.606411
_cell_angle_gamma 90.000000
_cell_volume 1093.595588
_symmetry_space_group_name_H-M "C 2"
_symmetry_group_IT_number 5
_symmetry_cell_setting 'monoclinic'
loop_
_space_group_symop_operation_xyz
x,y,z
-x,y,-z
1/2+x,1/2+y,z
1/2-x,1/2+y,-z
loop_
_atom_site_type_symbol
_atom_site_label
_atom_site_fract_x
_atom_site_fract_y
_atom_site_fract_z
Si Si1 0.702664 0.687990 0.730992
Si Si2 0.973395 0.716202 0.896442
Si Si3 0.155255 0.555124 0.381125
Si Si4 0.264415 0.271843 0.042829
Si Si5 0.234624 0.567496 0.688085
Si Si6 0.934366 0.000209 0.778660
O O1 0.784896 0.568526 0.608033
O O2 0.692165 0.640604 0.590631
O O3 0.732374 0.874190 0.679273
O O4 0.612257 0.647190 0.030230
O O5 0.982266 0.881674 0.786176
O O6 0.047589 0.592550 0.658372
O O7 0.867530 0.645990 0.121634
O O8 0.000000 0.741034 0.000000
O O9 0.173692 0.388233 0.256670
O O10 0.203062 0.694653 0.176614
O O11 0.247292 0.128093 0.193926
O O12 0.349896 0.388080 0.903750
O O13 0.000000 0.046909 0.500000
#
# Coordination Sequence:
#
# PCOD9125544 Si02
#       6
#     4   4   4   4   4   4
#     4  11  23  41  64  88 125 165 211 256 309 375
#     4  11  22  39  66  89 125 160 206 259 315 363
#     4  11  21  40  63  92 121 165 210 255 306 368
#     4  10  22  39  65  89 125 163 206 253 311 372
#     4  11  23  42  62  91 123 166 209 256 315 369
#     4  10  21  42  62  90 125 166 203 249 317 373
#
# _framework density 21.945955000000001
#
# number of rings (size 3 to 8) (size 9 to 14) (size 15 to 20)
#    0.000    1.333    3.333    4.000    0.000    0.000 
#    9.000    0.833    0.000    0.000    0.000    0.000 
#    0.000    0.000    0.000    0.000    0.000    0.000 
#
# Total GULP energy -67105.503280 kJ/mol
# GULP energy per Si atom -5592.125273 kJ/mol
# Density = 2.189600 g / cm^3
# Si number density = 21.945955 Si / 1000 Ang^3
#
#
#
# Elastic Constant Matrix: (Units=GPa)
#
#
# Indices 1 2 3 4 5 6 
#
# 1 35.6334 -7.1187 12.2127 0.0000 13.8819 0.0000
# 2 -7.1187 77.1116 38.7928 0.0000 4.2930 0.0000
# 3 12.2127 38.7928 158.3390 0.0000 22.4925 0.0000
# 4 0.0000 0.0000 0.0000 37.9294 0.0000 3.4466
# 5 13.8819 4.2930 22.4925 0.0000 26.5418 0.0000
# 6 0.0000 0.0000 0.0000 3.4466 0.0000 20.8476
#
#
#
# Elastic Compliance Matrix: (Units=1/GPa)
#
#
# Indices 1 2 3 4 5 6 
#
# 1 0.036980 0.005189 -0.001429 0.000000 -0.018970 0.000000
# 2 0.005189 0.015533 -0.003937 0.000000 -0.001890 0.000000
# 3 -0.001429 -0.003937 0.008178 0.000000 -0.005546 0.000000
# 4 0.000000 0.000000 0.000000 0.026767 0.000000 -0.004425
# 5 -0.018970 -0.001890 -0.005546 0.000000 0.052604 0.000000
# 6 0.000000 0.000000 0.000000 -0.004425 0.000000 0.048699
#
#
# Mechanical properties :
#
#
# Convention : Reuss Voigt Hill
#
# Bulk Modulus (GPa) = 16.57368 39.87307 28.22338
# Shear Modulus (GPa) = 23.89735 32.21024 28.05379
#
# Velocity S-wave (km/s) = 3.30346 3.83522 3.57923
# Velocity P-wave (km/s) = 4.70307 6.14981 5.47444
#
# Compressibility (1/GPa) = 0.06033662
#
# Stress axis : x y z
#
# Youngs Moduli (GPa) = 27.04167 64.37808 122.27450
#
# Poissons Ratio (x) = -0.33404 0.17471
# Poissons Ratio (y) = -0.14031 0.48145
# Poissons Ratio (z) = 0.03864 0.25348
#
# Static dielectric constant tensor:
#      x y z
#    x 1.821170 0.000000 -0.014700 
#    y 0.000000 1.782350 0.000000 
#    z -0.014700 0.000000 1.790490 
# 
# From -- ./inp_files/22806.got.cif
#   From: 2010.05.17/outbox.cif.g08.bks.cpg/sg5_12_cif.got.tgz:22806.got - 2010.06.03 18:56:24.
