data_PCOD9125706
_publ_section_title
;
Structure prediction by ZEFSAII (Michael W. Deem and Ramdas Pophale) SiO2 
 PCOD9125706
Probable space group: C 2
;
_chemical_formula_sum "Si O2"
_cell_formula_units_Z 24
_cell_length_a 12.323688
_cell_length_b 8.502387
_cell_length_c 13.068982
_cell_angle_alpha 90.000000
_cell_angle_beta 45.791237
_cell_angle_gamma 90.000000
_cell_volume 981.575538
_symmetry_space_group_name_H-M "C 2"
_symmetry_group_IT_number 5
_symmetry_cell_setting 'monoclinic'
loop_
_space_group_symop_operation_xyz
x,y,z
-x,y,-z
1/2+x,1/2+y,z
1/2-x,1/2+y,-z
loop_
_atom_site_type_symbol
_atom_site_label
_atom_site_fract_x
_atom_site_fract_y
_atom_site_fract_z
Si Si1 0.463922 0.722600 0.812444
Si Si2 0.126976 0.974064 0.851028
Si Si3 0.192501 0.725073 0.133919
Si Si4 0.512900 0.477982 0.369111
Si Si5 0.605688 0.030676 0.666179
Si Si6 0.268576 0.834208 0.572960
O O1 0.533254 0.581584 0.833195
O O2 0.578686 0.869235 0.745427
O O3 0.460861 0.648342 0.701009
O O4 0.300932 0.766541 0.966981
O O5 0.218867 0.093877 0.860043
O O6 0.368092 0.389611 0.413218
O O7 0.234828 0.871071 0.711806
O O8 0.151589 0.872484 0.232502
O O9 0.500000 0.385232 0.000000
O O10 0.500000 0.472171 0.500000
O O11 0.535032 0.140365 0.210176
O O12 0.604367 0.954662 0.552653
O O13 0.750441 0.145737 0.578891
#
# Coordination Sequence:
#
# PCOD9125706 Si02
#       6
#     4   4   4   4   4   4
#     4  10  21  43  63  92 133 174 215 268 331 393
#     4   9  20  40  65  93 131 173 214 264 329 399
#     4  10  22  39  68  96 129 173 217 267 334 399
#     4  10  22  38  66  93 129 168 218 272 325 398
#     4  11  23  41  67  90 131 175 220 267 328 386
#     4  10  22  40  62  91 133 173 213 268 332 379
#
# _framework density 24.450489000000001
#
# number of rings (size 3 to 8) (size 9 to 14) (size 15 to 20)
#    0.000    2.000    0.000    3.000    7.000    1.333 
#    6.000    2.500    0.000    0.000    0.000    0.000 
#    0.000    0.000    0.000    0.000    0.000    0.000 
#
# Total GULP energy -66957.822331 kJ/mol
# GULP energy per Si atom -5579.818528 kJ/mol
# Density = 2.439484 g / cm^3
# Si number density = 24.450489 Si / 1000 Ang^3
#
#
#
# Elastic Constant Matrix: (Units=GPa)
#
#
# Indices 1 2 3 4 5 6 
#
# 1 56.6704 -4.1485 8.0494 0.0000 1.6177 0.0000
# 2 -4.1485 125.2966 41.5079 0.0000 8.7853 0.0000
# 3 8.0494 41.5079 147.5017 0.0000 5.8434 0.0000
# 4 0.0000 0.0000 0.0000 27.4054 0.0000 -10.9026
# 5 1.6177 8.7853 5.8434 0.0000 26.2669 0.0000
# 6 0.0000 0.0000 0.0000 -10.9026 0.0000 20.4623
#
#
#
# Elastic Compliance Matrix: (Units=1/GPa)
#
#
# Indices 1 2 3 4 5 6 
#
# 1 0.017935 0.001087 -0.001238 0.000000 -0.001193 0.000000
# 2 0.001087 0.009022 -0.002498 0.000000 -0.002529 0.000000
# 3 -0.001238 -0.002498 0.007581 0.000000 -0.000775 0.000000
# 4 0.000000 0.000000 0.000000 0.046304 0.000000 0.024671
# 5 -0.001193 -0.002529 -0.000775 0.000000 0.039162 0.000000
# 6 0.000000 0.000000 0.000000 0.024671 0.000000 0.062015
#
#
# Mechanical properties :
#
#
# Convention : Reuss Voigt Hill
#
# Bulk Modulus (GPa) = 34.19753 46.69848 40.44801
# Shear Modulus (GPa) = 25.37255 33.76424 29.56839
#
# Velocity S-wave (km/s) = 3.22485 3.72011 3.48130
# Velocity P-wave (km/s) = 5.28043 6.13131 5.72171
#
# Compressibility (1/GPa) = 0.02924188
#
# Stress axis : x y z
#
# Youngs Moduli (GPa) = 55.75583 110.84141 131.91294
#
# Poissons Ratio (x) = -0.12053 0.16324
# Poissons Ratio (y) = -0.06063 0.32952
# Poissons Ratio (z) = 0.06900 0.27688
#
# Static dielectric constant tensor:
#      x y z
#    x 1.977640 0.000000 -0.086930 
#    y 0.000000 1.937850 0.000000 
#    z -0.086930 0.000000 2.074010 
# 
# From -- ./inp_files/62665.got.cif
#   From: 2010.05.17/outbox.cif.g08.bks.cpg/sg5_32_cif.got.tgz:62665.got - 2010.06.03 18:56:24.
