data_PCOD9125659
_publ_section_title
;
Structure prediction by ZEFSAII (Michael W. Deem and Ramdas Pophale) SiO2 
 PCOD9125659
Probable space group: C 2
;
_chemical_formula_sum "Si O2"
_cell_formula_units_Z 30
_cell_length_a 8.109651
_cell_length_b 21.769785
_cell_length_c 9.168516
_cell_angle_alpha 90.000000
_cell_angle_beta 117.044411
_cell_angle_gamma 90.000000
_cell_volume 1441.665648
_symmetry_space_group_name_H-M "C 2"
_symmetry_group_IT_number 5
_symmetry_cell_setting 'monoclinic'
loop_
_space_group_symop_operation_xyz
x,y,z
-x,y,-z
1/2+x,1/2+y,z
1/2-x,1/2+y,-z
loop_
_atom_site_type_symbol
_atom_site_label
_atom_site_fract_x
_atom_site_fract_y
_atom_site_fract_z
Si Si1 0.394420 0.924240 0.104713
Si Si2 0.204972 0.706096 0.545562
Si Si3 0.286592 0.249098 0.784060
Si Si4 0.500000 0.356064 0.000000
Si Si5 0.700673 0.536409 0.154490
Si Si6 0.437996 0.798433 0.803191
Si Si7 0.453818 0.585919 0.643779
Si Si8 0.303748 0.124474 0.964805
O O1 0.185324 0.892014 0.017039
O O2 0.536770 0.871117 0.214084
O O3 0.349776 0.985388 0.175095
O O4 0.500000 0.943317 0.000000
O O5 0.206435 0.725332 0.376684
O O6 0.257358 0.760962 0.680414
O O7 0.352034 0.651276 0.612042
O O8 0.000000 0.683524 0.500000
O O9 0.312526 0.195090 0.916046
O O10 0.086055 0.271770 0.749737
O O11 0.422304 0.307461 0.850850
O O12 0.669381 0.539716 0.313182
O O13 0.500000 0.521641 0.000000
O O14 0.757248 0.603182 0.110159
O O15 0.500000 0.788950 0.000000
O O16 0.500000 0.567899 0.500000
O O17 0.644817 0.593953 0.805713
O O18 0.500000 0.097667 0.000000
#
# Coordination Sequence:
#
# PCOD9125659 Si02
#       8
#     4   4   4   2   4   4   4   4
#     4  10  21  42  69  99 132 170 233 291 329 391
#     4  12  26  39  63  99 148 177 214 273 351 413
#     4  11  22  38  63  95 141 170 210 275 335 409
#     4  10  22  38  70 102 128 174 232 270 350 400
#     4  10  23  40  67  99 132 176 231 281 331 404
#     4  10  23  40  69  97 131 175 225 276 333 404
#     4  11  23  42  61  97 142 179 214 279 345 406
#     4  11  22  37  66  96 128 178 223 269 332 401
#
# _framework density 20.809262
#
# number of rings (size 3 to 8) (size 9 to 14) (size 15 to 20)
#    0.000    1.333    4.000    0.800    9.333    0.000 
#    0.000    0.000    0.000   35.200    0.000    0.000 
#    0.000    0.000    0.000    0.000    0.000    0.000 
#
# Total GULP energy -83554.361207 kJ/mol
# GULP energy per Si atom -5570.290747 kJ/mol
# Density = 2.076190 g / cm^3
# Si number density = 20.809262 Si / 1000 Ang^3
#
#
#
# Elastic Constant Matrix: (Units=GPa)
#
#
# Indices 1 2 3 4 5 6 
#
# 1 112.1315 35.0001 52.3989 0.0000 -25.9281 0.0000
# 2 35.0001 86.7627 28.6492 0.0000 -21.0575 0.0000
# 3 52.3989 28.6492 47.7743 0.0000 -21.8763 0.0000
# 4 0.0000 0.0000 0.0000 -13.3103 0.0000 -40.4488
# 5 -25.9281 -21.0575 -21.8763 0.0000 42.1007 0.0000
# 6 0.0000 0.0000 0.0000 -40.4488 0.0000 -6.5070
#
#
#
# Elastic Compliance Matrix: (Units=1/GPa)
#
#
# Indices 1 2 3 4 5 6 
#
# 1 0.018382 -0.000842 -0.019244 0.000000 0.000900 0.000000
# 2 -0.000842 0.014828 -0.006311 0.000000 0.003618 0.000000
# 3 -0.019244 -0.006311 0.051112 0.000000 0.011551 0.000000
# 4 0.000000 0.000000 0.000000 0.004199 0.000000 -0.026105
# 5 0.000900 0.003618 0.011551 0.000000 0.032118 0.000000
# 6 0.000000 0.000000 0.000000 -0.026105 0.000000 0.008590
#
#
# Mechanical properties :
#
#
# Convention : Reuss Voigt Hill
#
# Bulk Modulus (GPa) = 31.71894 53.19607 42.45750
# Shear Modulus (GPa) = 25.96953 13.16470 19.56711
#
# Velocity S-wave (km/s) = 3.53651 2.51796 3.06977
# Velocity P-wave (km/s) = 5.65258 5.83717 5.74562
#
# Compressibility (1/GPa) = 0.03152691
#
# Stress axis : x y z
#
# Youngs Moduli (GPa) = 54.40169 67.44190 19.56475
#
# Poissons Ratio (x) = 0.05682 0.37650
# Poissons Ratio (y) = 0.04583 0.12347
# Poissons Ratio (z) = 1.04690 0.42562
#
# Static dielectric constant tensor:
#      x y z
#    x 1.799730 0.000000 0.031830 
#    y 0.000000 1.792520 0.000000 
#    z 0.031830 0.000000 1.777020 
# 
# From -- ./inp_files/17323.got.cif
#   From: 2010.05.17/outbox.cif.g08.bks.cpg/sg5_9_cif.got.tgz:17323.got - 2010.06.03 18:56:24.
