data_PCOD9125946
_publ_section_title
;
Structure prediction by ZEFSAII (Michael W. Deem and Ramdas Pophale) SiO2 
 PCOD9125946
Probable space group: C 2
;
_chemical_formula_sum "Si O2"
_cell_formula_units_Z 28
_cell_length_a 29.348198
_cell_length_b 9.143956
_cell_length_c 5.115536
_cell_angle_alpha 90.000000
_cell_angle_beta 68.502668
_cell_angle_gamma 90.000000
_cell_volume 1277.299026
_symmetry_space_group_name_H-M "C 2"
_symmetry_group_IT_number 5
_symmetry_cell_setting 'monoclinic'
loop_
_space_group_symop_operation_xyz
x,y,z
-x,y,-z
1/2+x,1/2+y,z
1/2-x,1/2+y,-z
loop_
_atom_site_type_symbol
_atom_site_label
_atom_site_fract_x
_atom_site_fract_y
_atom_site_fract_z
Si Si1 0.461183 0.664820 0.885758
Si Si2 0.300392 0.268345 0.973077
Si Si3 0.860847 0.766060 0.348832
Si Si4 0.959772 0.660736 0.890345
Si Si5 0.300459 0.618745 0.973224
Si Si6 0.500000 0.933388 0.500000
Si Si7 0.860923 0.117851 0.349840
Si Si8 0.500000 0.432814 0.500000
O O1 0.486637 0.814110 0.747358
O O2 0.456934 0.554080 0.645471
O O3 0.500000 0.589842 0.000000
O O4 0.410693 0.687291 0.139598
O O5 0.342434 0.226452 0.675570
O O6 0.294674 0.443542 0.965930
O O7 0.318488 0.233295 0.226255
O O8 0.250067 0.193535 0.998137
O O9 0.869137 0.941856 0.327372
O O10 0.909677 0.689753 0.143949
O O11 0.956764 0.552063 0.647534
O O12 0.983565 0.813678 0.749280
O O13 0.000000 0.593153 0.000000
O O14 0.341975 0.661504 0.674366
O O15 0.318974 0.652538 0.225037
#
# Coordination Sequence:
#
# PCOD9125946 Si02
#       8
#     4   4   4   4   4   2   4   2
#     4  11  23  40  62  91 130 168 209 260 313 375
#     4  10  22  42  63  90 122 156 203 260 314 372
#     4  10  22  38  66  92 121 160 208 256 312 371
#     4  11  23  40  62  91 130 168 209 260 313 375
#     4  10  22  42  63  90 122 156 203 260 314 372
#     4  10  26  42  56  84 138 172 210 254 318 370
#     4  10  22  38  66  92 121 160 208 256 312 371
#     4  10  22  34  68  92 122 160 218 250 314 366
#
# _framework density 21.921254999999999
#
# number of rings (size 3 to 8) (size 9 to 14) (size 15 to 20)
#    0.000    1.714    1.429    1.714    8.000    0.000 
#    5.143    0.000    0.000    0.000    0.000    0.000 
#    0.000    0.000    0.000    0.000    0.000    0.000 
#
# Total GULP energy -78027.479898 kJ/mol
# GULP energy per Si atom -5573.391421 kJ/mol
# Density = 2.187136 g / cm^3
# Si number density = 21.921255 Si / 1000 Ang^3
#
#
#
# Elastic Constant Matrix: (Units=GPa)
#
#
# Indices 1 2 3 4 5 6 
#
# 1 52.8711 7.7200 -10.9664 0.0000 -9.6789 0.0000
# 2 7.7200 74.2321 20.6855 0.0000 3.0463 0.0000
# 3 -10.9664 20.6855 71.2196 0.0000 -8.7560 0.0000
# 4 0.0000 0.0000 0.0000 26.9059 0.0000 -3.7865
# 5 -9.6789 3.0463 -8.7560 0.0000 28.2053 0.0000
# 6 0.0000 0.0000 0.0000 -3.7865 0.0000 18.5705
#
#
#
# Elastic Compliance Matrix: (Units=1/GPa)
#
#
# Indices 1 2 3 4 5 6 
#
# 1 0.022670 -0.004454 0.006030 0.000000 0.010132 0.000000
# 2 -0.004454 0.015784 -0.005893 0.000000 -0.005062 0.000000
# 3 0.006030 -0.005893 0.017689 0.000000 0.008197 0.000000
# 4 0.000000 0.000000 0.000000 0.038265 0.000000 0.007802
# 5 0.010132 -0.005062 0.008197 0.000000 0.042023 0.000000
# 6 0.000000 0.000000 0.000000 0.007802 0.000000 0.055440
#
#
# Mechanical properties :
#
#
# Convention : Reuss Voigt Hill
#
# Bulk Modulus (GPa) = 21.04814 25.91120 23.47967
# Shear Modulus (GPa) = 23.11183 26.79526 24.95354
#
# Velocity S-wave (km/s) = 3.25054 3.49999 3.37757
# Velocity P-wave (km/s) = 4.86935 5.30839 5.09360
#
# Compressibility (1/GPa) = 0.04751013
#
# Stress axis : x y z
#
# Youngs Moduli (GPa) = 44.11149 63.35438 56.53280
#
# Poissons Ratio (x) = 0.28216 -0.34089
# Poissons Ratio (y) = 0.19646 0.33313
# Poissons Ratio (z) = -0.26599 0.37333
#
# Static dielectric constant tensor:
#      x y z
#    x 1.797960 0.000000 0.051130 
#    y 0.000000 1.792090 0.000000 
#    z 0.051130 0.000000 1.851040 
# 
# From -- ./inp_files/11122.got.cif
#   From: 2010.05.17/outbox.cif.g08.bks.cpg/sg5_6_cif.got.tgz:11122.got - 2010.06.03 18:56:24.
