data_PCOD9125247
_publ_section_title
;
Structure prediction by ZEFSAII (Michael W. Deem and Ramdas Pophale) SiO2 
 PCOD9125247
Probable space group: C 2
;
_chemical_formula_sum "Si O2"
_cell_formula_units_Z 26
_cell_length_a 12.420491
_cell_length_b 15.955268
_cell_length_c 7.795956
_cell_angle_alpha 90.000000
_cell_angle_beta 137.060843
_cell_angle_gamma 90.000000
_cell_volume 1052.447628
_symmetry_space_group_name_H-M "C 2"
_symmetry_group_IT_number 5
_symmetry_cell_setting 'monoclinic'
loop_
_space_group_symop_operation_xyz
x,y,z
-x,y,-z
1/2+x,1/2+y,z
1/2-x,1/2+y,-z
loop_
_atom_site_type_symbol
_atom_site_label
_atom_site_fract_x
_atom_site_fract_y
_atom_site_fract_z
Si Si1 0.294176 0.379920 0.542783
Si Si2 0.282322 0.000399 0.018195
Si Si3 0.326099 0.843524 0.229528
Si Si4 0.610257 0.199778 0.365260
Si Si5 0.679868 0.553651 0.262782
Si Si6 0.768986 0.666383 0.882584
Si Si7 0.500000 0.935949 0.000000
O O1 0.279731 0.355048 0.725919
O O2 0.389216 0.298751 0.589006
O O3 0.330562 0.480003 0.602934
O O4 0.132364 0.380853 0.246863
O O5 0.188429 0.076912 0.823118
O O6 0.249782 0.900652 0.991898
O O7 0.435444 0.995508 0.075707
O O8 0.279294 0.018926 0.216154
O O9 0.500000 0.869784 0.500000
O O10 0.334062 0.746598 0.188324
O O11 0.735938 0.141050 0.604243
O O12 0.669162 0.181928 0.237748
O O13 0.431222 0.168804 0.180547
O O14 0.500000 0.566860 0.000000
#
# Coordination Sequence:
#
# PCOD9125247 Si02
#       7
#     4   4   4   4   4   4   2
#     4  10  23  39  68  96 135 177 225 282 345 403
#     4  11  24  40  70  98 133 180 229 278 344 407
#     4  10  21  40  65  99 135 180 226 276 346 405
#     4  10  23  43  68  99 134 185 226 289 342 407
#     4  11  26  44  70 100 140 179 230 287 347 406
#     4  10  22  40  69  97 137 177 237 274 343 415
#     4  12  22  42  68  98 136 178 236 280 340 424
#
# _framework density 24.704318000000001
#
# number of rings (size 3 to 8) (size 9 to 14) (size 15 to 20)
#    0.000    1.538    1.538    2.769    9.692    3.692 
#    0.000    2.308    0.000    0.000    0.000    0.000 
#    0.000    0.000    0.000    0.000    0.000    0.000 
#
# Total GULP energy -72423.045439 kJ/mol
# GULP energy per Si atom -5571.003495 kJ/mol
# Density = 2.464809 g / cm^3
# Si number density = 24.704318 Si / 1000 Ang^3
#
#
#
# Elastic Constant Matrix: (Units=GPa)
#
#
# Indices 1 2 3 4 5 6 
#
# 1 49.7736 47.8904 19.5548 0.0000 -3.5517 0.0000
# 2 47.8904 136.3167 40.2813 0.0000 -9.8306 0.0000
# 3 19.5548 40.2813 82.7051 0.0000 10.6156 0.0000
# 4 0.0000 0.0000 0.0000 23.7963 0.0000 8.4954
# 5 -3.5517 -9.8306 10.6156 0.0000 18.5591 0.0000
# 6 0.0000 0.0000 0.0000 8.4954 0.0000 16.7980
#
#
#
# Elastic Compliance Matrix: (Units=1/GPa)
#
#
# Indices 1 2 3 4 5 6 
#
# 1 0.030814 -0.009837 -0.002787 0.000000 0.002280 0.000000
# 2 -0.009837 0.012792 -0.004892 0.000000 0.007691 0.000000
# 3 -0.002787 -0.004892 0.016764 0.000000 -0.012713 0.000000
# 4 0.000000 0.000000 0.000000 0.051282 0.000000 -0.025935
# 5 0.002280 0.007691 -0.012713 0.000000 0.065664 0.000000
# 6 0.000000 0.000000 0.000000 -0.025935 0.000000 0.072647
#
#
# Mechanical properties :
#
#
# Convention : Reuss Voigt Hill
#
# Bulk Modulus (GPa) = 39.46602 53.80535 46.63569
# Shear Modulus (GPa) = 17.03914 22.56861 19.80388
#
# Velocity S-wave (km/s) = 2.62911 3.02578 2.83439
# Velocity P-wave (km/s) = 5.02258 5.83388 5.44336
#
# Compressibility (1/GPa) = 0.02533825
#
# Stress axis : x y z
#
# Youngs Moduli (GPa) = 32.45291 78.17379 59.65038
#
# Poissons Ratio (x) = 0.76903 0.16625
# Poissons Ratio (y) = 0.31925 0.29178
# Poissons Ratio (z) = 0.09045 0.38239
#
# Static dielectric constant tensor:
#      x y z
#    x 1.985780 0.000000 -0.030110 
#    y 0.000000 2.112330 0.000000 
#    z -0.030110 0.000000 1.969280 
# 
# From -- ./inp_files/24821.got.cif
#   From: 2010.05.17/outbox.cif.g08.bks.cpg/sg5_13_cif.got.tgz:24821.got - 2010.06.03 18:56:24.
