data_PCOD9125155
_publ_section_title
;
Structure prediction by ZEFSAII (Michael W. Deem and Ramdas Pophale) SiO2 
 PCOD9125155
Probable space group: C 2
;
_chemical_formula_sum "Si O2"
_cell_formula_units_Z 22
_cell_length_a 12.034283
_cell_length_b 7.225025
_cell_length_c 10.787644
_cell_angle_alpha 90.000000
_cell_angle_beta 76.203876
_cell_angle_gamma 90.000000
_cell_volume 910.904149
_symmetry_space_group_name_H-M "C 2"
_symmetry_group_IT_number 5
_symmetry_cell_setting 'monoclinic'
loop_
_space_group_symop_operation_xyz
x,y,z
-x,y,-z
1/2+x,1/2+y,z
1/2-x,1/2+y,-z
loop_
_atom_site_type_symbol
_atom_site_label
_atom_site_fract_x
_atom_site_fract_y
_atom_site_fract_z
Si Si1 0.983143 0.634640 0.233590
Si Si2 0.309797 0.845879 0.845623
Si Si3 0.135465 0.922805 0.111547
Si Si4 0.000000 0.594370 0.500000
Si Si5 0.243876 0.916910 0.332224
Si Si6 0.302965 0.793892 0.575033
O O1 0.084083 0.487063 0.179308
O O2 0.015739 0.812281 0.142046
O O3 0.989614 0.701660 0.375080
O O4 0.865383 0.515998 0.264337
O O5 0.362265 0.641982 0.860991
O O6 0.252488 0.850999 0.723309
O O7 0.214709 0.887742 0.972749
O O8 0.199293 0.837069 0.216030
O O9 0.897227 0.448920 0.534157
O O10 0.163509 0.084034 0.402751
O O11 0.250279 0.787417 0.450934
#
# Coordination Sequence:
#
# PCOD9125155 Si02
#       6
#     4   4   4   2   4   4
#     4  10  21  41  63  90 131 163 216 261 326 379
#     4  10  21  40  62  90 126 168 210 261 325 389
#     4  11  22  40  67  89 126 175 207 259 333 379
#     4   8  18  38  60  84 126 164 198 272 312 380
#     4  10  23  39  63  96 123 164 218 271 312 397
#     4   9  20  39  58  89 124 158 208 265 319 372
#
# _framework density 24.151826
#
# number of rings (size 3 to 8) (size 9 to 14) (size 15 to 20)
#    0.000    2.182    1.818    0.000    7.636    0.727 
#   13.091    0.909    8.000    0.000    0.000    0.000 
#    0.000    0.000    0.000    0.000    0.000    0.000 
#
# Total GULP energy -61330.480256 kJ/mol
# GULP energy per Si atom -5575.498205 kJ/mol
# Density = 2.409686 g / cm^3
# Si number density = 24.151826 Si / 1000 Ang^3
#
#
#
# Elastic Constant Matrix: (Units=GPa)
#
#
# Indices 1 2 3 4 5 6 
#
# 1 72.8523 28.1324 45.8279 0.0000 -15.9482 0.0000
# 2 28.1324 103.9591 42.3449 0.0000 -23.0282 0.0000
# 3 45.8279 42.3449 188.3635 0.0000 -4.3939 0.0000
# 4 0.0000 0.0000 0.0000 40.3244 0.0000 -10.1220
# 5 -15.9482 -23.0282 -4.3939 0.0000 44.2600 0.0000
# 6 0.0000 0.0000 0.0000 -10.1220 0.0000 19.4465
#
#
#
# Elastic Compliance Matrix: (Units=1/GPa)
#
#
# Indices 1 2 3 4 5 6 
#
# 1 0.018053 -0.002251 -0.003771 0.000000 0.004960 0.000000
# 2 -0.002251 0.012265 -0.002085 0.000000 0.005364 0.000000
# 3 -0.003771 -0.002085 0.006653 0.000000 -0.001783 0.000000
# 4 0.000000 0.000000 0.000000 0.028526 0.000000 0.014848
# 5 0.004960 0.005364 -0.001783 0.000000 0.026995 0.000000
# 6 0.000000 0.000000 0.000000 0.014848 0.000000 0.059152
#
#
# Mechanical properties :
#
#
# Convention : Reuss Voigt Hill
#
# Bulk Modulus (GPa) = 48.16991 66.42061 57.29526
# Shear Modulus (GPa) = 28.60800 37.39747 33.00274
#
# Velocity S-wave (km/s) = 3.44540 3.93928 3.70059
# Velocity P-wave (km/s) = 5.98462 6.94633 6.48333
#
# Compressibility (1/GPa) = 0.02075985
#
# Stress axis : x y z
#
# Youngs Moduli (GPa) = 55.39185 81.52951 150.30197
#
# Poissons Ratio (x) = 0.18352 0.56672
# Poissons Ratio (y) = 0.12468 0.31332
# Poissons Ratio (z) = 0.20886 0.16995
#
# Static dielectric constant tensor:
#      x y z
#    x 2.047720 0.000000 0.073240 
#    y 0.000000 1.941960 0.000000 
#    z 0.073240 0.000000 1.956580 
# 
# From -- ./inp_files/38083.got.cif
#   From: 2010.05.17/outbox.cif.g08.bks.cpg/sg5_20_cif.got.tgz:38083.got - 2010.06.03 18:56:24.
