data_PCOD9125613
_publ_section_title
;
Structure prediction by ZEFSAII (Michael W. Deem and Ramdas Pophale) SiO2 
 PCOD9125613
Probable space group: C 2
;
_chemical_formula_sum "Si O2"
_cell_formula_units_Z 28
_cell_length_a 15.329144
_cell_length_b 11.315927
_cell_length_c 8.777523
_cell_angle_alpha 90.000000
_cell_angle_beta 56.201594
_cell_angle_gamma 90.000000
_cell_volume 1265.263595
_symmetry_space_group_name_H-M "C 2"
_symmetry_group_IT_number 5
_symmetry_cell_setting 'monoclinic'
loop_
_space_group_symop_operation_xyz
x,y,z
-x,y,-z
1/2+x,1/2+y,z
1/2-x,1/2+y,-z
loop_
_atom_site_type_symbol
_atom_site_label
_atom_site_fract_x
_atom_site_fract_y
_atom_site_fract_z
Si Si1 0.593620 0.791080 0.804808
Si Si2 0.732146 0.830086 0.945714
Si Si3 0.779127 0.078039 0.388294
Si Si4 0.832232 0.066428 0.979368
Si Si5 0.458652 0.220069 0.709009
Si Si6 0.536781 0.456024 0.641079
Si Si7 0.039409 0.490198 0.631437
O O1 0.665292 0.854832 0.860636
O O2 0.675475 0.709567 0.632991
O O3 0.540469 0.877904 0.737637
O O4 0.500000 0.735190 0.000000
O O5 0.846966 0.778925 0.797548
O O6 0.756982 0.956844 0.998609
O O7 0.686240 0.703644 0.057681
O O8 0.847568 0.001583 0.438538
O O9 0.656840 0.046786 0.514819
O O10 0.815433 0.062014 0.177421
O O11 0.949303 0.031232 0.814702
O O12 0.500000 0.195472 0.500000
O O13 0.529873 0.322006 0.709283
O O14 0.465359 0.092225 0.774946
O O15 0.500000 0.456963 0.500000
O O16 0.000000 0.457446 0.500000
#
# Coordination Sequence:
#
# PCOD9125613 Si02
#       7
#     4   4   4   4   4   4   4
#     4  11  25  42  68  94 139 175 223 275 349 394
#     4  10  22  40  70  91 131 179 222 265 340 402
#     4  11  24  43  68  92 136 181 215 269 349 399
#     4  10  21  42  67  93 133 176 221 269 339 402
#     4   9  19  39  65  87 129 170 211 265 333 392
#     4  10  22  40  67  96 128 170 227 273 323 403
#     4  11  25  42  68  98 134 171 227 276 333 401
#
# _framework density 22.129778000000002
#
# number of rings (size 3 to 8) (size 9 to 14) (size 15 to 20)
#    0.000    1.714    0.000    5.571   12.000    0.571 
#    5.143    0.000    0.000    0.000    0.000    0.000 
#    0.000    0.000    0.000    0.000    0.000    0.000 
#
# Total GULP energy -78015.338751 kJ/mol
# GULP energy per Si atom -5572.524196 kJ/mol
# Density = 2.207941 g / cm^3
# Si number density = 22.129778 Si / 1000 Ang^3
#
#
#
# Elastic Constant Matrix: (Units=GPa)
#
#
# Indices 1 2 3 4 5 6 
#
# 1 124.6425 52.5795 7.7404 0.0000 2.2503 0.0000
# 2 52.5795 120.9500 22.0275 0.0000 12.7726 0.0000
# 3 7.7404 22.0275 41.8690 0.0000 -16.9487 0.0000
# 4 0.0000 0.0000 0.0000 28.9070 0.0000 1.5723
# 5 2.2503 12.7726 -16.9487 0.0000 29.2952 0.0000
# 6 0.0000 0.0000 0.0000 1.5723 0.0000 33.6050
#
#
#
# Elastic Compliance Matrix: (Units=1/GPa)
#
#
# Indices 1 2 3 4 5 6 
#
# 1 0.009930 -0.004865 0.001663 0.000000 0.002320 0.000000
# 2 -0.004865 0.013696 -0.011194 0.000000 -0.012074 0.000000
# 3 0.001663 -0.011194 0.040989 0.000000 0.028467 0.000000
# 4 0.000000 0.000000 0.000000 0.034682 0.000000 -0.001623
# 5 0.002320 -0.012074 0.028467 0.000000 0.055691 0.000000
# 6 0.000000 0.000000 0.000000 -0.001623 0.000000 0.029833
#
#
# Mechanical properties :
#
#
# Convention : Reuss Voigt Hill
#
# Bulk Modulus (GPa) = 27.91440 50.23959 39.07700
# Shear Modulus (GPa) = 22.16760 32.03573 27.10167
#
# Velocity S-wave (km/s) = 3.16841 3.80890 3.50332
# Velocity P-wave (km/s) = 5.10161 6.48808 5.83616
#
# Compressibility (1/GPa) = 0.03582380
#
# Stress axis : x y z
#
# Youngs Moduli (GPa) = 100.70625 73.01253 24.39662
#
# Poissons Ratio (x) = 0.35517 -0.04056
# Poissons Ratio (y) = 0.48989 0.27309
# Poissons Ratio (z) = -0.16744 0.81730
#
# Static dielectric constant tensor:
#      x y z
#    x 1.890130 0.000000 -0.098650 
#    y 0.000000 1.962030 0.000000 
#    z -0.098650 0.000000 1.922110 
# 
# From -- ./inp_files/23772.got.cif
#   From: 2010.05.17/outbox.cif.g08.bks.cpg/sg5_12_cif.got.tgz:23772.got - 2010.06.03 18:56:24.
