data_PCOD9125027
_publ_section_title
;
Structure prediction by ZEFSAII (Michael W. Deem and Ramdas Pophale) SiO2 
 PCOD9125027
Probable space group: C 2
;
_chemical_formula_sum "Si O2"
_cell_formula_units_Z 20
_cell_length_a 16.301301
_cell_length_b 8.095536
_cell_length_c 7.457509
_cell_angle_alpha 90.000000
_cell_angle_beta 46.866909
_cell_angle_gamma 90.000000
_cell_volume 718.201319
_symmetry_space_group_name_H-M "C 2"
_symmetry_group_IT_number 5
_symmetry_cell_setting 'monoclinic'
loop_
_space_group_symop_operation_xyz
x,y,z
-x,y,-z
1/2+x,1/2+y,z
1/2-x,1/2+y,-z
loop_
_atom_site_type_symbol
_atom_site_label
_atom_site_fract_x
_atom_site_fract_y
_atom_site_fract_z
Si Si1 0.918745 0.595130 0.292701
Si Si2 0.239439 0.251240 0.740508
Si Si3 0.225702 0.446456 0.068620
Si Si4 0.467874 0.406425 0.837834
Si Si5 0.983951 0.265090 0.757077
O O1 0.794756 0.675188 0.480275
O O2 0.976977 0.740377 0.320952
O O3 0.925778 0.408747 0.350290
O O4 0.000000 0.588129 0.000000
O O5 0.256922 0.429774 0.808677
O O6 0.104662 0.241858 0.942193
O O7 0.285353 0.126068 0.827185
O O8 0.334707 0.387918 0.014221
O O9 0.110191 0.341527 0.239616
O O10 0.500000 0.413861 0.000000
O O11 0.511496 0.575161 0.682993
#
# Coordination Sequence:
#
# PCOD9125027 Si02
#       5
#     4   4   4   4   4
#     4  11  23  43  67 101 139 185 234 288 358 422
#     4   9  21  42  64 100 137 175 238 288 340 432
#     4   9  19  40  63  92 136 177 222 281 348 408
#     4  10  21  39  64  99 139 171 236 289 339 427
#     4   9  21  42  65  97 136 183 232 280 358 420
#
# _framework density 27.847346000000002
#
# number of rings (size 3 to 8) (size 9 to 14) (size 15 to 20)
#    1.200    1.200    0.000    1.800    0.000    3.200 
#   18.000    2.000    0.000    0.000    0.000    0.000 
#    0.000    0.000    0.000    0.000    0.000    0.000 
#
# Total GULP energy -55678.267843 kJ/mol
# GULP energy per Si atom -5567.826784 kJ/mol
# Density = 2.778396 g / cm^3
# Si number density = 27.847346 Si / 1000 Ang^3
#
#
#
# Elastic Constant Matrix: (Units=GPa)
#
#
# Indices 1 2 3 4 5 6 
#
# 1 85.2121 16.5188 10.2946 0.0000 -6.1270 0.0000
# 2 16.5188 165.9070 16.0405 0.0000 7.4482 0.0000
# 3 10.2946 16.0405 136.1562 0.0000 12.0146 0.0000
# 4 0.0000 0.0000 0.0000 38.1802 0.0000 -9.7440
# 5 -6.1270 7.4482 12.0146 0.0000 38.3118 0.0000
# 6 0.0000 0.0000 0.0000 -9.7440 0.0000 45.7039
#
#
#
# Elastic Compliance Matrix: (Units=1/GPa)
#
#
# Indices 1 2 3 4 5 6 
#
# 1 0.012278 -0.001238 -0.001005 0.000000 0.002519 0.000000
# 2 -0.001238 0.006258 -0.000534 0.000000 -0.001247 0.000000
# 3 -0.001005 -0.000534 0.007701 0.000000 -0.002472 0.000000
# 4 0.000000 0.000000 0.000000 0.027699 0.000000 0.005905
# 5 0.002519 -0.001247 -0.002472 0.000000 0.027522 0.000000
# 6 0.000000 0.000000 0.000000 0.005905 0.000000 0.023139
#
#
# Mechanical properties :
#
#
# Convention : Reuss Voigt Hill
#
# Bulk Modulus (GPa) = 48.34574 52.55367 50.44970
# Shear Modulus (GPa) = 42.71815 47.40060 45.05937
#
# Velocity S-wave (km/s) = 3.92089 4.13020 4.02691
# Velocity P-wave (km/s) = 6.15602 6.45428 6.30691
#
# Compressibility (1/GPa) = 0.02068435
#
# Stress axis : x y z
#
# Youngs Moduli (GPa) = 81.44618 159.78601 129.84513
#
# Poissons Ratio (x) = 0.19789 0.13046
# Poissons Ratio (y) = 0.10087 0.06928
# Poissons Ratio (z) = 0.08183 0.08526
#
# Static dielectric constant tensor:
#      x y z
#    x 2.153950 0.000000 0.066950 
#    y 0.000000 2.238400 0.000000 
#    z 0.066950 0.000000 2.635140 
# 
# From -- ./inp_files/26622.got.cif
#   From: 2010.05.17/outbox.cif.g08.bks.cpg/sg5_14_cif.got.tgz:26622.got - 2010.06.03 18:56:24.
