data_PCOD9125526
_publ_section_title
;
Structure prediction by ZEFSAII (Michael W. Deem and Ramdas Pophale) SiO2 
 PCOD9125526
Probable space group: C 2
;
_chemical_formula_sum "Si O2"
_cell_formula_units_Z 28
_cell_length_a 13.634013
_cell_length_b 8.670649
_cell_length_c 9.863274
_cell_angle_alpha 90.000000
_cell_angle_beta 102.751437
_cell_angle_gamma 90.000000
_cell_volume 1137.237080
_symmetry_space_group_name_H-M "C 2"
_symmetry_group_IT_number 5
_symmetry_cell_setting 'monoclinic'
loop_
_space_group_symop_operation_xyz
x,y,z
-x,y,-z
1/2+x,1/2+y,z
1/2-x,1/2+y,-z
loop_
_atom_site_type_symbol
_atom_site_label
_atom_site_fract_x
_atom_site_fract_y
_atom_site_fract_z
Si Si1 0.599518 0.130190 0.597431
Si Si2 0.649986 0.350480 0.831807
Si Si3 0.016301 0.064411 0.339426
Si Si4 0.661126 0.061533 0.040739
Si Si5 0.720782 0.471363 0.477022
Si Si6 0.909379 0.362684 0.206025
Si Si7 0.270541 0.193948 0.697557
O O1 0.500000 0.200758 0.500000
O O2 0.668062 0.251550 0.699529
O O3 0.666189 0.017733 0.525318
O O4 0.559984 0.010262 0.697529
O O5 0.544276 0.433382 0.762404
O O6 0.653060 0.213286 0.944336
O O7 0.728360 0.481956 0.905165
O O8 0.135591 0.049776 0.359668
O O9 0.000000 0.060400 0.500000
O O10 0.981841 0.224272 0.264402
O O11 0.601078 0.924687 0.949427
O O12 0.640091 0.126065 0.184815
O O13 0.705121 0.295762 0.427057
O O14 0.709118 0.548676 0.620165
O O15 0.800551 0.300616 0.229364
#
# Coordination Sequence:
#
# PCOD9125526 Si02
#       7
#     4   4   4   4   4   4   4
#     4  10  24  42  68 104 135 180 233 289 358 420
#     4  11  22  38  74  97 130 185 239 292 344 423
#     4  12  22  42  68 107 137 181 234 290 361 418
#     4  11  21  43  69  99 139 185 244 288 351 413
#     4  11  27  41  71 100 149 177 228 303 354 418
#     4  10  21  41  73  98 129 185 237 288 347 427
#     4  11  23  44  65 105 136 186 230 291 354 416
#
# _framework density 24.621074
#
# number of rings (size 3 to 8) (size 9 to 14) (size 15 to 20)
#    0.000    1.143    4.286    0.857    8.000    0.000 
#    0.000    0.714    3.143    0.000    0.000    0.000 
#    0.000    0.000    0.000    0.000    0.000    0.000 
#
# Total GULP energy -78106.506929 kJ/mol
# GULP energy per Si atom -5579.036209 kJ/mol
# Density = 2.456504 g / cm^3
# Si number density = 24.621074 Si / 1000 Ang^3
#
#
#
# Elastic Constant Matrix: (Units=GPa)
#
#
# Indices 1 2 3 4 5 6 
#
# 1 57.5469 5.4604 31.7290 0.0000 14.2871 0.0000
# 2 5.4604 157.1564 85.6584 0.0000 4.7898 0.0000
# 3 31.7290 85.6584 181.6661 0.0000 15.9205 0.0000
# 4 0.0000 0.0000 0.0000 65.9532 0.0000 9.1511
# 5 14.2871 4.7898 15.9205 0.0000 25.2486 0.0000
# 6 0.0000 0.0000 0.0000 9.1511 0.0000 22.7542
#
#
#
# Elastic Compliance Matrix: (Units=1/GPa)
#
#
# Indices 1 2 3 4 5 6 
#
# 1 0.021797 0.001533 -0.003623 0.000000 -0.010340 0.000000
# 2 0.001533 0.008695 -0.004389 0.000000 0.000251 0.000000
# 3 -0.003623 -0.004389 0.008420 0.000000 -0.002426 0.000000
# 4 0.000000 0.000000 0.000000 0.016058 0.000000 -0.006458
# 5 -0.010340 0.000251 -0.002426 0.000000 0.046939 0.000000
# 6 0.000000 0.000000 0.000000 -0.006458 0.000000 0.046545
#
#
# Mechanical properties :
#
#
# Convention : Reuss Voigt Hill
#
# Bulk Modulus (GPa) = 38.53445 71.34055 54.93750
# Shear Modulus (GPa) = 29.40074 41.02599 35.21337
#
# Velocity S-wave (km/s) = 3.45937 4.08646 3.78592
# Velocity P-wave (km/s) = 5.62506 7.16267 6.43992
#
# Compressibility (1/GPa) = 0.02595080
#
# Stress axis : x y z
#
# Youngs Moduli (GPa) = 45.87879 115.01396 118.76896
#
# Poissons Ratio (x) = -0.17629 0.43036
# Poissons Ratio (y) = -0.07032 0.52132
# Poissons Ratio (z) = 0.16624 0.50484
#
# Static dielectric constant tensor:
#      x y z
#    x 1.967830 0.000000 -0.043550 
#    y 0.000000 2.006330 0.000000 
#    z -0.043550 0.000000 1.986950 
# 
# From -- ./inp_files/42033.got.cif
#   From: 2010.05.17/outbox.cif.g08.bks.cpg/sg5_22_cif.got.tgz:42033.got - 2010.06.03 18:56:24.
