data_PCOD9125884
_publ_section_title
;
Structure prediction by ZEFSAII (Michael W. Deem and Ramdas Pophale) SiO2 
 PCOD9125884
Probable space group: C 2
;
_chemical_formula_sum "Si O2"
_cell_formula_units_Z 26
_cell_length_a 5.217614
_cell_length_b 17.356642
_cell_length_c 15.379721
_cell_angle_alpha 90.000000
_cell_angle_beta 116.532060
_cell_angle_gamma 90.000000
_cell_volume 1246.109043
_symmetry_space_group_name_H-M "C 2"
_symmetry_group_IT_number 5
_symmetry_cell_setting 'monoclinic'
loop_
_space_group_symop_operation_xyz
x,y,z
-x,y,-z
1/2+x,1/2+y,z
1/2-x,1/2+y,-z
loop_
_atom_site_type_symbol
_atom_site_label
_atom_site_fract_x
_atom_site_fract_y
_atom_site_fract_z
Si Si1 0.500000 0.847180 0.000000
Si Si2 0.500000 0.972542 0.500000
Si Si3 0.282417 0.652480 0.232446
Si Si4 0.827636 0.541600 0.643166
Si Si5 0.935766 0.023431 0.813740
Si Si6 0.990735 0.903871 0.315603
Si Si7 0.755655 0.253803 0.798099
Si Si8 0.000000 0.955144 0.000000
O O1 0.599636 0.795654 0.097161
O O2 0.753115 0.901565 0.002521
O O3 0.283028 0.919886 0.412157
O O4 0.329704 0.027281 0.541019
O O5 0.344062 0.609661 0.334569
O O6 0.303195 0.580254 0.168980
O O7 0.512262 0.710999 0.226958
O O8 0.985129 0.696764 0.199861
O O9 0.733465 0.459568 0.669564
O O10 0.155369 0.555143 0.722406
O O11 0.984802 0.941434 0.775795
O O12 0.884550 0.009149 0.905979
O O13 0.895732 0.817401 0.286265
#
# Coordination Sequence:
#
# PCOD9125884 Si02
#       8
#     2   2   4   4   4   4   4   2
#     4  12  26  43  66 109 138 192 238 290 342 405
#     4  10  22  40  80 102 136 174 246 290 350 412
#     4  11  25  44  68 100 141 190 221 288 356 414
#     4  10  21  45  70 105 131 184 232 289 350 413
#     4  10  22  43  69  99 135 179 239 282 345 401
#     4  10  22  41  74  99 136 182 232 290 341 416
#     4  12  25  45  70  99 150 187 229 287 352 418
#     4  12  24  41  70 105 130 182 248 292 328 405
#
# _framework density 20.864947000000001
#
# number of rings (size 3 to 8) (size 9 to 14) (size 15 to 20)
#    0.000    1.231    3.077    2.308    6.462    0.615 
#    2.769    0.000   13.538    0.000    0.000    0.000 
#    0.000    0.000    0.000    0.000    0.000    0.000 
#
# Total GULP energy -72579.650944 kJ/mol
# GULP energy per Si atom -5583.050073 kJ/mol
# Density = 2.081746 g / cm^3
# Si number density = 20.864947 Si / 1000 Ang^3
#
#
#
# Elastic Constant Matrix: (Units=GPa)
#
#
# Indices 1 2 3 4 5 6 
#
# 1 124.0694 31.0416 32.2409 0.0000 -6.3043 0.0000
# 2 31.0416 74.5074 37.3458 0.0000 3.8922 0.0000
# 3 32.2409 37.3458 116.9299 0.0000 -18.3774 0.0000
# 4 0.0000 0.0000 0.0000 16.1218 0.0000 4.3620
# 5 -6.3043 3.8922 -18.3774 0.0000 31.1190 0.0000
# 6 0.0000 0.0000 0.0000 4.3620 0.0000 73.7574
#
#
#
# Elastic Compliance Matrix: (Units=1/GPa)
#
#
# Indices 1 2 3 4 5 6 
#
# 1 0.009298 -0.003325 -0.001257 0.000000 0.001557 0.000000
# 2 -0.003325 0.018080 -0.005863 0.000000 -0.006397 0.000000
# 3 -0.001257 -0.005863 0.011956 0.000000 0.007540 0.000000
# 4 0.000000 0.000000 0.000000 0.063036 0.000000 -0.003728
# 5 0.001557 -0.006397 0.007540 0.000000 0.037703 0.000000
# 6 0.000000 0.000000 0.000000 -0.003728 0.000000 0.013778
#
#
# Mechanical properties :
#
#
# Convention : Reuss Voigt Hill
#
# Bulk Modulus (GPa) = 54.21917 57.41815 55.81866
# Shear Modulus (GPa) = 27.64123 38.52486 33.08305
#
# Velocity S-wave (km/s) = 3.64369 4.30163 3.98625
# Velocity P-wave (km/s) = 6.61393 7.22846 6.92802
#
# Compressibility (1/GPa) = 0.01844366
#
# Stress axis : x y z
#
# Youngs Moduli (GPa) = 107.55414 55.31058 83.63817
#
# Poissons Ratio (x) = 0.18390 0.10513
# Poissons Ratio (y) = 0.35761 0.49038
# Poissons Ratio (z) = 0.13519 0.32429
#
# Static dielectric constant tensor:
#      x y z
#    x 1.767240 0.000000 -0.006710 
#    y 0.000000 1.752750 0.000000 
#    z -0.006710 0.000000 1.734260 
# 
# From -- ./inp_files/48969.got.cif
#   From: 2010.05.17/outbox.cif.g08.bks.cpg/sg5_25_cif.got.tgz:48969.got - 2010.06.03 18:56:24.
