data_PCOD9125424
_publ_section_title
;
Structure prediction by ZEFSAII (Michael W. Deem and Ramdas Pophale) SiO2 
 PCOD9125424
Probable space group: C 2
;
_chemical_formula_sum "Si O2"
_cell_formula_units_Z 32
_cell_length_a 8.285903
_cell_length_b 23.251463
_cell_length_c 13.975136
_cell_angle_alpha 90.000000
_cell_angle_beta 31.987330
_cell_angle_gamma 90.000000
_cell_volume 1426.271325
_symmetry_space_group_name_H-M "C 2"
_symmetry_group_IT_number 5
_symmetry_cell_setting 'monoclinic'
loop_
_space_group_symop_operation_xyz
x,y,z
-x,y,-z
1/2+x,1/2+y,z
1/2-x,1/2+y,-z
loop_
_atom_site_type_symbol
_atom_site_label
_atom_site_fract_x
_atom_site_fract_y
_atom_site_fract_z
Si Si1 0.794952 0.040730 0.420819
Si Si2 0.146968 0.168875 0.533941
Si Si3 0.991577 0.480535 0.739475
Si Si4 0.661429 0.244317 0.189986
Si Si5 0.155119 0.878788 0.188192
Si Si6 0.734131 0.862677 0.566190
Si Si7 0.738308 0.265955 0.796912
Si Si8 0.918457 0.978325 0.890748
O O1 0.500000 0.033709 0.500000
O O2 0.827799 0.107473 0.429790
O O3 0.749737 0.011403 0.547397
O O4 0.049511 0.011124 0.226023
O O5 0.464360 0.203479 0.357581
O O6 0.000000 0.164043 0.500000
O O7 0.937369 0.208551 0.706935
O O8 0.697882 0.491893 0.820529
O O9 0.068983 0.413172 0.706716
O O10 0.884418 0.496267 0.899531
O O11 0.695001 0.311852 0.198484
O O12 0.463331 0.253062 0.194265
O O13 0.000000 0.221416 0.000000
O O14 0.031691 0.909554 0.154516
O O15 0.902068 0.894143 0.393790
O O16 0.500000 0.900289 0.000000
O O17 0.487900 0.815981 0.657647
O O18 0.000000 0.837469 0.500000
O O19 0.500000 0.279056 0.000000
#
# Coordination Sequence:
#
# PCOD9125424 Si02
#       8
#     4   4   4   4   4   4   4   4
#     4  10  22  43  68  95 130 180 234 285 337 397
#     4  10  23  48  67  94 133 177 223 285 345 398
#     4  10  22  40  66  98 134 177 224 284 341 403
#     4  10  23  43  69  99 131 177 223 282 344 406
#     4  11  22  39  64  96 136 174 225 268 343 417
#     4  12  25  39  65 102 144 181 221 279 342 407
#     4  11  26  42  66  99 136 176 228 276 343 411
#     4  10  21  41  65  97 135 175 227 279 345 406
#
# _framework density 22.436124
#
# number of rings (size 3 to 8) (size 9 to 14) (size 15 to 20)
#    0.000    1.500    2.500    1.500    7.000    3.000 
#   11.250    0.000    0.000    0.000    0.000    0.000 
#    0.000    0.000    0.000    0.000    0.000    0.000 
#
# Total GULP energy -89164.124248 kJ/mol
# GULP energy per Si atom -5572.757766 kJ/mol
# Density = 2.238506 g / cm^3
# Si number density = 22.436124 Si / 1000 Ang^3
#
#
#
# Elastic Constant Matrix: (Units=GPa)
#
#
# Indices 1 2 3 4 5 6 
#
# 1 66.5110 19.0153 53.1379 0.0000 2.6807 0.0000
# 2 19.0153 94.0979 54.5174 0.0000 6.8905 0.0000
# 3 53.1379 54.5174 178.0526 0.0000 23.2785 0.0000
# 4 0.0000 0.0000 0.0000 20.5472 0.0000 11.5863
# 5 2.6807 6.8905 23.2785 0.0000 29.9324 0.0000
# 6 0.0000 0.0000 0.0000 11.5863 0.0000 46.1674
#
#
#
# Elastic Compliance Matrix: (Units=1/GPa)
#
#
# Indices 1 2 3 4 5 6 
#
# 1 0.020048 -0.000701 -0.006183 0.000000 0.003175 0.000000
# 2 -0.000701 0.012944 -0.003754 0.000000 0.000003 0.000000
# 3 -0.006183 -0.003754 0.009379 0.000000 -0.005876 0.000000
# 4 0.000000 0.000000 0.000000 0.056691 0.000000 -0.014227
# 5 0.003175 0.000003 -0.005876 0.000000 0.037694 0.000000
# 6 0.000000 0.000000 0.000000 -0.014227 0.000000 0.025231
#
#
# Mechanical properties :
#
#
# Convention : Reuss Voigt Hill
#
# Bulk Modulus (GPa) = 47.40878 65.77808 56.59343
# Shear Modulus (GPa) = 26.27487 33.46213 29.86850
#
# Velocity S-wave (km/s) = 3.42584 3.86611 3.65261
# Velocity P-wave (km/s) = 6.06836 7.02215 6.56260
#
# Compressibility (1/GPa) = 0.02109314
#
# Stress axis : x y z
#
# Youngs Moduli (GPa) = 49.88089 77.25664 106.61551
#
# Poissons Ratio (x) = 0.05418 0.65925
# Poissons Ratio (y) = 0.03498 0.40027
# Poissons Ratio (z) = 0.30843 0.29005
#
# Static dielectric constant tensor:
#      x y z
#    x 1.852360 0.000000 0.005510 
#    y 0.000000 1.835810 0.000000 
#    z 0.005510 0.000000 1.869930 
# 
# From -- ./inp_files/25606.got.cif
#   From: 2010.05.17/outbox.cif.g08.bks.cpg/sg5_13_cif.got.tgz:25606.got - 2010.06.03 18:56:24.
