data_PCOD9125622
_publ_section_title
;
Structure prediction by ZEFSAII (Michael W. Deem and Ramdas Pophale) SiO2 
 PCOD9125622
Probable space group: C 2
;
_chemical_formula_sum "Si O2"
_cell_formula_units_Z 28
_cell_length_a 9.201284
_cell_length_b 7.307071
_cell_length_c 18.149991
_cell_angle_alpha 90.000000
_cell_angle_beta 76.935145
_cell_angle_gamma 90.000000
_cell_volume 1188.716589
_symmetry_space_group_name_H-M "C 2"
_symmetry_group_IT_number 5
_symmetry_cell_setting 'monoclinic'
loop_
_space_group_symop_operation_xyz
x,y,z
-x,y,-z
1/2+x,1/2+y,z
1/2-x,1/2+y,-z
loop_
_atom_site_type_symbol
_atom_site_label
_atom_site_fract_x
_atom_site_fract_y
_atom_site_fract_z
Si Si1 0.140819 0.635880 0.023195
Si Si2 0.592178 0.748355 0.275114
Si Si3 0.667046 0.395512 0.456619
Si Si4 0.259997 0.340054 0.711419
Si Si5 0.645190 0.801458 0.432462
Si Si6 0.433984 0.552917 0.931207
Si Si7 0.757337 0.039334 0.169174
O O1 0.096231 0.839217 0.051947
O O2 0.195143 0.548764 0.093169
O O3 0.271026 0.638383 0.947307
O O4 0.000000 0.545858 0.000000
O O5 0.651243 0.534007 0.278336
O O6 0.423029 0.811725 0.270507
O O7 0.609128 0.844706 0.353462
O O8 0.709756 0.847970 0.209179
O O9 0.500000 0.357800 0.500000
O O10 0.699264 0.282723 0.378128
O O11 0.704864 0.595788 0.422488
O O12 0.744276 0.405950 0.527632
O O13 0.306192 0.197972 0.770289
O O14 0.500000 0.792475 0.500000
O O15 0.563788 0.567820 0.857212
O O16 0.500000 0.628782 0.000000
#
# Coordination Sequence:
#
# PCOD9125622 Si02
#       7
#     4   4   4   4   4   4   4
#     4  10  23  46  76 104 143 190 251 308 390 475
#     4  11  27  46  73 113 156 206 264 327 406 472
#     4  10  23  41  69  99 140 200 261 324 385 465
#     4  11  27  47  73 112 158 206 263 330 404 472
#     4  10  21  42  67  96 142 193 262 315 378 465
#     4   9  22  45  68 105 138 186 242 302 383 473
#     4  11  27  46  76 108 154 195 254 318 399 479
#
# _framework density 23.554811999999998
#
# number of rings (size 3 to 8) (size 9 to 14) (size 15 to 20)
#    0.000    1.714    1.429    0.000    6.000    9.143 
#    0.000    0.000    0.000    0.000    0.000    0.000 
#    0.000    0.000    0.000    0.000    0.000    0.000 
#
# Total GULP energy -77959.597643 kJ/mol
# GULP energy per Si atom -5568.542689 kJ/mol
# Density = 2.350120 g / cm^3
# Si number density = 23.554812 Si / 1000 Ang^3
#
#
#
# Elastic Constant Matrix: (Units=GPa)
#
#
# Indices 1 2 3 4 5 6 
#
# 1 206.0851 7.1543 102.1333 0.0000 -34.5136 0.0000
# 2 7.1543 83.2530 33.5363 0.0000 1.8636 0.0000
# 3 102.1333 33.5363 177.5907 0.0000 -29.0221 0.0000
# 4 0.0000 0.0000 0.0000 40.9963 0.0000 -5.3069
# 5 -34.5136 1.8636 -29.0221 0.0000 55.3881 0.0000
# 6 0.0000 0.0000 0.0000 -5.3069 0.0000 13.3425
#
#
#
# Elastic Compliance Matrix: (Units=1/GPa)
#
#
# Indices 1 2 3 4 5 6 
#
# 1 0.007149 0.000900 -0.003892 0.000000 0.002385 0.000000
# 2 0.000900 0.013296 -0.003292 0.000000 -0.001611 0.000000
# 3 -0.003892 -0.003292 0.008872 0.000000 0.002335 0.000000
# 4 0.000000 0.000000 0.000000 0.025717 0.000000 0.010229
# 5 0.002385 -0.001611 0.002335 0.000000 0.020818 0.000000
# 6 0.000000 0.000000 0.000000 0.010229 0.000000 0.079017
#
#
# Mechanical properties :
#
#
# Convention : Reuss Voigt Hill
#
# Bulk Modulus (GPa) = 59.69903 83.61964 71.65933
# Shear Modulus (GPa) = 28.89841 43.55239 36.22540
#
# Velocity S-wave (km/s) = 3.50645 4.30464 3.92589
# Velocity P-wave (km/s) = 6.46478 7.76426 7.14413
#
# Compressibility (1/GPa) = 0.01675069
#
# Stress axis : x y z
#
# Youngs Moduli (GPa) = 139.87376 75.20884 112.71165
#
# Poissons Ratio (x) = -0.06768 0.43864
# Poissons Ratio (y) = -0.12587 0.37102
# Poissons Ratio (z) = 0.54435 0.24757
#
# Static dielectric constant tensor:
#      x y z
#    x 1.926780 0.000000 0.060140 
#    y 0.000000 1.913320 0.000000 
#    z 0.060140 0.000000 1.973430 
# 
# From -- ./inp_files/64253.got.cif
#   From: 2010.05.17/outbox.cif.g08.bks.cpg/sg5_33_cif.got.tgz:64253.got - 2010.06.03 18:56:24.
