data_PCOD9125106
_publ_section_title
;
Structure prediction by ZEFSAII (Michael W. Deem and Ramdas Pophale) SiO2 
 PCOD9125106
Probable space group: C 2
;
_chemical_formula_sum "Si O2"
_cell_formula_units_Z 32
_cell_length_a 17.036518
_cell_length_b 11.382664
_cell_length_c 7.972592
_cell_angle_alpha 90.000000
_cell_angle_beta 125.683687
_cell_angle_gamma 90.000000
_cell_volume 1255.780741
_symmetry_space_group_name_H-M "C 2"
_symmetry_group_IT_number 5
_symmetry_cell_setting 'monoclinic'
loop_
_space_group_symop_operation_xyz
x,y,z
-x,y,-z
1/2+x,1/2+y,z
1/2-x,1/2+y,-z
loop_
_atom_site_type_symbol
_atom_site_label
_atom_site_fract_x
_atom_site_fract_y
_atom_site_fract_z
Si Si1 0.620311 0.692030 0.847443
Si Si2 0.887045 0.683132 0.986012
Si Si3 0.697892 0.142933 0.759388
Si Si4 0.057782 0.795706 0.392142
Si Si5 0.431265 0.928529 0.051930
Si Si6 0.558586 0.555660 0.248864
Si Si7 0.082794 0.426071 0.488655
Si Si8 0.204043 0.215851 0.579344
O O1 0.625496 0.826576 0.924151
O O2 0.514413 0.639563 0.737455
O O3 0.659561 0.681361 0.707942
O O4 0.690238 0.623994 0.063535
O O5 0.836786 0.694484 0.105542
O O6 0.992222 0.733613 0.165687
O O7 0.878198 0.544525 0.924853
O O8 0.815805 0.740964 0.761750
O O9 0.657590 0.229288 0.565731
O O10 0.644640 0.019851 0.664294
O O11 0.000000 0.791492 0.500000
O O12 0.069053 0.929372 0.348565
O O13 0.510885 0.988650 0.272310
O O14 0.500000 0.868755 0.000000
O O15 0.662970 0.620676 0.397470
O O16 0.500000 0.543457 0.000000
O O17 0.151286 0.338383 0.477037
O O18 0.000000 0.364095 0.500000
#
# Coordination Sequence:
#
# PCOD9125106 Si02
#       8
#     4   4   4   4   4   4   4   4
#     4  11  23  41  66  98 126 172 224 270 322 385
#     4  10  22  41  67 100 127 169 224 270 320 386
#     4  10  21  39  70  99 127 163 225 280 315 375
#     4  10  21  42  66  95 130 170 215 270 326 386
#     4  12  24  42  65  96 137 177 214 268 334 399
#     4  12  26  44  60  91 138 176 209 267 338 400
#     4  12  19  41  68  95 128 172 224 273 322 383
#     4  11  23  40  71  96 125 169 224 279 321 383
#
# _framework density 25.482154000000001
#
# number of rings (size 3 to 8) (size 9 to 14) (size 15 to 20)
#    0.000    1.000    5.000    1.875    3.500    0.500 
#    2.250    0.000    0.000    0.000    0.000    0.000 
#    0.000    0.000    0.000    0.000    0.000    0.000 
#
# Total GULP energy -89371.368911 kJ/mol
# GULP energy per Si atom -5585.710557 kJ/mol
# Density = 2.542416 g / cm^3
# Si number density = 25.482154 Si / 1000 Ang^3
#
#
#
# Elastic Constant Matrix: (Units=GPa)
#
#
# Indices 1 2 3 4 5 6 
#
# 1 45.0399 -2.4792 30.6360 0.0000 4.1729 0.0000
# 2 -2.4792 103.3173 22.2391 0.0000 17.3657 0.0000
# 3 30.6360 22.2391 123.8667 0.0000 12.9417 0.0000
# 4 0.0000 0.0000 0.0000 31.9699 0.0000 3.8891
# 5 4.1729 17.3657 12.9417 0.0000 57.7148 0.0000
# 6 0.0000 0.0000 0.0000 3.8891 0.0000 20.6549
#
#
#
# Elastic Compliance Matrix: (Units=1/GPa)
#
#
# Indices 1 2 3 4 5 6 
#
# 1 0.027223 0.002353 -0.007041 0.000000 -0.001098 0.000000
# 2 0.002353 0.010696 -0.002200 0.000000 -0.002895 0.000000
# 3 -0.007041 -0.002200 0.010329 0.000000 -0.001145 0.000000
# 4 0.000000 0.000000 0.000000 0.032013 0.000000 -0.006028
# 5 -0.001098 -0.002895 -0.001145 0.000000 0.018534 0.000000
# 6 0.000000 0.000000 0.000000 -0.006028 0.000000 0.049550
#
#
# Mechanical properties :
#
#
# Convention : Reuss Voigt Hill
#
# Bulk Modulus (GPa) = 29.00842 41.44619 35.22730
# Shear Modulus (GPa) = 28.80023 36.85643 32.82833
#
# Velocity S-wave (km/s) = 3.36551 3.80723 3.59317
# Velocity P-wave (km/s) = 5.14886 5.96882 5.57394
#
# Compressibility (1/GPa) = 0.03447275
#
# Stress axis : x y z
#
# Youngs Moduli (GPa) = 36.73372 93.49726 96.81255
#
# Poissons Ratio (x) = -0.22002 0.68165
# Poissons Ratio (y) = -0.08644 0.21297
# Poissons Ratio (z) = 0.25864 0.20568
#
# Static dielectric constant tensor:
#      x y z
#    x 2.075560 0.000000 -0.039780 
#    y 0.000000 1.914410 0.000000 
#    z -0.039780 0.000000 2.054650 
# 
# From -- ./inp_files/29637.got.cif
#   From: 2010.05.17/outbox.cif.g08.bks.cpg/sg5_15_cif.got.tgz:29637.got - 2010.06.03 18:56:24.
