data_PCOD9125456
_publ_section_title
;
Structure prediction by ZEFSAII (Michael W. Deem and Ramdas Pophale) SiO2 
 PCOD9125456
Probable space group: C 2
;
_chemical_formula_sum "Si O2"
_cell_formula_units_Z 28
_cell_length_a 7.501105
_cell_length_b 18.434099
_cell_length_c 8.430534
_cell_angle_alpha 90.000000
_cell_angle_beta 79.057064
_cell_angle_gamma 90.000000
_cell_volume 1144.544478
_symmetry_space_group_name_H-M "C 2"
_symmetry_group_IT_number 5
_symmetry_cell_setting 'monoclinic'
loop_
_space_group_symop_operation_xyz
x,y,z
-x,y,-z
1/2+x,1/2+y,z
1/2-x,1/2+y,-z
loop_
_atom_site_type_symbol
_atom_site_label
_atom_site_fract_x
_atom_site_fract_y
_atom_site_fract_z
Si Si1 0.000000 0.401260 0.500000
Si Si2 0.303838 0.113469 0.884237
Si Si3 0.500000 0.837444 0.000000
Si Si4 0.932011 0.966154 0.693007
Si Si5 0.197809 0.659066 0.442589
Si Si6 0.766509 0.618348 0.224611
Si Si7 0.706020 0.953979 0.168596
Si Si8 0.256382 0.814879 0.322496
O O1 0.928403 0.447787 0.657917
O O2 0.846186 0.347744 0.464565
O O3 0.211434 0.122134 0.726851
O O4 0.515603 0.134666 0.824993
O O5 0.321462 0.028518 0.915930
O O6 0.209636 0.144923 0.057614
O O7 0.647649 0.888229 0.065753
O O8 0.399082 0.796907 0.159104
O O9 0.850844 0.885279 0.716958
O O10 0.000000 0.975121 0.500000
O O11 0.094684 0.960844 0.791373
O O12 0.798039 0.034447 0.743740
O O13 0.291044 0.655209 0.598845
O O14 0.165995 0.740519 0.387005
O O15 0.000000 0.622558 0.500000
#
# Coordination Sequence:
#
# PCOD9125456 Si02
#       8
#     2   4   2   4   4   4   4   4
#     4  10  22  40  68  86 134 180 216 268 340 410
#     4  10  21  41  67  93 131 181 226 267 340 419
#     4  10  24  44  68  96 136 186 224 276 352 414
#     4  12  23  38  69 106 137 168 231 296 336 394
#     4  10  23  42  68  94 134 182 228 276 338 411
#     4  10  22  43  66  97 134 180 226 274 341 410
#     4  11  22  40  68 104 131 174 222 287 338 405
#     4  11  23  45  63  97 133 181 230 277 342 405
#
# _framework density 24.463882999999999
#
# number of rings (size 3 to 8) (size 9 to 14) (size 15 to 20)
#    0.000    1.429    1.429    4.714    3.000    2.286 
#    9.000    2.857    0.000    0.000    0.000    0.000 
#    0.000    0.000    0.000    0.000    0.000    0.000 
#
# Total GULP energy -78148.403800 kJ/mol
# GULP energy per Si atom -5582.028843 kJ/mol
# Density = 2.440820 g / cm^3
# Si number density = 24.463883 Si / 1000 Ang^3
#
#
#
# Elastic Constant Matrix: (Units=GPa)
#
#
# Indices 1 2 3 4 5 6 
#
# 1 60.2751 15.0998 21.0718 0.0000 15.4628 0.0000
# 2 15.0998 80.8444 31.2324 0.0000 -11.9410 0.0000
# 3 21.0718 31.2324 235.3133 0.0000 -7.0716 0.0000
# 4 0.0000 0.0000 0.0000 2.8137 0.0000 -17.9492
# 5 15.4628 -11.9410 -7.0716 0.0000 35.7634 0.0000
# 6 0.0000 0.0000 0.0000 -17.9492 0.0000 22.7950
#
#
#
# Elastic Compliance Matrix: (Units=1/GPa)
#
#
# Indices 1 2 3 4 5 6 
#
# 1 0.021265 -0.005015 -0.001575 0.000000 -0.011180 0.000000
# 2 -0.005015 0.014826 -0.001313 0.000000 0.006859 0.000000
# 3 -0.001575 -0.001313 0.004600 0.000000 0.001152 0.000000
# 4 0.000000 0.000000 0.000000 -0.088341 0.000000 -0.069561
# 5 -0.011180 0.006859 0.001152 0.000000 0.035313 0.000000
# 6 0.000000 0.000000 0.000000 -0.069561 0.000000 -0.010904
#
#
# Mechanical properties :
#
#
# Convention : Reuss Voigt Hill
#
# Bulk Modulus (GPa) = 40.18176 56.80452 48.49314
# Shear Modulus (GPa) = 5820.13814 32.87636 2926.50725
#
# Velocity S-wave (km/s) = 48.82867 3.66986 34.62446
# Velocity P-wave (km/s) = 56.52827 6.42085 40.22855
#
# Compressibility (1/GPa) = 0.02488692
#
# Stress axis : x y z
#
# Youngs Moduli (GPa) = 47.02452 67.44765 217.41470
#
# Poissons Ratio (x) = 0.33824 0.34235
# Poissons Ratio (y) = 0.23582 0.28539
# Poissons Ratio (z) = 0.07405 0.08854
#
# Static dielectric constant tensor:
#      x y z
#    x 2.008420 0.000000 -0.000080 
#    y 0.000000 1.953620 0.000000 
#    z -0.000080 0.000000 2.009720 
# 
# From -- ./inp_files/16119.got.cif
#   From: 2010.05.17/outbox.cif.g08.bks.cpg/sg5_9_cif.got.tgz:16119.got - 2010.06.03 18:56:24.
