data_PCOD9125429
_publ_section_title
;
Structure prediction by ZEFSAII (Michael W. Deem and Ramdas Pophale) SiO2 
 PCOD9125429
Probable space group: C 2
;
_chemical_formula_sum "Si O2"
_cell_formula_units_Z 22
_cell_length_a 5.389844
_cell_length_b 14.068977
_cell_length_c 12.144758
_cell_angle_alpha 90.000000
_cell_angle_beta 88.889313
_cell_angle_gamma 90.000000
_cell_volume 920.759005
_symmetry_space_group_name_H-M "C 2"
_symmetry_group_IT_number 5
_symmetry_cell_setting 'monoclinic'
loop_
_space_group_symop_operation_xyz
x,y,z
-x,y,-z
1/2+x,1/2+y,z
1/2-x,1/2+y,-z
loop_
_atom_site_type_symbol
_atom_site_label
_atom_site_fract_x
_atom_site_fract_y
_atom_site_fract_z
Si Si1 0.052093 0.530550 0.878489
Si Si2 0.168676 0.994173 0.690476
Si Si3 0.781466 0.127748 0.669807
Si Si4 0.455414 0.302328 0.248486
Si Si5 0.500000 0.997585 0.500000
Si Si6 0.562158 0.811740 0.881771
O O1 0.814422 0.515062 0.801576
O O2 0.225783 0.592268 0.796383
O O3 0.143368 0.422287 0.899648
O O4 0.000000 0.572107 0.000000
O O5 0.328281 0.947455 0.590573
O O6 0.066460 0.096772 0.653781
O O7 0.977053 0.908515 0.712010
O O8 0.647888 0.228220 0.661679
O O9 0.657599 0.061090 0.581298
O O10 0.702470 0.266867 0.183326
O O11 0.201702 0.311724 0.178672
O O12 0.500000 0.767239 0.000000
#
# Coordination Sequence:
#
# PCOD9125429 Si02
#       6
#     4   4   4   4   2   4
#     4   9  20  38  66  96 137 181 224 273 344 413
#     4  10  22  45  66  97 136 182 230 287 352 418
#     4  11  23  43  67  96 137 173 236 286 345 415
#     4  11  24  41  69 101 137 178 233 287 346 417
#     4  10  24  46  66  90 132 176 232 292 352 410
#     4  10  21  41  65  98 142 187 225 277 344 417
#
# _framework density 23.893333999999999
#
# number of rings (size 3 to 8) (size 9 to 14) (size 15 to 20)
#    0.000    1.818    1.818    1.091    5.091    2.182 
#    6.545    0.000    0.000    0.000    0.000    0.000 
#    0.000    0.000    0.000    0.000    0.000    0.000 
#
# Total GULP energy -61252.308499 kJ/mol
# GULP energy per Si atom -5568.391682 kJ/mol
# Density = 2.383895 g / cm^3
# Si number density = 23.893334 Si / 1000 Ang^3
#
#
#
# Elastic Constant Matrix: (Units=GPa)
#
#
# Indices 1 2 3 4 5 6 
#
# 1 77.7278 10.1945 18.3630 0.0000 -18.5079 0.0000
# 2 10.1945 64.8741 -1.1573 0.0000 -7.5235 0.0000
# 3 18.3630 -1.1573 125.2529 0.0000 -15.0812 0.0000
# 4 0.0000 0.0000 0.0000 -15.6593 0.0000 -18.9333
# 5 -18.5079 -7.5235 -15.0812 0.0000 16.5616 0.0000
# 6 0.0000 0.0000 0.0000 -18.9333 0.0000 25.6071
#
#
#
# Elastic Compliance Matrix: (Units=1/GPa)
#
#
# Indices 1 2 3 4 5 6 
#
# 1 0.017554 -0.000546 -0.000277 0.000000 0.019117 0.000000
# 2 -0.000546 0.016442 0.001188 0.000000 0.007941 0.000000
# 3 -0.000277 0.001188 0.009056 0.000000 0.008477 0.000000
# 4 0.000000 0.000000 0.000000 -0.033718 0.000000 -0.024930
# 5 0.019117 0.007941 0.008477 0.000000 0.093071 0.000000
# 6 0.000000 0.000000 0.000000 -0.024930 0.000000 0.020619
#
#
# Mechanical properties :
#
#
# Convention : Reuss Voigt Hill
#
# Bulk Modulus (GPa) = 22.84011 35.85060 29.34536
# Shear Modulus (GPa) = 36.52572 21.33219 28.92895
#
# Velocity S-wave (km/s) = 3.91410 2.99123 3.48336
# Velocity P-wave (km/s) = 5.47785 5.19297 5.33731
#
# Compressibility (1/GPa) = 0.04378262
#
# Stress axis : x y z
#
# Youngs Moduli (GPa) = 56.96547 60.81831 110.42290
#
# Poissons Ratio (x) = 0.03324 0.03057
# Poissons Ratio (y) = 0.03113 -0.13120
# Poissons Ratio (z) = 0.01577 -0.07226
#
# Static dielectric constant tensor:
#      x y z
#    x 2.067500 0.000000 -0.077400 
#    y 0.000000 1.964740 0.000000 
#    z -0.077400 0.000000 1.906850 
# 
# From -- ./inp_files/33213.got.cif
#   From: 2010.05.17/outbox.cif.g08.bks.cpg/sg5_17_cif.got.tgz:33213.got - 2010.06.03 18:56:24.
