data_PCOD9125328
_publ_section_title
;
Structure prediction by ZEFSAII (Michael W. Deem and Ramdas Pophale) SiO2 
 PCOD9125328
Probable space group: C 2
;
_chemical_formula_sum "Si O2"
_cell_formula_units_Z 24
_cell_length_a 17.611696
_cell_length_b 10.720353
_cell_length_c 9.307436
_cell_angle_alpha 90.000000
_cell_angle_beta 33.187373
_cell_angle_gamma 90.000000
_cell_volume 961.896401
_symmetry_space_group_name_H-M "C 2"
_symmetry_group_IT_number 5
_symmetry_cell_setting 'monoclinic'
loop_
_space_group_symop_operation_xyz
x,y,z
-x,y,-z
1/2+x,1/2+y,z
1/2-x,1/2+y,-z
loop_
_atom_site_type_symbol
_atom_site_label
_atom_site_fract_x
_atom_site_fract_y
_atom_site_fract_z
Si Si1 0.793843 0.405100 0.312738
Si Si2 0.650769 0.462266 0.252780
Si Si3 0.344950 0.073937 0.722302
Si Si4 0.204574 0.303714 0.187219
Si Si5 0.279773 0.673403 0.540325
Si Si6 0.914957 0.226594 0.920240
O O1 0.680788 0.420201 0.365121
O O2 0.802566 0.545647 0.360163
O O3 0.752735 0.296597 0.488320
O O4 0.915497 0.350090 0.017078
O O5 0.500000 0.519611 0.500000
O O6 0.662499 0.348369 0.119657
O O7 0.769471 0.549212 0.995894
O O8 0.500000 0.120917 0.500000
O O9 0.350652 0.932818 0.654527
O O10 0.227556 0.151165 0.824111
O O11 0.237394 0.214980 0.267074
O O12 0.101306 0.264528 0.220876
O O13 0.446602 0.651617 0.263855
#
# Coordination Sequence:
#
# PCOD9125328 Si02
#       6
#     4   4   4   4   4   4
#     4  11  27  44  74 103 148 201 251 305 379 453
#     4   9  20  43  73 109 144 190 246 309 375 444
#     4  10  21  40  74 113 144 181 252 315 372 440
#     4   9  23  41  76 104 141 192 248 312 370 448
#     4  12  25  49  70 107 151 205 250 311 383 455
#     4  11  23  45  75 102 149 198 247 318 380 445
#
# _framework density 24.950710999999998
#
# number of rings (size 3 to 8) (size 9 to 14) (size 15 to 20)
#    1.000    0.667    0.000    4.000    2.333    2.667 
#    0.000    4.167    0.000    0.000    0.000    0.000 
#    0.000    0.000    0.000    0.000    0.000    0.000 
#
# Total GULP energy -66922.546509 kJ/mol
# GULP energy per Si atom -5576.878876 kJ/mol
# Density = 2.489392 g / cm^3
# Si number density = 24.950711 Si / 1000 Ang^3
#
#
#
# Elastic Constant Matrix: (Units=GPa)
#
#
# Indices 1 2 3 4 5 6 
#
# 1 97.8168 47.8161 34.7126 0.0000 22.1827 0.0000
# 2 47.8161 157.3360 48.9102 0.0000 19.2922 0.0000
# 3 34.7126 48.9102 120.9092 0.0000 -3.9721 0.0000
# 4 0.0000 0.0000 0.0000 51.7769 0.0000 10.6417
# 5 22.1827 19.2922 -3.9721 0.0000 51.4985 0.0000
# 6 0.0000 0.0000 0.0000 10.6417 0.0000 44.2669
#
#
#
# Elastic Compliance Matrix: (Units=1/GPa)
#
#
# Indices 1 2 3 4 5 6 
#
# 1 0.013757 -0.002589 -0.003073 0.000000 -0.005193 0.000000
# 2 -0.002589 0.008236 -0.002660 0.000000 -0.002175 0.000000
# 3 -0.003073 -0.002660 0.010331 0.000000 0.003117 0.000000
# 4 0.000000 0.000000 0.000000 0.020318 0.000000 -0.004884
# 5 -0.005193 -0.002175 0.003117 0.000000 0.022710 0.000000
# 6 0.000000 0.000000 0.000000 -0.004884 0.000000 0.023764
#
#
# Mechanical properties :
#
#
# Convention : Reuss Voigt Hill
#
# Bulk Modulus (GPa) = 63.77152 70.99331 67.38242
# Shear Modulus (GPa) = 41.32680 45.81667 43.57174
#
# Velocity S-wave (km/s) = 4.07423 4.28984 4.18342
# Velocity P-wave (km/s) = 6.90992 7.28369 7.09926
#
# Compressibility (1/GPa) = 0.01568098
#
# Stress axis : x y z
#
# Youngs Moduli (GPa) = 72.69113 121.41469 96.79344
#
# Poissons Ratio (x) = 0.31433 0.29744
# Poissons Ratio (y) = 0.18819 0.25746
# Poissons Ratio (z) = 0.22337 0.32296
#
# Static dielectric constant tensor:
#      x y z
#    x 1.982510 0.000000 -0.009110 
#    y 0.000000 2.199320 0.000000 
#    z -0.009110 0.000000 2.024220 
# 
# From -- ./inp_files/45950.got.cif
#   From: 2010.05.17/outbox.cif.g08.bks.cpg/sg5_23_cif.got.tgz:45950.got - 2010.06.03 18:56:24.
