data_PCOD9125401
_publ_section_title
;
Structure prediction by ZEFSAII (Michael W. Deem and Ramdas Pophale) SiO2 
 PCOD9125401
Probable space group: C 2
;
_chemical_formula_sum "Si O2"
_cell_formula_units_Z 24
_cell_length_a 10.710838
_cell_length_b 12.278938
_cell_length_c 8.397790
_cell_angle_alpha 90.000000
_cell_angle_beta 87.345336
_cell_angle_gamma 90.000000
_cell_volume 1103.272893
_symmetry_space_group_name_H-M "C 2"
_symmetry_group_IT_number 5
_symmetry_cell_setting 'monoclinic'
loop_
_space_group_symop_operation_xyz
x,y,z
-x,y,-z
1/2+x,1/2+y,z
1/2-x,1/2+y,-z
loop_
_atom_site_type_symbol
_atom_site_label
_atom_site_fract_x
_atom_site_fract_y
_atom_site_fract_z
Si Si1 0.299392 0.430730 0.658693
Si Si2 0.207153 0.814326 0.672547
Si Si3 0.455184 0.492230 0.181244
Si Si4 0.415360 0.097755 0.350000
Si Si5 0.976594 0.212711 0.679678
Si Si6 0.423474 0.903934 0.155425
O O1 0.288903 0.347484 0.513874
O O2 0.440323 0.452748 0.698160
O O3 0.219525 0.538318 0.611133
O O4 0.226318 0.401672 0.828099
O O5 0.101999 0.722006 0.696386
O O6 0.333903 0.751631 0.715139
O O7 0.169163 0.924065 0.768643
O O8 0.462268 0.622633 0.208808
O O9 0.500000 0.469780 0.000000
O O10 0.500000 0.087333 0.500000
O O11 0.466576 0.024377 0.202736
O O12 0.000000 0.172964 0.500000
O O13 0.046211 0.326466 0.698960
O O14 0.500000 0.865777 0.000000
#
# Coordination Sequence:
#
# PCOD9125401 Si02
#       6
#     4   4   4   4   4   4
#     4  10  22  44  65 102 133 178 237 287 345 425
#     4  12  24  43  76  96 141 187 239 299 348 426
#     4  12  28  46  68 106 148 187 234 296 365 425
#     4  10  21  41  65 102 133 176 243 287 353 415
#     4  12  22  47  72 104 135 186 246 291 353 429
#     4  10  22  39  69  97 139 179 228 295 358 417
#
# _framework density 21.753456
#
# number of rings (size 3 to 8) (size 9 to 14) (size 15 to 20)
#    1.000    0.000    3.333    4.500    2.333    0.667 
#    0.000    0.000    0.000    0.000    0.000    0.000 
#    0.000    0.000    0.000    0.000    0.000    0.000 
#
# Total GULP energy -66851.102752 kJ/mol
# GULP energy per Si atom -5570.925229 kJ/mol
# Density = 2.170394 g / cm^3
# Si number density = 21.753456 Si / 1000 Ang^3
#
#
#
# Elastic Constant Matrix: (Units=GPa)
#
#
# Indices 1 2 3 4 5 6 
#
# 1 58.2937 22.9578 6.2686 0.0000 -3.8010 0.0000
# 2 22.9578 107.5754 16.8588 0.0000 -4.0888 0.0000
# 3 6.2686 16.8588 76.8407 0.0000 -18.7638 0.0000
# 4 0.0000 0.0000 0.0000 14.5226 0.0000 -7.7147
# 5 -3.8010 -4.0888 -18.7638 0.0000 31.8909 0.0000
# 6 0.0000 0.0000 0.0000 -7.7147 0.0000 30.1167
#
#
#
# Elastic Compliance Matrix: (Units=1/GPa)
#
#
# Indices 1 2 3 4 5 6 
#
# 1 0.018829 -0.003913 -0.000294 0.000000 0.001569 0.000000
# 2 -0.003913 0.010440 -0.002053 0.000000 -0.000336 0.000000
# 3 -0.000294 -0.002053 0.015666 0.000000 0.008919 0.000000
# 4 0.000000 0.000000 0.000000 0.079704 0.000000 0.020417
# 5 0.001569 -0.000336 0.008919 0.000000 0.036749 0.000000
# 6 0.000000 0.000000 0.000000 0.020417 0.000000 0.038434
#
#
# Mechanical properties :
#
#
# Convention : Reuss Voigt Hill
#
# Bulk Modulus (GPa) = 30.84997 37.20890 34.02943
# Shear Modulus (GPa) = 22.40661 28.41436 25.41049
#
# Velocity S-wave (km/s) = 3.21288 3.61806 3.42147
# Velocity P-wave (km/s) = 5.28923 5.88182 5.59337
#
# Compressibility (1/GPa) = 0.03241495
#
# Stress axis : x y z
#
# Youngs Moduli (GPa) = 53.10838 95.78703 63.83048
#
# Poissons Ratio (x) = 0.37478 0.01879
# Poissons Ratio (y) = 0.20779 0.13107
# Poissons Ratio (z) = 0.01564 0.19668
#
# Static dielectric constant tensor:
#      x y z
#    x 1.910570 0.000000 -0.023560 
#    y 0.000000 1.813870 0.000000 
#    z -0.023560 0.000000 1.804930 
# 
# From -- ./inp_files/19360.got.cif
#   From: 2010.05.17/outbox.cif.g08.bks.cpg/sg5_10_cif.got.tgz:19360.got - 2010.06.03 18:56:24.
