data_PCOD9125506
_publ_section_title
;
Structure prediction by ZEFSAII (Michael W. Deem and Ramdas Pophale) SiO2 
 PCOD9125506
Probable space group: C 2
;
_chemical_formula_sum "Si O2"
_cell_formula_units_Z 28
_cell_length_a 20.422568
_cell_length_b 9.351918
_cell_length_c 8.818966
_cell_angle_alpha 90.000000
_cell_angle_beta 123.511697
_cell_angle_gamma 90.000000
_cell_volume 1404.354021
_symmetry_space_group_name_H-M "C 2"
_symmetry_group_IT_number 5
_symmetry_cell_setting 'monoclinic'
loop_
_space_group_symop_operation_xyz
x,y,z
-x,y,-z
1/2+x,1/2+y,z
1/2-x,1/2+y,-z
loop_
_atom_site_type_symbol
_atom_site_label
_atom_site_fract_x
_atom_site_fract_y
_atom_site_fract_z
Si Si1 0.247035 0.467930 0.433354
Si Si2 0.117457 0.485987 0.848424
Si Si3 0.659838 0.202172 0.166240
Si Si4 0.500000 0.167050 0.500000
Si Si5 0.577723 0.337980 0.326258
Si Si6 0.743704 0.485656 0.204018
Si Si7 0.000000 0.046142 0.000000
Si Si8 0.641462 0.749347 0.102919
O O1 0.234157 0.620582 0.335947
O O2 0.336998 0.413414 0.538508
O O3 0.225897 0.487998 0.583275
O O4 0.188065 0.355894 0.276230
O O5 0.192494 0.454167 0.840335
O O6 0.055269 0.560184 0.662243
O O7 0.133537 0.603852 0.996827
O O8 0.100356 0.342926 0.920322
O O9 0.597240 0.220828 0.221011
O O10 0.680715 0.358133 0.130781
O O11 0.545820 0.266024 0.437482
O O12 0.516173 0.445716 0.167231
O O13 0.705680 0.638812 0.121474
O O14 0.924051 0.147486 0.909401
#
# Coordination Sequence:
#
# PCOD9125506 Si02
#       8
#     4   4   4   2   4   4   2   4
#     4  10  21  41  70 102 123 186 230 279 329 410
#     4  11  25  41  63  98 132 177 222 285 332 405
#     4  10  21  41  71  91 127 176 230 270 335 400
#     4  12  26  44  64  98 138 182 228 278 352 406
#     4  11  24  43  70  98 138 179 227 279 340 415
#     4  11  20  40  68  95 132 168 232 277 328 404
#     4  12  24  44  66 102 144 176 220 280 356 402
#     4  11  24  42  67  99 136 174 228 283 345 399
#
# _framework density 19.937992999999999
#
# number of rings (size 3 to 8) (size 9 to 14) (size 15 to 20)
#    0.000    1.143    2.857    5.143    0.000    4.571 
#    2.571    0.000    0.000    0.000    0.000    0.000 
#    0.000    0.000    0.000    0.000    0.000    0.000 
#
# Total GULP energy -78179.966244 kJ/mol
# GULP energy per Si atom -5584.283303 kJ/mol
# Density = 1.989261 g / cm^3
# Si number density = 19.937993 Si / 1000 Ang^3
#
#
#
# Elastic Constant Matrix: (Units=GPa)
#
#
# Indices 1 2 3 4 5 6 
#
# 1 84.5093 24.2318 39.8718 0.0000 -20.0600 0.0000
# 2 24.2318 108.3992 51.1883 0.0000 -14.0793 0.0000
# 3 39.8718 51.1883 96.3402 0.0000 -10.4312 0.0000
# 4 0.0000 0.0000 0.0000 75.6578 0.0000 -108.5012
# 5 -20.0600 -14.0793 -10.4312 0.0000 28.0554 0.0000
# 6 0.0000 0.0000 0.0000 -108.5012 0.0000 294.5346
#
#
#
# Elastic Compliance Matrix: (Units=1/GPa)
#
#
# Indices 1 2 3 4 5 6 
#
# 1 0.017020 0.000422 -0.006176 0.000000 0.010085 0.000000
# 2 0.000422 0.012750 -0.006485 0.000000 0.004289 0.000000
# 3 -0.006176 -0.006485 0.016203 0.000000 -0.001646 0.000000
# 4 0.000000 0.000000 0.000000 0.028021 0.000000 0.010322
# 5 0.010085 0.004289 -0.001646 0.000000 0.044395 0.000000
# 6 0.000000 0.000000 0.000000 0.010322 0.000000 0.007198
#
#
# Mechanical properties :
#
#
# Convention : Reuss Voigt Hill
#
# Bulk Modulus (GPa) = 46.52220 57.75918 52.14069
# Shear Modulus (GPa) = 31.80064 91.24668 61.52366
#
# Velocity S-wave (km/s) = 3.99805 6.77234 5.56098
# Velocity P-wave (km/s) = 6.68555 9.49658 8.21224
#
# Compressibility (1/GPa) = 0.02149511
#
# Stress axis : x y z
#
# Youngs Moduli (GPa) = 58.75519 78.43050 61.71622
#
# Poissons Ratio (x) = -0.03307 0.38116
# Poissons Ratio (y) = -0.02477 0.40021
# Poissons Ratio (z) = 0.36287 0.50859
#
# Static dielectric constant tensor:
#      x y z
#    x 1.693820 0.000000 -0.084760 
#    y 0.000000 1.705800 0.000000 
#    z -0.084760 0.000000 0.719950 
# 
# From -- ./inp_files/29125.got.cif
#   From: 2010.05.17/outbox.cif.g08.bks.cpg/sg5_15_cif.got.tgz:29125.got - 2010.06.03 18:56:24.
