data_PCOD9125110
_publ_section_title
;
Structure prediction by ZEFSAII (Michael W. Deem and Ramdas Pophale) SiO2 
 PCOD9125110
Probable space group: C 2
;
_chemical_formula_sum "Si O2"
_cell_formula_units_Z 30
_cell_length_a 13.973076
_cell_length_b 5.141261
_cell_length_c 16.621594
_cell_angle_alpha 90.000000
_cell_angle_beta 98.138919
_cell_angle_gamma 90.000000
_cell_volume 1182.055392
_symmetry_space_group_name_H-M "C 2"
_symmetry_group_IT_number 5
_symmetry_cell_setting 'monoclinic'
loop_
_space_group_symop_operation_xyz
x,y,z
-x,y,-z
1/2+x,1/2+y,z
1/2-x,1/2+y,-z
loop_
_atom_site_type_symbol
_atom_site_label
_atom_site_fract_x
_atom_site_fract_y
_atom_site_fract_z
Si Si1 0.273167 0.853770 0.050801
Si Si2 0.299329 0.317560 0.471409
Si Si3 0.939904 0.825150 0.733258
Si Si4 0.332523 0.678991 0.831043
Si Si5 0.062627 0.230223 0.673633
Si Si6 0.742433 0.992461 0.302063
Si Si7 0.500000 0.628456 0.500000
Si Si8 0.523439 0.955912 0.847285
O O1 0.208491 0.963743 0.115638
O O2 0.383368 0.896672 0.090326
O O3 0.250526 0.559149 0.023409
O O4 0.224336 0.541583 0.492299
O O5 0.276823 0.296360 0.374351
O O6 0.404546 0.446603 0.497557
O O7 0.867992 0.051836 0.752040
O O8 0.865183 0.603727 0.697556
O O9 0.017185 0.940027 0.681717
O O10 0.994251 0.751250 0.823364
O O11 0.254215 0.882141 0.788356
O O12 0.427842 0.825549 0.873022
O O13 0.177244 0.214826 0.680923
O O14 0.017657 0.302118 0.582263
O O15 0.041177 0.367116 0.756088
#
# Coordination Sequence:
#
# PCOD9125110 Si02
#       8
#     4   4   4   4   4   4   2   4
#     4  12  30  50  76 109 149 184 234 301 365 438
#     4  11  26  44  67 101 150 190 247 305 367 416
#     4  10  21  39  71  96 136 180 247 286 355 433
#     4  10  24  44  73 101 138 183 239 288 360 439
#     4  10  21  41  66  97 142 187 243 295 353 422
#     4  10  22  39  68  98 132 193 234 296 353 430
#     4  10  24  44  64 110 146 196 250 308 360 416
#     4  10  24  44  72 104 136 196 232 295 357 435
#
# _framework density 25.379521
#
# number of rings (size 3 to 8) (size 9 to 14) (size 15 to 20)
#    0.000    1.600    0.000    2.400   16.800    1.067 
#    7.200    0.000    0.000    0.000    0.000    0.000 
#    0.000    0.000    0.000    0.000    0.000    0.000 
#
# Total GULP energy -83887.406220 kJ/mol
# GULP energy per Si atom -5592.493748 kJ/mol
# Density = 2.532176 g / cm^3
# Si number density = 25.379521 Si / 1000 Ang^3
#
#
#
# Elastic Constant Matrix: (Units=GPa)
#
#
# Indices 1 2 3 4 5 6 
#
# 1 102.6521 -2.2511 30.4760 0.0000 25.2506 0.0000
# 2 -2.2511 52.7400 6.2855 0.0000 -5.0692 0.0000
# 3 30.4760 6.2855 95.7387 0.0000 25.8457 0.0000
# 4 0.0000 0.0000 0.0000 34.7652 0.0000 -4.0410
# 5 25.2506 -5.0692 25.8457 0.0000 43.8853 0.0000
# 6 0.0000 0.0000 0.0000 -4.0410 0.0000 16.8642
#
#
#
# Elastic Compliance Matrix: (Units=1/GPa)
#
#
# Indices 1 2 3 4 5 6 
#
# 1 0.011754 0.000260 -0.002308 0.000000 -0.005374 0.000000
# 2 0.000260 0.019580 -0.002305 0.000000 0.003469 0.000000
# 3 -0.002308 -0.002305 0.013132 0.000000 -0.006672 0.000000
# 4 0.000000 0.000000 0.000000 0.029589 0.000000 0.007090
# 5 -0.005374 0.003469 -0.006672 0.000000 0.030209 0.000000
# 6 0.000000 0.000000 0.000000 0.007090 0.000000 0.060996
#
#
# Mechanical properties :
#
#
# Convention : Reuss Voigt Hill
#
# Bulk Modulus (GPa) = 27.96297 35.57241 31.76769
# Shear Modulus (GPa) = 26.89810 33.54431 30.22120
#
# Velocity S-wave (km/s) = 3.25904 3.63947 3.45450
# Velocity P-wave (km/s) = 5.02032 5.63095 5.33438
#
# Compressibility (1/GPa) = 0.03576158
#
# Stress axis : x y z
#
# Youngs Moduli (GPa) = 85.07407 51.07200 76.14735
#
# Poissons Ratio (x) = -0.01329 0.17575
# Poissons Ratio (y) = -0.02214 0.17552
# Poissons Ratio (z) = 0.19636 0.11772
#
# Static dielectric constant tensor:
#      x y z
#    x 1.960520 0.000000 -0.038780 
#    y 0.000000 2.155650 0.000000 
#    z -0.038780 0.000000 2.011620 
# 
# From -- ./inp_files/61241.got.cif
#   From: 2010.05.17/outbox.cif.g08.bks.cpg/sg5_31_cif.got.tgz:61241.got - 2010.06.03 18:56:24.
