data_PCOD9125805
_publ_section_title
;
Structure prediction by ZEFSAII (Michael W. Deem and Ramdas Pophale) SiO2 
 PCOD9125805
Probable space group: C 2
;
_chemical_formula_sum "Si O2"
_cell_formula_units_Z 18
_cell_length_a 10.097805
_cell_length_b 14.787752
_cell_length_c 6.780276
_cell_angle_alpha 90.000000
_cell_angle_beta 135.093222
_cell_angle_gamma 90.000000
_cell_volume 714.749322
_symmetry_space_group_name_H-M "C 2"
_symmetry_group_IT_number 5
_symmetry_cell_setting 'monoclinic'
loop_
_space_group_symop_operation_xyz
x,y,z
-x,y,-z
1/2+x,1/2+y,z
1/2-x,1/2+y,-z
loop_
_atom_site_type_symbol
_atom_site_label
_atom_site_fract_x
_atom_site_fract_y
_atom_site_fract_z
Si Si1 0.818255 0.120690 0.669672
Si Si2 0.479692 0.232844 0.215580
Si Si3 0.856227 0.336681 0.036616
Si Si4 0.000000 0.188342 0.500000
Si Si5 0.033485 0.533195 0.799907
O O1 0.684490 0.210423 0.522889
O O2 0.880512 0.121683 0.508299
O O3 0.666322 0.040540 0.524838
O O4 0.000000 0.118184 0.000000
O O5 0.500000 0.246657 0.000000
O O6 0.364493 0.312566 0.192662
O O7 0.380553 0.133525 0.146210
O O8 0.920082 0.258775 0.255902
O O9 0.872757 0.437884 0.136447
O O10 0.000000 0.332396 0.000000
O O11 0.000000 0.534766 0.000000
#
# Coordination Sequence:
#
# PCOD9125805 Si02
#       5
#     4   4   4   2   4
#     4  10  21  43  80 106 150 204 255 312 388 457
#     4   9  18  44  78 109 149 205 254 306 387 453
#     4  11  22  42  77 107 154 200 254 320 376 457
#     4  12  22  42  70 106 152 202 248 314 382 460
#     4   8  18  41  76 106 152 197 250 317 375 455
#
# _framework density 25.183655000000002
#
# number of rings (size 3 to 8) (size 9 to 14) (size 15 to 20)
#    1.333    0.889    2.222    0.667    0.000    0.000 
#    0.000   16.667   29.333    0.000    0.000    0.000 
#    0.000    0.000    0.000    0.000    0.000    0.000 
#
# Total GULP energy -50150.874376 kJ/mol
# GULP energy per Si atom -5572.319375 kJ/mol
# Density = 2.512634 g / cm^3
# Si number density = 25.183655 Si / 1000 Ang^3
#
#
#
# Elastic Constant Matrix: (Units=GPa)
#
#
# Indices 1 2 3 4 5 6 
#
# 1 161.3559 94.6927 76.6761 0.0000 13.5276 0.0000
# 2 94.6927 158.2442 43.1023 0.0000 9.9855 0.0000
# 3 76.6761 43.1023 168.3387 0.0000 13.7548 0.0000
# 4 0.0000 0.0000 0.0000 25.2083 0.0000 5.5646
# 5 13.5276 9.9855 13.7548 0.0000 57.8952 0.0000
# 6 0.0000 0.0000 0.0000 5.5646 0.0000 46.4809
#
#
#
# Elastic Compliance Matrix: (Units=1/GPa)
#
#
# Indices 1 2 3 4 5 6 
#
# 1 0.011379 -0.005767 -0.003641 0.000000 -0.000799 0.000000
# 2 -0.005767 0.009750 0.000161 0.000000 -0.000372 0.000000
# 3 -0.003641 0.000161 0.007639 0.000000 -0.000992 0.000000
# 4 0.000000 0.000000 0.000000 0.040746 0.000000 -0.004878
# 5 -0.000799 -0.000372 -0.000992 0.000000 0.017759 0.000000
# 6 0.000000 0.000000 0.000000 -0.004878 0.000000 0.022098
#
#
# Mechanical properties :
#
#
# Convention : Reuss Voigt Hill
#
# Bulk Modulus (GPa) = 97.34116 101.87568 99.60842
# Shear Modulus (GPa) = 38.08340 44.14806 41.11573
#
# Velocity S-wave (km/s) = 3.89296 4.19148 4.04497
# Velocity P-wave (km/s) = 7.67745 7.99785 7.83929
#
# Compressibility (1/GPa) = 0.01027315
#
# Stress axis : x y z
#
# Youngs Moduli (GPa) = 87.87989 102.56388 130.91121
#
# Poissons Ratio (x) = 0.59149 0.47667
# Poissons Ratio (y) = 0.50681 -0.02105
# Poissons Ratio (z) = 0.31998 -0.01649
#
# Static dielectric constant tensor:
#      x y z
#    x 2.209710 0.000000 0.003370 
#    y 0.000000 1.931560 0.000000 
#    z 0.003370 0.000000 2.158420 
# 
# From -- ./inp_files/2344.got.cif
#   From: 2010.05.17/outbox.cif.g08.bks.cpg/sg5_2_cif.got.tgz:2344.got - 2010.06.03 18:56:24.
