data_PCOD9125577
_publ_section_title
;
Structure prediction by ZEFSAII (Michael W. Deem and Ramdas Pophale) SiO2 
 PCOD9125577
Probable space group: C 2
;
_chemical_formula_sum "Si O2"
_cell_formula_units_Z 24
_cell_length_a 15.476771
_cell_length_b 12.524828
_cell_length_c 11.686543
_cell_angle_alpha 90.000000
_cell_angle_beta 148.038049
_cell_angle_gamma 90.000000
_cell_volume 1199.184505
_symmetry_space_group_name_H-M "C 2"
_symmetry_group_IT_number 5
_symmetry_cell_setting 'monoclinic'
loop_
_space_group_symop_operation_xyz
x,y,z
-x,y,-z
1/2+x,1/2+y,z
1/2-x,1/2+y,-z
loop_
_atom_site_type_symbol
_atom_site_label
_atom_site_fract_x
_atom_site_fract_y
_atom_site_fract_z
Si Si1 0.199611 0.506260 0.722119
Si Si2 0.327937 0.156076 0.517502
Si Si3 0.706339 0.200254 0.879754
Si Si4 0.319420 0.771334 0.247600
Si Si5 0.687555 0.075840 0.243639
Si Si6 0.803420 0.337547 0.770790
O O1 0.234600 0.565837 0.642050
O O2 0.260437 0.584862 0.891219
O O3 0.259469 0.385759 0.808043
O O4 0.000000 0.505665 0.500000
O O5 0.519729 0.180760 0.710114
O O6 0.299115 0.116025 0.612103
O O7 0.239495 0.266097 0.387108
O O8 0.723753 0.278765 0.790800
O O9 0.805678 0.248928 0.097069
O O10 0.500000 0.779259 0.500000
O O11 0.248217 0.667844 0.228639
O O12 0.761272 0.958041 0.311392
O O13 0.500000 0.061783 0.000000
O O14 0.000000 0.336225 0.000000
#
# Coordination Sequence:
#
# PCOD9125577 Si02
#       6
#     4   4   4   4   4   4
#     4   8  19  38  63  83 113 165 198 242 308 368
#     4  10  21  43  65  85 125 165 206 246 313 378
#     4  10  21  42  65  88 124 164 206 247 316 373
#     4  11  24  37  62  92 124 158 211 256 303 361
#     4  11  24  41  61  92 126 165 204 256 313 364
#     4  10  24  40  66  91 122 164 205 257 310 362
#
# _framework density 20.013601999999999
#
# number of rings (size 3 to 8) (size 9 to 14) (size 15 to 20)
#    0.000    2.000    1.667    1.500    7.000    4.000 
#    0.000    3.333    0.000    0.000    0.000    0.000 
#    0.000    0.000    0.000    0.000    0.000    0.000 
#
# Total GULP energy -66949.707768 kJ/mol
# GULP energy per Si atom -5579.142314 kJ/mol
# Density = 1.996805 g / cm^3
# Si number density = 20.013602 Si / 1000 Ang^3
#
#
#
# Elastic Constant Matrix: (Units=GPa)
#
#
# Indices 1 2 3 4 5 6 
#
# 1 50.1762 37.3637 4.0019 0.0000 -24.8825 0.0000
# 2 37.3637 194.4234 32.7124 0.0000 -26.9844 0.0000
# 3 4.0019 32.7124 69.3791 0.0000 -29.5479 0.0000
# 4 0.0000 0.0000 0.0000 23.5274 0.0000 5.6215
# 5 -24.8825 -26.9844 -29.5479 0.0000 32.0132 0.0000
# 6 0.0000 0.0000 0.0000 5.6215 0.0000 14.8622
#
#
#
# Elastic Compliance Matrix: (Units=1/GPa)
#
#
# Indices 1 2 3 4 5 6 
#
# 1 0.050082 -0.005856 0.023642 0.000000 0.055812 0.000000
# 2 -0.005856 0.006559 -0.003854 0.000000 -0.002580 0.000000
# 3 0.023642 -0.003854 0.035112 0.000000 0.047535 0.000000
# 4 0.000000 0.000000 0.000000 0.046726 0.000000 -0.017674
# 5 0.055812 -0.002580 0.047535 0.000000 0.116317 0.000000
# 6 0.000000 0.000000 0.000000 -0.017674 0.000000 0.073970
#
#
# Mechanical properties :
#
#
# Convention : Reuss Voigt Hill
#
# Bulk Modulus (GPa) = 8.36001 51.34829 29.85415
# Shear Modulus (GPa) = 14.67248 30.07394 22.37321
#
# Velocity S-wave (km/s) = 2.71057 3.88064 3.34713
# Velocity P-wave (km/s) = 3.73931 6.76695 5.46690
#
# Compressibility (1/GPa) = 0.11961705
#
# Stress axis : x y z
#
# Youngs Moduli (GPa) = 19.96724 152.45828 28.48062
#
# Poissons Ratio (x) = 0.89284 -0.67334
# Poissons Ratio (y) = 0.11693 0.10975
# Poissons Ratio (z) = -0.47206 0.58751
#
# Static dielectric constant tensor:
#      x y z
#    x 1.690530 0.000000 -0.004840 
#    y 0.000000 1.751220 0.000000 
#    z -0.004840 0.000000 1.676790 
# 
# From -- ./inp_files/39081.got.cif
#   From: 2010.05.17/outbox.cif.g08.bks.cpg/sg5_20_cif.got.tgz:39081.got - 2010.06.03 18:56:24.
