data_PCOD9125843
_publ_section_title
;
Structure prediction by ZEFSAII (Michael W. Deem and Ramdas Pophale) SiO2 
 PCOD9125843
Probable space group: C 2
;
_chemical_formula_sum "Si O2"
_cell_formula_units_Z 18
_cell_length_a 5.383230
_cell_length_b 13.699749
_cell_length_c 12.076131
_cell_angle_alpha 90.000000
_cell_angle_beta 89.403468
_cell_angle_gamma 90.000000
_cell_volume 890.553106
_symmetry_space_group_name_H-M "C 2"
_symmetry_group_IT_number 5
_symmetry_cell_setting 'monoclinic'
loop_
_space_group_symop_operation_xyz
x,y,z
-x,y,-z
1/2+x,1/2+y,z
1/2-x,1/2+y,-z
loop_
_atom_site_type_symbol
_atom_site_label
_atom_site_fract_x
_atom_site_fract_y
_atom_site_fract_z
Si Si1 0.669184 0.379230 0.106955
Si Si2 0.547089 0.247046 0.292488
Si Si3 0.449432 0.676275 0.621674
Si Si4 0.787330 0.587375 0.174513
Si Si5 0.500000 0.715675 0.000000
O O1 0.515375 0.339204 0.212246
O O2 0.815643 0.476643 0.138357
O O3 0.847990 0.289234 0.078160
O O4 0.500000 0.397535 0.000000
O O5 0.814175 0.242205 0.347681
O O6 0.522101 0.148282 0.217353
O O7 0.309167 0.236623 0.373415
O O8 0.500000 0.634532 0.500000
O O9 0.400667 0.598292 0.719938
O O10 0.675986 0.648591 0.073301
#
# Coordination Sequence:
#
# PCOD9125843 Si02
#       5
#     4   4   4   4   2
#     4  12  22  38  65  98 131 176 209 263 325 391
#     4  10  22  42  64  96 131 163 226 260 319 385
#     4  10  21  44  69  91 130 173 213 274 326 370
#     4  10  24  38  65  94 132 171 215 266 316 387
#     4  12  22  40  58  98 132 174 214 260 320 394
#
# _framework density 20.212159
#
# number of rings (size 3 to 8) (size 9 to 14) (size 15 to 20)
#    1.333    0.000    5.556    0.667    0.000    3.556 
#    0.000    2.222    0.000    0.000    0.000    0.000 
#    0.000    0.000    0.000    0.000    0.000    0.000 
#
# Total GULP energy -50166.274002 kJ/mol
# GULP energy per Si atom -5574.030445 kJ/mol
# Density = 2.016616 g / cm^3
# Si number density = 20.212159 Si / 1000 Ang^3
#
#
#
# Elastic Constant Matrix: (Units=GPa)
#
#
# Indices 1 2 3 4 5 6 
#
# 1 76.2102 6.1705 6.9115 0.0000 -4.7174 0.0000
# 2 6.1705 99.3670 26.5445 0.0000 -9.1814 0.0000
# 3 6.9115 26.5445 73.7485 0.0000 -8.0018 0.0000
# 4 0.0000 0.0000 0.0000 10.4609 0.0000 1.6450
# 5 -4.7174 -9.1814 -8.0018 0.0000 25.1704 0.0000
# 6 0.0000 0.0000 0.0000 1.6450 0.0000 10.3836
#
#
#
# Elastic Compliance Matrix: (Units=1/GPa)
#
#
# Indices 1 2 3 4 5 6 
#
# 1 0.013363 -0.000402 -0.000882 0.000000 0.002077 0.000000
# 2 -0.000402 0.011353 -0.003736 0.000000 0.002878 0.000000
# 3 -0.000882 -0.003736 0.015351 0.000000 0.003352 0.000000
# 4 0.000000 0.000000 0.000000 0.098037 0.000000 -0.015531
# 5 0.002077 0.002878 0.003352 0.000000 0.042234 0.000000
# 6 0.000000 0.000000 0.000000 -0.015531 0.000000 0.098766
#
#
# Mechanical properties :
#
#
# Convention : Reuss Voigt Hill
#
# Bulk Modulus (GPa) = 33.30561 36.50873 34.90717
# Shear Modulus (GPa) = 16.71388 23.18291 19.94839
#
# Velocity S-wave (km/s) = 2.87874 3.39038 3.14498
# Velocity P-wave (km/s) = 5.25008 5.78171 5.52230
#
# Compressibility (1/GPa) = 0.03002498
#
# Stress axis : x y z
#
# Youngs Moduli (GPa) = 74.83485 88.08487 65.14335
#
# Poissons Ratio (x) = 0.03543 0.05747
# Poissons Ratio (y) = 0.03010 0.24339
# Poissons Ratio (z) = 0.06602 0.32911
#
# Static dielectric constant tensor:
#      x y z
#    x 1.751000 0.000000 -0.039820 
#    y 0.000000 1.665470 0.000000 
#    z -0.039820 0.000000 1.774160 
# 
# From -- ./inp_files/32959.got.cif
#   From: 2010.05.17/outbox.cif.g08.bks.cpg/sg5_17_cif.got.tgz:32959.got - 2010.06.03 18:56:24.
