data_PCOD9125073
_publ_section_title
;
Structure prediction by ZEFSAII (Michael W. Deem and Ramdas Pophale) SiO2 
 PCOD9125073
Probable space group: C 2
;
_chemical_formula_sum "Si O2"
_cell_formula_units_Z 26
_cell_length_a 15.409400
_cell_length_b 13.727468
_cell_length_c 9.253398
_cell_angle_alpha 90.000000
_cell_angle_beta 146.069385
_cell_angle_gamma 90.000000
_cell_volume 1092.592765
_symmetry_space_group_name_H-M "C 2"
_symmetry_group_IT_number 5
_symmetry_cell_setting 'monoclinic'
loop_
_space_group_symop_operation_xyz
x,y,z
-x,y,-z
1/2+x,1/2+y,z
1/2-x,1/2+y,-z
loop_
_atom_site_type_symbol
_atom_site_label
_atom_site_fract_x
_atom_site_fract_y
_atom_site_fract_z
Si Si1 0.000000 0.502980 0.000000
Si Si2 0.943882 0.084649 0.561593
Si Si3 0.780134 0.595645 0.171986
Si Si4 0.845888 0.671580 0.976283
Si Si5 0.000000 0.418085 0.500000
Si Si6 0.165137 0.147749 0.309339
Si Si7 0.674317 0.862173 0.457309
Si Si8 0.500000 0.335203 0.000000
O O1 0.080691 0.575182 0.995510
O O2 0.103389 0.429809 0.237123
O O3 0.836101 0.163109 0.324338
O O4 0.835746 0.075682 0.554725
O O5 0.000000 0.019992 0.500000
O O6 0.104660 0.097792 0.869990
O O7 0.858947 0.490618 0.262743
O O8 0.783297 0.622443 0.344641
O O9 0.860467 0.667245 0.168459
O O10 0.931794 0.764005 0.028971
O O11 0.938675 0.363850 0.558420
O O12 0.191327 0.253712 0.415479
O O13 0.000000 0.149889 0.000000
O O14 0.848464 0.893716 0.743539
#
# Coordination Sequence:
#
# PCOD9125073 Si02
#       8
#     2   4   4   4   2   4   4   2
#     4  11  24  44  70  97 144 188 236 293 376 418
#     4   9  19  37  68 100 131 174 246 296 345 408
#     4  10  23  40  67 107 134 190 241 300 348 447
#     4  10  21  44  74  99 134 187 255 298 340 442
#     4  12  28  44  68 104 156 188 236 300 390 424
#     4  10  21  39  67 100 136 183 240 294 355 430
#     4  12  26  44  68 105 149 193 228 306 378 433
#     4  11  26  44  72 105 144 196 244 297 366 442
#
# _framework density 23.796605
#
# number of rings (size 3 to 8) (size 9 to 14) (size 15 to 20)
#    0.000    1.538    3.846    0.000    5.385    2.462 
#    1.385    0.000    0.000    0.000    0.000    0.000 
#    0.000    0.000    0.000    0.000    0.000    0.000 
#
# Total GULP energy -72481.319877 kJ/mol
# GULP energy per Si atom -5575.486144 kJ/mol
# Density = 2.374244 g / cm^3
# Si number density = 23.796605 Si / 1000 Ang^3
#
#
#
# Elastic Constant Matrix: (Units=GPa)
#
#
# Indices 1 2 3 4 5 6 
#
# 1 181.8376 57.2492 88.4398 0.0000 -30.6728 0.0000
# 2 57.2492 82.4203 25.9335 0.0000 -7.9187 0.0000
# 3 88.4398 25.9335 120.9792 0.0000 -5.1334 0.0000
# 4 0.0000 0.0000 0.0000 27.7651 0.0000 -0.9160
# 5 -30.6728 -7.9187 -5.1334 0.0000 52.0569 0.0000
# 6 0.0000 0.0000 0.0000 -0.9160 0.0000 25.1741
#
#
#
# Elastic Compliance Matrix: (Units=1/GPa)
#
#
# Indices 1 2 3 4 5 6 
#
# 1 0.011454 -0.005239 -0.007027 0.000000 0.005259 0.000000
# 2 -0.005239 0.015561 0.000466 0.000000 -0.000674 0.000000
# 3 -0.007027 0.000466 0.013185 0.000000 -0.002769 0.000000
# 4 0.000000 0.000000 0.000000 0.036060 0.000000 0.001312
# 5 0.005259 -0.000674 -0.002769 0.000000 0.021933 0.000000
# 6 0.000000 0.000000 0.000000 0.001312 0.000000 0.039771
#
#
# Mechanical properties :
#
#
# Convention : Reuss Voigt Hill
#
# Bulk Modulus (GPa) = 60.24351 80.94247 70.59299
# Shear Modulus (GPa) = 29.92279 35.24019 32.58149
#
# Velocity S-wave (km/s) = 3.54989 3.85241 3.70424
# Velocity P-wave (km/s) = 6.49409 7.34004 6.92999
#
# Compressibility (1/GPa) = 0.01659930
#
# Stress axis : x y z
#
# Youngs Moduli (GPa) = 87.30883 64.26365 75.84244
#
# Poissons Ratio (x) = 0.33671 0.53292
# Poissons Ratio (y) = 0.45745 -0.03534
# Poissons Ratio (z) = 0.61349 -0.02994
#
# Static dielectric constant tensor:
#      x y z
#    x 2.057430 0.000000 0.028530 
#    y 0.000000 1.909310 0.000000 
#    z 0.028530 0.000000 1.931340 
# 
# From -- ./inp_files/24849.got.cif
#   From: 2010.05.17/outbox.cif.g08.bks.cpg/sg5_13_cif.got.tgz:24849.got - 2010.06.03 18:56:24.
