data_PCOD9125514
_publ_section_title
;
Structure prediction by ZEFSAII (Michael W. Deem and Ramdas Pophale) SiO2 
 PCOD9125514
Probable space group: C 2
;
_chemical_formula_sum "Si O2"
_cell_formula_units_Z 20
_cell_length_a 7.142509
_cell_length_b 22.146646
_cell_length_c 5.652205
_cell_angle_alpha 90.000000
_cell_angle_beta 103.755204
_cell_angle_gamma 90.000000
_cell_volume 868.438782
_symmetry_space_group_name_H-M "C 2"
_symmetry_group_IT_number 5
_symmetry_cell_setting 'monoclinic'
loop_
_space_group_symop_operation_xyz
x,y,z
-x,y,-z
1/2+x,1/2+y,z
1/2-x,1/2+y,-z
loop_
_atom_site_type_symbol
_atom_site_label
_atom_site_fract_x
_atom_site_fract_y
_atom_site_fract_z
Si Si1 0.810580 0.041590 0.343896
Si Si2 0.500000 0.111869 0.000000
Si Si3 0.232822 0.218386 0.056495
Si Si4 0.500000 0.469267 0.000000
Si Si5 0.227696 0.416433 0.584586
Si Si6 0.266311 0.780615 0.448482
O O1 0.609769 0.074427 0.237584
O O2 0.000000 0.076699 0.500000
O O3 0.878223 0.015898 0.116518
O O4 0.790793 0.979398 0.484616
O O5 0.334338 0.154007 0.058676
O O6 0.292131 0.245758 0.329368
O O7 0.289324 0.254639 0.829347
O O8 0.000000 0.214216 0.000000
O O9 0.667933 0.424416 0.135734
O O10 0.288767 0.350304 0.520075
O O11 0.000000 0.416887 0.500000
O O12 0.500000 0.778972 0.500000
#
# Coordination Sequence:
#
# PCOD9125514 Si02
#       6
#     4   2   4   2   4   4
#     4  10  24  45  66 105 141 185 237 302 364 423
#     4  12  26  47  74 102 141 198 248 292 358 450
#     4  10  24  47  70 107 145 193 245 300 360 426
#     4  10  22  41  64 104 141 178 234 298 364 424
#     4  10  21  41  71 102 139 185 235 295 368 433
#     4   9  21  44  72 102 146 188 239 303 364 428
#
# _framework density 23.029833
#
# number of rings (size 3 to 8) (size 9 to 14) (size 15 to 20)
#    0.000    2.000    0.000    1.200    4.200    4.000 
#   23.400    0.000    0.000    0.000    0.000    0.000 
#    0.000    0.000    0.000    0.000    0.000    0.000 
#
# Total GULP energy -55720.956454 kJ/mol
# GULP energy per Si atom -5572.095645 kJ/mol
# Density = 2.297742 g / cm^3
# Si number density = 23.029833 Si / 1000 Ang^3
#
#
#
# Elastic Constant Matrix: (Units=GPa)
#
#
# Indices 1 2 3 4 5 6 
#
# 1 103.2561 28.7128 46.3547 0.0000 25.9893 0.0000
# 2 28.7128 95.6489 40.8554 0.0000 15.0353 0.0000
# 3 46.3547 40.8554 97.9954 0.0000 20.3732 0.0000
# 4 0.0000 0.0000 0.0000 14.7962 0.0000 20.5815
# 5 25.9893 15.0353 20.3732 0.0000 47.7498 0.0000
# 6 0.0000 0.0000 0.0000 20.5815 0.0000 61.0494
#
#
#
# Elastic Compliance Matrix: (Units=1/GPa)
#
#
# Indices 1 2 3 4 5 6 
#
# 1 0.013411 -0.001197 -0.004834 0.000000 -0.004860 0.000000
# 2 -0.001197 0.012988 -0.004536 0.000000 -0.001503 0.000000
# 3 -0.004834 -0.004536 0.014856 0.000000 -0.002279 0.000000
# 4 0.000000 0.000000 0.000000 0.127265 0.000000 -0.042905
# 5 -0.004860 -0.001503 -0.002279 0.000000 0.025033 0.000000
# 6 0.000000 0.000000 0.000000 -0.042905 0.000000 0.030845
#
#
# Mechanical properties :
#
#
# Convention : Reuss Voigt Hill
#
# Bulk Modulus (GPa) = 49.70134 58.74960 54.22547
# Shear Modulus (GPa) = 19.82237 36.78423 28.30330
#
# Velocity S-wave (km/s) = 2.93700 4.00089 3.50949
# Velocity P-wave (km/s) = 5.75581 6.84897 6.32605
#
# Compressibility (1/GPa) = 0.02012018
#
# Stress axis : x y z
#
# Youngs Moduli (GPa) = 74.56562 76.99392 67.31094
#
# Poissons Ratio (x) = 0.09216 0.32541
# Poissons Ratio (y) = 0.08925 0.30534
# Poissons Ratio (z) = 0.36048 0.34926
#
# Static dielectric constant tensor:
#      x y z
#    x 1.857280 0.000000 0.050780 
#    y 0.000000 1.862670 0.000000 
#    z 0.050780 0.000000 1.946650 
# 
# From -- ./inp_files/3052.got.cif
#   From: 2010.05.17/outbox.cif.g08.bks.cpg/sg5_2_cif.got.tgz:3052.got - 2010.06.03 18:56:24.
