data_PCOD9125299
_publ_section_title
;
Structure prediction by ZEFSAII (Michael W. Deem and Ramdas Pophale) SiO2 
 PCOD9125299
Probable space group: C 2
;
_chemical_formula_sum "Si O2"
_cell_formula_units_Z 28
_cell_length_a 11.112815
_cell_length_b 13.765385
_cell_length_c 9.050691
_cell_angle_alpha 90.000000
_cell_angle_beta 68.224221
_cell_angle_gamma 90.000000
_cell_volume 1285.709492
_symmetry_space_group_name_H-M "C 2"
_symmetry_group_IT_number 5
_symmetry_cell_setting 'monoclinic'
loop_
_space_group_symop_operation_xyz
x,y,z
-x,y,-z
1/2+x,1/2+y,z
1/2-x,1/2+y,-z
loop_
_atom_site_type_symbol
_atom_site_label
_atom_site_fract_x
_atom_site_fract_y
_atom_site_fract_z
Si Si1 0.633701 0.328130 0.026110
Si Si2 0.717737 0.989751 0.185924
Si Si3 0.638411 0.663073 0.710492
Si Si4 0.846782 0.620497 0.048053
Si Si5 0.500000 0.035030 0.500000
Si Si6 0.236977 0.569542 0.598344
Si Si7 0.751820 0.361970 0.256663
Si Si8 0.000000 0.280907 0.000000
O O1 0.635054 0.370544 0.191516
O O2 0.500000 0.323136 0.000000
O O3 0.719215 0.387743 0.872900
O O4 0.684608 0.219318 0.022303
O O5 0.590083 0.979296 0.342873
O O6 0.809048 0.071398 0.219028
O O7 0.691227 0.033234 0.038097
O O8 0.644157 0.616651 0.545407
O O9 0.736604 0.756759 0.668846
O O10 0.512804 0.708453 0.851363
O O11 0.781401 0.618853 0.236046
O O12 0.000000 0.614420 0.000000
O O13 0.607592 0.086498 0.555824
O O14 0.244372 0.453943 0.635331
O O15 0.878737 0.350835 0.091283
#
# Coordination Sequence:
#
# PCOD9125299 Si02
#       8
#     4   4   4   4   2   4   4   2
#     4  11  25  39  66 103 138 184 234 283 349 433
#     4  11  21  41  65  95 137 179 234 282 354 415
#     4   9  22  39  66  99 136 180 224 296 351 419
#     4  11  21  38  67  98 131 182 231 287 342 424
#     4  10  24  36  64 102 128 176 230 294 342 404
#     4  11  22  37  67 103 138 174 234 297 349 412
#     4  10  21  40  69 101 131 185 234 288 345 420
#     4   8  20  40  72  92 140 174 240 284 356 406
#
# _framework density 21.777858999999999
#
# number of rings (size 3 to 8) (size 9 to 14) (size 15 to 20)
#    0.857    0.857    4.286    0.000    4.000    2.286 
#    0.000    0.000    0.000   16.286    0.000    0.000 
#    0.000    0.000    0.000    0.000    0.000    0.000 
#
# Total GULP energy -77940.247373 kJ/mol
# GULP energy per Si atom -5567.160527 kJ/mol
# Density = 2.172829 g / cm^3
# Si number density = 21.777859 Si / 1000 Ang^3
#
#
#
# Elastic Constant Matrix: (Units=GPa)
#
#
# Indices 1 2 3 4 5 6 
#
# 1 37.9129 8.6893 21.3070 0.0000 6.4094 0.0000
# 2 8.6893 80.1698 29.9505 0.0000 -9.0402 0.0000
# 3 21.3070 29.9505 142.4415 0.0000 1.7023 0.0000
# 4 0.0000 0.0000 0.0000 44.4183 0.0000 -2.9590
# 5 6.4094 -9.0402 1.7023 0.0000 27.4524 0.0000
# 6 0.0000 0.0000 0.0000 -2.9590 0.0000 16.1488
#
#
#
# Elastic Compliance Matrix: (Units=1/GPa)
#
#
# Indices 1 2 3 4 5 6 
#
# 1 0.030507 -0.002728 -0.003897 0.000000 -0.007779 0.000000
# 2 -0.002728 0.014398 -0.002686 0.000000 0.005545 0.000000
# 3 -0.003897 -0.002686 0.008174 0.000000 -0.000481 0.000000
# 4 0.000000 0.000000 0.000000 0.022791 0.000000 0.004176
# 5 -0.007779 0.005545 -0.000481 0.000000 0.040099 0.000000
# 6 0.000000 0.000000 0.000000 0.004176 0.000000 0.062689
#
#
# Mechanical properties :
#
#
# Convention : Reuss Voigt Hill
#
# Bulk Modulus (GPa) = 29.02118 42.26863 35.64491
# Shear Modulus (GPa) = 23.95053 30.97573 27.46313
#
# Velocity S-wave (km/s) = 3.31987 3.77550 3.55499
# Velocity P-wave (km/s) = 5.29625 6.20137 5.76660
#
# Compressibility (1/GPa) = 0.03445760
#
# Stress axis : x y z
#
# Youngs Moduli (GPa) = 32.77989 69.45546 122.34285
#
# Poissons Ratio (x) = 0.18947 0.47674
# Poissons Ratio (y) = 0.08942 0.32856
# Poissons Ratio (z) = 0.12773 0.18653
#
# Static dielectric constant tensor:
#      x y z
#    x 1.857000 0.000000 0.000540 
#    y 0.000000 1.783380 0.000000 
#    z 0.000540 0.000000 1.795480 
# 
# From -- ./inp_files/20354.got.cif
#   From: 2010.05.17/outbox.cif.g08.bks.cpg/sg5_11_cif.got.tgz:20354.got - 2010.06.03 18:56:24.
