data_PCOD9125478
_publ_section_title
;
Structure prediction by ZEFSAII (Michael W. Deem and Ramdas Pophale) SiO2 
 PCOD9125478
Probable space group: C 2
;
_chemical_formula_sum "Si O2"
_cell_formula_units_Z 22
_cell_length_a 21.522748
_cell_length_b 7.379028
_cell_length_c 13.033274
_cell_angle_alpha 90.000000
_cell_angle_beta 21.929231
_cell_angle_gamma 90.000000
_cell_volume 773.028972
_symmetry_space_group_name_H-M "C 2"
_symmetry_group_IT_number 5
_symmetry_cell_setting 'monoclinic'
loop_
_space_group_symop_operation_xyz
x,y,z
-x,y,-z
1/2+x,1/2+y,z
1/2-x,1/2+y,-z
loop_
_atom_site_type_symbol
_atom_site_label
_atom_site_fract_x
_atom_site_fract_y
_atom_site_fract_z
Si Si1 0.736944 0.485640 0.612357
Si Si2 0.090936 0.913693 0.263797
Si Si3 0.500000 0.774621 0.500000
Si Si4 0.159541 0.932903 0.945586
Si Si5 0.806067 0.409298 0.284806
Si Si6 0.382149 0.859807 0.953673
O O1 0.641855 0.384743 0.852349
O O2 0.703742 0.475374 0.540676
O O3 0.707179 0.694154 0.682092
O O4 0.928458 0.424318 0.330944
O O5 0.000000 0.818467 0.500000
O O6 0.045579 0.124691 0.343316
O O7 0.283547 0.911096 0.002858
O O8 0.064629 0.842752 0.188877
O O9 0.349635 0.888452 0.684250
O O10 0.129030 0.146455 0.006578
O O11 0.778065 0.452702 0.208086
O O12 0.000000 0.461762 0.000000
#
# Coordination Sequence:
#
# PCOD9125478 Si02
#       6
#     4   4   2   4   4   4
#     4  10  21  41  68  93 123 165 210 262 312 374
#     4  10  23  40  59  96 131 167 205 259 301 373
#     4  10  24  38  60  94 128 166 214 252 300 376
#     4  11  20  39  65  91 124 169 206 254 311 367
#     4   9  21  43  65  92 126 164 207 260 316 369
#     4  10  22  42  64  89 132 167 206 260 312 367
#
# _framework density 28.459475999999999
#
# number of rings (size 3 to 8) (size 9 to 14) (size 15 to 20)
#    0.545    1.455    0.000    3.273    1.273    1.455 
#   13.091    2.727    0.000    0.000    0.000    0.000 
#    0.000    0.000    0.000    0.000    0.000    0.000 
#
# Total GULP energy -61536.793409 kJ/mol
# GULP energy per Si atom -5594.253946 kJ/mol
# Density = 2.839470 g / cm^3
# Si number density = 28.459476 Si / 1000 Ang^3
#
#
#
# Elastic Constant Matrix: (Units=GPa)
#
#
# Indices 1 2 3 4 5 6 
#
# 1 221.3646 13.4263 76.0958 0.0000 52.4234 0.0000
# 2 13.4263 80.3163 17.7155 0.0000 -17.9095 0.0000
# 3 76.0958 17.7155 143.9922 0.0000 51.6181 0.0000
# 4 0.0000 0.0000 0.0000 42.9857 0.0000 -7.6227
# 5 52.4234 -17.9095 51.6181 0.0000 89.6964 0.0000
# 6 0.0000 0.0000 0.0000 -7.6227 0.0000 31.0282
#
#
#
# Elastic Compliance Matrix: (Units=1/GPa)
#
#
# Indices 1 2 3 4 5 6 
#
# 1 0.005883 -0.001064 -0.002103 0.000000 -0.002440 0.000000
# 2 -0.001064 0.014505 -0.003129 0.000000 0.005318 0.000000
# 3 -0.002103 -0.003129 0.010362 0.000000 -0.005359 0.000000
# 4 0.000000 0.000000 0.000000 0.024323 0.000000 0.005975
# 5 -0.002440 0.005318 -0.005359 0.000000 0.016721 0.000000
# 6 0.000000 0.000000 0.000000 0.005975 0.000000 0.033697
#
#
# Mechanical properties :
#
#
# Convention : Reuss Voigt Hill
#
# Bulk Modulus (GPa) = 55.07197 73.34982 64.21089
# Shear Modulus (GPa) = 40.27875 55.30443 47.79159
#
# Velocity S-wave (km/s) = 3.76613 4.41304 4.10235
# Velocity P-wave (km/s) = 6.18908 7.19694 6.71195
#
# Compressibility (1/GPa) = 0.01815806
#
# Stress axis : x y z
#
# Youngs Moduli (GPa) = 169.98511 68.94323 96.50370
#
# Poissons Ratio (x) = 0.07333 0.20298
# Poissons Ratio (y) = 0.18080 0.30196
# Poissons Ratio (z) = 0.35753 0.21572
#
# Static dielectric constant tensor:
#      x y z
#    x 2.289710 0.000000 0.090270 
#    y 0.000000 2.085420 0.000000 
#    z 0.090270 0.000000 2.373910 
# 
# From -- ./inp_files/58038.got.cif
#   From: 2010.05.17/outbox.cif.g08.bks.cpg/sg5_30_cif.got.tgz:58038.got - 2010.06.03 18:56:24.
