data_PCOD9125538
_publ_section_title
;
Structure prediction by ZEFSAII (Michael W. Deem and Ramdas Pophale) SiO2 
 PCOD9125538
Probable space group: C 2
;
_chemical_formula_sum "Si O2"
_cell_formula_units_Z 32
_cell_length_a 13.991342
_cell_length_b 13.194480
_cell_length_c 13.012904
_cell_angle_alpha 90.000000
_cell_angle_beta 139.039469
_cell_angle_gamma 90.000000
_cell_volume 1574.796349
_symmetry_space_group_name_H-M "C 2"
_symmetry_group_IT_number 5
_symmetry_cell_setting 'monoclinic'
loop_
_space_group_symop_operation_xyz
x,y,z
-x,y,-z
1/2+x,1/2+y,z
1/2-x,1/2+y,-z
loop_
_atom_site_type_symbol
_atom_site_label
_atom_site_fract_x
_atom_site_fract_y
_atom_site_fract_z
Si Si1 0.341851 0.801660 0.904515
Si Si2 0.090750 0.261272 0.469171
Si Si3 0.601152 0.958894 0.342283
Si Si4 0.807779 0.498361 0.975420
Si Si5 0.386982 0.189992 0.649130
Si Si6 0.108694 0.703892 0.007428
Si Si7 0.387555 0.676636 0.141842
Si Si8 0.651456 0.336773 0.572516
O O1 0.244442 0.769748 0.729565
O O2 0.500000 0.843003 0.000000
O O3 0.255391 0.896502 0.881009
O O4 0.381969 0.721598 0.024117
O O5 0.091321 0.375496 0.424339
O O6 0.255302 0.223218 0.616932
O O7 0.000000 0.250963 0.500000
O O8 0.030881 0.192850 0.325062
O O9 0.444088 0.966082 0.157340
O O10 0.731449 0.919954 0.372886
O O11 0.631851 0.073868 0.399970
O O12 0.863501 0.585304 0.941702
O O13 0.675825 0.563005 0.916873
O O14 0.532236 0.199117 0.834536
O O15 0.388089 0.266088 0.555437
O O16 0.270160 0.741812 0.115245
O O17 0.000000 0.752396 0.000000
O O18 0.500000 0.374131 0.500000
#
# Coordination Sequence:
#
# PCOD9125538 Si02
#       8
#     4   4   4   4   4   4   4   4
#     4  12  20  39  64  88 125 157 205 248 300 366
#     4  11  22  39  60  92 120 156 201 248 304 356
#     4  10  21  42  61  85 125 163 195 249 303 365
#     4   9  20  36  63  88 115 154 206 247 291 354
#     4  10  22  40  58  87 129 154 198 250 305 356
#     4   9  18  34  60  85 111 155 196 240 293 349
#     4  10  22  36  61  94 118 153 204 257 286 360
#     4  11  24  37  59  95 121 158 203 253 304 350
#
# _framework density 20.320087000000001
#
# number of rings (size 3 to 8) (size 9 to 14) (size 15 to 20)
#    0.750    1.000    2.500    2.625    1.750    2.000 
#    0.000    0.000    0.000    0.750    0.000    0.000 
#    0.000    0.000    0.000    0.000    0.000    0.000 
#
# Total GULP energy -89112.420749 kJ/mol
# GULP energy per Si atom -5569.526297 kJ/mol
# Density = 2.027384 g / cm^3
# Si number density = 20.320087 Si / 1000 Ang^3
#
#
#
# Elastic Constant Matrix: (Units=GPa)
#
#
# Indices 1 2 3 4 5 6 
#
# 1 24.6611 10.0576 5.5946 0.0000 -1.4237 0.0000
# 2 10.0576 69.5643 5.0590 0.0000 -2.4964 0.0000
# 3 5.5946 5.0590 58.1058 0.0000 1.0027 0.0000
# 4 0.0000 0.0000 0.0000 22.8108 0.0000 6.8790
# 5 -1.4237 -2.4964 1.0027 0.0000 26.2645 0.0000
# 6 0.0000 0.0000 0.0000 6.8790 0.0000 19.7915
#
#
#
# Elastic Compliance Matrix: (Units=1/GPa)
#
#
# Indices 1 2 3 4 5 6 
#
# 1 0.043964 -0.006014 -0.003743 0.000000 0.001954 0.000000
# 2 -0.006014 0.015343 -0.000777 0.000000 0.001162 0.000000
# 3 -0.003743 -0.000777 0.017654 0.000000 -0.000951 0.000000
# 4 0.000000 0.000000 0.000000 0.048972 0.000000 -0.017021
# 5 0.001954 0.001162 -0.000951 0.000000 0.038327 0.000000
# 6 0.000000 0.000000 0.000000 -0.017021 0.000000 0.056443
#
#
# Mechanical properties :
#
#
# Convention : Reuss Voigt Hill
#
# Bulk Modulus (GPa) = 17.89108 21.52817 19.70963
# Shear Modulus (GPa) = 19.20103 22.54804 20.87453
#
# Velocity S-wave (km/s) = 3.07730 3.33474 3.20861
# Velocity P-wave (km/s) = 4.63143 5.04429 4.84226
#
# Compressibility (1/GPa) = 0.05589376
#
# Stress axis : x y z
#
# Youngs Moduli (GPa) = 22.74569 65.17680 56.64301
#
# Poissons Ratio (x) = 0.39197 0.21202
# Poissons Ratio (y) = 0.13679 0.04400
# Poissons Ratio (z) = 0.08514 0.05063
#
# Static dielectric constant tensor:
#      x y z
#    x 1.780600 0.000000 -0.016090 
#    y 0.000000 1.703530 0.000000 
#    z -0.016090 0.000000 1.728220 
# 
# From -- ./inp_files/43105.got.cif
#   From: 2010.05.17/outbox.cif.g08.bks.cpg/sg5_22_cif.got.tgz:43105.got - 2010.06.03 18:56:24.
