data_PCOD9125726
_publ_section_title
;
Structure prediction by ZEFSAII (Michael W. Deem and Ramdas Pophale) SiO2 
 PCOD9125726
Probable space group: C 2
;
_chemical_formula_sum "Si O2"
_cell_formula_units_Z 28
_cell_length_a 5.995176
_cell_length_b 14.825162
_cell_length_c 14.402905
_cell_angle_alpha 90.000000
_cell_angle_beta 72.242925
_cell_angle_gamma 90.000000
_cell_volume 1219.134952
_symmetry_space_group_name_H-M "C 2"
_symmetry_group_IT_number 5
_symmetry_cell_setting 'monoclinic'
loop_
_space_group_symop_operation_xyz
x,y,z
-x,y,-z
1/2+x,1/2+y,z
1/2-x,1/2+y,-z
loop_
_atom_site_type_symbol
_atom_site_label
_atom_site_fract_x
_atom_site_fract_y
_atom_site_fract_z
Si Si1 0.772083 0.295570 0.969925
Si Si2 0.811405 0.309456 0.603473
Si Si3 0.353644 0.125710 0.279015
Si Si4 0.729556 0.100244 0.931236
Si Si5 0.801460 0.038837 0.193113
Si Si6 0.059024 0.951694 0.329028
Si Si7 0.503243 0.870927 0.224604
O O1 0.740150 0.189560 0.994023
O O2 0.876464 0.297452 0.853319
O O3 0.500000 0.332041 0.000000
O O4 0.000000 0.330093 0.000000
O O5 0.719133 0.214120 0.655182
O O6 0.610134 0.381155 0.596454
O O7 0.943438 0.353067 0.675070
O O8 0.000000 0.294474 0.500000
O O9 0.294361 0.121778 0.176348
O O10 0.635389 0.121594 0.239525
O O11 0.231930 0.034222 0.339925
O O12 0.978402 0.052295 0.899849
O O13 0.500000 0.050813 0.000000
O O14 0.630390 0.962284 0.176494
O O15 0.893142 0.002831 0.279269
O O16 0.229202 0.885866 0.248721
#
# Coordination Sequence:
#
# PCOD9125726 Si02
#       7
#     4   4   4   4   4   4   4
#     4  11  26  41  66 101 134 188 242 291 359 434
#     4  11  24  43  72 103 128 181 236 289 376 439
#     4  10  21  43  65  97 138 177 231 290 353 433
#     4  10  22  37  62  95 133 181 232 282 346 418
#     4   9  21  40  64  92 129 188 220 289 355 408
#     4   9  22  42  65  94 137 179 222 295 361 417
#     4  10  22  45  65  91 142 174 231 298 351 427
#
# _framework density 22.967106000000001
#
# number of rings (size 3 to 8) (size 9 to 14) (size 15 to 20)
#    0.000    2.000    1.429    0.000   10.000    0.571 
#   15.429    0.000    0.000    0.000    0.000    0.000 
#    0.000    0.000    0.000    0.000    0.000    0.000 
#
# Total GULP energy -77963.766504 kJ/mol
# GULP energy per Si atom -5568.840465 kJ/mol
# Density = 2.291483 g / cm^3
# Si number density = 22.967106 Si / 1000 Ang^3
#
#
#
# Elastic Constant Matrix: (Units=GPa)
#
#
# Indices 1 2 3 4 5 6 
#
# 1 120.5231 29.1926 57.5695 0.0000 -31.0740 0.0000
# 2 29.1926 96.7302 47.8933 0.0000 -24.0433 0.0000
# 3 57.5695 47.8933 134.0637 0.0000 -29.7095 0.0000
# 4 0.0000 0.0000 0.0000 12.4571 0.0000 -15.0131
# 5 -31.0740 -24.0433 -29.7095 0.0000 42.5497 0.0000
# 6 0.0000 0.0000 0.0000 -15.0131 0.0000 22.6142
#
#
#
# Elastic Compliance Matrix: (Units=1/GPa)
#
#
# Indices 1 2 3 4 5 6 
#
# 1 0.011570 -0.000277 -0.003587 0.000000 0.005789 0.000000
# 2 -0.000277 0.013410 -0.003593 0.000000 0.004866 0.000000
# 3 -0.003587 -0.003593 0.010946 0.000000 0.002993 0.000000
# 4 0.000000 0.000000 0.000000 0.401588 0.000000 0.266607
# 5 0.005789 0.004866 0.002993 0.000000 0.032569 0.000000
# 6 0.000000 0.000000 0.000000 0.266607 0.000000 0.221215
#
#
# Mechanical properties :
#
#
# Convention : Reuss Voigt Hill
#
# Bulk Modulus (GPa) = 47.59042 68.95865 58.27453
# Shear Modulus (GPa) = 7.01048 29.96830 18.48939
#
# Velocity S-wave (km/s) = 1.74901 3.61617 2.84040
# Velocity P-wave (km/s) = 4.98446 6.89389 6.01542
#
# Compressibility (1/GPa) = 0.02101263
#
# Stress axis : x y z
#
# Youngs Moduli (GPa) = 86.43101 74.56898 91.35500
#
# Poissons Ratio (x) = 0.02066 0.32765
# Poissons Ratio (y) = 0.02395 0.32827
# Poissons Ratio (z) = 0.30999 0.26795
#
# Static dielectric constant tensor:
#      x y z
#    x 1.958330 0.000000 -0.012890 
#    y 0.000000 1.993240 0.000000 
#    z -0.012890 0.000000 1.837260 
# 
# From -- ./inp_files/49283.got.cif
#   From: 2010.05.17/outbox.cif.g08.bks.cpg/sg5_25_cif.got.tgz:49283.got - 2010.06.03 18:56:24.
