data_PCOD9125385
_publ_section_title
;
Structure prediction by ZEFSAII (Michael W. Deem and Ramdas Pophale) SiO2 
 PCOD9125385
Probable space group: C 2
;
_chemical_formula_sum "Si O2"
_cell_formula_units_Z 26
_cell_length_a 5.109030
_cell_length_b 18.318112
_cell_length_c 15.390196
_cell_angle_alpha 90.000000
_cell_angle_beta 61.399683
_cell_angle_gamma 90.000000
_cell_volume 1264.585210
_symmetry_space_group_name_H-M "C 2"
_symmetry_group_IT_number 5
_symmetry_cell_setting 'monoclinic'
loop_
_space_group_symop_operation_xyz
x,y,z
-x,y,-z
1/2+x,1/2+y,z
1/2-x,1/2+y,-z
loop_
_atom_site_type_symbol
_atom_site_label
_atom_site_fract_x
_atom_site_fract_y
_atom_site_fract_z
Si Si1 0.177954 0.581560 0.280398
Si Si2 0.775807 0.257224 0.817096
Si Si3 0.500000 0.326657 0.500000
Si Si4 0.478117 0.241582 0.678331
Si Si5 0.500000 0.973019 0.000000
Si Si6 0.348645 0.093653 0.162884
Si Si7 0.330349 0.968169 0.437390
Si Si8 0.000000 0.868461 0.000000
O O1 0.016531 0.654587 0.340086
O O2 0.519273 0.583296 0.256764
O O3 0.123996 0.588171 0.185700
O O4 0.017105 0.508416 0.335273
O O5 0.667008 0.260841 0.734019
O O6 0.669729 0.176969 0.867230
O O7 0.637332 0.317922 0.901842
O O8 0.134278 0.259164 0.757758
O O9 0.568229 0.281606 0.575515
O O10 0.766382 0.382673 0.433154
O O11 0.251341 0.920709 0.999511
O O12 0.626810 0.028681 0.908580
O O13 0.500000 0.977427 0.500000
O O14 0.000000 0.001140 0.500000
#
# Coordination Sequence:
#
# PCOD9125385 Si02
#       8
#     4   4   2   4   2   4   4   2
#     4  10  21  41  64  91 117 166 210 260 302 363
#     4  10  23  44  65  91 123 169 205 260 311 377
#     4  10  26  40  60  92 128 168 202 262 310 376
#     4  10  23  40  66  91 124 162 220 253 310 363
#     4  12  25  40  61 102 124 164 204 256 311 380
#     4  10  22  42  65  89 123 162 211 253 306 366
#     4  10  23  39  57  89 121 159 206 244 321 360
#     4  12  25  42  65  98 130 162 204 258 327 374
#
# _framework density 20.560103000000002
#
# number of rings (size 3 to 8) (size 9 to 14) (size 15 to 20)
#    0.462    1.231    0.000    3.231    3.231    3.692 
#    0.000    6.154    0.000    0.000    0.000    0.000 
#    0.000    0.000    0.000    0.000    0.000    0.000 
#
# Total GULP energy -72565.848300 kJ/mol
# GULP energy per Si atom -5581.988331 kJ/mol
# Density = 2.051331 g / cm^3
# Si number density = 20.560103 Si / 1000 Ang^3
#
#
#
# Elastic Constant Matrix: (Units=GPa)
#
#
# Indices 1 2 3 4 5 6 
#
# 1 111.1589 27.9103 -4.1905 0.0000 9.9338 0.0000
# 2 27.9103 143.7844 60.5156 0.0000 8.0142 0.0000
# 3 -4.1905 60.5156 37.5125 0.0000 9.5342 0.0000
# 4 0.0000 0.0000 0.0000 50.4937 0.0000 15.8057
# 5 9.9338 8.0142 9.5342 0.0000 18.6139 0.0000
# 6 0.0000 0.0000 0.0000 15.8057 0.0000 49.5659
#
#
#
# Elastic Compliance Matrix: (Units=1/GPa)
#
#
# Indices 1 2 3 4 5 6 
#
# 1 0.015049 -0.013948 0.028393 0.000000 -0.016569 0.000000
# 2 -0.013948 0.036287 -0.066701 0.000000 0.025985 0.000000
# 3 0.028393 -0.066701 0.154037 0.000000 -0.065334 0.000000
# 4 0.000000 0.000000 0.000000 0.022000 0.000000 -0.007016
# 5 -0.016569 0.025985 -0.065334 0.000000 0.084843 0.000000
# 6 0.000000 0.000000 0.000000 -0.007016 0.000000 0.022412
#
#
# Mechanical properties :
#
#
# Convention : Reuss Voigt Hill
#
# Bulk Modulus (GPa) = 9.91447 51.21407 30.56427
# Shear Modulus (GPa) = 10.57619 37.61608 24.09613
#
# Velocity S-wave (km/s) = 2.27051 4.28198 3.42714
# Velocity P-wave (km/s) = 3.42144 7.02927 5.52797
#
# Compressibility (1/GPa) = 0.10086267
#
# Stress axis : x y z
#
# Youngs Moduli (GPa) = 66.44822 27.55827 6.49194
#
# Poissons Ratio (x) = 0.38438 -0.18433
# Poissons Ratio (y) = 0.92680 0.43302
# Poissons Ratio (z) = -1.88667 1.83816
#
# Static dielectric constant tensor:
#      x y z
#    x 1.713840 0.000000 -0.016830 
#    y 0.000000 1.732140 0.000000 
#    z -0.016830 0.000000 1.583530 
# 
# From -- ./inp_files/49168.got.cif
#   From: 2010.05.17/outbox.cif.g08.bks.cpg/sg5_25_cif.got.tgz:49168.got - 2010.06.03 18:56:24.
