data_PCOD9125384
_publ_section_title
;
Structure prediction by ZEFSAII (Michael W. Deem and Ramdas Pophale) SiO2 
 PCOD9125384
Probable space group: C 2
;
_chemical_formula_sum "Si O2"
_cell_formula_units_Z 32
_cell_length_a 15.602204
_cell_length_b 24.217910
_cell_length_c 8.869176
_cell_angle_alpha 90.000000
_cell_angle_beta 27.988524
_cell_angle_gamma 90.000000
_cell_volume 1572.720470
_symmetry_space_group_name_H-M "C 2"
_symmetry_group_IT_number 5
_symmetry_cell_setting 'monoclinic'
loop_
_space_group_symop_operation_xyz
x,y,z
-x,y,-z
1/2+x,1/2+y,z
1/2-x,1/2+y,-z
loop_
_atom_site_type_symbol
_atom_site_label
_atom_site_fract_x
_atom_site_fract_y
_atom_site_fract_z
Si Si1 0.811547 0.239880 0.877538
Si Si2 0.688526 0.526983 0.609738
Si Si3 0.070558 0.128270 0.239028
Si Si4 0.477170 0.452180 0.714037
Si Si5 0.691857 0.034884 0.271778
Si Si6 0.487342 0.326477 0.703518
Si Si7 0.288380 0.152357 0.382172
Si Si8 0.799467 0.249778 0.256459
O O1 0.789450 0.173534 0.911227
O O2 0.000000 0.251462 0.500000
O O3 0.666006 0.280302 0.029497
O O4 0.804363 0.248632 0.068097
O O5 0.637502 0.485379 0.554742
O O6 0.830269 0.513988 0.522392
O O7 0.756490 0.587008 0.454278
O O8 0.500000 0.529625 0.000000
O O9 0.000000 0.097396 0.500000
O O10 0.897604 0.160675 0.431697
O O11 0.173523 0.087592 0.965771
O O12 0.500000 0.451874 0.500000
O O13 0.460772 0.389168 0.795312
O O14 0.292319 0.485179 0.032817
O O15 0.500000 0.049869 0.500000
O O16 0.500000 0.328837 0.500000
O O17 0.664747 0.299701 0.502614
O O18 0.261702 0.192413 0.568353
O O19 0.500000 0.160910 0.000000
O O20 0.000000 0.261583 0.000000
#
# Coordination Sequence:
#
# PCOD9125384 Si02
#       8
#     4   4   4   4   4   4   4   4
#     4  10  22  40  65  92 131 170 215 266 323 393
#     4  10  21  41  64  90 133 173 214 273 334 390
#     4  11  23  40  61  96 138 168 217 267 325 404
#     4  10  21  44  69  88 131 174 220 281 328 386
#     4  11  24  39  66  97 130 174 216 270 342 399
#     4   9  22  42  66  94 124 173 222 265 327 397
#     4  12  25  38  64  99 136 173 217 270 335 400
#     4  11  22  41  63  91 131 171 211 272 330 385
#
# _framework density 20.346909
#
# number of rings (size 3 to 8) (size 9 to 14) (size 15 to 20)
#    0.000    1.500    3.750    1.500    5.250    2.000 
#    0.000   10.000    0.000    0.000    0.000    0.000 
#    0.000    0.000    0.000    0.000    0.000    0.000 
#
# Total GULP energy -89073.174516 kJ/mol
# GULP energy per Si atom -5567.073407 kJ/mol
# Density = 2.030060 g / cm^3
# Si number density = 20.346909 Si / 1000 Ang^3
#
#
#
# Elastic Constant Matrix: (Units=GPa)
#
#
# Indices 1 2 3 4 5 6 
#
# 1 95.9146 35.6323 34.5150 0.0002 -5.1736 0.0003
# 2 35.6323 135.7747 50.3847 -0.0003 -10.3181 -0.0003
# 3 34.5150 50.3847 76.8232 0.0008 -18.1814 0.0012
# 4 0.0002 -0.0003 0.0008 32.0462 -0.0002 5.6544
# 5 -5.1736 -10.3181 -18.1814 -0.0002 26.6641 -0.0003
# 6 0.0003 -0.0003 0.0012 5.6544 -0.0003 34.1588
#
#
#
# Elastic Compliance Matrix: (Units=1/GPa)
#
#
# Indices 1 2 3 4 5 6 
#
# 1 0.012753 -0.001588 -0.005065 0.000000 -0.001594 0.000000
# 2 -0.001588 0.009943 -0.005926 0.000000 -0.000502 0.000000
# 3 -0.005065 -0.005926 0.021945 0.000000 0.011688 -0.000001
# 4 0.000000 0.000000 0.000000 0.032144 0.000000 -0.005321
# 5 -0.001594 -0.000502 0.011688 0.000000 0.044970 0.000000
# 6 0.000000 0.000000 -0.000001 -0.005321 0.000000 0.030156
#
#
# Mechanical properties :
#
#
# Convention : Reuss Voigt Hill
#
# Bulk Modulus (GPa) = 51.32970 61.06406 56.19688
# Shear Modulus (GPa) = 27.23848 31.10585 29.17216
#
# Velocity S-wave (km/s) = 3.66280 3.91420 3.79058
# Velocity P-wave (km/s) = 6.57040 7.10665 6.84378
#
# Compressibility (1/GPa) = 0.01948190
#
# Stress axis : x y z
#
# Youngs Moduli (GPa) = 78.41489 100.57284 45.56758
#
# Poissons Ratio (x) = 0.15974 0.23080
# Poissons Ratio (y) = 0.12455 0.27005
# Poissons Ratio (z) = 0.39717 0.59602
#
# Static dielectric constant tensor:
#      x y z
#    x 1.758970 0.000000 -0.015810 
#    y 0.000000 1.732150 0.000000 
#    z -0.015810 0.000000 1.741880 
# 
# From -- ./inp_files/25632.got.cif
#   From: 2010.05.17/outbox.cif.g08.bks.cpg/sg5_13_cif.got.tgz:25632.got - 2010.06.03 18:56:24.
