data_PCOD9125391
_publ_section_title
;
Structure prediction by ZEFSAII (Michael W. Deem and Ramdas Pophale) SiO2 
 PCOD9125391
Probable space group: C 2
;
_chemical_formula_sum "Si O2"
_cell_formula_units_Z 24
_cell_length_a 8.862330
_cell_length_b 18.549098
_cell_length_c 7.396349
_cell_angle_alpha 90.000000
_cell_angle_beta 109.615994
_cell_angle_gamma 90.000000
_cell_volume 1145.308042
_symmetry_space_group_name_H-M "C 2"
_symmetry_group_IT_number 5
_symmetry_cell_setting 'monoclinic'
loop_
_space_group_symop_operation_xyz
x,y,z
-x,y,-z
1/2+x,1/2+y,z
1/2-x,1/2+y,-z
loop_
_atom_site_type_symbol
_atom_site_label
_atom_site_fract_x
_atom_site_fract_y
_atom_site_fract_z
Si Si1 0.176842 0.483970 0.149046
Si Si2 0.025135 0.018321 0.291085
Si Si3 0.862605 0.169370 0.825715
Si Si4 0.309828 0.916290 0.464011
Si Si5 0.811685 0.254044 0.453397
Si Si6 0.171535 0.648461 0.103594
O O1 0.358981 0.487071 0.139165
O O2 0.199405 0.432808 0.327941
O O3 0.156341 0.569182 0.184577
O O4 0.000000 0.464278 0.000000
O O5 0.185660 0.971798 0.322375
O O6 0.000000 0.020628 0.500000
O O7 0.057181 0.099565 0.236367
O O8 0.786569 0.219092 0.640988
O O9 0.743915 0.142041 0.932605
O O10 0.000000 0.208781 0.000000
O O11 0.500000 0.925979 0.500000
O O12 0.250011 0.835145 0.406415
O O13 0.758970 0.199396 0.278159
O O14 0.000000 0.261604 0.500000
O O15 0.000000 0.681674 0.000000
#
# Coordination Sequence:
#
# PCOD9125391 Si02
#       6
#     4   4   4   4   4   4
#     4  10  21  41  64  93 129 157 214 280 309 374
#     4  10  21  42  65  95 130 166 218 269 320 382
#     4  12  22  39  74  96 119 178 215 259 342 372
#     4  10  24  40  64  92 129 181 209 255 331 381
#     4  11  22  45  65  93 137 167 215 267 313 397
#     4  11  25  44  65 101 128 159 222 280 316 382
#
# _framework density 20.955062000000002
#
# number of rings (size 3 to 8) (size 9 to 14) (size 15 to 20)
#    0.000    1.333    3.333    2.500    4.667    1.333 
#    9.000    0.833    0.000    0.000    0.000    0.000 
#    0.000    0.000    0.000    0.000    0.000    0.000 
#
# Total GULP energy -66875.172951 kJ/mol
# GULP energy per Si atom -5572.931079 kJ/mol
# Density = 2.090737 g / cm^3
# Si number density = 20.955062 Si / 1000 Ang^3
#
#
#
# Elastic Constant Matrix: (Units=GPa)
#
#
# Indices 1 2 3 4 5 6 
#
# 1 84.4356 10.2540 24.1720 0.0000 13.8423 0.0000
# 2 10.2540 60.6451 21.6471 0.0000 -4.6027 0.0000
# 3 24.1720 21.6471 71.6930 0.0000 -0.8402 0.0000
# 4 0.0000 0.0000 0.0000 47.3669 0.0000 -5.6014
# 5 13.8423 -4.6027 -0.8402 0.0000 41.0813 0.0000
# 6 0.0000 0.0000 0.0000 -5.6014 0.0000 20.5205
#
#
#
# Elastic Compliance Matrix: (Units=1/GPa)
#
#
# Indices 1 2 3 4 5 6 
#
# 1 0.014073 -0.001168 -0.004450 0.000000 -0.004964 0.000000
# 2 -0.001168 0.018737 -0.005236 0.000000 0.002386 0.000000
# 3 -0.004450 -0.005236 0.017045 0.000000 0.001262 0.000000
# 4 0.000000 0.000000 0.000000 0.021816 0.000000 0.005955
# 5 -0.004964 0.002386 0.001262 0.000000 0.026308 0.000000
# 6 0.000000 0.000000 0.000000 0.005955 0.000000 0.050357
#
#
# Mechanical properties :
#
#
# Convention : Reuss Voigt Hill
#
# Bulk Modulus (GPa) = 35.52833 36.54666 36.03750
# Shear Modulus (GPa) = 27.86680 32.50713 30.18696
#
# Velocity S-wave (km/s) = 3.65065 3.94290 3.79958
# Velocity P-wave (km/s) = 5.89584 6.18118 6.04020
#
# Compressibility (1/GPa) = 0.02814655
#
# Stress axis : x y z
#
# Youngs Moduli (GPa) = 71.05828 53.37110 58.66978
#
# Poissons Ratio (x) = 0.06232 0.26111
# Poissons Ratio (y) = 0.08297 0.30718
# Poissons Ratio (z) = 0.31624 0.27944
#
# Static dielectric constant tensor:
#      x y z
#    x 1.853300 0.000000 0.021320 
#    y 0.000000 1.709940 0.000000 
#    z 0.021320 0.000000 1.687790 
# 
# From -- ./inp_files/15821.got.cif
#   From: 2010.05.17/outbox.cif.g08.bks.cpg/sg5_8_cif.got.tgz:15821.got - 2010.06.03 18:56:24.
