data_PCOD9125782
_publ_section_title
;
Structure prediction by ZEFSAII (Michael W. Deem and Ramdas Pophale) SiO2 
 PCOD9125782
Probable space group: C 2
;
_chemical_formula_sum "Si O2"
_cell_formula_units_Z 18
_cell_length_a 5.204364
_cell_length_b 23.856403
_cell_length_c 6.263171
_cell_angle_alpha 90.000000
_cell_angle_beta 89.799007
_cell_angle_gamma 90.000000
_cell_volume 777.614273
_symmetry_space_group_name_H-M "C 2"
_symmetry_group_IT_number 5
_symmetry_cell_setting 'monoclinic'
loop_
_space_group_symop_operation_xyz
x,y,z
-x,y,-z
1/2+x,1/2+y,z
1/2-x,1/2+y,-z
loop_
_atom_site_type_symbol
_atom_site_label
_atom_site_fract_x
_atom_site_fract_y
_atom_site_fract_z
Si Si1 0.749415 0.563180 0.152384
Si Si2 0.000000 0.484009 0.500000
Si Si3 0.252906 0.306404 0.364236
Si Si4 0.247357 0.189399 0.147142
Si Si5 0.748947 0.915655 0.133551
O O1 0.822024 0.521825 0.344901
O O2 0.722670 0.626872 0.240690
O O3 0.500000 0.553189 0.000000
O O4 0.000000 0.562641 0.000000
O O5 0.806679 0.446011 0.641874
O O6 0.500000 0.321605 0.500000
O O7 0.262606 0.241201 0.306274
O O8 0.252562 0.348714 0.166804
O O9 0.000000 0.317535 0.500000
O O10 0.500000 0.190907 0.000000
O O11 0.000000 0.198731 0.000000
O O12 0.500000 0.930905 0.000000
O O13 0.000000 0.931532 0.000000
#
# Coordination Sequence:
#
# PCOD9125782 Si02
#       5
#     4   2   4   4   4
#     4  10  25  48  73 109 147 194 248 302 367 437
#     4  12  28  50  78 108 150 202 256 304 364 440
#     4  12  24  43  72 109 144 185 242 299 369 440
#     4  10  21  43  71 102 144 186 234 296 367 434
#     4  12  28  49  75 107 147 195 246 307 370 436
#
# _framework density 23.147727
#
# number of rings (size 3 to 8) (size 9 to 14) (size 15 to 20)
#    0.000    0.889    1.111    4.667    1.556    6.222 
#    0.000    0.000    0.000    0.000    0.000    0.000 
#    0.000    0.000    0.000    0.000    0.000    0.000 
#
# Total GULP energy -50405.428160 kJ/mol
# GULP energy per Si atom -5600.603129 kJ/mol
# Density = 2.309504 g / cm^3
# Si number density = 23.147727 Si / 1000 Ang^3
#
#
#
# Elastic Constant Matrix: (Units=GPa)
#
#
# Indices 1 2 3 4 5 6 
#
# 1 213.2491 33.1736 60.1642 0.0000 -6.7335 0.0000
# 2 33.1736 155.7445 53.3577 0.0000 -3.6103 0.0000
# 3 60.1642 53.3577 90.1146 0.0000 -9.3903 0.0000
# 4 0.0000 0.0000 0.0000 47.4484 0.0000 11.6962
# 5 -6.7335 -3.6103 -9.3903 0.0000 42.9511 0.0000
# 6 0.0000 0.0000 0.0000 11.6962 0.0000 53.3801
#
#
#
# Elastic Compliance Matrix: (Units=1/GPa)
#
#
# Indices 1 2 3 4 5 6 
#
# 1 0.005779 0.000113 -0.003919 0.000000 0.000059 0.000000
# 2 0.000113 0.008063 -0.004888 0.000000 -0.000373 0.000000
# 3 -0.003919 -0.004888 0.016886 0.000000 0.002666 0.000000
# 4 0.000000 0.000000 0.000000 0.022279 0.000000 -0.004882
# 5 0.000059 -0.000373 0.002666 0.000000 0.023843 0.000000
# 6 0.000000 0.000000 0.000000 -0.004882 0.000000 0.019803
#
#
# Mechanical properties :
#
#
# Convention : Reuss Voigt Hill
#
# Bulk Modulus (GPa) = 74.96958 83.61103 79.29031
# Shear Modulus (GPa) = 42.19791 49.58344 45.89068
#
# Velocity S-wave (km/s) = 4.27427 4.63324 4.45737
# Velocity P-wave (km/s) = 7.53770 8.05119 7.79867
#
# Compressibility (1/GPa) = 0.01333874
#
# Stress axis : x y z
#
# Youngs Moduli (GPa) = 173.02826 124.02627 59.22014
#
# Poissons Ratio (x) = -0.01403 0.23211
# Poissons Ratio (y) = -0.01958 0.28950
# Poissons Ratio (z) = 0.67818 0.60630
#
# Static dielectric constant tensor:
#      x y z
#    x 1.796500 0.000000 -0.012590 
#    y 0.000000 1.888330 0.000000 
#    z -0.012590 0.000000 1.755290 
# 
# From -- ./inp_files/845.got.cif
#   From: 2010.05.17/outbox.cif.g08.bks.cpg/sg5_1_cif.got.tgz:845.got - 2010.06.03 18:56:24.
