data_PCOD9126468
_publ_section_title
;
Structure prediction by ZEFSAII (Michael W. Deem and Ramdas Pophale) SiO2 
 PCOD9126468
Probable space group: C 2
;
_chemical_formula_sum "Si O2"
_cell_formula_units_Z 22
_cell_length_a 8.279872
_cell_length_b 17.923918
_cell_length_c 13.523567
_cell_angle_alpha 90.000000
_cell_angle_beta 30.238320
_cell_angle_gamma 90.000000
_cell_volume 1010.721986
_symmetry_space_group_name_H-M "C 2"
_symmetry_group_IT_number 5
_symmetry_cell_setting 'monoclinic'
loop_
_space_group_symop_operation_xyz
x,y,z
-x,y,-z
1/2+x,1/2+y,z
1/2-x,1/2+y,-z
loop_
_atom_site_type_symbol
_atom_site_label
_atom_site_fract_x
_atom_site_fract_y
_atom_site_fract_z
Si Si1 0.652981 0.698690 0.821327
Si Si2 0.612269 0.664958 0.542978
Si Si3 0.321928 0.829312 0.696861
Si Si4 0.340418 0.582239 0.860051
Si Si5 0.066418 0.342613 0.145004
Si Si6 0.000000 0.438020 0.000000
O O1 0.465494 0.623399 0.890845
O O2 0.589136 0.760402 0.772668
O O3 0.020250 0.687687 0.650089
O O4 0.500000 0.731780 0.000000
O O5 0.500000 0.628684 0.500000
O O6 0.402548 0.740653 0.661633
O O7 0.579023 0.606954 0.648757
O O8 0.500000 0.853313 0.500000
O O9 0.441917 0.867368 0.736024
O O10 0.935651 0.837188 0.910043
O O11 0.272622 0.494622 0.897301
O O12 0.000000 0.614261 0.000000
O O13 0.893813 0.391285 0.151806
#
# Coordination Sequence:
#
# PCOD9126468 Si02
#       6
#     4   4   4   4   4   2
#     4  12  22  38  73 100 133 182 247 289 347 412
#     4  11  22  38  67 106 134 171 238 301 341 406
#     4  10  22  40  68 105 139 176 235 296 346 413
#     4  10  22  43  64  94 137 186 226 286 340 423
#     4  11  22  43  69 103 142 187 227 300 355 415
#     4  10  26  44  68  98 152 186 226 280 378 422
#
# _framework density 21.766617
#
# number of rings (size 3 to 8) (size 9 to 14) (size 15 to 20)
#    0.545    0.727    2.727    4.909    0.000    0.000 
#    3.273    3.636    0.000    0.000    0.000    0.000 
#    0.000    0.000    0.000    0.000    0.000    0.000 
#
# Total GULP energy -61345.280550 kJ/mol
# GULP energy per Si atom -5576.843686 kJ/mol
# Density = 2.171708 g / cm^3
# Si number density = 21.766617 Si / 1000 Ang^3
#
#
#
# Elastic Constant Matrix: (Units=GPa)
#
#
# Indices 1 2 3 4 5 6 
#
# 1 114.4450 19.4747 19.3674 0.0071 13.2267 0.0053
# 2 19.4747 67.0681 2.5052 0.0551 2.2773 0.0142
# 3 19.3674 2.5052 85.0980 0.1489 3.2013 0.0315
# 4 0.0071 0.0551 0.1489 52.8633 -0.0151 27.7515
# 5 13.2267 2.2773 3.2013 -0.0151 45.9561 -0.0012
# 6 0.0053 0.0142 0.0315 27.7515 -0.0012 49.7222
#
#
#
# Elastic Compliance Matrix: (Units=1/GPa)
#
#
# Indices 1 2 3 4 5 6 
#
# 1 0.009841 -0.002694 -0.002064 0.000009 -0.002555 -0.000004
# 2 -0.002694 0.015687 0.000152 -0.000020 -0.000013 0.000007
# 3 -0.002064 0.000152 0.012227 -0.000043 -0.000265 0.000016
# 4 0.000009 -0.000020 -0.000043 0.026757 0.000010 -0.014934
# 5 -0.002555 -0.000013 -0.000265 0.000010 0.022514 -0.000005
# 6 -0.000004 0.000007 0.000016 -0.014934 -0.000005 0.028447
#
#
# Mechanical properties :
#
#
# Convention : Reuss Voigt Hill
#
# Bulk Modulus (GPa) = 35.03587 38.81174 36.92380
# Shear Modulus (GPa) = 37.25827 44.72591 40.99209
#
# Velocity S-wave (km/s) = 4.14178 4.53790 4.34436
# Velocity P-wave (km/s) = 6.24528 6.73248 6.49345
#
# Compressibility (1/GPa) = 0.02854218
#
# Stress axis : x y z
#
# Youngs Moduli (GPa) = 101.61767 63.74645 81.78930
#
# Poissons Ratio (x) = 0.17171 0.16883
# Poissons Ratio (y) = 0.27372 -0.01241
# Poissons Ratio (z) = 0.20977 -0.00967
#
# Static dielectric constant tensor:
#      x y z
#    x 1.759670 -0.000020 0.135640 
#    y -0.000020 1.772750 0.000050 
#    z 0.135640 0.000050 1.502700 
# 
# From -- ./inp_files/51460.got.cif
#   From: 2010.05.17/outbox.cif.g08.bks.cpg/sg5_26_cif.got.tgz:51460.got - 2010.06.03 18:56:24.
