data_PCOD9126781
_publ_section_title
;
Structure prediction by ZEFSAII (Michael W. Deem and Ramdas Pophale) SiO2 
 PCOD9126781
Probable space group: C 2
;
_chemical_formula_sum "Si O2"
_cell_formula_units_Z 32
_cell_length_a 12.305865
_cell_length_b 8.759013
_cell_length_c 13.291050
_cell_angle_alpha 90.000000
_cell_angle_beta 95.138612
_cell_angle_gamma 90.000000
_cell_volume 1426.847746
_symmetry_space_group_name_H-M "C 2"
_symmetry_group_IT_number 5
_symmetry_cell_setting 'monoclinic'
loop_
_space_group_symop_operation_xyz
x,y,z
-x,y,-z
1/2+x,1/2+y,z
1/2-x,1/2+y,-z
loop_
_atom_site_type_symbol
_atom_site_label
_atom_site_fract_x
_atom_site_fract_y
_atom_site_fract_z
Si Si1 0.725934 0.877130 0.175100
Si Si2 0.616872 0.110076 0.553917
Si Si3 0.274381 0.385958 0.807905
Si Si4 0.660368 0.610807 0.688247
Si Si5 0.905554 0.642075 0.910300
Si Si6 0.334048 0.763734 0.513599
Si Si7 0.896982 0.625657 0.205951
Si Si8 0.577635 0.648725 0.267716
O O1 0.827669 0.768471 0.157127
O O2 0.622244 0.771680 0.191619
O O3 0.768239 0.963702 0.279300
O O4 0.684477 0.008753 0.097408
O O5 0.500000 0.150167 0.500000
O O6 0.707631 0.225764 0.521576
O O7 0.614257 0.119400 0.674485
O O8 0.643869 0.936399 0.520644
O O9 0.230720 0.253788 0.731986
O O10 0.343760 0.302797 0.899696
O O11 0.169263 0.478095 0.837367
O O12 0.350069 0.500570 0.750837
O O13 0.632362 0.645258 0.571229
O O14 0.549111 0.608392 0.743053
O O15 0.977538 0.628667 0.814157
O O16 0.000000 0.630256 0.000000
O O17 0.394836 0.721170 0.621617
#
# Coordination Sequence:
#
# PCOD9126781 Si02
#       8
#     4   4   4   4   4   4   4   4
#     4  10  23  41  65  90 129 164 213 267 323 398
#     4  12  27  41  63  95 138 185 220 267 309 374
#     4  10  22  42  65  91 130 166 213 268 327 388
#     4  11  21  35  60  90 126 174 212 262 307 366
#     4  11  26  45  72  99 122 164 220 277 344 405
#     4  12  23  39  61  96 134 174 233 256 301 381
#     4  11  23  45  64  94 133 175 214 269 334 372
#     4  11  21  40  60  92 130 174 211 260 314 372
#
# _framework density 22.427061999999999
#
# number of rings (size 3 to 8) (size 9 to 14) (size 15 to 20)
#    0.000    1.000    3.750    3.375    5.250    1.000 
#    2.250    3.125    0.000    0.000    0.000    0.000 
#    0.000    0.000    0.000    0.000    0.000    0.000 
#
# Total GULP energy -89501.022949 kJ/mol
# GULP energy per Si atom -5593.813934 kJ/mol
# Density = 2.237602 g / cm^3
# Si number density = 22.427062 Si / 1000 Ang^3
#
#
#
# Elastic Constant Matrix: (Units=GPa)
#
#
# Indices 1 2 3 4 5 6 
#
# 1 117.7182 19.5554 1.0266 0.0000 4.7922 0.0000
# 2 19.5554 64.4141 3.0156 0.0000 7.8803 0.0000
# 3 1.0266 3.0156 36.8372 0.0000 13.4634 0.0000
# 4 0.0000 0.0000 0.0000 2.4185 0.0000 5.8092
# 5 4.7922 7.8803 13.4634 0.0000 33.5745 0.0000
# 6 0.0000 0.0000 0.0000 5.8092 0.0000 21.6096
#
#
#
# Elastic Compliance Matrix: (Units=1/GPa)
#
#
# Indices 1 2 3 4 5 6 
#
# 1 0.008962 -0.002640 0.000243 0.000000 -0.000757 0.000000
# 2 -0.002640 0.016761 0.000002 0.000000 -0.003558 0.000000
# 3 0.000243 0.000002 0.031815 0.000000 -0.012793 0.000000
# 4 0.000000 0.000000 0.000000 1.167089 0.000000 -0.313742
# 5 -0.000757 -0.003558 -0.012793 0.000000 0.035858 0.000000
# 6 0.000000 0.000000 0.000000 -0.313742 0.000000 0.130617
#
#
# Mechanical properties :
#
#
# Convention : Reuss Voigt Hill
#
# Bulk Modulus (GPa) = 18.95773 29.57386 24.26580
# Shear Modulus (GPa) = 3.53738 24.54530 14.04134
#
# Velocity S-wave (km/s) = 1.25726 3.31184 2.50489
# Velocity P-wave (km/s) = 3.25254 5.27633 4.38285
#
# Compressibility (1/GPa) = 0.05274894
#
# Stress axis : x y z
#
# Youngs Moduli (GPa) = 111.58171 59.66201 31.43155
#
# Poissons Ratio (x) = 0.15748 -0.00764
# Poissons Ratio (y) = 0.29452 -0.00006
# Poissons Ratio (z) = -0.02712 -0.00011
#
# Static dielectric constant tensor:
#      x y z
#    x 1.807770 0.000000 -0.018230 
#    y 0.000000 1.843580 0.000000 
#    z -0.018230 0.000000 1.879970 
# 
# From -- ./inp_files/52443.got.cif
#   From: 2010.05.17/outbox.cif.g08.bks.cpg/sg5_27_cif.got.tgz:52443.got - 2010.06.03 18:56:24.
