data_PCOD9126863
_publ_section_title
;
Structure prediction by ZEFSAII (Michael W. Deem and Ramdas Pophale) SiO2 
 PCOD9126863
Probable space group: C 2
;
_chemical_formula_sum "Si O2"
_cell_formula_units_Z 16
_cell_length_a 5.264406
_cell_length_b 12.943876
_cell_length_c 10.067322
_cell_angle_alpha 90.000000
_cell_angle_beta 120.096964
_cell_angle_gamma 90.000000
_cell_volume 593.516973
_symmetry_space_group_name_H-M "C 2"
_symmetry_group_IT_number 5
_symmetry_cell_setting 'monoclinic'
loop_
_space_group_symop_operation_xyz
x,y,z
-x,y,-z
1/2+x,1/2+y,z
1/2-x,1/2+y,-z
loop_
_atom_site_type_symbol
_atom_site_label
_atom_site_fract_x
_atom_site_fract_y
_atom_site_fract_z
Si Si1 0.000000 0.350750 0.500000
Si Si2 0.933545 0.959035 0.274885
Si Si3 0.271046 0.759048 0.673475
Si Si4 0.000000 0.974007 0.000000
Si Si5 0.995687 0.639745 0.852482
O O1 0.274839 0.429182 0.566451
O O2 0.967125 0.272201 0.366272
O O3 0.704615 0.874586 0.262390
O O4 0.811339 0.075571 0.252240
O O5 0.010988 0.925014 0.146140
O O6 0.167621 0.692677 0.773553
O O7 0.000000 0.743678 0.500000
O O8 0.715170 0.045136 0.937421
O O9 0.000000 0.695895 0.000000
#
# Coordination Sequence:
#
# PCOD9126863 Si02
#       5
#     2   4   4   2   4
#     4  10  22  44  74 112 146 200 246 304 388 440
#     4  10  22  44  73 104 150 192 246 305 378 445
#     4  10  23  45  70 107 151 192 245 307 377 446
#     4  10  22  42  68 108 142 188 250 300 378 436
#     4  10  23  45  72 113 145 193 254 306 370 452
#
# _framework density 26.95795
#
# number of rings (size 3 to 8) (size 9 to 14) (size 15 to 20)
#    0.000    2.000    0.000    1.500    1.750    8.000 
#   24.750    0.000    0.000    0.000    0.000    3.500 
#    0.000    0.000    0.000    0.000    0.000    0.000 
#
# Total GULP energy -44539.428825 kJ/mol
# GULP energy per Si atom -5567.428603 kJ/mol
# Density = 2.689659 g / cm^3
# Si number density = 26.957950 Si / 1000 Ang^3
#
#
#
# Elastic Constant Matrix: (Units=GPa)
#
#
# Indices 1 2 3 4 5 6 
#
# 1 121.5528 36.1312 33.9949 0.0000 -25.4208 0.0000
# 2 36.1312 113.7460 74.3073 0.0000 -10.6072 0.0000
# 3 33.9949 74.3073 143.4100 0.0000 -56.7816 0.0000
# 4 0.0000 0.0000 0.0000 23.8115 0.0000 -32.6746
# 5 -25.4208 -10.6072 -56.7816 0.0000 56.1678 0.0000
# 6 0.0000 0.0000 0.0000 -32.6746 0.0000 2.9704
#
#
#
# Elastic Compliance Matrix: (Units=1/GPa)
#
#
# Indices 1 2 3 4 5 6 
#
# 1 0.010056 -0.003914 0.001924 0.000000 0.005757 0.000000
# 2 -0.003914 0.016971 -0.012169 0.000000 -0.010868 0.000000
# 3 0.001924 -0.012169 0.020437 0.000000 0.019233 0.000000
# 4 0.000000 0.000000 0.000000 -0.002980 0.000000 -0.032776
# 5 0.005757 -0.010868 0.019233 0.000000 0.037800 0.000000
# 6 0.000000 0.000000 0.000000 -0.032776 0.000000 -0.023885
#
#
# Mechanical properties :
#
#
# Convention : Reuss Voigt Hill
#
# Bulk Modulus (GPa) = 52.22992 74.17507 63.20250
# Shear Modulus (GPa) = 53.70536 32.20830 42.95683
#
# Velocity S-wave (km/s) = 4.46824 3.46028 3.99617
# Velocity P-wave (km/s) = 6.78505 6.59845 6.69240
#
# Compressibility (1/GPa) = 0.01914611
#
# Stress axis : x y z
#
# Youngs Moduli (GPa) = 99.43986 58.92440 48.92977
#
# Poissons Ratio (x) = 0.23064 -0.09413
# Poissons Ratio (y) = 0.38923 0.59541
# Poissons Ratio (z) = -0.19129 0.71704
#
# Static dielectric constant tensor:
#      x y z
#    x 2.359090 0.000000 -0.045670 
#    y 0.000000 2.078550 0.000000 
#    z -0.045670 0.000000 2.161620 
# 
# From -- ./inp_files/11816.got.cif
#   From: 2010.05.17/outbox.cif.g08.bks.cpg/sg5_6_cif.got.tgz:11816.got - 2010.06.03 18:56:24.
