data_PCOD9126442
_publ_section_title
;
Structure prediction by ZEFSAII (Michael W. Deem and Ramdas Pophale) SiO2 
 PCOD9126442
Probable space group: C 2
;
_chemical_formula_sum "Si O2"
_cell_formula_units_Z 30
_cell_length_a 15.191937
_cell_length_b 10.725840
_cell_length_c 18.925372
_cell_angle_alpha 90.000000
_cell_angle_beta 151.420306
_cell_angle_gamma 90.000000
_cell_volume 1475.239417
_symmetry_space_group_name_H-M "C 2"
_symmetry_group_IT_number 5
_symmetry_cell_setting 'monoclinic'
loop_
_space_group_symop_operation_xyz
x,y,z
-x,y,-z
1/2+x,1/2+y,z
1/2-x,1/2+y,-z
loop_
_atom_site_type_symbol
_atom_site_label
_atom_site_fract_x
_atom_site_fract_y
_atom_site_fract_z
Si Si1 0.144886 0.905270 0.160653
Si Si2 0.458452 0.719469 0.334936
Si Si3 0.534693 0.269884 0.829709
Si Si4 0.000000 0.041893 0.500000
Si Si5 0.553823 0.752049 0.832366
Si Si6 0.796159 0.613944 0.359876
Si Si7 0.649782 0.001637 0.325451
Si Si8 0.775620 0.924297 0.564456
O O1 0.281189 0.804713 0.223705
O O2 0.042736 0.839414 0.154821
O O3 0.259844 0.023297 0.268372
O O4 0.000000 0.944597 0.000000
O O5 0.467177 0.624925 0.406611
O O6 0.445248 0.681132 0.243115
O O7 0.637003 0.807179 0.467100
O O8 0.433341 0.137444 0.747834
O O9 0.472045 0.363589 0.722853
O O10 0.750415 0.244795 0.991573
O O11 0.810063 0.972193 0.382043
O O12 0.381033 0.700316 0.754414
O O13 0.507467 0.897000 0.785443
O O14 0.788890 0.520037 0.421383
O O15 0.000000 0.671567 0.500000
O O16 0.749605 0.990618 0.471509
#
# Coordination Sequence:
#
# PCOD9126442 Si02
#       8
#     4   4   4   2   4   4   4   4
#     4  11  21  39  68 100 126 168 224 279 319 378
#     4  11  19  40  65 100 123 171 232 264 314 381
#     4  11  23  42  67  97 136 168 221 279 324 382
#     4  12  20  40  68  94 130 166 222 272 312 386
#     4  11  27  41  64  98 138 174 211 268 345 394
#     4  11  23  41  65  93 133 170 220 272 321 386
#     4  11  25  41  67  96 131 176 219 268 332 391
#     4  10  22  40  66  98 122 172 231 270 313 386
#
# _framework density 20.335681999999998
#
# number of rings (size 3 to 8) (size 9 to 14) (size 15 to 20)
#    0.000    1.067    5.333    1.600    6.533    0.000 
#    0.000    0.000    0.000    0.000    0.000    0.000 
#    0.000    0.000    0.000    0.000    0.000    0.000 
#
# Total GULP energy -83775.296481 kJ/mol
# GULP energy per Si atom -5585.019765 kJ/mol
# Density = 2.028940 g / cm^3
# Si number density = 20.335682 Si / 1000 Ang^3
#
#
#
# Elastic Constant Matrix: (Units=GPa)
#
#
# Indices 1 2 3 4 5 6 
#
# 1 64.5784 13.3641 50.1288 0.0001 9.4188 -0.0001
# 2 13.3641 44.9941 35.7586 0.0007 -0.6943 -0.0001
# 3 50.1288 35.7586 151.0761 0.0007 19.5375 0.0001
# 4 0.0001 0.0007 0.0007 26.0370 0.0001 7.4859
# 5 9.4188 -0.6943 19.5375 0.0001 32.6484 0.0000
# 6 -0.0001 -0.0001 0.0001 7.4859 0.0000 13.2680
#
#
#
# Elastic Compliance Matrix: (Units=1/GPa)
#
#
# Indices 1 2 3 4 5 6 
#
# 1 0.021033 -0.001192 -0.006404 0.000000 -0.002261 0.000000
# 2 -0.001192 0.028164 -0.006929 -0.000001 0.005089 0.000001
# 3 -0.006404 -0.006929 0.011017 0.000000 -0.004893 0.000000
# 4 0.000000 -0.000001 0.000000 0.045843 0.000000 -0.025865
# 5 -0.002261 0.005089 -0.004893 0.000000 0.034318 0.000000
# 6 0.000000 0.000001 0.000000 -0.025865 0.000000 0.089963
#
#
# Mechanical properties :
#
#
# Convention : Reuss Voigt Hill
#
# Bulk Modulus (GPa) = 32.08905 51.01685 41.55295
# Shear Modulus (GPa) = 18.53386 25.15048 21.84217
#
# Velocity S-wave (km/s) = 3.02221 3.52058 3.28087
# Velocity P-wave (km/s) = 5.29077 6.45506 5.90170
#
# Compressibility (1/GPa) = 0.03116328
#
# Stress axis : x y z
#
# Youngs Moduli (GPa) = 47.54458 35.50573 90.76902
#
# Poissons Ratio (x) = 0.04233 0.58132
# Poissons Ratio (y) = 0.05668 0.62893
# Poissons Ratio (z) = 0.30450 0.24602
#
# Static dielectric constant tensor:
#      x y z
#    x 1.726830 0.000000 0.004080 
#    y 0.000000 1.727910 0.000000 
#    z 0.004080 0.000000 1.729210 
# 
# From -- ./inp_files/61645.got.cif
#   From: 2010.05.17/outbox.cif.g08.bks.cpg/sg5_31_cif.got.tgz:61645.got - 2010.06.03 18:56:24.
