data_PCOD9126024
_publ_section_title
;
Structure prediction by ZEFSAII (Michael W. Deem and Ramdas Pophale) SiO2 
 PCOD9126024
Probable space group: C 2
;
_chemical_formula_sum "Si O2"
_cell_formula_units_Z 28
_cell_length_a 15.525818
_cell_length_b 8.518058
_cell_length_c 12.936995
_cell_angle_alpha 90.000000
_cell_angle_beta 56.096674
_cell_angle_gamma 90.000000
_cell_volume 1420.025269
_symmetry_space_group_name_H-M "C 2"
_symmetry_group_IT_number 5
_symmetry_cell_setting 'monoclinic'
loop_
_space_group_symop_operation_xyz
x,y,z
-x,y,-z
1/2+x,1/2+y,z
1/2-x,1/2+y,-z
loop_
_atom_site_type_symbol
_atom_site_label
_atom_site_fract_x
_atom_site_fract_y
_atom_site_fract_z
Si Si1 0.717224 0.604980 0.634688
Si Si2 0.385469 0.148918 0.045321
Si Si3 0.348239 0.568748 0.541937
Si Si4 0.702399 0.838730 0.275764
Si Si5 0.440246 0.235808 0.445471
Si Si6 0.636760 0.909977 0.761759
Si Si7 0.062829 0.543467 0.211955
O O1 0.647547 0.621241 0.579639
O O2 0.737184 0.440118 0.676836
O O3 0.828332 0.659027 0.517791
O O4 0.672684 0.730986 0.744544
O O5 0.290913 0.256104 0.147203
O O6 0.378562 0.990361 0.117711
O O7 0.500000 0.215584 0.000000
O O8 0.379688 0.105184 0.928910
O O9 0.362335 0.705676 0.617169
O O10 0.419181 0.414937 0.489560
O O11 0.232644 0.501592 0.643870
O O12 0.632513 0.949553 0.248549
O O13 0.500000 0.156744 0.500000
O O14 0.508238 0.194759 0.301247
O O15 0.532560 0.936928 0.765743
#
# Coordination Sequence:
#
# PCOD9126024 Si02
#       7
#     4   4   4   4   4   4   4
#     4  11  21  37  65  92 124 158 208 252 311 380
#     4   9  22  43  64  86 123 170 214 251 308 372
#     4  10  22  37  61  92 126 160 203 249 313 382
#     4  11  23  41  65  94 125 166 207 265 313 365
#     4  11  22  39  59  91 123 160 200 259 318 363
#     4   9  20  39  63  88 122 166 205 251 304 374
#     4  11  22  41  67  88 128 166 209 261 315 364
#
# _framework density 19.717960000000001
#
# number of rings (size 3 to 8) (size 9 to 14) (size 15 to 20)
#    0.000    1.714    2.857    1.714    4.000    2.286 
#    2.571    3.571    0.000    0.000    0.000    0.000 
#    0.000    0.000    0.000    0.000    0.000    0.000 
#
# Total GULP energy -78035.430969 kJ/mol
# GULP energy per Si atom -5573.959355 kJ/mol
# Density = 1.967308 g / cm^3
# Si number density = 19.717960 Si / 1000 Ang^3
#
#
#
# Elastic Constant Matrix: (Units=GPa)
#
#
# Indices 1 2 3 4 5 6 
#
# 1 66.5842 21.6102 43.7236 0.0000 3.8090 0.0000
# 2 21.6102 80.5687 69.0756 0.0000 -9.9524 0.0000
# 3 43.7236 69.0756 139.9621 0.0000 9.6329 0.0000
# 4 0.0000 0.0000 0.0000 121.0475 0.0000 -3.4164
# 5 3.8090 -9.9524 9.6329 0.0000 19.5976 0.0000
# 6 0.0000 0.0000 0.0000 -3.4164 0.0000 21.3080
#
#
#
# Elastic Compliance Matrix: (Units=1/GPa)
#
#
# Indices 1 2 3 4 5 6 
#
# 1 0.018911 -0.000352 -0.005660 0.000000 -0.001072 0.000000
# 2 -0.000352 0.028533 -0.015498 0.000000 0.022177 0.000000
# 3 -0.005660 -0.015498 0.017624 0.000000 -0.015433 0.000000
# 4 0.000000 0.000000 0.000000 0.008299 0.000000 0.001331
# 5 -0.001072 0.022177 -0.015433 0.000000 0.070083 0.000000
# 6 0.000000 0.000000 0.000000 0.001331 0.000000 0.047144
#
#
# Mechanical properties :
#
#
# Convention : Reuss Voigt Hill
#
# Bulk Modulus (GPa) = 45.35718 61.77044 53.56381
# Shear Modulus (GPa) = 20.74996 42.57098 31.66047
#
# Velocity S-wave (km/s) = 3.24750 4.65154 4.01142
# Velocity P-wave (km/s) = 6.09217 7.76171 6.97706
#
# Compressibility (1/GPa) = 0.02204723
#
# Stress axis : x y z
#
# Youngs Moduli (GPa) = 52.87914 35.04707 56.74037
#
# Poissons Ratio (x) = 0.01233 0.32117
# Poissons Ratio (y) = 0.01861 0.87938
# Poissons Ratio (z) = 0.29931 0.54317
#
# Static dielectric constant tensor:
#      x y z
#    x 1.020940 0.000000 -0.169390 
#    y 0.000000 1.726260 0.000000 
#    z -0.169390 0.000000 1.641190 
# 
# From -- ./inp_files/41878.got.cif
#   From: 2010.05.17/outbox.cif.g08.bks.cpg/sg5_21_cif.got.tgz:41878.got - 2010.06.03 18:56:24.
