data_PCOD9126490
_publ_section_title
;
Structure prediction by ZEFSAII (Michael W. Deem and Ramdas Pophale) SiO2 
 PCOD9126490
Probable space group: C 2
;
_chemical_formula_sum "Si O2"
_cell_formula_units_Z 26
_cell_length_a 11.693447
_cell_length_b 19.452380
_cell_length_c 7.950235
_cell_angle_alpha 90.000000
_cell_angle_beta 40.686731
_cell_angle_gamma 90.000000
_cell_volume 1178.939287
_symmetry_space_group_name_H-M "C 2"
_symmetry_group_IT_number 5
_symmetry_cell_setting 'monoclinic'
loop_
_space_group_symop_operation_xyz
x,y,z
-x,y,-z
1/2+x,1/2+y,z
1/2-x,1/2+y,-z
loop_
_atom_site_type_symbol
_atom_site_label
_atom_site_fract_x
_atom_site_fract_y
_atom_site_fract_z
Si Si1 0.185913 0.731570 0.697929
Si Si2 0.881161 0.074756 0.963682
Si Si3 0.000000 0.152172 0.500000
Si Si4 0.812139 0.372966 0.416039
Si Si5 0.468420 0.424814 0.842301
Si Si6 0.304062 0.198855 0.702574
Si Si7 0.809495 0.333676 0.029416
O O1 0.332650 0.699500 0.652629
O O2 0.223636 0.811407 0.619429
O O3 0.218633 0.699269 0.474140
O O4 0.000000 0.721815 0.000000
O O5 0.968589 0.106382 0.700301
O O6 0.856574 0.994450 0.953186
O O7 0.718760 0.123604 0.193310
O O8 0.000000 0.079359 0.000000
O O9 0.673702 0.435625 0.564525
O O10 0.809275 0.353749 0.224212
O O11 0.015945 0.369093 0.241983
O O12 0.363273 0.364180 0.866439
O O13 0.500000 0.410108 0.000000
O O14 0.500000 0.226677 0.500000
O O15 0.186209 0.250858 0.947891
#
# Coordination Sequence:
#
# PCOD9126490 Si02
#       7
#     4   4   2   4   4   4   4
#     4  11  23  40  69 108 135 173 235 289 355 419
#     4  11  25  46  67  99 146 190 233 285 350 418
#     4  12  24  42  72  98 138 188 228 288 346 420
#     4  10  22  40  68  99 138 172 228 288 345 421
#     4  11  25  44  65  98 138 186 230 285 345 420
#     4  11  22  44  71 102 147 182 232 299 356 416
#     4  10  22  42  71 102 131 183 227 287 362 409
#
# _framework density 22.053723000000002
#
# number of rings (size 3 to 8) (size 9 to 14) (size 15 to 20)
#    0.000    1.231    1.538    4.615    4.308    4.308 
#    5.538    1.538    0.000    0.000    0.000    0.000 
#    0.000    0.000    0.000    0.000    0.000    0.000 
#
# Total GULP energy -72460.819662 kJ/mol
# GULP energy per Si atom -5573.909205 kJ/mol
# Density = 2.200353 g / cm^3
# Si number density = 22.053723 Si / 1000 Ang^3
#
#
#
# Elastic Constant Matrix: (Units=GPa)
#
#
# Indices 1 2 3 4 5 6 
#
# 1 105.5366 23.0219 36.7243 0.0000 -1.4780 0.0000
# 2 23.0219 86.1087 46.7673 0.0000 6.9275 0.0000
# 3 36.7243 46.7673 109.9422 0.0000 -4.6822 0.0000
# 4 0.0000 0.0000 0.0000 19.7537 0.0000 -7.3543
# 5 -1.4780 6.9275 -4.6822 0.0000 41.7108 0.0000
# 6 0.0000 0.0000 0.0000 -7.3543 0.0000 20.1961
#
#
#
# Elastic Compliance Matrix: (Units=1/GPa)
#
#
# Indices 1 2 3 4 5 6 
#
# 1 0.010820 -0.001242 -0.003075 0.000000 0.000244 0.000000
# 2 -0.001242 0.015695 -0.006405 0.000000 -0.003370 0.000000
# 3 -0.003075 -0.006405 0.012950 0.000000 0.002408 0.000000
# 4 0.000000 0.000000 0.000000 0.058563 0.000000 0.021325
# 5 0.000244 -0.003370 0.002408 0.000000 0.024813 0.000000
# 6 0.000000 0.000000 0.000000 0.021325 0.000000 0.057280
#
#
# Mechanical properties :
#
#
# Convention : Reuss Voigt Hill
#
# Bulk Modulus (GPa) = 55.49376 57.17938 56.33657
# Shear Modulus (GPa) = 24.08790 29.33704 26.71247
#
# Velocity S-wave (km/s) = 3.30849 3.65122 3.48407
# Velocity P-wave (km/s) = 6.30971 6.61504 6.46418
#
# Compressibility (1/GPa) = 0.01802004
#
# Stress axis : x y z
#
# Youngs Moduli (GPa) = 92.42192 63.71417 77.21944
#
# Poissons Ratio (x) = 0.07914 0.23748
# Poissons Ratio (y) = 0.11480 0.49459
# Poissons Ratio (z) = 0.28424 0.40809
#
# Static dielectric constant tensor:
#      x y z
#    x 1.817870 0.000000 -0.041460 
#    y 0.000000 1.884100 0.000000 
#    z -0.041460 0.000000 2.007780 
# 
# From -- ./inp_files/21883.got.cif
#   From: 2010.05.17/outbox.cif.g08.bks.cpg/sg5_11_cif.got.tgz:21883.got - 2010.06.03 18:56:24.
