data_PCOD9126910
_publ_section_title
;
Structure prediction by ZEFSAII (Michael W. Deem and Ramdas Pophale) SiO2 
 PCOD9126910
Probable space group: C 2
;
_chemical_formula_sum "Si O2"
_cell_formula_units_Z 28
_cell_length_a 8.645498
_cell_length_b 29.717028
_cell_length_c 5.087478
_cell_angle_alpha 90.000000
_cell_angle_beta 122.405957
_cell_angle_gamma 90.000000
_cell_volume 1103.520556
_symmetry_space_group_name_H-M "C 2"
_symmetry_group_IT_number 5
_symmetry_cell_setting 'monoclinic'
loop_
_space_group_symop_operation_xyz
x,y,z
-x,y,-z
1/2+x,1/2+y,z
1/2-x,1/2+y,-z
loop_
_atom_site_type_symbol
_atom_site_label
_atom_site_fract_x
_atom_site_fract_y
_atom_site_fract_z
Si Si1 0.316463 0.679780 0.442105
Si Si2 0.300469 0.358515 0.689442
Si Si3 0.302470 0.565432 0.887862
Si Si4 0.714254 0.009575 0.283673
Si Si5 0.213573 0.766951 0.126760
Si Si6 0.500000 0.133466 0.500000
Si Si7 0.289829 0.909403 0.885887
Si Si8 0.500000 0.752083 0.000000
O O1 0.500000 0.654427 0.500000
O O2 0.241005 0.712570 0.148144
O O3 0.145121 0.657417 0.434700
O O4 0.399948 0.718944 0.703003
O O5 0.215630 0.308557 0.628556
O O6 0.305549 0.374810 0.397815
O O7 0.500000 0.355535 0.000000
O O8 0.217121 0.395749 0.814319
O O9 0.243691 0.530257 0.601570
O O10 0.142394 0.601560 0.782734
O O11 0.500000 0.586208 0.000000
O O12 0.322225 0.539693 0.176093
O O13 0.772720 0.958723 0.267717
O O14 0.500000 0.012552 0.000000
O O15 0.332144 0.778648 0.977799
O O16 0.000000 0.768287 0.000000
O O17 0.500000 0.906977 0.000000
#
# Coordination Sequence:
#
# PCOD9126910 Si02
#       8
#     4   4   4   4   4   2   4   2
#     4  10  24  45  70 104 140 198 243 303 375 447
#     4  11  25  42  66 106 148 191 243 304 367 436
#     4  12  27  47  78 111 144 199 248 310 379 455
#     4  11  23  50  73 104 150 195 242 306 389 446
#     4  10  23  43  67  99 145 193 246 301 372 438
#     4  12  26  50  74 106 156 188 254 320 376 438
#     4  11  25  42  73 105 144 192 243 302 370 446
#     4  10  22  42  70 100 134 192 250 292 368 446
#
# _framework density 25.373336999999999
#
# number of rings (size 3 to 8) (size 9 to 14) (size 15 to 20)
#    0.000    1.143    1.429    3.000    4.000    9.143 
#   10.286    0.000    0.000    0.000    0.000    0.000 
#    0.000    0.000    0.000    0.000    0.000    0.000 
#
# Total GULP energy -78079.272747 kJ/mol
# GULP energy per Si atom -5577.090910 kJ/mol
# Density = 2.531559 g / cm^3
# Si number density = 25.373337 Si / 1000 Ang^3
#
#
#
# Elastic Constant Matrix: (Units=GPa)
#
#
# Indices 1 2 3 4 5 6 
#
# 1 223.4858 63.7839 34.6223 0.0000 13.2647 0.0000
# 2 63.7839 114.0970 12.8126 0.0000 -4.0695 0.0000
# 3 34.6223 12.8126 69.6964 0.0000 -6.1625 0.0000
# 4 0.0000 0.0000 0.0000 26.3141 0.0000 -2.7163
# 5 13.2647 -4.0695 -6.1625 0.0000 50.4979 0.0000
# 6 0.0000 0.0000 0.0000 -2.7163 0.0000 19.5415
#
#
#
# Elastic Compliance Matrix: (Units=1/GPa)
#
#
# Indices 1 2 3 4 5 6 
#
# 1 0.005868 -0.003071 -0.002536 0.000000 -0.002098 0.000000
# 2 -0.003071 0.010570 -0.000274 0.000000 0.001625 0.000000
# 3 -0.002536 -0.000274 0.015887 0.000000 0.002583 0.000000
# 4 0.000000 0.000000 0.000000 0.038556 0.000000 0.005359
# 5 -0.002098 0.001625 0.002583 0.000000 0.020800 0.000000
# 6 0.000000 0.000000 0.000000 0.005359 0.000000 0.051918
#
#
# Mechanical properties :
#
#
# Convention : Reuss Voigt Hill
#
# Bulk Modulus (GPa) = 48.63121 69.96853 59.29987
# Shear Modulus (GPa) = 30.82331 39.00805 34.91568
#
# Velocity S-wave (km/s) = 3.48917 3.92518 3.71358
# Velocity P-wave (km/s) = 5.95317 6.94105 6.46600
#
# Compressibility (1/GPa) = 0.02056293
#
# Stress axis : x y z
#
# Youngs Moduli (GPa) = 170.40414 94.60914 62.94621
#
# Poissons Ratio (x) = 0.29051 0.15965
# Poissons Ratio (y) = 0.52325 0.01725
# Poissons Ratio (z) = 0.43218 0.02593
#
# Static dielectric constant tensor:
#      x y z
#    x 1.971530 0.000000 0.080810 
#    y 0.000000 2.057250 0.000000 
#    z 0.080810 0.000000 1.923220 
# 
# From -- ./inp_files/4018.got.cif
#   From: 2010.05.17/outbox.cif.g08.bks.cpg/sg5_3_cif.got.tgz:4018.got - 2010.06.03 18:56:24.
