data_PCOD9126705
_publ_section_title
;
Structure prediction by ZEFSAII (Michael W. Deem and Ramdas Pophale) SiO2 
 PCOD9126705
Probable space group: C 2
;
_chemical_formula_sum "Si O2"
_cell_formula_units_Z 24
_cell_length_a 8.515016
_cell_length_b 17.189557
_cell_length_c 8.367638
_cell_angle_alpha 90.000000
_cell_angle_beta 120.231360
_cell_angle_gamma 90.000000
_cell_volume 1058.196822
_symmetry_space_group_name_H-M "C 2"
_symmetry_group_IT_number 5
_symmetry_cell_setting 'monoclinic'
loop_
_space_group_symop_operation_xyz
x,y,z
-x,y,-z
1/2+x,1/2+y,z
1/2-x,1/2+y,-z
loop_
_atom_site_type_symbol
_atom_site_label
_atom_site_fract_x
_atom_site_fract_y
_atom_site_fract_z
Si Si1 0.694583 0.829950 0.185841
Si Si2 0.452182 0.460340 0.165653
Si Si3 0.816141 0.398178 0.463560
Si Si4 0.691844 0.255004 0.192896
Si Si5 0.653603 0.626228 0.944202
Si Si6 0.948659 0.675049 0.304618
O O1 0.812630 0.893006 0.146137
O O2 0.671094 0.861852 0.353557
O O3 0.815515 0.750848 0.255316
O O4 0.500000 0.820371 0.000000
O O5 0.636474 0.448918 0.358455
O O6 0.379987 0.546414 0.163590
O O7 0.500000 0.456538 0.000000
O O8 0.781474 0.330732 0.312797
O O9 0.000000 0.438476 0.500000
O O10 0.822117 0.202467 0.151439
O O11 0.628342 0.204225 0.310144
O O12 0.500000 0.269834 0.000000
O O13 0.500000 0.635777 0.000000
O O14 0.842616 0.617618 0.135322
O O15 0.000000 0.642072 0.500000
#
# Coordination Sequence:
#
# PCOD9126705 Si02
#       6
#     4   4   4   4   4   4
#     4  12  25  42  75 105 148 190 249 302 361 429
#     4  11  24  49  70 102 153 194 239 303 367 434
#     4  12  25  42  72 113 138 193 252 301 363 428
#     4  10  22  41  72 104 145 184 237 306 363 428
#     4  10  25  44  70 102 150 196 234 297 375 426
#     4  11  21  42  70 107 143 186 243 301 362 428
#
# _framework density 22.680091999999998
#
# number of rings (size 3 to 8) (size 9 to 14) (size 15 to 20)
#    0.000    1.000    3.333    2.500    9.333    2.000 
#    0.000   15.000    0.000    0.000    0.000    0.000 
#    0.000    0.000    0.000    0.000    0.000    0.000 
#
# Total GULP energy -67172.451254 kJ/mol
# GULP energy per Si atom -5597.704271 kJ/mol
# Density = 2.262847 g / cm^3
# Si number density = 22.680092 Si / 1000 Ang^3
#
#
#
# Elastic Constant Matrix: (Units=GPa)
#
#
# Indices 1 2 3 4 5 6 
#
# 1 90.4734 29.1106 16.2281 0.0000 6.7938 0.0000
# 2 29.1106 104.9122 44.3080 0.0000 14.3958 0.0000
# 3 16.2281 44.3080 108.4165 0.0000 -6.6863 0.0000
# 4 0.0000 0.0000 0.0000 9.9939 0.0000 13.0024
# 5 6.7938 14.3958 -6.6863 0.0000 39.0472 0.0000
# 6 0.0000 0.0000 0.0000 13.0024 0.0000 11.5070
#
#
#
# Elastic Compliance Matrix: (Units=1/GPa)
#
#
# Indices 1 2 3 4 5 6 
#
# 1 0.012210 -0.002932 -0.000701 0.000000 -0.001163 0.000000
# 2 -0.002932 0.013329 -0.005336 0.000000 -0.005318 0.000000
# 3 -0.000701 -0.005336 0.011763 0.000000 0.004104 0.000000
# 4 0.000000 0.000000 0.000000 -0.212842 0.000000 0.240503
# 5 -0.001163 -0.005318 0.004104 0.000000 0.028476 0.000000
# 6 0.000000 0.000000 0.000000 0.240503 0.000000 -0.184854
#
#
# Mechanical properties :
#
#
# Convention : Reuss Voigt Hill
#
# Bulk Modulus (GPa) = 51.64775 53.67730 52.66252
# Shear Modulus (GPa) = -16.25872 26.38664 5.06396
#
# Velocity S-wave (km/s) = -2.68035 3.41461 1.49587
# Velocity P-wave (km/s) = 3.63905 6.26614 5.12383
#
# Compressibility (1/GPa) = 0.01936193
#
# Stress axis : x y z
#
# Youngs Moduli (GPa) = 81.90332 75.02579 85.01563
#
# Poissons Ratio (x) = 0.21999 0.05959
# Poissons Ratio (y) = 0.24015 0.45367
# Poissons Ratio (z) = 0.05741 0.40036
#
# Static dielectric constant tensor:
#      x y z
#    x 1.866930 0.000000 0.021150 
#    y 0.000000 1.845650 0.000000 
#    z 0.021150 0.000000 1.892430 
# 
# From -- ./inp_files/16846.got.cif
#   From: 2010.05.17/outbox.cif.g08.bks.cpg/sg5_9_cif.got.tgz:16846.got - 2010.06.03 18:56:24.
