data_PCOD9126428
_publ_section_title
;
Structure prediction by ZEFSAII (Michael W. Deem and Ramdas Pophale) SiO2 
 PCOD9126428
Probable space group: C 2
;
_chemical_formula_sum "Si O2"
_cell_formula_units_Z 28
_cell_length_a 23.483112
_cell_length_b 10.534330
_cell_length_c 5.239155
_cell_angle_alpha 90.000000
_cell_angle_beta 91.388634
_cell_angle_gamma 90.000000
_cell_volume 1295.675515
_symmetry_space_group_name_H-M "C 2"
_symmetry_group_IT_number 5
_symmetry_cell_setting 'monoclinic'
loop_
_space_group_symop_operation_xyz
x,y,z
-x,y,-z
1/2+x,1/2+y,z
1/2-x,1/2+y,-z
loop_
_atom_site_type_symbol
_atom_site_label
_atom_site_fract_x
_atom_site_fract_y
_atom_site_fract_z
Si Si1 0.373509 0.024170 0.956996
Si Si2 0.334529 0.514300 0.921922
Si Si3 0.796485 0.678656 0.318904
Si Si4 0.500000 0.220321 0.500000
Si Si5 0.312716 0.653811 0.425284
Si Si6 0.221938 0.353680 0.949944
Si Si7 0.500000 0.044180 0.000000
Si Si8 0.382661 0.288444 0.657959
O O1 0.343864 0.085891 0.206399
O O2 0.328523 0.914699 0.889201
O O3 0.377398 0.146582 0.773544
O O4 0.438501 0.975869 0.986279
O O5 0.342717 0.614498 0.691886
O O6 0.270184 0.457884 0.902263
O O7 0.374205 0.393990 0.870351
O O8 0.340105 0.576139 0.197372
O O9 0.753788 0.621235 0.523780
O O10 0.830452 0.793820 0.455835
O O11 0.756181 0.741525 0.098583
O O12 0.442764 0.299532 0.527938
O O13 0.504997 0.132859 0.750819
O O14 0.306246 0.794803 0.307671
#
# Coordination Sequence:
#
# PCOD9126428 Si02
#       8
#     4   4   4   2   4   4   2   4
#     4  11  23  41  64  96 134 170 216 269 326 396
#     4  12  24  38  61  87 131 165 211 261 323 394
#     4  12  20  40  58  96 127 169 201 261 323 388
#     4  10  22  40  66  92 128 166 214 276 322 388
#     4  12  25  40  56  90 130 169 205 256 323 391
#     4  12  23  38  61  93 131 172 210 261 332 386
#     4  10  22  42  64  96 130 170 216 268 330 378
#     4  11  23  38  65  94 131 164 219 264 335 378
#
# _framework density 21.61035
#
# number of rings (size 3 to 8) (size 9 to 14) (size 15 to 20)
#    0.000    0.571    7.143    1.714    0.000    1.143 
#    0.000    0.000    0.000    1.714    0.000    0.000 
#    0.000    0.000    0.000    0.000    0.000    0.000 
#
# Total GULP energy -78180.637421 kJ/mol
# GULP energy per Si atom -5584.331244 kJ/mol
# Density = 2.156116 g / cm^3
# Si number density = 21.610350 Si / 1000 Ang^3
#
#
#
# Elastic Constant Matrix: (Units=GPa)
#
#
# Indices 1 2 3 4 5 6 
#
# 1 126.0120 14.0221 18.2418 0.0000 -29.0970 0.0000
# 2 14.0221 60.9628 21.7173 0.0000 -6.2956 0.0000
# 3 18.2418 21.7173 119.6156 0.0000 -16.0955 0.0000
# 4 0.0000 0.0000 0.0000 36.8509 0.0000 -8.6275
# 5 -29.0970 -6.2956 -16.0955 0.0000 28.5707 0.0000
# 6 0.0000 0.0000 0.0000 -8.6275 0.0000 24.2137
#
#
#
# Elastic Compliance Matrix: (Units=1/GPa)
#
#
# Indices 1 2 3 4 5 6 
#
# 1 0.010482 -0.001353 0.000047 0.000000 0.010403 0.000000
# 2 -0.001353 0.017846 -0.002911 0.000000 0.000914 0.000000
# 3 0.000047 -0.002911 0.009523 0.000000 0.004772 0.000000
# 4 0.000000 0.000000 0.000000 0.029606 0.000000 0.010549
# 5 0.010403 0.000914 0.004772 0.000000 0.048485 0.000000
# 6 0.000000 0.000000 0.000000 0.010549 0.000000 0.045058
#
#
# Mechanical properties :
#
#
# Convention : Reuss Voigt Hill
#
# Bulk Modulus (GPa) = 33.99360 46.06141 40.02750
# Shear Modulus (GPa) = 27.89559 34.76767 31.33163
#
# Velocity S-wave (km/s) = 3.59673 4.01539 3.81181
# Velocity P-wave (km/s) = 5.74569 6.54665 6.15920
#
# Compressibility (1/GPa) = 0.02941730
#
# Stress axis : x y z
#
# Youngs Moduli (GPa) = 95.40464 56.03475 105.00366
#
# Poissons Ratio (x) = 0.07583 -0.00494
# Poissons Ratio (y) = 0.12911 0.30563
# Poissons Ratio (z) = -0.00449 0.16310
#
# Static dielectric constant tensor:
#      x y z
#    x 1.796270 0.000000 0.038850 
#    y 0.000000 1.879560 0.000000 
#    z 0.038850 0.000000 1.866950 
# 
# From -- ./inp_files/9477.got.cif
#   From: 2010.05.17/outbox.cif.g08.bks.cpg/sg5_5_cif.got.tgz:9477.got - 2010.06.03 18:56:24.
