data_PCOD9126597
_publ_section_title
;
Structure prediction by ZEFSAII (Michael W. Deem and Ramdas Pophale) SiO2 
 PCOD9126597
Probable space group: C 2
;
_chemical_formula_sum "Si O2"
_cell_formula_units_Z 28
_cell_length_a 6.813305
_cell_length_b 13.020086
_cell_length_c 19.327580
_cell_angle_alpha 90.000000
_cell_angle_beta 57.203358
_cell_angle_gamma 90.000000
_cell_volume 1441.244612
_symmetry_space_group_name_H-M "C 2"
_symmetry_group_IT_number 5
_symmetry_cell_setting 'monoclinic'
loop_
_space_group_symop_operation_xyz
x,y,z
-x,y,-z
1/2+x,1/2+y,z
1/2-x,1/2+y,-z
loop_
_atom_site_type_symbol
_atom_site_label
_atom_site_fract_x
_atom_site_fract_y
_atom_site_fract_z
Si Si1 0.374626 0.542990 0.290757
Si Si2 0.771096 0.896708 0.429475
Si Si3 0.932607 0.678530 0.364994
Si Si4 0.488748 0.288397 0.922807
Si Si5 0.500000 0.542600 0.500000
Si Si6 0.143999 0.021631 0.869931
Si Si7 0.000000 0.191245 0.000000
Si Si8 0.624232 0.133473 0.782560
O O1 0.295848 0.443890 0.348343
O O2 0.383712 0.525958 0.207084
O O3 0.627796 0.578074 0.267568
O O4 0.174118 0.627140 0.341969
O O5 0.500000 0.884573 0.500000
O O6 0.899129 0.788508 0.405054
O O7 0.892748 0.973185 0.459894
O O8 0.712024 0.610176 0.429971
O O9 0.930410 0.682981 0.281711
O O10 0.568698 0.407003 0.905728
O O11 0.632157 0.218206 0.841734
O O12 0.500000 0.252869 0.000000
O O13 0.223072 0.264510 0.951545
O O14 0.412306 0.052923 0.836660
O O15 0.996919 0.111517 0.936015
#
# Coordination Sequence:
#
# PCOD9126597 Si02
#       8
#     4   4   4   4   2   4   2   4
#     4  11  23  42  65  94 129 169 213 262 326 378
#     4  12  25  40  66  94 124 171 215 260 327 380
#     4  11  24  43  65  93 130 164 213 270 313 382
#     4  11  22  40  66  96 129 171 215 259 321 375
#     4  12  24  42  64  94 128 162 214 268 314 384
#     4  10  22  41  64  94 132 166 211 267 311 381
#     4  10  22  42  62  96 130 162 216 266 306 380
#     4  10  23  41  65  93 133 165 215 267 312 381
#
# _framework density 19.427651999999998
#
# number of rings (size 3 to 8) (size 9 to 14) (size 15 to 20)
#    0.000    1.143    4.286    1.714    0.000    4.571 
#    1.286    0.000    0.000    0.000    0.000    0.000 
#    0.000    0.000    0.000    0.000    0.000    0.000 
#
# Total GULP energy -78203.983320 kJ/mol
# GULP energy per Si atom -5585.998809 kJ/mol
# Density = 1.938343 g / cm^3
# Si number density = 19.427652 Si / 1000 Ang^3
#
#
#
# Elastic Constant Matrix: (Units=GPa)
#
#
# Indices 1 2 3 4 5 6 
#
# 1 35.3708 21.7490 7.9626 0.0000 -8.0774 -0.0001
# 2 21.7490 111.5702 43.7262 0.0000 -5.8166 0.0000
# 3 7.9626 43.7262 88.1912 0.0000 -5.2367 0.0000
# 4 0.0000 0.0000 0.0000 49.7588 0.0000 -10.8943
# 5 -8.0774 -5.8166 -5.2367 0.0000 39.3929 0.0000
# 6 -0.0001 0.0000 0.0000 -10.8943 0.0000 17.4996
#
#
#
# Elastic Compliance Matrix: (Units=1/GPa)
#
#
# Indices 1 2 3 4 5 6 
#
# 1 0.033466 -0.006413 0.000513 0.000000 0.005983 0.000000
# 2 -0.006413 0.012387 -0.005576 0.000000 -0.000227 0.000000
# 3 0.000513 -0.005576 0.014126 0.000000 0.001160 0.000000
# 4 0.000000 0.000000 0.000000 0.023268 0.000000 0.014486
# 5 0.005983 -0.000227 0.001160 0.000000 0.026733 0.000000
# 6 0.000000 0.000000 0.000000 0.014486 0.000000 0.066162
#
#
# Mechanical properties :
#
#
# Convention : Reuss Voigt Hill
#
# Bulk Modulus (GPa) = 27.00688 42.44533 34.72611
# Shear Modulus (GPa) = 23.64786 32.10990 27.87888
#
# Velocity S-wave (km/s) = 3.49266 4.06987 3.79226
# Velocity P-wave (km/s) = 5.49512 6.63177 6.09002
#
# Compressibility (1/GPa) = 0.03702760
#
# Stress axis : x y z
#
# Youngs Moduli (GPa) = 29.88110 80.73305 70.79099
#
# Poissons Ratio (x) = 0.51774 -0.03634
# Poissons Ratio (y) = 0.19163 0.39472
# Poissons Ratio (z) = -0.01534 0.45016
#
# Static dielectric constant tensor:
#      x y z
#    x 1.653760 0.000000 0.014820 
#    y 0.000000 1.646000 0.000000 
#    z 0.014820 0.000000 1.679110 
# 
# From -- ./inp_files/58745.got.cif
#   From: 2010.05.17/outbox.cif.g08.bks.cpg/sg5_30_cif.got.tgz:58745.got - 2010.06.03 18:56:24.
