data_PCOD9126226
_publ_section_title
;
Structure prediction by ZEFSAII (Michael W. Deem and Ramdas Pophale) SiO2 
 PCOD9126226
Probable space group: C 2
;
_chemical_formula_sum "Si O2"
_cell_formula_units_Z 24
_cell_length_a 14.628953
_cell_length_b 16.371012
_cell_length_c 8.679440
_cell_angle_alpha 90.000000
_cell_angle_beta 37.824109
_cell_angle_gamma 90.000000
_cell_volume 1274.707628
_symmetry_space_group_name_H-M "C 2"
_symmetry_group_IT_number 5
_symmetry_cell_setting 'monoclinic'
loop_
_space_group_symop_operation_xyz
x,y,z
-x,y,-z
1/2+x,1/2+y,z
1/2-x,1/2+y,-z
loop_
_atom_site_type_symbol
_atom_site_label
_atom_site_fract_x
_atom_site_fract_y
_atom_site_fract_z
Si Si1 0.821530 0.909800 0.396337
Si Si2 0.948577 0.640698 0.812596
Si Si3 0.000000 0.765096 0.000000
Si Si4 0.500000 0.544904 0.000000
Si Si5 0.253865 0.167393 0.778274
Si Si6 0.507955 0.962887 0.671999
Si Si7 0.149394 0.352148 0.903983
O O1 0.890394 0.826161 0.237148
O O2 0.672398 0.932542 0.499208
O O3 0.776105 0.895594 0.633465
O O4 0.935558 0.983645 0.215285
O O5 0.820308 0.646451 0.856210
O O6 0.105407 0.665933 0.524672
O O7 0.971334 0.545042 0.816474
O O8 0.920173 0.703213 0.988199
O O9 0.631912 0.602190 0.886250
O O10 0.187285 0.257712 0.871227
O O11 0.500000 0.980290 0.500000
O O12 0.388825 0.895716 0.885001
O O13 0.000000 0.359210 0.000000
#
# Coordination Sequence:
#
# PCOD9126226 Si02
#       7
#     4   4   2   2   4   4   4
#     4  10  22  39  59  94 120 168 206 251 318 358
#     4  11  23  40  63  90 127 167 210 249 313 371
#     4  11  24  38  65  90 126 162 211 262 300 379
#     4  11  20  38  71  86 130 158 209 258 308 371
#     4  11  21  41  61  91 122 169 203 257 310 363
#     4  11  22  40  63  90 125 167 210 255 308 374
#     4  10  22  39  63  88 126 163 206 253 311 368
#
# _framework density 18.827846999999998
#
# number of rings (size 3 to 8) (size 9 to 14) (size 15 to 20)
#    0.000    1.333    5.833    0.000    5.833    0.000 
#    0.000    0.000    0.000    2.000    0.000    0.000 
#    0.000    0.000    0.000    0.000    0.000    0.000 
#
# Total GULP energy -66990.505318 kJ/mol
# GULP energy per Si atom -5582.542110 kJ/mol
# Density = 1.878499 g / cm^3
# Si number density = 18.827847 Si / 1000 Ang^3
#
#
#
# Elastic Constant Matrix: (Units=GPa)
#
#
# Indices 1 2 3 4 5 6 
#
# 1 56.6417 21.2367 13.6341 0.0000 -0.3848 0.0000
# 2 21.2367 137.3650 36.1218 0.0000 -0.4883 0.0000
# 3 13.6341 36.1218 64.0751 0.0000 -3.8113 0.0000
# 4 0.0000 0.0000 0.0000 23.5941 0.0000 2.2520
# 5 -0.3848 -0.4883 -3.8113 0.0000 14.8992 0.0000
# 6 0.0000 0.0000 0.0000 2.2520 0.0000 22.5536
#
#
#
# Elastic Compliance Matrix: (Units=1/GPa)
#
#
# Indices 1 2 3 4 5 6 
#
# 1 0.019169 -0.002216 -0.002848 0.000000 -0.000306 0.000000
# 2 -0.002216 0.008817 -0.004554 0.000000 -0.000933 0.000000
# 3 -0.002848 -0.004554 0.019057 0.000000 0.004652 0.000000
# 4 0.000000 0.000000 0.000000 0.042791 0.000000 -0.004273
# 5 -0.000306 -0.000933 0.004652 0.000000 0.068269 0.000000
# 6 0.000000 0.000000 0.000000 -0.004273 0.000000 0.044765
#
#
# Mechanical properties :
#
#
# Convention : Reuss Voigt Hill
#
# Bulk Modulus (GPa) = 35.96281 44.45189 40.20735
# Shear Modulus (GPa) = 21.61005 24.68199 23.14602
#
# Velocity S-wave (km/s) = 3.39155 3.62460 3.51001
# Velocity P-wave (km/s) = 5.87190 6.41700 6.15049
#
# Compressibility (1/GPa) = 0.02780650
#
# Stress axis : x y z
#
# Youngs Moduli (GPa) = 52.16750 113.42053 52.47443
#
# Poissons Ratio (x) = 0.25131 0.14944
# Poissons Ratio (y) = 0.11559 0.23899
# Poissons Ratio (z) = 0.14857 0.51656
#
# Static dielectric constant tensor:
#      x y z
#    x 1.631910 0.000000 0.006450 
#    y 0.000000 1.649950 0.000000 
#    z 0.006450 0.000000 1.666710 
# 
# From -- ./inp_files/21067.got.cif
#   From: 2010.05.17/outbox.cif.g08.bks.cpg/sg5_11_cif.got.tgz:21067.got - 2010.06.03 18:56:24.
