data_PCOD9126155
_publ_section_title
;
Structure prediction by ZEFSAII (Michael W. Deem and Ramdas Pophale) SiO2 
 PCOD9126155
Probable space group: C 2
;
_chemical_formula_sum "Si O2"
_cell_formula_units_Z 26
_cell_length_a 19.341655
_cell_length_b 8.903740
_cell_length_c 7.993292
_cell_angle_alpha 90.000000
_cell_angle_beta 72.019135
_cell_angle_gamma 90.000000
_cell_volume 1309.318203
_symmetry_space_group_name_H-M "C 2"
_symmetry_group_IT_number 5
_symmetry_cell_setting 'monoclinic'
loop_
_space_group_symop_operation_xyz
x,y,z
-x,y,-z
1/2+x,1/2+y,z
1/2-x,1/2+y,-z
loop_
_atom_site_type_symbol
_atom_site_label
_atom_site_fract_x
_atom_site_fract_y
_atom_site_fract_z
Si Si1 0.500000 0.864270 0.500000
Si Si2 0.917802 0.977291 0.890686
Si Si3 0.224153 0.649259 0.563830
Si Si4 0.877353 0.111874 0.587132
Si Si5 0.500000 0.735835 0.000000
Si Si6 0.333016 0.475662 0.299139
Si Si7 0.000000 0.730907 0.000000
Si Si8 0.918466 0.484468 0.250059
O O1 0.430358 0.753548 0.574005
O O2 0.474166 0.966179 0.363745
O O3 0.887878 0.994362 0.728144
O O4 0.962808 0.127979 0.894526
O O5 0.862506 0.964492 0.089693
O O6 0.970047 0.836520 0.877147
O O7 0.291606 0.650047 0.643730
O O8 0.266533 0.594739 0.365097
O O9 0.163581 0.520421 0.636867
O O10 0.190067 0.814285 0.606680
O O11 0.890250 0.042092 0.392479
O O12 0.437128 0.838208 0.127101
O O13 0.939195 0.624497 0.119603
#
# Coordination Sequence:
#
# PCOD9126155 Si02
#       8
#     2   4   4   4   2   4   2   4
#     4  12  22  42  70 106 132 182 244 284 334 430
#     4  11  21  44  66  94 132 176 232 282 342 412
#     4  10  23  45  62  98 138 183 220 287 357 402
#     4  10  25  40  68 104 126 182 239 272 348 421
#     4  10  22  38  66  94 124 180 224 290 336 404
#     4  10  23  43  65  93 139 178 221 294 348 404
#     4  10  24  40  64 102 132 176 224 288 360 390
#     4  11  22  42  66  97 141 170 227 290 344 405
#
# _framework density 19.857662000000001
#
# number of rings (size 3 to 8) (size 9 to 14) (size 15 to 20)
#    0.923    0.615    3.077    1.846    4.308    1.231 
#    5.538    1.538    0.000    0.000    0.000    0.000 
#    0.000    0.000    0.000    0.000    0.000    0.000 
#
# Total GULP energy -72413.487592 kJ/mol
# GULP energy per Si atom -5570.268276 kJ/mol
# Density = 1.981247 g / cm^3
# Si number density = 19.857662 Si / 1000 Ang^3
#
#
#
# Elastic Constant Matrix: (Units=GPa)
#
#
# Indices 1 2 3 4 5 6 
#
# 1 88.9394 22.3909 8.4214 0.0000 -1.6737 0.0000
# 2 22.3909 90.6375 5.2985 0.0000 -4.2716 0.0000
# 3 8.4214 5.2985 52.3971 0.0000 -5.1037 0.0000
# 4 0.0000 0.0000 0.0000 3.6563 0.0000 -6.8558
# 5 -1.6737 -4.2716 -5.1037 0.0000 35.3396 0.0000
# 6 0.0000 0.0000 0.0000 -6.8558 0.0000 13.6784
#
#
#
# Elastic Compliance Matrix: (Units=1/GPa)
#
#
# Indices 1 2 3 4 5 6 
#
# 1 0.012131 -0.002901 -0.001658 0.000000 -0.000016 0.000000
# 2 -0.002901 0.011842 -0.000614 0.000000 0.001205 0.000000
# 3 -0.001658 -0.000614 0.019675 0.000000 0.002689 0.000000
# 4 0.000000 0.000000 0.000000 4.542482 0.000000 2.276742
# 5 -0.000016 0.001205 0.002689 0.000000 0.028830 0.000000
# 6 0.000000 0.000000 0.000000 2.276742 0.000000 1.214236
#
#
# Mechanical properties :
#
#
# Convention : Reuss Voigt Hill
#
# Bulk Modulus (GPa) = 30.02680 33.79951 31.91316
# Shear Modulus (GPa) = 0.85461 23.59241 12.22351
#
# Velocity S-wave (km/s) = 0.65673 3.45059 2.48373
# Velocity P-wave (km/s) = 3.96597 5.73875 4.93265
#
# Compressibility (1/GPa) = 0.03330358
#
# Stress axis : x y z
#
# Youngs Moduli (GPa) = 82.43672 84.44381 50.82477
#
# Poissons Ratio (x) = 0.24493 0.08426
# Poissons Ratio (y) = 0.23911 0.03120
# Poissons Ratio (z) = 0.13667 0.05184
#
# Static dielectric constant tensor:
#      x y z
#    x 1.750460 0.000000 -0.047770 
#    y 0.000000 1.712580 0.000000 
#    z -0.047770 0.000000 1.745850 
# 
# From -- ./inp_files/26733.got.cif
#   From: 2010.05.17/outbox.cif.g08.bks.cpg/sg5_14_cif.got.tgz:26733.got - 2010.06.03 18:56:24.
