data_PCOD9126811
_publ_section_title
;
Structure prediction by ZEFSAII (Michael W. Deem and Ramdas Pophale) SiO2 
 PCOD9126811
Probable space group: C 2
;
_chemical_formula_sum "Si O2"
_cell_formula_units_Z 26
_cell_length_a 12.569085
_cell_length_b 11.744503
_cell_length_c 10.708825
_cell_angle_alpha 90.000000
_cell_angle_beta 121.475798
_cell_angle_gamma 90.000000
_cell_volume 1348.212279
_symmetry_space_group_name_H-M "C 2"
_symmetry_group_IT_number 5
_symmetry_cell_setting 'monoclinic'
loop_
_space_group_symop_operation_xyz
x,y,z
-x,y,-z
1/2+x,1/2+y,z
1/2-x,1/2+y,-z
loop_
_atom_site_type_symbol
_atom_site_label
_atom_site_fract_x
_atom_site_fract_y
_atom_site_fract_z
Si Si1 0.879943 0.116550 0.731906
Si Si2 0.838431 0.424289 0.086345
Si Si3 0.492872 0.811358 0.630556
Si Si4 0.890761 0.558599 0.534527
Si Si5 0.500000 0.764553 0.000000
Si Si6 0.453467 0.406618 0.114010
Si Si7 0.992768 0.645582 0.149306
O O1 0.739596 0.089403 0.608508
O O2 0.935923 0.216735 0.682492
O O3 0.964605 0.003885 0.770710
O O4 0.900608 0.176596 0.878734
O O5 0.875594 0.360875 0.238024
O O6 0.921198 0.350057 0.039912
O O7 0.887369 0.553114 0.117896
O O8 0.693625 0.427645 0.970148
O O9 0.500000 0.758678 0.500000
O O10 0.407201 0.923387 0.566478
O O11 0.903063 0.609847 0.682947
O O12 0.000000 0.590170 0.500000
O O13 0.470432 0.276909 0.166662
O O14 0.500000 0.410416 0.000000
O O15 0.000000 0.637566 0.000000
#
# Coordination Sequence:
#
# PCOD9126811 Si02
#       7
#     4   4   4   4   2   4   4
#     4  11  24  41  64  96 128 166 218 265 322 379
#     4  10  22  42  66  95 125 169 219 260 330 382
#     4   9  22  41  64  88 123 174 205 266 323 388
#     4  10  24  42  68  91 130 172 214 265 326 386
#     4  10  22  42  68  94 130 172 212 262 318 394
#     4  11  26  38  65  97 129 167 218 273 318 389
#     4  10  23  44  65  97 127 171 215 269 322 391
#
# _framework density 19.284797999999999
#
# number of rings (size 3 to 8) (size 9 to 14) (size 15 to 20)
#    0.000    1.846    1.538    0.000   15.077    1.231 
#    0.000    0.769    0.000    0.000    0.000    0.000 
#    0.000    0.000    0.000    0.000    0.000    0.000 
#
# Total GULP energy -72402.121942 kJ/mol
# GULP energy per Si atom -5569.393996 kJ/mol
# Density = 1.924090 g / cm^3
# Si number density = 19.284798 Si / 1000 Ang^3
#
#
#
# Elastic Constant Matrix: (Units=GPa)
#
#
# Indices 1 2 3 4 5 6 
#
# 1 56.7701 29.5457 48.9637 0.0000 22.7793 0.0000
# 2 29.5457 108.9978 45.1177 0.0000 22.2197 0.0000
# 3 48.9637 45.1177 126.7240 0.0000 22.9504 0.0000
# 4 0.0000 0.0000 0.0000 37.6090 0.0000 -4.6744
# 5 22.7793 22.2197 22.9504 0.0000 37.0466 0.0000
# 6 0.0000 0.0000 0.0000 -4.6744 0.0000 6.4046
#
#
#
# Elastic Compliance Matrix: (Units=1/GPa)
#
#
# Indices 1 2 3 4 5 6 
#
# 1 0.031717 -0.002251 -0.009198 0.000000 -0.012454 0.000000
# 2 -0.002251 0.011663 -0.002553 0.000000 -0.004029 0.000000
# 3 -0.009198 -0.002553 0.012449 0.000000 -0.000526 0.000000
# 4 0.000000 0.000000 0.000000 0.029242 0.000000 0.021342
# 5 -0.012454 -0.004029 -0.000526 0.000000 0.037393 0.000000
# 6 0.000000 0.000000 0.000000 0.021342 0.000000 0.171715
#
#
# Mechanical properties :
#
#
# Convention : Reuss Voigt Hill
#
# Bulk Modulus (GPa) = 35.93898 59.97178 47.95538
# Shear Modulus (GPa) = 15.08492 27.46968 21.27730
#
# Velocity S-wave (km/s) = 2.79985 3.77825 3.32523
# Velocity P-wave (km/s) = 5.39709 7.08512 6.29792
#
# Compressibility (1/GPa) = 0.02782494
#
# Stress axis : x y z
#
# Youngs Moduli (GPa) = 31.52913 85.74258 80.32755
#
# Poissons Ratio (x) = 0.19304 0.73883
# Poissons Ratio (y) = 0.07098 0.20505
# Poissons Ratio (z) = 0.29000 0.21888
#
# Static dielectric constant tensor:
#      x y z
#    x 1.672650 0.000000 -0.058980 
#    y 0.000000 1.652370 0.000000 
#    z -0.058980 0.000000 1.743650 
# 
# From -- ./inp_files/39113.got.cif
#   From: 2010.05.17/outbox.cif.g08.bks.cpg/sg5_20_cif.got.tgz:39113.got - 2010.06.03 18:56:24.
