data_PCOD9126653
_publ_section_title
;
Structure prediction by ZEFSAII (Michael W. Deem and Ramdas Pophale) SiO2 
 PCOD9126653
Probable space group: C 2
;
_chemical_formula_sum "Si O2"
_cell_formula_units_Z 26
_cell_length_a 15.483846
_cell_length_b 6.486796
_cell_length_c 22.151854
_cell_angle_alpha 90.000000
_cell_angle_beta 31.733173
_cell_angle_gamma 90.000000
_cell_volume 1170.241024
_symmetry_space_group_name_H-M "C 2"
_symmetry_group_IT_number 5
_symmetry_cell_setting 'monoclinic'
loop_
_space_group_symop_operation_xyz
x,y,z
-x,y,-z
1/2+x,1/2+y,z
1/2-x,1/2+y,-z
loop_
_atom_site_type_symbol
_atom_site_label
_atom_site_fract_x
_atom_site_fract_y
_atom_site_fract_z
Si Si1 0.852163 0.094060 0.242958
Si Si2 0.500000 0.748972 0.500000
Si Si3 0.332616 0.106556 0.529322
Si Si4 0.560640 0.980464 0.081534
Si Si5 0.264399 0.710250 0.740930
Si Si6 0.978575 0.924171 0.353210
Si Si7 0.389440 0.293402 0.845080
O O1 0.735908 0.177421 0.364987
O O2 0.961627 0.272219 0.151797
O O3 0.755049 0.957200 0.251913
O O4 0.972600 0.933272 0.204692
O O5 0.345683 0.649135 0.626751
O O6 0.425040 0.895942 0.492535
O O7 0.434530 0.285909 0.437043
O O8 0.183690 0.039559 0.574372
O O9 0.419775 0.128052 0.138975
O O10 0.620956 0.087700 0.108219
O O11 0.719945 0.919991 0.948880
O O12 0.386108 0.598468 0.714173
O O13 0.047414 0.773258 0.260307
#
# Coordination Sequence:
#
# PCOD9126653 Si02
#       7
#     4   2   4   4   4   4   4
#     4   9  21  41  64  97 122 178 221 271 319 414
#     4  10  22  44  64  98 132 176 230 260 322 434
#     4  10  23  39  66  94 136 168 219 270 343 390
#     4  11  21  41  71  92 127 180 228 273 325 403
#     4  10  24  38  65  93 137 170 221 270 337 397
#     4  11  24  41  63 103 139 169 215 290 339 395
#     4  10  22  41  67  98 127 170 230 272 331 394
#
# _framework density 22.217645000000001
#
# number of rings (size 3 to 8) (size 9 to 14) (size 15 to 20)
#    0.000    1.846    1.538    1.846    8.615    0.615 
#    0.000    0.000    3.385    0.000    0.000    0.000 
#    0.000    0.000    0.000    0.000    0.000    0.000 
#
# Total GULP energy -72582.818865 kJ/mol
# GULP energy per Si atom -5583.293759 kJ/mol
# Density = 2.216708 g / cm^3
# Si number density = 22.217645 Si / 1000 Ang^3
#
#
#
# Elastic Constant Matrix: (Units=GPa)
#
#
# Indices 1 2 3 4 5 6 
#
# 1 83.3682 30.8623 11.1008 0.0000 -21.9148 0.0000
# 2 30.8623 67.6049 18.5217 0.0001 1.6173 -0.0001
# 3 11.1008 18.5217 91.9327 0.0001 -15.5433 0.0000
# 4 0.0000 0.0001 0.0001 40.1671 0.0000 -4.4722
# 5 -21.9148 1.6173 -15.5433 0.0000 26.7964 0.0000
# 6 0.0000 -0.0001 0.0000 -4.4722 0.0000 37.8478
#
#
#
# Elastic Compliance Matrix: (Units=1/GPa)
#
#
# Indices 1 2 3 4 5 6 
#
# 1 0.020590 -0.010652 0.002900 0.000000 0.019164 0.000000
# 2 -0.010652 0.021399 -0.005229 0.000000 -0.013037 0.000000
# 3 0.002900 -0.005229 0.013344 0.000000 0.010427 0.000000
# 4 0.000000 0.000000 0.000000 0.025228 0.000000 0.002981
# 5 0.019164 -0.013037 0.010427 0.000000 0.059827 0.000000
# 6 0.000000 0.000000 0.000000 0.002981 0.000000 0.026774
#
#
# Mechanical properties :
#
#
# Convention : Reuss Voigt Hill
#
# Bulk Modulus (GPa) = 34.04851 40.43061 37.23956
# Shear Modulus (GPa) = 24.64090 33.12365 28.88228
#
# Velocity S-wave (km/s) = 3.33388 3.86537 3.60942
# Velocity P-wave (km/s) = 5.49345 6.17725 5.84536
#
# Compressibility (1/GPa) = 0.02936986
#
# Stress axis : x y z
#
# Youngs Moduli (GPa) = 48.56746 46.73049 74.94088
#
# Poissons Ratio (x) = 0.49780 -0.21733
# Poissons Ratio (y) = 0.51736 0.39188
# Poissons Ratio (z) = -0.14085 0.24436
#
# Static dielectric constant tensor:
#      x y z
#    x 1.841160 0.000000 -0.035320 
#    y 0.000000 1.833310 0.000000 
#    z -0.035320 0.000000 1.852490 
# 
# From -- ./inp_files/66475.got.cif
#   From: 2010.05.17/outbox.cif.g08.bks.cpg/sg5_34_cif.got.tgz:66475.got - 2010.06.03 18:56:24.
