data_PCOD9126206
_publ_section_title
;
Structure prediction by ZEFSAII (Michael W. Deem and Ramdas Pophale) SiO2 
 PCOD9126206
Probable space group: C 2
;
_chemical_formula_sum "Si O2"
_cell_formula_units_Z 20
_cell_length_a 8.337671
_cell_length_b 24.865416
_cell_length_c 9.112161
_cell_angle_alpha 90.000000
_cell_angle_beta 31.712942
_cell_angle_gamma 90.000000
_cell_volume 993.047344
_symmetry_space_group_name_H-M "C 2"
_symmetry_group_IT_number 5
_symmetry_cell_setting 'monoclinic'
loop_
_space_group_symop_operation_xyz
x,y,z
-x,y,-z
1/2+x,1/2+y,z
1/2-x,1/2+y,-z
loop_
_atom_site_type_symbol
_atom_site_label
_atom_site_fract_x
_atom_site_fract_y
_atom_site_fract_z
Si Si1 0.697244 0.266410 0.137458
Si Si2 0.000000 0.531063 0.000000
Si Si3 0.201681 0.437779 0.633826
Si Si4 0.409539 0.713992 0.411350
Si Si5 0.000000 0.108830 0.500000
Si Si6 0.069774 0.881749 0.116601
O O1 0.398177 0.235070 0.421988
O O2 0.554545 0.323989 0.204917
O O3 0.000000 0.273561 0.000000
O O4 0.815641 0.230883 0.907700
O O5 0.943479 0.492571 0.185756
O O6 0.714903 0.570751 0.236133
O O7 0.500000 0.426577 0.500000
O O8 0.345419 0.426735 0.361829
O O9 0.920608 0.397976 0.866777
O O10 0.500000 0.739131 0.500000
O O11 0.361059 0.651482 0.492035
O O12 0.000000 0.876939 0.000000
#
# Coordination Sequence:
#
# PCOD9126206 Si02
#       6
#     4   2   4   4   2   4
#     4  12  23  40  63  95 136 176 212 259 323 392
#     4  12  20  42  70 102 120 170 228 290 316 378
#     4  12  22  42  64  99 126 168 227 271 322 386
#     4  10  22  40  63  96 127 164 221 264 320 385
#     4  10  22  38  72  98 124 166 228 282 324 376
#     4  12  25  40  63  95 141 179 214 260 329 397
#
# _framework density 20.140025999999999
#
# number of rings (size 3 to 8) (size 9 to 14) (size 15 to 20)
#    0.600    0.000    3.000    6.600    0.000    0.000 
#    0.000    0.000    0.000   18.000    0.000    0.000 
#    0.000    0.000    0.000    0.000    0.000    0.000 
#
# Total GULP energy -55670.118890 kJ/mol
# GULP energy per Si atom -5567.011889 kJ/mol
# Density = 2.009419 g / cm^3
# Si number density = 20.140026 Si / 1000 Ang^3
#
#
#
# Elastic Constant Matrix: (Units=GPa)
#
#
# Indices 1 2 3 4 5 6 
#
# 1 74.2690 52.7862 19.2790 0.0000 2.0387 0.0000
# 2 52.7862 102.8339 32.2810 0.0000 -12.2619 0.0000
# 3 19.2790 32.2810 117.7977 0.0000 -13.9555 0.0000
# 4 0.0000 0.0000 0.0000 29.2565 0.0000 -10.5739
# 5 2.0387 -12.2619 -13.9555 0.0000 30.3980 0.0000
# 6 0.0000 0.0000 0.0000 -10.5739 0.0000 2.9964
#
#
#
# Elastic Compliance Matrix: (Units=1/GPa)
#
#
# Indices 1 2 3 4 5 6 
#
# 1 0.022487 -0.011985 -0.001213 0.000000 -0.006900 0.000000
# 2 -0.011985 0.017315 -0.001968 0.000000 0.006885 0.000000
# 3 -0.001213 -0.001968 0.009668 0.000000 0.003726 0.000000
# 4 0.000000 0.000000 0.000000 -0.124104 0.000000 -0.437952
# 5 -0.006900 0.006885 0.003726 0.000000 0.037848 0.000000
# 6 0.000000 0.000000 0.000000 -0.437952 0.000000 -1.211749
#
#
# Mechanical properties :
#
#
# Convention : Reuss Voigt Hill
#
# Bulk Modulus (GPa) = 52.25069 55.95477 54.10273
# Shear Modulus (GPa) = -4.12601 25.23380 10.55389
#
# Velocity S-wave (km/s) = -1.43287 3.54350 2.29164
# Velocity P-wave (km/s) = 4.82313 6.67720 5.82441
#
# Compressibility (1/GPa) = 0.01913850
#
# Stress axis : x y z
#
# Youngs Moduli (GPa) = 44.47004 57.75312 103.42931
#
# Poissons Ratio (x) = 0.69216 0.12550
# Poissons Ratio (y) = 0.53296 0.20354
# Poissons Ratio (z) = 0.05396 0.11365
#
# Static dielectric constant tensor:
#      x y z
#    x 1.736210 0.000000 0.069260 
#    y 0.000000 1.720020 0.000000 
#    z 0.069260 0.000000 1.843530 
# 
# From -- ./inp_files/17370.got.cif
#   From: 2010.05.17/outbox.cif.g08.bks.cpg/sg5_9_cif.got.tgz:17370.got - 2010.06.03 18:56:24.
