data_PCOD9126523
_publ_section_title
;
Structure prediction by ZEFSAII (Michael W. Deem and Ramdas Pophale) SiO2 
 PCOD9126523
Probable space group: C 2
;
_chemical_formula_sum "Si O2"
_cell_formula_units_Z 26
_cell_length_a 6.365750
_cell_length_b 15.936873
_cell_length_c 14.413579
_cell_angle_alpha 90.000000
_cell_angle_beta 120.831162
_cell_angle_gamma 90.000000
_cell_volume 1255.615067
_symmetry_space_group_name_H-M "C 2"
_symmetry_group_IT_number 5
_symmetry_cell_setting 'monoclinic'
loop_
_space_group_symop_operation_xyz
x,y,z
-x,y,-z
1/2+x,1/2+y,z
1/2-x,1/2+y,-z
loop_
_atom_site_type_symbol
_atom_site_label
_atom_site_fract_x
_atom_site_fract_y
_atom_site_fract_z
Si Si1 0.767101 0.722360 0.603670
Si Si2 0.494440 0.462295 0.794581
Si Si3 0.744485 0.342485 0.100166
Si Si4 0.131414 0.593382 0.624153
Si Si5 0.920058 0.880139 0.387258
Si Si6 0.500000 0.954528 0.000000
Si Si7 0.516564 0.752179 0.294267
O O1 0.500000 0.715690 0.500000
O O2 0.724505 0.745036 0.699700
O O3 0.911636 0.636522 0.629415
O O4 0.907359 0.798069 0.585639
O O5 0.361647 0.399256 0.837890
O O6 0.289245 0.529454 0.718982
O O7 0.566982 0.424548 0.709314
O O8 0.749204 0.494674 0.899706
O O9 0.926388 0.267911 0.170533
O O10 0.500000 0.306624 0.000000
O O11 0.888892 0.399714 0.059321
O O12 0.313293 0.672540 0.646465
O O13 0.000000 0.561270 0.500000
O O14 0.657479 0.838822 0.346944
O O15 0.000000 0.927026 0.500000
#
# Coordination Sequence:
#
# PCOD9126523 Si02
#       7
#     4   4   4   4   4   2   4
#     4  11  19  38  64  88 133 173 211 265 320 392
#     4  11  24  42  64  95 135 173 222 274 326 393
#     4  10  22  40  71  95 118 167 229 281 327 385
#     4  11  25  40  59  98 137 174 217 261 332 403
#     4  11  21  35  65 101 125 167 224 269 325 403
#     4  10  22  46  70  92 128 170 228 284 330 378
#     4  11  20  40  64  92 126 171 211 268 333 386
#
# _framework density 20.706983999999999
#
# number of rings (size 3 to 8) (size 9 to 14) (size 15 to 20)
#    0.000    1.231    6.154    0.923    0.000    3.077 
#    4.154    0.000    5.077    0.000    0.000    0.000 
#    0.000    0.000    0.000    0.000    0.000    0.000 
#
# Total GULP energy -72413.646841 kJ/mol
# GULP energy per Si atom -5570.280526 kJ/mol
# Density = 2.065985 g / cm^3
# Si number density = 20.706984 Si / 1000 Ang^3
#
#
#
# Elastic Constant Matrix: (Units=GPa)
#
#
# Indices 1 2 3 4 5 6 
#
# 1 69.4213 4.2537 21.3820 0.0000 -1.3809 0.0000
# 2 4.2537 27.1412 32.8560 0.0000 7.5317 0.0000
# 3 21.3820 32.8560 137.8702 0.0000 18.3582 0.0000
# 4 0.0000 0.0000 0.0000 30.8401 0.0000 7.5976
# 5 -1.3809 7.5317 18.3582 0.0000 50.3129 0.0000
# 6 0.0000 0.0000 0.0000 7.5976 0.0000 13.0494
#
#
#
# Elastic Compliance Matrix: (Units=1/GPa)
#
#
# Indices 1 2 3 4 5 6 
#
# 1 0.015217 0.000449 -0.002642 0.000000 0.001314 0.000000
# 2 0.000449 0.052361 -0.012093 0.000000 -0.003413 0.000000
# 3 -0.002642 -0.012093 0.010840 0.000000 -0.002218 0.000000
# 4 0.000000 0.000000 0.000000 0.037855 0.000000 -0.022040
# 5 0.001314 -0.003413 -0.002218 0.000000 0.021232 0.000000
# 6 0.000000 0.000000 0.000000 -0.022040 0.000000 0.089464
#
#
# Mechanical properties :
#
#
# Convention : Reuss Voigt Hill
#
# Bulk Modulus (GPa) = 20.06221 39.04622 29.55422
# Shear Modulus (GPa) = 18.37174 30.56987 24.47081
#
# Velocity S-wave (km/s) = 2.98186 3.84644 3.44141
# Velocity P-wave (km/s) = 4.64381 6.21485 5.48586
#
# Compressibility (1/GPa) = 0.04984495
#
# Stress axis : x y z
#
# Youngs Moduli (GPa) = 65.71519 19.09825 92.24959
#
# Poissons Ratio (x) = -0.00857 0.24372
# Poissons Ratio (y) = -0.02948 1.11559
# Poissons Ratio (z) = 0.17361 0.23096
#
# Static dielectric constant tensor:
#      x y z
#    x 1.800550 0.000000 -0.013260 
#    y 0.000000 1.729840 0.000000 
#    z -0.013260 0.000000 1.837610 
# 
# From -- ./inp_files/33545.got.cif
#   From: 2010.05.17/outbox.cif.g08.bks.cpg/sg5_17_cif.got.tgz:33545.got - 2010.06.03 18:56:24.
