data_PCOD9126139
_publ_section_title
;
Structure prediction by ZEFSAII (Michael W. Deem and Ramdas Pophale) SiO2 
 PCOD9126139
Probable space group: C 2
;
_chemical_formula_sum "Si O2"
_cell_formula_units_Z 22
_cell_length_a 12.512337
_cell_length_b 8.852169
_cell_length_c 11.940665
_cell_angle_alpha 90.000000
_cell_angle_beta 66.298999
_cell_angle_gamma 90.000000
_cell_volume 1211.012946
_symmetry_space_group_name_H-M "C 2"
_symmetry_group_IT_number 5
_symmetry_cell_setting 'monoclinic'
loop_
_space_group_symop_operation_xyz
x,y,z
-x,y,-z
1/2+x,1/2+y,z
1/2-x,1/2+y,-z
loop_
_atom_site_type_symbol
_atom_site_label
_atom_site_fract_x
_atom_site_fract_y
_atom_site_fract_z
Si Si1 0.345835 0.414090 0.232421
Si Si2 0.000000 0.114037 0.000000
Si Si3 0.070014 0.804256 0.569511
Si Si4 0.138744 0.667409 0.946745
Si Si5 0.331943 0.170356 0.673655
Si Si6 0.281395 0.826232 0.074172
O O1 0.389331 0.392117 0.340205
O O2 0.326176 0.253610 0.181443
O O3 0.227675 0.510837 0.281884
O O4 0.440872 0.507666 0.119069
O O5 0.103756 0.224352 0.997992
O O6 0.169950 0.721483 0.455451
O O7 0.000000 0.894590 0.500000
O O8 0.969100 0.683802 0.645985
O O9 0.191932 0.502543 0.943301
O O10 0.182941 0.774438 0.028344
O O11 0.000000 0.652429 0.000000
O O12 0.263357 0.284430 0.783178
#
# Coordination Sequence:
#
# PCOD9126139 Si02
#       6
#     4   2   4   4   4   4
#     4  11  20  38  64  89 122 163 202 251 313 360
#     4  10  22  38  64  94 130 158 208 252 304 388
#     4   8  20  38  61  83 121 157 206 250 301 352
#     4  12  25  37  63  92 127 165 204 251 314 373
#     4   8  20  37  61  85 117 163 200 257 292 359
#     4  11  22  41  60  94 129 162 207 253 311 367
#
# _framework density 18.166609000000001
#
# number of rings (size 3 to 8) (size 9 to 14) (size 15 to 20)
#    1.091    0.727    1.818    3.273    2.545    1.455 
#    0.000    0.000    4.000    4.364    0.000    0.000 
#    0.000    0.000    0.000    0.000    0.000    0.000 
#
# Total GULP energy -61260.122469 kJ/mol
# GULP energy per Si atom -5569.102043 kJ/mol
# Density = 1.812526 g / cm^3
# Si number density = 18.166609 Si / 1000 Ang^3
#
#
#
# Elastic Constant Matrix: (Units=GPa)
#
#
# Indices 1 2 3 4 5 6 
#
# 1 88.4370 52.3049 36.3451 0.0000 -0.1273 0.0000
# 2 52.3049 109.8753 30.1595 0.0000 12.3335 0.0000
# 3 36.3451 30.1595 68.3348 0.0000 0.2901 0.0000
# 4 0.0000 0.0000 0.0000 3.8616 0.0000 6.8677
# 5 -0.1273 12.3335 0.2901 0.0000 24.2205 0.0000
# 6 0.0000 0.0000 0.0000 6.8677 0.0000 30.9518
#
#
#
# Elastic Compliance Matrix: (Units=1/GPa)
#
#
# Indices 1 2 3 4 5 6 
#
# 1 0.018368 -0.007396 -0.006522 0.000000 0.003941 0.000000
# 2 -0.007396 0.014038 -0.002232 0.000000 -0.007161 0.000000
# 3 -0.006522 -0.002232 0.019084 0.000000 0.000874 0.000000
# 4 0.000000 0.000000 0.000000 0.427754 0.000000 -0.094912
# 5 0.003941 -0.007161 0.000874 0.000000 0.044944 0.000000
# 6 0.000000 0.000000 0.000000 -0.094912 0.000000 0.053368
#
#
# Mechanical properties :
#
#
# Convention : Reuss Voigt Hill
#
# Bulk Modulus (GPa) = 52.10776 56.02958 54.06867
# Shear Modulus (GPa) = 8.11357 21.66261 14.88809
#
# Velocity S-wave (km/s) = 2.11563 3.45692 2.86585
# Velocity P-wave (km/s) = 5.89181 6.84418 6.38577
#
# Compressibility (1/GPa) = 0.01919100
#
# Stress axis : x y z
#
# Youngs Moduli (GPa) = 54.44368 71.23342 52.40042
#
# Poissons Ratio (x) = 0.52684 0.34174
# Poissons Ratio (y) = 0.40266 0.11695
# Poissons Ratio (z) = 0.35507 0.15898
#
# Static dielectric constant tensor:
#      x y z
#    x 1.642810 0.000000 0.002260 
#    y 0.000000 1.614420 0.000000 
#    z 0.002260 0.000000 1.649990 
# 
# From -- ./inp_files/38130.got.cif
#   From: 2010.05.17/outbox.cif.g08.bks.cpg/sg5_20_cif.got.tgz:38130.got - 2010.06.03 18:56:24.
