data_PCOD9126539
_publ_section_title
;
Structure prediction by ZEFSAII (Michael W. Deem and Ramdas Pophale) SiO2 
 PCOD9126539
Probable space group: C 2
;
_chemical_formula_sum "Si O2"
_cell_formula_units_Z 18
_cell_length_a 18.253559
_cell_length_b 4.831670
_cell_length_c 8.426024
_cell_angle_alpha 90.000000
_cell_angle_beta 57.444823
_cell_angle_gamma 90.000000
_cell_volume 626.368594
_symmetry_space_group_name_H-M "C 2"
_symmetry_group_IT_number 5
_symmetry_cell_setting 'monoclinic'
loop_
_space_group_symop_operation_xyz
x,y,z
-x,y,-z
1/2+x,1/2+y,z
1/2-x,1/2+y,-z
loop_
_atom_site_type_symbol
_atom_site_label
_atom_site_fract_x
_atom_site_fract_y
_atom_site_fract_z
Si Si1 0.391117 0.141120 0.398129
Si Si2 0.663199 0.810202 0.977321
Si Si3 0.500000 0.015232 0.000000
Si Si4 0.143680 0.856062 0.236260
Si Si5 0.254320 0.778677 0.687513
O O1 0.405844 0.287015 0.547618
O O2 0.348875 0.851007 0.508183
O O3 0.310786 0.248095 0.383350
O O4 0.474208 0.167991 0.191082
O O5 0.589639 0.860915 0.929453
O O6 0.616638 0.614910 0.167364
O O7 0.781922 0.030373 0.165591
O O8 0.656325 0.096281 0.106192
O O9 0.237490 0.996415 0.210959
#
# Coordination Sequence:
#
# PCOD9126539 Si02
#       5
#     4   4   2   4   4
#     4  11  19  42  73 105 149 190 248 293 368 426
#     4   9  22  42  72 109 145 185 248 298 371 421
#     4  10  22  44  74 108 150 192 234 318 356 438
#     4  10  22  40  74 107 140 195 244 296 349 455
#     4   9  20  37  70 103 139 193 246 290 349 449
#
# _framework density 28.737075999999998
#
# number of rings (size 3 to 8) (size 9 to 14) (size 15 to 20)
#    1.333    0.889    2.222    0.000    3.111    0.000 
#    0.000    4.444    9.778    0.000    0.000    0.000 
#    0.000    0.000    0.000    0.000    0.000    0.000 
#
# Total GULP energy -50169.976518 kJ/mol
# GULP energy per Si atom -5574.441835 kJ/mol
# Density = 2.867167 g / cm^3
# Si number density = 28.737076 Si / 1000 Ang^3
#
#
#
# Elastic Constant Matrix: (Units=GPa)
#
#
# Indices 1 2 3 4 5 6 
#
# 1 124.3758 4.9806 16.4004 0.0000 8.5530 0.0000
# 2 4.9806 231.6730 106.2049 0.0000 18.2648 0.0000
# 3 16.4004 106.2049 256.2934 0.0000 -10.7671 0.0000
# 4 0.0000 0.0000 0.0000 46.3545 0.0000 25.9597
# 5 8.5530 18.2648 -10.7671 0.0000 54.5488 0.0000
# 6 0.0000 0.0000 0.0000 25.9597 0.0000 27.6509
#
#
#
# Elastic Compliance Matrix: (Units=1/GPa)
#
#
# Indices 1 2 3 4 5 6 
#
# 1 0.008226 0.000263 -0.000699 0.000000 -0.001516 0.000000
# 2 0.000263 0.005623 -0.002448 0.000000 -0.002407 0.000000
# 3 -0.000699 -0.002448 0.005042 0.000000 0.001924 0.000000
# 4 0.000000 0.000000 0.000000 0.045491 0.000000 -0.042709
# 5 -0.001516 -0.002407 0.001924 0.000000 0.019756 0.000000
# 6 0.000000 0.000000 0.000000 -0.042709 0.000000 0.076262
#
#
# Mechanical properties :
#
#
# Convention : Reuss Voigt Hill
#
# Bulk Modulus (GPa) = 76.20378 96.39045 86.29711
# Shear Modulus (GPa) = 29.31846 58.02793 43.67319
#
# Velocity S-wave (km/s) = 3.19757 4.49850 3.90263
# Velocity P-wave (km/s) = 6.34096 7.78441 7.09947
#
# Compressibility (1/GPa) = 0.01312271
#
# Stress axis : x y z
#
# Youngs Moduli (GPa) = 121.56511 177.84859 198.34293
#
# Poissons Ratio (x) = -0.04680 0.13867
# Poissons Ratio (y) = -0.03199 0.48554
# Poissons Ratio (z) = 0.08499 0.43537
#
# Static dielectric constant tensor:
#      x y z
#    x 2.360010 0.000000 -0.076340 
#    y 0.000000 2.315320 0.000000 
#    z -0.076340 0.000000 2.258740 
# 
# From -- ./inp_files/28147.got.cif
#   From: 2010.05.17/outbox.cif.g08.bks.cpg/sg5_15_cif.got.tgz:28147.got - 2010.06.03 18:56:24.
