data_PCOD9126149
_publ_section_title
;
Structure prediction by ZEFSAII (Michael W. Deem and Ramdas Pophale) SiO2 
 PCOD9126149
Probable space group: C 2
;
_chemical_formula_sum "Si O2"
_cell_formula_units_Z 32
_cell_length_a 23.952694
_cell_length_b 6.074590
_cell_length_c 19.510843
_cell_angle_alpha 90.000000
_cell_angle_beta 148.882259
_cell_angle_gamma 90.000000
_cell_volume 1467.129885
_symmetry_space_group_name_H-M "C 2"
_symmetry_group_IT_number 5
_symmetry_cell_setting 'monoclinic'
loop_
_space_group_symop_operation_xyz
x,y,z
-x,y,-z
1/2+x,1/2+y,z
1/2-x,1/2+y,-z
loop_
_atom_site_type_symbol
_atom_site_label
_atom_site_fract_x
_atom_site_fract_y
_atom_site_fract_z
Si Si1 0.967299 0.419270 0.394124
Si Si2 0.202832 0.073061 0.724285
Si Si3 0.235546 0.481796 0.452836
Si Si4 0.010577 0.562999 0.837937
Si Si5 0.310818 0.739281 0.944946
Si Si6 0.599673 0.254750 0.791618
Si Si7 0.416408 0.532943 0.532172
Si Si8 0.596455 0.351435 0.051472
O O1 0.879097 0.239633 0.324497
O O2 0.923793 0.566832 0.288768
O O3 0.000000 0.531142 0.500000
O O4 0.068334 0.290374 0.467892
O O5 0.131197 0.954063 0.590929
O O6 0.307507 0.214900 0.809589
O O7 0.251341 0.901203 0.828838
O O8 0.241701 0.229441 0.490214
O O9 0.324958 0.473787 0.488669
O O10 0.113818 0.511049 0.300144
O O11 0.054263 0.700726 0.818636
O O12 0.077748 0.338734 0.911663
O O13 0.037363 0.690137 0.935879
O O14 0.229394 0.752428 0.924180
O O15 0.341583 0.526361 0.932307
O O16 0.528524 0.450372 0.683377
O O17 0.500000 0.436907 0.000000
#
# Coordination Sequence:
#
# PCOD9126149 Si02
#       8
#     4   4   4   4   4   4   4   4
#     4  10  22  38  66 102 143 181 240 309 382 448
#     4  10  22  44  64 104 138 183 242 306 373 448
#     4  12  27  51  73 107 148 195 254 307 388 457
#     4  11  28  47  69 105 148 191 249 309 374 460
#     4  11  26  42  71 102 142 189 245 300 377 450
#     4  12  24  43  70 107 142 193 243 308 384 448
#     4  11  24  41  74 101 145 185 245 319 375 446
#     4  11  25  47  71 101 141 194 246 304 378 459
#
# _framework density 21.811294
#
# number of rings (size 3 to 8) (size 9 to 14) (size 15 to 20)
#    0.000    1.000    3.750    1.500    5.250    4.000 
#    0.000    0.000    0.000    0.000    0.000    0.000 
#    0.000    0.000    0.000    0.000    0.000    0.000 
#
# Total GULP energy -89191.843495 kJ/mol
# GULP energy per Si atom -5574.490218 kJ/mol
# Density = 2.176165 g / cm^3
# Si number density = 21.811294 Si / 1000 Ang^3
#
#
#
# Elastic Constant Matrix: (Units=GPa)
#
#
# Indices 1 2 3 4 5 6 
#
# 1 60.7336 -0.3345 9.6103 0.0000 9.6814 0.0000
# 2 -0.3345 50.0412 19.4181 0.0003 -6.9024 0.0000
# 3 9.6103 19.4181 87.8776 0.0000 18.9532 0.0000
# 4 0.0000 0.0003 0.0000 48.8987 0.0000 -6.9220
# 5 9.6814 -6.9024 18.9532 0.0000 34.2149 0.0000
# 6 0.0000 0.0000 0.0000 -6.9220 0.0000 18.1132
#
#
#
# Elastic Compliance Matrix: (Units=1/GPa)
#
#
# Indices 1 2 3 4 5 6 
#
# 1 0.017314 -0.000142 -0.000908 0.000000 -0.004425 0.000000
# 2 -0.000142 0.024001 -0.007201 0.000000 0.008871 0.000000
# 3 -0.000908 -0.007201 0.015136 0.000000 -0.009581 0.000000
# 4 0.000000 0.000000 0.000000 0.021620 0.000000 0.008262
# 5 -0.004425 0.008871 -0.009581 0.000000 0.037576 0.000000
# 6 0.000000 0.000000 0.000000 0.008262 0.000000 0.058366
#
#
# Mechanical properties :
#
#
# Convention : Reuss Voigt Hill
#
# Bulk Modulus (GPa) = 25.03244 28.44890 26.74067
# Shear Modulus (GPa) = 24.53023 31.57593 28.05308
#
# Velocity S-wave (km/s) = 3.35723 3.80898 3.59021
# Velocity P-wave (km/s) = 5.15070 5.69350 5.42889
#
# Compressibility (1/GPa) = 0.03994817
#
# Stress axis : x y z
#
# Youngs Moduli (GPa) = 57.75821 41.66574 66.06669
#
# Poissons Ratio (x) = 0.00594 0.05996
# Poissons Ratio (y) = 0.00823 0.47575
# Poissons Ratio (z) = 0.05242 0.30004
#
# Static dielectric constant tensor:
#      x y z
#    x 1.767410 0.000000 0.008580 
#    y 0.000000 1.876190 0.000000 
#    z 0.008580 0.000000 1.866320 
# 
# From -- ./inp_files/67277.got.cif
#   From: 2010.05.17/outbox.cif.g08.bks.cpg/sg5_34_cif.got.tgz:67277.got - 2010.06.03 18:56:24.
