data_PCOD9126516
_publ_section_title
;
Structure prediction by ZEFSAII (Michael W. Deem and Ramdas Pophale) SiO2 
 PCOD9126516
Probable space group: C 2
;
_chemical_formula_sum "Si O2"
_cell_formula_units_Z 20
_cell_length_a 19.466939
_cell_length_b 4.981437
_cell_length_c 13.848263
_cell_angle_alpha 90.000000
_cell_angle_beta 32.223282
_cell_angle_gamma 90.000000
_cell_volume 716.067741
_symmetry_space_group_name_H-M "C 2"
_symmetry_group_IT_number 5
_symmetry_cell_setting 'monoclinic'
loop_
_space_group_symop_operation_xyz
x,y,z
-x,y,-z
1/2+x,1/2+y,z
1/2-x,1/2+y,-z
loop_
_atom_site_type_symbol
_atom_site_label
_atom_site_fract_x
_atom_site_fract_y
_atom_site_fract_z
Si Si1 0.783504 0.344780 0.396443
Si Si2 0.625308 0.689857 0.108829
Si Si3 0.232466 0.611315 0.856302
Si Si4 0.500000 0.040149 0.000000
Si Si5 0.500000 0.507273 0.500000
Si Si6 0.020493 0.703533 0.657229
O O1 0.736105 0.631603 0.493745
O O2 0.914838 0.378979 0.181176
O O3 0.670591 0.238365 0.462273
O O4 0.724272 0.702269 0.084074
O O5 0.541475 0.421093 0.195818
O O6 0.520423 0.913161 0.263151
O O7 0.691471 0.803777 0.934152
O O8 0.367803 0.665141 0.640353
O O9 0.113496 0.689569 0.926962
O O10 0.460126 0.311145 0.632176
#
# Coordination Sequence:
#
# PCOD9126516 Si02
#       6
#     4   4   4   2   2   4
#     4  12  27  51  79 119 171 215 267 344 425 493
#     4  11  25  45  80 102 158 202 271 320 399 482
#     4  11  23  47  74 119 149 209 265 331 401 488
#     4  12  26  50  88 126 168 216 278 348 426 492
#     4  10  22  40  70  98 150 186 260 298 382 466
#     4  11  23  47  70 109 142 208 254 324 383 477
#
# _framework density 27.930316000000001
#
# number of rings (size 3 to 8) (size 9 to 14) (size 15 to 20)
#    0.000    0.800    2.000    6.000    0.000    4.000 
#    3.600    6.000    0.000    0.000    0.000    0.000 
#    0.000    0.000    0.000    0.000    0.000    0.000 
#
# Total GULP energy -55806.113079 kJ/mol
# GULP energy per Si atom -5580.611308 kJ/mol
# Density = 2.786675 g / cm^3
# Si number density = 27.930316 Si / 1000 Ang^3
#
#
#
# Elastic Constant Matrix: (Units=GPa)
#
#
# Indices 1 2 3 4 5 6 
#
# 1 129.7204 28.8385 58.0627 -0.0110 -20.0601 0.0147
# 2 28.8385 87.2383 33.1761 -0.0213 -11.8127 0.0386
# 3 58.0627 33.1761 230.7330 -0.0110 -37.0749 0.0170
# 4 -0.0110 -0.0213 -0.0110 29.8939 0.0074 -2.6842
# 5 -20.0601 -11.8127 -37.0749 0.0074 66.8867 -0.0059
# 6 0.0147 0.0386 0.0170 -2.6842 -0.0059 34.6495
#
#
#
# Elastic Compliance Matrix: (Units=1/GPa)
#
#
# Indices 1 2 3 4 5 6 
#
# 1 0.009205 -0.002178 -0.001780 0.000001 0.001389 0.000000
# 2 -0.002178 0.012743 -0.001128 0.000007 0.000972 -0.000012
# 3 -0.001780 -0.001128 0.005298 0.000000 0.002204 0.000000
# 4 0.000001 0.000007 0.000000 0.033686 -0.000002 0.002610
# 5 0.001389 0.000972 0.002204 -0.000002 0.016761 0.000000
# 6 0.000000 -0.000012 0.000000 0.002610 0.000000 0.029063
#
#
# Mechanical properties :
#
#
# Convention : Reuss Voigt Hill
#
# Bulk Modulus (GPa) = 58.56620 76.42739 67.49680
# Shear Modulus (GPa) = 40.77694 48.12699 44.45197
#
# Velocity S-wave (km/s) = 3.82508 4.15554 3.99373
# Velocity P-wave (km/s) = 6.36573 7.10265 6.74426
#
# Compressibility (1/GPa) = 0.01707469
#
# Stress axis : x y z
#
# Youngs Moduli (GPa) = 108.64173 78.47198 188.74255
#
# Poissons Ratio (x) = 0.17089 0.33594
# Poissons Ratio (y) = 0.23660 0.21292
# Poissons Ratio (z) = 0.19337 0.08852
#
# Static dielectric constant tensor:
#      x y z
#    x 2.320040 0.000000 -0.095510 
#    y 0.000000 2.278540 0.000010 
#    z -0.095510 0.000010 2.451980 
# 
# From -- ./inp_files/56467.got.cif
#   From: 2010.05.17/outbox.cif.g08.bks.cpg/sg5_29_cif.got.tgz:56467.got - 2010.06.03 18:56:24.
