data_PCOD9126708
_publ_section_title
;
Structure prediction by ZEFSAII (Michael W. Deem and Ramdas Pophale) SiO2 
 PCOD9126708
Probable space group: C 2
;
_chemical_formula_sum "Si O2"
_cell_formula_units_Z 24
_cell_length_a 13.084404
_cell_length_b 12.518945
_cell_length_c 10.594270
_cell_angle_alpha 90.000000
_cell_angle_beta 36.358107
_cell_angle_gamma 90.000000
_cell_volume 1028.781255
_symmetry_space_group_name_H-M "C 2"
_symmetry_group_IT_number 5
_symmetry_cell_setting 'monoclinic'
loop_
_space_group_symop_operation_xyz
x,y,z
-x,y,-z
1/2+x,1/2+y,z
1/2-x,1/2+y,-z
loop_
_atom_site_type_symbol
_atom_site_label
_atom_site_fract_x
_atom_site_fract_y
_atom_site_fract_z
Si Si1 0.453046 0.212120 0.750920
Si Si2 0.175761 0.276414 0.525597
Si Si3 0.000000 0.537511 0.000000
Si Si4 0.819416 0.830902 0.114141
Si Si5 0.500000 0.365135 0.500000
Si Si6 0.415738 0.967647 0.822922
Si Si7 0.636412 0.575233 0.467134
O O1 0.641711 0.261116 0.588951
O O2 0.388542 0.283786 0.697458
O O3 0.459690 0.085210 0.724969
O O4 0.349425 0.236014 0.983191
O O5 0.204575 0.298775 0.347385
O O6 0.095777 0.157077 0.620410
O O7 0.062905 0.377150 0.675360
O O8 0.890272 0.481619 0.998204
O O9 0.159601 0.590579 0.765458
O O10 0.738118 0.922870 0.109069
O O11 0.000000 0.860201 0.000000
O O12 0.596135 0.449143 0.499142
O O13 0.500000 0.613266 0.500000
#
# Coordination Sequence:
#
# PCOD9126708 Si02
#       7
#     4   4   2   4   2   4   4
#     4  11  24  43  71 103 144 190 244 313 369 443
#     4  11  23  44  69 105 136 189 248 303 366 447
#     4  12  22  44  72 110 142 194 248 308 372 450
#     4  10  24  45  69 100 143 190 247 297 375 449
#     4  10  24  42  66 102 146 188 242 308 372 432
#     4  12  25  42  77 107 146 192 251 315 376 442
#     4  10  22  41  72  98 140 185 247 293 360 456
#
# _framework density 23.328572999999999
#
# number of rings (size 3 to 8) (size 9 to 14) (size 15 to 20)
#    0.500    0.667    1.667    4.500    4.667    0.000 
#    0.000    0.000    7.333    0.000    0.000    0.000 
#    0.000    0.000    0.000    0.000    0.000    0.000 
#
# Total GULP energy -66837.643389 kJ/mol
# GULP energy per Si atom -5569.803616 kJ/mol
# Density = 2.327548 g / cm^3
# Si number density = 23.328573 Si / 1000 Ang^3
#
#
#
# Elastic Constant Matrix: (Units=GPa)
#
#
# Indices 1 2 3 4 5 6 
#
# 1 97.5377 47.0073 5.9041 0.0000 -4.6868 0.0000
# 2 47.0073 202.4930 38.7720 0.0000 3.7309 0.0000
# 3 5.9041 38.7720 22.4112 0.0000 -4.2156 0.0000
# 4 0.0000 0.0000 0.0000 31.5337 0.0000 0.7030
# 5 -4.6868 3.7309 -4.2156 0.0000 32.7852 0.0000
# 6 0.0000 0.0000 0.0000 0.7030 0.0000 35.7083
#
#
#
# Elastic Compliance Matrix: (Units=1/GPa)
#
#
# Indices 1 2 3 4 5 6 
#
# 1 0.011821 -0.003415 0.003264 0.000000 0.002498 0.000000
# 2 -0.003415 0.008584 -0.014580 0.000000 -0.003340 0.000000
# 3 0.003264 -0.014580 0.071104 0.000000 0.011268 0.000000
# 4 0.000000 0.000000 0.000000 0.031726 0.000000 -0.000625
# 5 0.002498 -0.003340 0.011268 0.000000 0.032688 0.000000
# 6 0.000000 0.000000 0.000000 -0.000625 0.000000 0.028017
#
#
# Mechanical properties :
#
#
# Convention : Reuss Voigt Hill
#
# Bulk Modulus (GPa) = 16.11672 56.20096 36.15884
# Shear Modulus (GPa) = 21.35983 35.38934 28.37458
#
# Velocity S-wave (km/s) = 3.02918 3.89909 3.49134
# Velocity P-wave (km/s) = 4.37701 6.66437 5.63791
#
# Compressibility (1/GPa) = 0.06204737
#
# Stress axis : x y z
#
# Youngs Moduli (GPa) = 84.59677 116.48993 14.06390
#
# Poissons Ratio (x) = 0.39783 -0.04591
# Poissons Ratio (y) = 0.28891 0.20505
# Poissons Ratio (z) = -0.27613 1.69841
#
# Static dielectric constant tensor:
#      x y z
#    x 1.936480 0.000000 -0.021970 
#    y 0.000000 1.969890 0.000000 
#    z -0.021970 0.000000 1.921340 
# 
# From -- ./inp_files/42407.got.cif
#   From: 2010.05.17/outbox.cif.g08.bks.cpg/sg5_22_cif.got.tgz:42407.got - 2010.06.03 18:56:24.
