data_PCOD9126607
_publ_section_title
;
Structure prediction by ZEFSAII (Michael W. Deem and Ramdas Pophale) SiO2 
 PCOD9126607
Probable space group: C 2
;
_chemical_formula_sum "Si O2"
_cell_formula_units_Z 18
_cell_length_a 8.024128
_cell_length_b 21.595408
_cell_length_c 5.712789
_cell_angle_alpha 90.000000
_cell_angle_beta 121.512968
_cell_angle_gamma 90.000000
_cell_volume 843.942739
_symmetry_space_group_name_H-M "C 2"
_symmetry_group_IT_number 5
_symmetry_cell_setting 'monoclinic'
loop_
_space_group_symop_operation_xyz
x,y,z
-x,y,-z
1/2+x,1/2+y,z
1/2-x,1/2+y,-z
loop_
_atom_site_type_symbol
_atom_site_label
_atom_site_fract_x
_atom_site_fract_y
_atom_site_fract_z
Si Si1 0.500000 0.545310 0.000000
Si Si2 0.793672 0.765683 0.222413
Si Si3 0.912626 0.495937 0.183792
Si Si4 0.000000 0.376050 0.000000
Si Si5 0.000000 0.691373 0.000000
Si Si6 0.170359 0.152837 0.440573
O O1 0.678637 0.507093 0.017455
O O2 0.609429 0.591156 0.260251
O O3 0.680897 0.829632 0.144001
O O4 0.843398 0.736040 0.008548
O O5 0.682729 0.711741 0.280612
O O6 0.000000 0.774373 0.500000
O O7 0.968766 0.423535 0.191249
O O8 0.000000 0.516582 0.500000
O O9 0.000000 0.522355 0.000000
O O10 0.118999 0.651818 0.276904
O O11 0.000000 0.163043 0.500000
#
# Coordination Sequence:
#
# PCOD9126607 Si02
#       6
#     2   4   4   2   2   4
#     4  12  27  47  74  98 149 193 246 300 368 430
#     4  10  22  42  68 106 138 181 227 291 370 428
#     4  10  28  50  71 107 144 192 255 302 358 427
#     4  10  23  44  69 102 140 186 242 302 352 434
#     4  10  22  41  65 106 147 177 232 284 368 448
#     4  11  24  41  68 104 141 185 231 291 367 437
#
# _framework density 21.32846
#
# number of rings (size 3 to 8) (size 9 to 14) (size 15 to 20)
#    0.667    0.889    0.000    3.333    3.111   11.556 
#    2.000    0.000    0.000    0.000    0.000    0.000 
#    0.000    0.000    0.000    0.000    0.000    0.000 
#
# Total GULP energy -50239.052759 kJ/mol
# GULP energy per Si atom -5582.116973 kJ/mol
# Density = 2.127992 g / cm^3
# Si number density = 21.328460 Si / 1000 Ang^3
#
#
#
# Elastic Constant Matrix: (Units=GPa)
#
#
# Indices 1 2 3 4 5 6 
#
# 1 149.8634 59.0454 40.2684 0.0000 -12.9840 0.0000
# 2 59.0454 97.3511 41.6703 0.0000 -7.5071 0.0000
# 3 40.2684 41.6703 120.1158 0.0000 8.3786 0.0000
# 4 0.0000 0.0000 0.0000 30.2679 0.0000 29.2190
# 5 -12.9840 -7.5071 8.3786 0.0000 44.6326 0.0000
# 6 0.0000 0.0000 0.0000 29.2190 0.0000 20.5745
#
#
#
# Elastic Compliance Matrix: (Units=1/GPa)
#
#
# Indices 1 2 3 4 5 6 
#
# 1 0.009136 -0.004696 -0.001585 0.000000 0.002166 0.000000
# 2 -0.004696 0.014846 -0.003704 0.000000 0.001826 0.000000
# 3 -0.001585 -0.003704 0.010353 0.000000 -0.003027 0.000000
# 4 0.000000 0.000000 0.000000 -0.089065 0.000000 0.126486
# 5 0.002166 0.001826 -0.003027 0.000000 0.023911 0.000000
# 6 0.000000 0.000000 0.000000 0.126486 0.000000 -0.131026
#
#
# Mechanical properties :
#
#
# Convention : Reuss Voigt Hill
#
# Bulk Modulus (GPa) = 69.60606 72.14428 70.87517
# Shear Modulus (GPa) = -36.47321 34.18473 -1.14424
#
# Velocity S-wave (km/s) = -4.13979 4.00781 -0.73325
# Velocity P-wave (km/s) = 3.13938 7.43744 5.70838
#
# Compressibility (1/GPa) = 0.01436657
#
# Stress axis : x y z
#
# Youngs Moduli (GPa) = 109.45176 67.35609 96.59392
#
# Poissons Ratio (x) = 0.31631 0.15309
# Poissons Ratio (y) = 0.51399 0.35774
# Poissons Ratio (z) = 0.17347 0.24946
#
# Static dielectric constant tensor:
#      x y z
#    x 1.801140 0.000000 -0.009670 
#    y 0.000000 1.743390 0.000000 
#    z -0.009670 0.000000 1.826930 
# 
# From -- ./inp_files/2505.got.cif
#   From: 2010.05.17/outbox.cif.g08.bks.cpg/sg5_2_cif.got.tgz:2505.got - 2010.06.03 18:56:24.
