data_PCOD9126046
_publ_section_title
;
Structure prediction by ZEFSAII (Michael W. Deem and Ramdas Pophale) SiO2 
 PCOD9126046
Probable space group: C 2
;
_chemical_formula_sum "Si O2"
_cell_formula_units_Z 28
_cell_length_a 13.213096
_cell_length_b 5.773350
_cell_length_c 17.155867
_cell_angle_alpha 90.000000
_cell_angle_beta 63.358805
_cell_angle_gamma 90.000000
_cell_volume 1169.771623
_symmetry_space_group_name_H-M "C 2"
_symmetry_group_IT_number 5
_symmetry_cell_setting 'monoclinic'
loop_
_space_group_symop_operation_xyz
x,y,z
-x,y,-z
1/2+x,1/2+y,z
1/2-x,1/2+y,-z
loop_
_atom_site_type_symbol
_atom_site_label
_atom_site_fract_x
_atom_site_fract_y
_atom_site_fract_z
Si Si1 0.182308 0.960290 0.352547
Si Si2 0.351962 0.350283 0.881084
Si Si3 0.010513 0.844580 0.694643
Si Si4 0.116686 0.353505 0.615561
Si Si5 0.169127 0.624829 0.840334
Si Si6 0.500000 0.879295 0.000000
Si Si7 0.500000 0.783517 0.500000
Si Si8 0.682895 0.505657 0.938784
O O1 0.099879 0.814827 0.323871
O O2 0.254001 0.844988 0.397622
O O3 0.272983 0.072304 0.261171
O O4 0.094743 0.136821 0.421495
O O5 0.468753 0.384231 0.797372
O O6 0.264925 0.530934 0.869385
O O7 0.307460 0.093606 0.878278
O O8 0.337447 0.354511 0.978439
O O9 0.071643 0.596149 0.668514
O O10 0.069637 0.091648 0.651165
O O11 0.077510 0.399436 0.539881
O O12 0.146992 0.887939 0.871449
O O13 0.051812 0.508042 0.907357
O O14 0.396018 0.720038 0.012268
#
# Coordination Sequence:
#
# PCOD9126046 Si02
#       8
#     4   4   4   4   4   2   2   4
#     4  10  25  49  76 107 150 192 244 311 374 443
#     4  10  22  37  65  95 136 190 236 293 354 423
#     4  10  26  45  73 111 150 192 250 302 364 448
#     4  11  26  48  76 113 143 195 240 307 380 446
#     4  10  22  43  62 100 141 185 236 292 358 431
#     4  10  24  36  60 100 136 182 236 292 340 428
#     4  10  26  48  78 112 146 188 250 306 376 456
#     4  11  21  38  63  93 135 190 238 292 352 418
#
# _framework density 23.936294
#
# number of rings (size 3 to 8) (size 9 to 14) (size 15 to 20)
#    0.000    1.714    1.429    0.429    8.000   10.286 
#    2.571    0.000    0.000    0.000    0.000    0.000 
#    0.000    0.000    0.000    0.000    0.000    0.000 
#
# Total GULP energy -77980.395231 kJ/mol
# GULP energy per Si atom -5570.028231 kJ/mol
# Density = 2.388181 g / cm^3
# Si number density = 23.936294 Si / 1000 Ang^3
#
#
#
# Elastic Constant Matrix: (Units=GPa)
#
#
# Indices 1 2 3 4 5 6 
#
# 1 127.1844 20.0599 30.1931 0.0000 20.0704 0.0000
# 2 20.0599 78.7896 26.4949 -0.0001 -13.3922 0.0000
# 3 30.1931 26.4949 90.8629 -0.0001 7.1458 0.0000
# 4 0.0000 -0.0001 -0.0001 18.9923 0.0000 -10.8761
# 5 20.0704 -13.3922 7.1458 0.0000 34.2142 0.0000
# 6 0.0000 0.0000 0.0000 -10.8761 0.0000 29.1529
#
#
#
# Elastic Compliance Matrix: (Units=1/GPa)
#
#
# Indices 1 2 3 4 5 6 
#
# 1 0.009807 -0.002974 -0.001878 0.000000 -0.006525 0.000000
# 2 -0.002974 0.016540 -0.004556 0.000000 0.009170 0.000000
# 3 -0.001878 -0.004556 0.013229 0.000000 -0.003444 0.000000
# 4 0.000000 0.000000 0.000000 0.066958 0.000000 0.024980
# 5 -0.006525 0.009170 -0.003444 0.000000 0.037364 0.000000
# 6 0.000000 0.000000 0.000000 0.024980 0.000000 0.043621
#
#
# Mechanical properties :
#
#
# Convention : Reuss Voigt Hill
#
# Bulk Modulus (GPa) = 48.17127 50.03696 49.10411
# Shear Modulus (GPa) = 23.44594 31.14448 27.29521
#
# Velocity S-wave (km/s) = 3.13311 3.61105 3.38054
# Velocity P-wave (km/s) = 5.76689 6.19159 5.98301
#
# Compressibility (1/GPa) = 0.02075926
#
# Stress axis : x y z
#
# Youngs Moduli (GPa) = 101.96433 60.45933 75.59093
#
# Poissons Ratio (x) = 0.17983 0.14199
# Poissons Ratio (y) = 0.30328 0.34438
# Poissons Ratio (z) = 0.19154 0.27544
#
# Static dielectric constant tensor:
#      x y z
#    x 1.992900 0.000000 0.008970 
#    y 0.000000 2.058370 0.000000 
#    z 0.008970 0.000000 1.843430 
# 
# From -- ./inp_files/61198.got.cif
#   From: 2010.05.17/outbox.cif.g08.bks.cpg/sg5_31_cif.got.tgz:61198.got - 2010.06.03 18:56:24.
