data_PCOD9126680
_publ_section_title
;
Structure prediction by ZEFSAII (Michael W. Deem and Ramdas Pophale) SiO2 
 PCOD9126680
Probable space group: C 2
;
_chemical_formula_sum "Si O2"
_cell_formula_units_Z 22
_cell_length_a 12.370501
_cell_length_b 10.898794
_cell_length_c 7.158651
_cell_angle_alpha 90.000000
_cell_angle_beta 76.554627
_cell_angle_gamma 90.000000
_cell_volume 938.701773
_symmetry_space_group_name_H-M "C 2"
_symmetry_group_IT_number 5
_symmetry_cell_setting 'monoclinic'
loop_
_space_group_symop_operation_xyz
x,y,z
-x,y,-z
1/2+x,1/2+y,z
1/2-x,1/2+y,-z
loop_
_atom_site_type_symbol
_atom_site_label
_atom_site_fract_x
_atom_site_fract_y
_atom_site_fract_z
Si Si1 0.000000 0.666170 0.500000
Si Si2 0.684564 0.841644 0.631661
Si Si3 0.770011 0.909102 0.976429
Si Si4 0.606016 0.600243 0.847782
Si Si5 0.538560 0.985211 0.183965
Si Si6 0.870222 0.842825 0.276890
O O1 0.070684 0.581020 0.331481
O O2 0.929991 0.747000 0.383815
O O3 0.659155 0.701484 0.695516
O O4 0.568972 0.913876 0.694418
O O5 0.747599 0.857891 0.413609
O O6 0.768871 0.890441 0.757662
O O7 0.641301 0.899052 0.087710
O O8 0.848048 0.818350 0.065893
O O9 0.810650 0.042315 0.031544
O O10 0.572220 0.476673 0.748626
O O11 0.500000 0.650866 0.000000
O O12 0.500000 0.041627 0.000000
#
# Coordination Sequence:
#
# PCOD9126680 Si02
#       6
#     2   4   4   4   4   4
#     4  12  24  40  66  90 142 166 228 270 332 402
#     4  11  22  43  72  95 134 175 228 273 335 400
#     4   9  22  42  65  94 133 171 223 267 337 397
#     4  10  23  45  64  97 140 171 222 278 335 397
#     4  10  22  41  69  98 125 176 222 276 331 399
#     4  10  26  40  65  99 132 178 221 275 336 394
#
# _framework density 23.436623000000001
#
# number of rings (size 3 to 8) (size 9 to 14) (size 15 to 20)
#    1.091    0.727    0.000    3.818    5.091    5.091 
#    0.000    2.727    0.000    0.000    0.000    0.000 
#    0.000    0.000    0.000    0.000    0.000    0.000 
#
# Total GULP energy -61412.120042 kJ/mol
# GULP energy per Si atom -5582.920004 kJ/mol
# Density = 2.338328 g / cm^3
# Si number density = 23.436623 Si / 1000 Ang^3
#
#
#
# Elastic Constant Matrix: (Units=GPa)
#
#
# Indices 1 2 3 4 5 6 
#
# 1 66.3044 9.1427 -0.7101 0.0000 15.4058 0.0000
# 2 9.1427 63.5494 5.9282 0.0000 14.5830 0.0000
# 3 -0.7101 5.9282 48.5336 0.0000 13.9490 0.0000
# 4 0.0000 0.0000 0.0000 20.1697 0.0000 -2.5032
# 5 15.4058 14.5830 13.9490 0.0000 47.3297 0.0000
# 6 0.0000 0.0000 0.0000 -2.5032 0.0000 -16.0116
#
#
#
# Elastic Compliance Matrix: (Units=1/GPa)
#
#
# Indices 1 2 3 4 5 6 
#
# 1 0.016580 -0.001290 0.002007 0.000000 -0.005591 0.000000
# 2 -0.001290 0.017050 -0.000778 0.000000 -0.004604 0.000000
# 3 0.002007 -0.000778 0.022777 0.000000 -0.007126 0.000000
# 4 0.000000 0.000000 0.000000 0.048636 0.000000 -0.007603
# 5 -0.005591 -0.004604 -0.007126 0.000000 0.026467 0.000000
# 6 0.000000 0.000000 0.000000 -0.007603 0.000000 -0.061266
#
#
# Mechanical properties :
#
#
# Convention : Reuss Voigt Hill
#
# Bulk Modulus (GPa) = 17.76633 23.01212 20.38922
# Shear Modulus (GPa) = 56.09912 21.23267 38.66590
#
# Velocity S-wave (km/s) = 4.89780 3.01318 4.06619
# Velocity P-wave (km/s) = 6.29140 4.68464 5.54651
#
# Compressibility (1/GPa) = 0.05628623
#
# Stress axis : x y z
#
# Youngs Moduli (GPa) = 60.31239 58.64931 43.90426
#
# Poissons Ratio (x) = 0.07563 -0.08812
# Poissons Ratio (y) = 0.07778 0.03416
# Poissons Ratio (z) = -0.12105 0.04564
#
# Static dielectric constant tensor:
#      x y z
#    x 1.918810 0.000000 0.006070 
#    y 0.000000 1.895560 0.000000 
#    z 0.006070 0.000000 1.832080 
# 
# From -- ./inp_files/19281.got.cif
#   From: 2010.05.17/outbox.cif.g08.bks.cpg/sg5_10_cif.got.tgz:19281.got - 2010.06.03 18:56:24.
