data_PCOD9126838
_publ_section_title
;
Structure prediction by ZEFSAII (Michael W. Deem and Ramdas Pophale) SiO2 
 PCOD9126838
Probable space group: C 2
;
_chemical_formula_sum "Si O2"
_cell_formula_units_Z 32
_cell_length_a 23.363895
_cell_length_b 7.813364
_cell_length_c 11.938690
_cell_angle_alpha 90.000000
_cell_angle_beta 42.457947
_cell_angle_gamma 90.000000
_cell_volume 1471.211824
_symmetry_space_group_name_H-M "C 2"
_symmetry_group_IT_number 5
_symmetry_cell_setting 'monoclinic'
loop_
_space_group_symop_operation_xyz
x,y,z
-x,y,-z
1/2+x,1/2+y,z
1/2-x,1/2+y,-z
loop_
_atom_site_type_symbol
_atom_site_label
_atom_site_fract_x
_atom_site_fract_y
_atom_site_fract_z
Si Si1 0.403742 0.750000 0.969095
Si Si2 0.883853 0.725687 0.458738
Si Si3 0.283236 0.040148 0.118574
Si Si4 0.405523 0.918266 0.589750
Si Si5 0.215562 0.276797 0.044986
Si Si6 0.813644 0.222982 0.323797
Si Si7 0.950823 0.470494 0.184867
Si Si8 0.356001 0.602725 0.503999
O O1 0.370944 0.948692 0.014021
O O2 0.364145 0.667465 0.137806
O O3 0.356200 0.678170 0.927336
O O4 0.502253 0.794184 0.838360
O O5 0.888487 0.600841 0.558367
O O6 0.785498 0.728058 0.560286
O O7 0.941147 0.626553 0.284276
O O8 0.906258 0.924192 0.447549
O O9 0.232248 0.086728 0.300493
O O10 0.281908 0.184212 0.027819
O O11 0.236632 0.886858 0.117747
O O12 0.500000 0.909716 0.500000
O O13 0.340897 0.882960 0.784911
O O14 0.394134 0.769479 0.511894
O O15 0.856278 0.405462 0.292212
O O16 0.833347 0.116468 0.406260
O O17 0.000000 0.515929 0.000000
#
# Coordination Sequence:
#
# PCOD9126838 Si02
#       8
#     4   4   4   4   4   4   4   4
#     4   9  20  39  68  91 135 181 220 280 357 401
#     4  12  23  41  70 102 134 178 239 283 344 415
#     4   9  20  37  60  93 129 170 228 285 330 406
#     4  11  25  43  67  98 137 186 225 282 360 410
#     4   9  20  36  64  88 130 170 228 279 336 404
#     4  11  22  40  67  97 139 180 227 284 354 413
#     4  10  22  42  67  95 139 185 219 283 355 413
#     4  11  24  40  65 102 135 174 237 290 338 418
#
# _framework density 21.750778
#
# number of rings (size 3 to 8) (size 9 to 14) (size 15 to 20)
#    0.750    1.000    2.500    1.500    5.250    0.500 
#    0.000    4.375    0.000    0.000    0.000    0.000 
#    0.000    0.000    0.000    0.000    0.000    0.000 
#
# Total GULP energy -89079.513392 kJ/mol
# GULP energy per Si atom -5567.469587 kJ/mol
# Density = 2.170127 g / cm^3
# Si number density = 21.750778 Si / 1000 Ang^3
#
#
#
# Elastic Constant Matrix: (Units=GPa)
#
#
# Indices 1 2 3 4 5 6 
#
# 1 88.4336 16.4130 27.6044 0.0000 18.9416 0.0000
# 2 16.4130 60.5719 4.5512 0.0000 11.5268 0.0000
# 3 27.6044 4.5512 85.1765 0.0000 18.5708 0.0000
# 4 0.0000 0.0000 0.0000 32.9691 0.0000 4.3350
# 5 18.9416 11.5268 18.5708 0.0000 40.6749 0.0000
# 6 0.0000 0.0000 0.0000 4.3350 0.0000 31.0992
#
#
#
# Elastic Compliance Matrix: (Units=1/GPa)
#
#
# Indices 1 2 3 4 5 6 
#
# 1 0.013749 -0.002693 -0.003423 0.000000 -0.004077 0.000000
# 2 -0.002693 0.017980 0.000832 0.000000 -0.004221 0.000000
# 3 -0.003423 0.000832 0.013892 0.000000 -0.004984 0.000000
# 4 0.000000 0.000000 0.000000 0.030898 0.000000 -0.004307
# 5 -0.004077 -0.004221 -0.004984 0.000000 0.029956 0.000000
# 6 0.000000 0.000000 0.000000 -0.004307 0.000000 0.032756
#
#
# Mechanical properties :
#
#
# Convention : Reuss Voigt Hill
#
# Bulk Modulus (GPa) = 28.52738 36.81324 32.67031
# Shear Modulus (GPa) = 30.96322 33.32286 32.14304
#
# Velocity S-wave (km/s) = 3.77708 3.91836 3.84837
# Velocity P-wave (km/s) = 5.67149 6.11827 5.89911
#
# Compressibility (1/GPa) = 0.03505405
#
# Stress axis : x y z
#
# Youngs Moduli (GPa) = 72.73016 55.61826 71.98393
#
# Poissons Ratio (x) = 0.14976 0.24642
# Poissons Ratio (y) = 0.19583 -0.05991
# Poissons Ratio (z) = 0.24897 -0.04629
#
# Static dielectric constant tensor:
#      x y z
#    x 1.845170 0.000000 0.016360 
#    y 0.000000 1.898310 0.000000 
#    z 0.016360 0.000000 1.819310 
# 
# From -- ./inp_files/46119.got.cif
#   From: 2010.05.17/outbox.cif.g08.bks.cpg/sg5_24_cif.got.tgz:46119.got - 2010.06.03 18:56:24.
