data_PCOD9126063
_publ_section_title
;
Structure prediction by ZEFSAII (Michael W. Deem and Ramdas Pophale) SiO2 
 PCOD9126063
Probable space group: C 2
;
_chemical_formula_sum "Si O2"
_cell_formula_units_Z 28
_cell_length_a 12.490091
_cell_length_b 18.803488
_cell_length_c 12.497465
_cell_angle_alpha 90.000000
_cell_angle_beta 147.797652
_cell_angle_gamma 90.000000
_cell_volume 1564.157910
_symmetry_space_group_name_H-M "C 2"
_symmetry_group_IT_number 5
_symmetry_cell_setting 'monoclinic'
loop_
_space_group_symop_operation_xyz
x,y,z
-x,y,-z
1/2+x,1/2+y,z
1/2-x,1/2+y,-z
loop_
_atom_site_type_symbol
_atom_site_label
_atom_site_fract_x
_atom_site_fract_y
_atom_site_fract_z
Si Si1 0.500000 0.663240 0.500000
Si Si2 0.500000 0.732244 0.000000
Si Si3 0.105384 0.620712 0.287951
Si Si4 0.361828 0.356944 0.487686
Si Si5 0.258438 0.335651 0.065308
Si Si6 0.978512 0.467179 0.853400
Si Si7 0.823967 0.734943 0.927226
Si Si8 0.307562 0.197574 0.415859
O O1 0.322664 0.621311 0.411719
O O2 0.633586 0.707743 0.697948
O O3 0.342498 0.785009 0.927820
O O4 0.385909 0.681952 0.819607
O O5 0.019907 0.541578 0.206070
O O6 0.145156 0.651758 0.439753
O O7 0.945052 0.671924 0.091943
O O8 0.500000 0.356048 0.500000
O O9 0.512943 0.354531 0.713741
O O10 0.219204 0.423439 0.348925
O O11 0.259210 0.279687 0.406352
O O12 0.250423 0.291331 0.950843
O O13 0.147914 0.410349 0.968623
O O14 0.000000 0.479771 0.000000
O O15 0.000000 0.765169 0.000000
O O16 0.500000 0.195911 0.500000
#
# Coordination Sequence:
#
# PCOD9126063 Si02
#       8
#     2   2   4   4   4   4   4   4
#     4  10  22  38  58  84 122 162 200 238 286 354
#     4  12  18  32  62  98 108 144 198 254 294 340
#     4  11  24  39  58  89 125 160 193 240 301 357
#     4  11  19  34  60  90 116 147 190 246 301 344
#     4  12  20  36  62  91 117 146 195 253 298 340
#     4  12  23  35  58  93 124 147 190 245 309 353
#     4  10  22  39  60  86 117 162 206 239 281 356
#     4  11  20  37  62  87 115 151 200 250 288 344
#
# _framework density 17.901007
#
# number of rings (size 3 to 8) (size 9 to 14) (size 15 to 20)
#    0.000    0.857    7.857    2.143    1.000    1.143 
#    0.000    0.000    4.714    0.000    1.857    0.000 
#    0.000    0.000    0.000    0.000    0.000    0.000 
#
# Total GULP energy -78067.713957 kJ/mol
# GULP energy per Si atom -5576.265283 kJ/mol
# Density = 1.786026 g / cm^3
# Si number density = 17.901007 Si / 1000 Ang^3
#
#
#
# Elastic Constant Matrix: (Units=GPa)
#
#
# Indices 1 2 3 4 5 6 
#
# 1 61.1856 32.1280 17.7592 0.0000 -18.7310 0.0000
# 2 32.1280 73.7763 18.9852 0.0000 -24.8142 0.0000
# 3 17.7592 18.9852 129.0935 0.0000 -21.7249 0.0000
# 4 0.0000 0.0000 0.0000 39.1924 0.0000 -13.8218
# 5 -18.7310 -24.8142 -21.7249 0.0000 22.5954 0.0000
# 6 0.0000 0.0000 0.0000 -13.8218 0.0000 12.2237
#
#
#
# Elastic Compliance Matrix: (Units=1/GPa)
#
#
# Indices 1 2 3 4 5 6 
#
# 1 0.023376 -0.005829 -0.000208 0.000000 0.012777 0.000000
# 2 -0.005829 0.023049 0.001025 0.000000 0.021465 0.000000
# 3 -0.000208 0.001025 0.009287 0.000000 0.009882 0.000000
# 4 0.000000 0.000000 0.000000 0.042438 0.000000 0.047986
# 5 0.012777 0.021465 0.009882 0.000000 0.087923 0.000000
# 6 0.000000 0.000000 0.000000 0.047986 0.000000 0.136068
#
#
# Mechanical properties :
#
#
# Convention : Reuss Voigt Hill
#
# Bulk Modulus (GPa) = 21.88804 44.64446 33.26625
# Shear Modulus (GPa) = 14.39279 27.81450 21.10364
#
# Velocity S-wave (km/s) = 2.83860 3.94610 3.43725
# Velocity P-wave (km/s) = 4.79556 6.76432 5.86316
#
# Compressibility (1/GPa) = 0.04568704
#
# Stress axis : x y z
#
# Youngs Moduli (GPa) = 42.77838 43.38588 107.67356
#
# Poissons Ratio (x) = 0.25289 0.02244
# Poissons Ratio (y) = 0.24935 -0.11032
# Poissons Ratio (z) = 0.00892 -0.04445
#
# Static dielectric constant tensor:
#      x y z
#    x 1.633400 0.000000 -0.017440 
#    y 0.000000 1.578870 0.000000 
#    z -0.017440 0.000000 1.725080 
# 
# From -- ./inp_files/40692.got.cif
#   From: 2010.05.17/outbox.cif.g08.bks.cpg/sg5_21_cif.got.tgz:40692.got - 2010.06.03 18:56:24.
