data_PCOD9126911
_publ_section_title
;
Structure prediction by ZEFSAII (Michael W. Deem and Ramdas Pophale) SiO2 
 PCOD9126911
Probable space group: C 2
;
_chemical_formula_sum "Si O2"
_cell_formula_units_Z 18
_cell_length_a 21.218517
_cell_length_b 9.267287
_cell_length_c 5.185324
_cell_angle_alpha 90.000000
_cell_angle_beta 133.448519
_cell_angle_gamma 90.000000
_cell_volume 740.245398
_symmetry_space_group_name_H-M "C 2"
_symmetry_group_IT_number 5
_symmetry_cell_setting 'monoclinic'
loop_
_space_group_symop_operation_xyz
x,y,z
-x,y,-z
1/2+x,1/2+y,z
1/2-x,1/2+y,-z
loop_
_atom_site_type_symbol
_atom_site_label
_atom_site_fract_x
_atom_site_fract_y
_atom_site_fract_z
Si Si1 0.000000 0.926380 0.000000
Si Si2 0.231153 0.587086 0.464539
Si Si3 0.446469 0.710441 0.606741
Si Si4 0.212264 0.410693 0.897289
Si Si5 0.352041 0.368775 0.929108
O O1 0.056430 0.839389 0.948176
O O2 0.052705 0.040050 0.327945
O O3 0.187010 0.515565 0.588079
O O4 0.330183 0.534255 0.786910
O O5 0.212866 0.754527 0.391063
O O6 0.203032 0.505136 0.126358
O O7 0.500000 0.737514 0.500000
O O8 0.351476 0.775444 0.301150
O O9 0.500000 0.775094 0.000000
O O10 0.310959 0.361598 0.100544
#
# Coordination Sequence:
#
# PCOD9126911 Si02
#       5
#     2   4   4   4   4
#     4  10  24  44  68 102 140 172 222 280 336 394
#     4  10  24  41  72  98 130 182 219 276 327 402
#     4  10  22  42  70 101 126 176 224 274 325 399
#     4  10  23  42  71  95 134 174 227 266 332 397
#     4  10  24  44  70  99 138 174 228 270 340 394
#
# _framework density 24.316262999999999
#
# number of rings (size 3 to 8) (size 9 to 14) (size 15 to 20)
#    2.000    0.000    0.000    2.667    3.111    3.556 
#    6.000    0.000    0.000    0.000    0.000    0.000 
#    0.000    0.000    0.000    0.000    0.000    0.000 
#
# Total GULP energy -50155.555832 kJ/mol
# GULP energy per Si atom -5572.839537 kJ/mol
# Density = 2.426092 g / cm^3
# Si number density = 24.316263 Si / 1000 Ang^3
#
#
#
# Elastic Constant Matrix: (Units=GPa)
#
#
# Indices 1 2 3 4 5 6 
#
# 1 169.9102 25.6001 60.8993 0.0000 -15.8154 0.0000
# 2 25.6001 79.5598 20.7172 0.0000 -2.2696 0.0000
# 3 60.8993 20.7172 90.9715 0.0000 -30.6262 0.0000
# 4 0.0000 0.0000 0.0000 47.9939 0.0000 9.2045
# 5 -15.8154 -2.2696 -30.6262 0.0000 48.3867 0.0000
# 6 0.0000 0.0000 0.0000 9.2045 0.0000 31.1386
#
#
#
# Elastic Compliance Matrix: (Units=1/GPa)
#
#
# Indices 1 2 3 4 5 6 
#
# 1 0.007881 -0.001184 -0.005283 0.000000 -0.000824 0.000000
# 2 -0.001184 0.013644 -0.002833 0.000000 -0.001540 0.000000
# 3 -0.005283 -0.002833 0.018488 0.000000 0.009842 0.000000
# 4 0.000000 0.000000 0.000000 0.022088 0.000000 -0.006529
# 5 -0.000824 -0.001540 0.009842 0.000000 0.026555 0.000000
# 6 0.000000 0.000000 0.000000 -0.006529 0.000000 0.034045
#
#
# Mechanical properties :
#
#
# Convention : Reuss Voigt Hill
#
# Bulk Modulus (GPa) = 46.70293 61.65273 54.17783
# Shear Modulus (GPa) = 33.68399 41.05218 37.36808
#
# Velocity S-wave (km/s) = 3.72593 4.11330 3.92440
# Velocity P-wave (km/s) = 6.14477 6.92593 6.54701
#
# Compressibility (1/GPa) = 0.02141193
#
# Stress axis : x y z
#
# Youngs Moduli (GPa) = 126.89057 73.29307 54.08889
#
# Poissons Ratio (x) = 0.08674 0.28578
# Poissons Ratio (y) = 0.15018 0.15326
# Poissons Ratio (z) = 0.67042 0.20767
#
# Static dielectric constant tensor:
#      x y z
#    x 1.975820 0.000000 -0.016520 
#    y 0.000000 1.911160 0.000000 
#    z -0.016520 0.000000 2.065740 
# 
# From -- ./inp_files/9095.got.cif
#   From: 2010.05.17/outbox.cif.g08.bks.cpg/sg5_5_cif.got.tgz:9095.got - 2010.06.03 18:56:24.
