data_PCOD9126887
_publ_section_title
;
Structure prediction by ZEFSAII (Michael W. Deem and Ramdas Pophale) SiO2 
 PCOD9126887
Probable space group: C 2
;
_chemical_formula_sum "Si O2"
_cell_formula_units_Z 22
_cell_length_a 14.945829
_cell_length_b 10.048379
_cell_length_c 11.682240
_cell_angle_alpha 90.000000
_cell_angle_beta 34.249008
_cell_angle_gamma 90.000000
_cell_volume 987.390599
_symmetry_space_group_name_H-M "C 2"
_symmetry_group_IT_number 5
_symmetry_cell_setting 'monoclinic'
loop_
_space_group_symop_operation_xyz
x,y,z
-x,y,-z
1/2+x,1/2+y,z
1/2-x,1/2+y,-z
loop_
_atom_site_type_symbol
_atom_site_label
_atom_site_fract_x
_atom_site_fract_y
_atom_site_fract_z
Si Si1 0.380113 0.523410 0.209174
Si Si2 0.430584 0.693936 0.821885
Si Si3 0.831858 0.484781 0.956170
Si Si4 0.568933 0.137818 0.536152
Si Si5 0.000000 0.598200 0.000000
Si Si6 0.223137 0.763542 0.595521
O O1 0.488781 0.639983 0.146052
O O2 0.216215 0.559905 0.322378
O O3 0.319351 0.418975 0.365928
O O4 0.500000 0.448575 0.000000
O O5 0.589697 0.737890 0.586245
O O6 0.322431 0.825590 0.949297
O O7 0.329391 0.571050 0.880106
O O8 0.943881 0.546609 0.737162
O O9 0.914808 0.512794 0.990734
O O10 0.500000 0.215386 0.500000
O O11 0.659797 0.211651 0.541321
O O12 0.128377 0.686924 0.795190
#
# Coordination Sequence:
#
# PCOD9126887 Si02
#       6
#     4   4   4   4   2   4
#     4  11  22  42  73 104 138 183 231 284 351 413
#     4  11  26  44  70 102 144 185 233 285 346 419
#     4  11  25  46  68 103 143 181 235 284 349 412
#     4  10  22  42  68  99 136 180 229 282 337 414
#     4  10  24  44  74 100 140 182 228 296 348 412
#     4  10  22  45  70 103 140 180 229 285 352 411
#
# _framework density 22.280949
#
# number of rings (size 3 to 8) (size 9 to 14) (size 15 to 20)
#    0.000    1.455    2.727    1.091    6.364    2.182 
#    0.000    0.000    0.000    0.000    0.000    0.000 
#    0.000    0.000    0.000    0.000    0.000    0.000 
#
# Total GULP energy -61317.717265 kJ/mol
# GULP energy per Si atom -5574.337933 kJ/mol
# Density = 2.223024 g / cm^3
# Si number density = 22.280949 Si / 1000 Ang^3
#
#
#
# Elastic Constant Matrix: (Units=GPa)
#
#
# Indices 1 2 3 4 5 6 
#
# 1 116.0237 30.4802 33.0487 0.0000 -0.2458 0.0000
# 2 30.4802 101.8447 21.4395 0.0000 -13.0727 0.0000
# 3 33.0487 21.4395 101.1932 0.0000 -5.7080 0.0000
# 4 0.0000 0.0000 0.0000 23.8302 0.0000 -12.3533
# 5 -0.2458 -13.0727 -5.7080 0.0000 21.3844 0.0000
# 6 0.0000 0.0000 0.0000 -12.3533 0.0000 13.8379
#
#
#
# Elastic Compliance Matrix: (Units=1/GPa)
#
#
# Indices 1 2 3 4 5 6 
#
# 1 0.010148 -0.002731 -0.002866 0.000000 -0.002318 0.000000
# 2 -0.002731 0.011770 -0.001216 0.000000 0.006839 0.000000
# 3 -0.002866 -0.001216 0.011201 0.000000 0.002213 0.000000
# 4 0.000000 0.000000 0.000000 0.078112 0.000000 0.069732
# 5 -0.002318 0.006839 0.002213 0.000000 0.051508 0.000000
# 6 0.000000 0.000000 0.000000 0.069732 0.000000 0.134516
#
#
# Mechanical properties :
#
#
# Convention : Reuss Voigt Hill
#
# Bulk Modulus (GPa) = 51.30360 54.33315 52.81837
# Shear Modulus (GPa) = 15.75403 27.41671 21.58537
#
# Velocity S-wave (km/s) = 2.66195 3.51165 3.11590
# Velocity P-wave (km/s) = 5.70296 6.39380 6.05823
#
# Compressibility (1/GPa) = 0.01949181
#
# Stress axis : x y z
#
# Youngs Moduli (GPa) = 98.54161 84.96067 89.28039
#
# Poissons Ratio (x) = 0.23205 0.25591
# Poissons Ratio (y) = 0.26914 0.10856
# Poissons Ratio (z) = 0.28245 0.10330
#
# Static dielectric constant tensor:
#      x y z
#    x 1.792460 0.000000 0.023500 
#    y 0.000000 1.875320 0.000000 
#    z 0.023500 0.000000 1.864770 
# 
# From -- ./inp_files/42652.got.cif
#   From: 2010.05.17/outbox.cif.g08.bks.cpg/sg5_22_cif.got.tgz:42652.got - 2010.06.03 18:56:24.
