data_PCOD9126627
_publ_section_title
;
Structure prediction by ZEFSAII (Michael W. Deem and Ramdas Pophale) SiO2 
 PCOD9126627
Probable space group: C 2
;
_chemical_formula_sum "Si O2"
_cell_formula_units_Z 30
_cell_length_a 13.061954
_cell_length_b 23.303533
_cell_length_c 9.813526
_cell_angle_alpha 90.000000
_cell_angle_beta 25.878397
_cell_angle_gamma 90.000000
_cell_volume 1303.773100
_symmetry_space_group_name_H-M "C 2"
_symmetry_group_IT_number 5
_symmetry_cell_setting 'monoclinic'
loop_
_space_group_symop_operation_xyz
x,y,z
-x,y,-z
1/2+x,1/2+y,z
1/2-x,1/2+y,-z
loop_
_atom_site_type_symbol
_atom_site_label
_atom_site_fract_x
_atom_site_fract_y
_atom_site_fract_z
Si Si1 0.500000 0.953231 0.500000
Si Si2 0.591260 0.790126 0.041766
Si Si3 0.964266 0.024022 0.898091
Si Si4 0.572189 0.187933 0.269584
Si Si5 0.290616 0.231091 0.353830
Si Si6 0.009364 0.119478 0.343423
Si Si7 0.264697 0.404961 0.707588
Si Si8 0.189921 0.901332 0.657869
O O1 0.423206 0.911477 0.467997
O O2 0.293317 0.995417 0.799541
O O3 0.384903 0.783292 0.401264
O O4 0.500000 0.773403 0.000000
O O5 0.779677 0.743926 0.864698
O O6 0.703586 0.851838 0.881062
O O7 0.047466 0.070161 0.692608
O O8 0.124150 0.968005 0.707376
O O9 0.000000 0.053777 0.000000
O O10 0.500000 0.161502 0.500000
O O11 0.382659 0.209344 0.389531
O O12 0.735384 0.142989 0.998259
O O13 0.151597 0.176203 0.462585
O O14 0.500000 0.245236 0.000000
O O15 0.000000 0.091649 0.500000
O O16 0.500000 0.431577 0.500000
O O17 0.319909 0.380284 0.487886
O O18 0.000000 0.433214 0.000000
O O19 0.000000 0.880394 0.000000
#
# Coordination Sequence:
#
# PCOD9126627 Si02
#       8
#     2   4   4   4   4   4   4   4
#     4   8  18  40  68  96 130 186 228 276 358 428
#     4  10  22  41  66  94 127 166 226 284 343 417
#     4   9  21  38  62  94 137 177 234 275 343 423
#     4  11  22  37  67  87 125 180 219 277 345 409
#     4  11  23  42  62  90 133 181 226 284 350 409
#     4  11  24  38  56  98 136 175 231 289 336 417
#     4  11  26  44  74 105 142 176 235 296 358 428
#     4   9  21  44  72  98 136 183 228 290 356 432
#
# _framework density 23.010138000000001
#
# number of rings (size 3 to 8) (size 9 to 14) (size 15 to 20)
#    0.000    2.133    2.667    0.400    8.400    1.600 
#    0.000    2.667    5.867    0.000    0.000    0.000 
#    0.000    0.000    0.000    0.000    0.000    0.000 
#
# Total GULP energy -83631.308647 kJ/mol
# GULP energy per Si atom -5575.420576 kJ/mol
# Density = 2.295777 g / cm^3
# Si number density = 23.010138 Si / 1000 Ang^3
#
#
#
# Elastic Constant Matrix: (Units=GPa)
#
#
# Indices 1 2 3 4 5 6 
#
# 1 116.2814 14.1948 42.4578 -0.0068 9.5145 0.0023
# 2 14.1948 47.7529 14.3263 0.0003 17.5942 0.0010
# 3 42.4578 14.3263 123.2761 -0.0407 30.5360 0.0239
# 4 -0.0068 0.0003 -0.0407 7.3679 0.0175 11.1566
# 5 9.5145 17.5942 30.5360 0.0175 46.2297 -0.0094
# 6 0.0023 0.0010 0.0239 11.1566 -0.0094 22.2329
#
#
#
# Elastic Compliance Matrix: (Units=1/GPa)
#
#
# Indices 1 2 3 4 5 6 
#
# 1 0.010063 -0.002363 -0.003469 -0.000072 0.001119 0.000040
# 2 -0.002363 0.024954 0.000175 0.000112 -0.009126 -0.000061
# 3 -0.003469 0.000175 0.010911 0.000392 -0.006560 -0.000211
# 4 -0.000072 0.000112 0.000392 0.565172 -0.000558 -0.283607
# 5 0.001119 -0.009126 -0.006560 -0.000558 0.029207 0.000300
# 6 0.000040 -0.000061 -0.000211 -0.283607 0.000300 0.187294
#
#
# Mechanical properties :
#
#
# Convention : Reuss Voigt Hill
#
# Bulk Modulus (GPa) = 28.89029 47.69647 38.29338
# Shear Modulus (GPa) = 5.87921 29.58820 17.73371
#
# Velocity S-wave (km/s) = 1.60019 3.58980 2.77914
# Velocity P-wave (km/s) = 3.99961 6.16082 5.19387
#
# Compressibility (1/GPa) = 0.03461371
#
# Stress axis : x y z
#
# Youngs Moduli (GPa) = 99.37212 40.07440 91.64800
#
# Poissons Ratio (x) = 0.09470 0.31789
# Poissons Ratio (y) = 0.23483 -0.01600
# Poissons Ratio (z) = 0.34468 -0.00699
#
# Static dielectric constant tensor:
#      x y z
#    x 1.626550 -0.000030 -0.098510 
#    y -0.000030 1.849060 0.000000 
#    z -0.098510 0.000000 1.932590 
# 
# From -- ./inp_files/22199.got.cif
#   From: 2010.05.17/outbox.cif.g08.bks.cpg/sg5_12_cif.got.tgz:22199.got - 2010.06.03 18:56:24.
