data_PCOD9126339
_publ_section_title
;
Structure prediction by ZEFSAII (Michael W. Deem and Ramdas Pophale) SiO2 
 PCOD9126339
Probable space group: C 2
;
_chemical_formula_sum "Si O2"
_cell_formula_units_Z 24
_cell_length_a 10.197679
_cell_length_b 9.336508
_cell_length_c 11.676595
_cell_angle_alpha 90.000000
_cell_angle_beta 87.152791
_cell_angle_gamma 90.000000
_cell_volume 1110.364533
_symmetry_space_group_name_H-M "C 2"
_symmetry_group_IT_number 5
_symmetry_cell_setting 'monoclinic'
loop_
_space_group_symop_operation_xyz
x,y,z
-x,y,-z
1/2+x,1/2+y,z
1/2-x,1/2+y,-z
loop_
_atom_site_type_symbol
_atom_site_label
_atom_site_fract_x
_atom_site_fract_y
_atom_site_fract_z
Si Si1 0.267956 0.188810 0.357162
Si Si2 0.656177 0.985218 0.463426
Si Si3 0.163528 0.170371 0.104119
Si Si4 0.980163 0.923261 0.128144
Si Si5 0.191445 0.483622 0.089309
Si Si6 0.568088 0.182481 0.275058
O O1 0.209818 0.333914 0.414788
O O2 0.213202 0.172781 0.232193
O O3 0.424749 0.195092 0.335984
O O4 0.255613 0.047299 0.436840
O O5 0.500000 0.964971 0.500000
O O6 0.658758 0.115469 0.369994
O O7 0.143322 0.328023 0.055934
O O8 0.030390 0.083381 0.118107
O O9 0.260732 0.081187 0.017599
O O10 0.825023 0.939886 0.153853
O O11 0.072369 0.835116 0.210465
O O12 0.000000 0.857417 0.000000
O O13 0.088820 0.566971 0.172636
#
# Coordination Sequence:
#
# PCOD9126339 Si02
#       6
#     4   4   4   4   4   4
#     4  11  24  47  67  99 130 173 226 277 326 392
#     4  10  24  46  66  95 132 173 225 276 329 386
#     4  11  23  43  67  96 138 174 218 269 329 389
#     4  10  22  40  60  98 136 174 217 257 320 400
#     4  11  22  44  63  99 139 172 213 271 324 406
#     4  11  21  43  72  91 137 172 214 275 335 386
#
# _framework density 21.614525
#
# number of rings (size 3 to 8) (size 9 to 14) (size 15 to 20)
#    0.000    1.333    3.333    2.000    2.333    0.000 
#   18.000    0.000    0.000    0.000    0.000    0.000 
#    0.000    0.000    0.000    0.000    0.000    0.000 
#
# Total GULP energy -66892.259739 kJ/mol
# GULP energy per Si atom -5574.354978 kJ/mol
# Density = 2.156533 g / cm^3
# Si number density = 21.614525 Si / 1000 Ang^3
#
#
#
# Elastic Constant Matrix: (Units=GPa)
#
#
# Indices 1 2 3 4 5 6 
#
# 1 56.5618 41.7234 16.2000 0.0000 -8.7751 0.0000
# 2 41.7234 152.4452 45.7561 0.0000 -11.8923 0.0000
# 3 16.2000 45.7561 103.6307 0.0000 2.1622 0.0000
# 4 0.0000 0.0000 0.0000 35.7354 0.0000 -5.8946
# 5 -8.7751 -11.8923 2.1622 0.0000 24.8347 0.0000
# 6 0.0000 0.0000 0.0000 -5.8946 0.0000 32.9536
#
#
#
# Elastic Compliance Matrix: (Units=1/GPa)
#
#
# Indices 1 2 3 4 5 6 
#
# 1 0.022944 -0.005453 -0.001296 0.000000 0.005609 0.000000
# 2 -0.005453 0.009259 -0.003294 0.000000 0.002794 0.000000
# 3 -0.001296 -0.003294 0.011370 0.000000 -0.003025 0.000000
# 4 0.000000 0.000000 0.000000 0.028834 0.000000 0.005158
# 5 0.005609 0.002794 -0.003025 0.000000 0.043849 0.000000
# 6 0.000000 0.000000 0.000000 0.005158 0.000000 0.031268
#
#
# Mechanical properties :
#
#
# Convention : Reuss Voigt Hill
#
# Bulk Modulus (GPa) = 42.57802 57.77740 50.17771
# Shear Modulus (GPa) = 28.50006 32.63529 30.56768
#
# Velocity S-wave (km/s) = 3.63514 3.88993 3.76469
# Velocity P-wave (km/s) = 6.11233 6.85305 6.49326
#
# Compressibility (1/GPa) = 0.02348630
#
# Stress axis : x y z
#
# Youngs Moduli (GPa) = 43.58518 108.00564 87.95304
#
# Poissons Ratio (x) = 0.58896 0.11399
# Poissons Ratio (y) = 0.23767 0.28971
# Poissons Ratio (z) = 0.05649 0.35576
#
# Static dielectric constant tensor:
#      x y z
#    x 1.812890 0.000000 0.039370 
#    y 0.000000 1.803530 0.000000 
#    z 0.039370 0.000000 1.906750 
# 
# From -- ./inp_files/38340.got.cif
#   From: 2010.05.17/outbox.cif.g08.bks.cpg/sg5_20_cif.got.tgz:38340.got - 2010.06.03 18:56:24.
