data_PCOD9126590
_publ_section_title
;
Structure prediction by ZEFSAII (Michael W. Deem and Ramdas Pophale) SiO2 
 PCOD9126590
Probable space group: C 2
;
_chemical_formula_sum "Si O2"
_cell_formula_units_Z 22
_cell_length_a 12.673359
_cell_length_b 10.526686
_cell_length_c 14.866241
_cell_angle_alpha 90.000000
_cell_angle_beta 151.400433
_cell_angle_gamma 90.000000
_cell_volume 949.368015
_symmetry_space_group_name_H-M "C 2"
_symmetry_group_IT_number 5
_symmetry_cell_setting 'monoclinic'
loop_
_space_group_symop_operation_xyz
x,y,z
-x,y,-z
1/2+x,1/2+y,z
1/2-x,1/2+y,-z
loop_
_atom_site_type_symbol
_atom_site_label
_atom_site_fract_x
_atom_site_fract_y
_atom_site_fract_z
Si Si1 0.311230 0.538900 0.796830
Si Si2 0.511033 0.911331 0.715240
Si Si3 0.438221 0.282325 0.079480
Si Si4 0.082222 0.506717 0.970152
Si Si5 0.498409 0.370272 0.685609
Si Si6 0.500000 0.230229 0.500000
O O1 0.115623 0.505529 0.719848
O O2 0.417263 0.407512 0.837518
O O3 0.212881 0.637828 0.653015
O O4 0.500000 0.598542 0.000000
O O5 0.262811 0.886360 0.501410
O O6 0.696268 0.801494 0.856150
O O7 0.515719 0.953794 0.823083
O O8 0.425579 0.276633 0.177777
O O9 0.519731 0.147468 0.107367
O O10 0.347549 0.492271 0.178239
O O11 0.000000 0.440528 0.000000
O O12 0.532502 0.315009 0.612201
#
# Coordination Sequence:
#
# PCOD9126590 Si02
#       6
#     4   4   4   4   4   2
#     4  10  22  42  66  92 123 167 218 265 313 370
#     4  10  22  41  64  93 126 165 213 262 318 376
#     4  10  23  42  66  93 126 169 217 265 313 375
#     4  11  23  42  64  92 131 170 212 262 319 381
#     4  11  25  41  62  95 128 169 212 260 324 378
#     4  12  24  40  64  94 132 168 210 264 318 386
#
# _framework density 23.173310000000001
#
# number of rings (size 3 to 8) (size 9 to 14) (size 15 to 20)
#    0.000    1.455    0.000    4.909    0.000   10.909 
#    0.000    3.636    0.000    0.000    0.000    0.000 
#    0.000    0.000    0.000    0.000    0.000    0.000 
#
# Total GULP energy -61390.389200 kJ/mol
# GULP energy per Si atom -5580.944473 kJ/mol
# Density = 2.312057 g / cm^3
# Si number density = 23.173310 Si / 1000 Ang^3
#
#
#
# Elastic Constant Matrix: (Units=GPa)
#
#
# Indices 1 2 3 4 5 6 
#
# 1 81.8916 -2.8366 -7.6968 0.0002 -20.3064 -0.0001
# 2 -2.8366 53.4360 12.4698 0.0001 -9.6450 0.0000
# 3 -7.6968 12.4698 140.3168 0.0007 -2.1160 0.0004
# 4 0.0002 0.0001 0.0007 22.0775 0.0004 1.0839
# 5 -20.3064 -9.6450 -2.1160 0.0004 49.0760 0.0001
# 6 -0.0001 0.0000 0.0004 1.0839 0.0001 13.3277
#
#
#
# Elastic Compliance Matrix: (Units=1/GPa)
#
#
# Indices 1 2 3 4 5 6 
#
# 1 0.013845 0.001670 0.000703 0.000000 0.006087 0.000000
# 2 0.001670 0.020002 -0.001617 0.000000 0.004552 0.000000
# 3 0.000703 -0.001617 0.007313 0.000000 0.000288 0.000000
# 4 0.000000 0.000000 0.000000 0.045477 -0.000001 -0.003698
# 5 0.006087 0.004552 0.000288 -0.000001 0.023802 0.000000
# 6 0.000000 0.000000 0.000000 -0.003698 0.000000 0.075333
#
#
# Mechanical properties :
#
#
# Convention : Reuss Voigt Hill
#
# Bulk Modulus (GPa) = 23.43580 31.05746 27.24663
# Shear Modulus (GPa) = 25.19092 35.14341 30.16717
#
# Velocity S-wave (km/s) = 3.30065 3.89851 3.61197
# Velocity P-wave (km/s) = 4.96598 5.80481 5.40170
#
# Compressibility (1/GPa) = 0.04266976
#
# Stress axis : x y z
#
# Youngs Moduli (GPa) = 72.23074 49.99587 136.73605
#
# Poissons Ratio (x) = -0.08347 -0.09610
# Poissons Ratio (y) = -0.12060 0.22114
# Poissons Ratio (z) = -0.05077 0.08086
#
# Static dielectric constant tensor:
#      x y z
#    x 1.939830 0.000000 0.029250 
#    y 0.000000 1.923280 0.000000 
#    z 0.029250 0.000000 1.842140 
# 
# From -- ./inp_files/52917.got.cif
#   From: 2010.05.17/outbox.cif.g08.bks.cpg/sg5_27_cif.got.tgz:52917.got - 2010.06.03 18:56:24.
