data_PCOD9126093
_publ_section_title
;
Structure prediction by ZEFSAII (Michael W. Deem and Ramdas Pophale) SiO2 
 PCOD9126093
Probable space group: C 2
;
_chemical_formula_sum "Si O2"
_cell_formula_units_Z 32
_cell_length_a 18.012042
_cell_length_b 7.646499
_cell_length_c 23.287864
_cell_angle_alpha 90.000000
_cell_angle_beta 149.876783
_cell_angle_gamma 90.000000
_cell_volume 1609.677678
_symmetry_space_group_name_H-M "C 2"
_symmetry_group_IT_number 5
_symmetry_cell_setting 'monoclinic'
loop_
_space_group_symop_operation_xyz
x,y,z
-x,y,-z
1/2+x,1/2+y,z
1/2-x,1/2+y,-z
loop_
_atom_site_type_symbol
_atom_site_label
_atom_site_fract_x
_atom_site_fract_y
_atom_site_fract_z
Si Si1 0.891168 0.909060 0.008811
Si Si2 0.304764 0.872886 0.720366
Si Si3 0.870865 0.507112 0.091747
Si Si4 0.835951 0.242717 0.371269
Si Si5 0.652699 0.370308 0.858287
Si Si6 0.898942 0.020442 0.749535
Si Si7 0.168176 0.366890 0.127385
Si Si8 0.173733 0.768927 0.150917
O O1 0.022432 0.767595 0.087625
O O2 0.844388 0.917823 0.909687
O O3 0.985810 0.032040 0.117482
O O4 0.733110 0.898479 0.933808
O O5 0.295787 0.690457 0.681008
O O6 0.302352 0.828755 0.786540
O O7 0.465751 0.940295 0.808668
O O8 0.195914 0.036676 0.639689
O O9 0.872908 0.702175 0.118069
O O10 0.785925 0.481103 0.975135
O O11 0.709816 0.356291 0.317828
O O12 0.806057 0.286949 0.284169
O O13 0.000000 0.287382 0.500000
O O14 0.506956 0.487696 0.767973
O O15 0.710443 0.300582 0.836361
O O16 0.182688 0.577286 0.130544
O O17 0.000000 0.313476 0.000000
#
# Coordination Sequence:
#
# PCOD9126093 Si02
#       8
#     4   4   4   4   4   4   4   4
#     4   9  18  30  51  87 124 161 186 235 304 380
#     4  11  23  40  60  92 122 160 212 250 308 367
#     4  11  21  33  53  85 126 165 202 239 303 385
#     4  10  22  43  67  88 118 164 219 266 304 358
#     4  11  23  33  52  84 131 167 198 241 308 376
#     4  10  22  38  61  92 125 160 206 252 314 377
#     4  11  21  31  52  85 129 164 194 245 293 369
#     4   9  19  34  56  87 125 158 204 245 311 366
#
# _framework density 19.879757999999999
#
# number of rings (size 3 to 8) (size 9 to 14) (size 15 to 20)
#    0.000    1.750    3.750    1.500    7.000    3.500 
#    0.000    0.000    0.000    3.000    0.000    0.000 
#    0.000    0.000    0.000    0.000    0.000    0.000 
#
# Total GULP energy -89085.487231 kJ/mol
# GULP energy per Si atom -5567.842952 kJ/mol
# Density = 1.983451 g / cm^3
# Si number density = 19.879758 Si / 1000 Ang^3
#
#
#
# Elastic Constant Matrix: (Units=GPa)
#
#
# Indices 1 2 3 4 5 6 
#
# 1 110.8158 20.6961 25.4062 0.0000 11.2351 0.0000
# 2 20.6961 62.9774 1.3839 0.0000 -1.4113 0.0000
# 3 25.4062 1.3839 91.5014 0.0001 6.6660 0.0000
# 4 0.0000 0.0000 0.0001 13.1454 0.0000 5.9305
# 5 11.2351 -1.4113 6.6660 0.0000 13.2095 0.0000
# 6 0.0000 0.0000 0.0000 5.9305 0.0000 26.9328
#
#
#
# Elastic Compliance Matrix: (Units=1/GPa)
#
#
# Indices 1 2 3 4 5 6 
#
# 1 0.011170 -0.003813 -0.002411 0.000000 -0.008691 0.000000
# 2 -0.003813 0.017231 0.000444 0.000000 0.004860 0.000000
# 3 -0.002411 0.000444 0.011875 0.000000 -0.003895 0.000000
# 4 0.000000 0.000000 0.000000 0.084463 0.000000 -0.018598
# 5 -0.008691 0.004860 -0.003895 0.000000 0.085580 0.000000
# 6 0.000000 0.000000 0.000000 -0.018598 0.000000 0.041225
#
#
# Mechanical properties :
#
#
# Convention : Reuss Voigt Hill
#
# Bulk Modulus (GPa) = 34.82202 40.02965 37.42583
# Shear Modulus (GPa) = 18.33694 25.17811 21.75752
#
# Velocity S-wave (km/s) = 3.04039 3.56268 3.31185
# Velocity P-wave (km/s) = 5.46622 6.09124 5.78718
#
# Compressibility (1/GPa) = 0.02871746
#
# Stress axis : x y z
#
# Youngs Moduli (GPa) = 89.52683 58.03574 84.20950
#
# Poissons Ratio (x) = 0.22126 0.20299
# Poissons Ratio (y) = 0.34132 -0.03739
# Poissons Ratio (z) = 0.21581 -0.02577
#
# Static dielectric constant tensor:
#      x y z
#    x 1.756920 0.000000 -0.039870 
#    y 0.000000 1.815730 0.000000 
#    z -0.039870 0.000000 1.664810 
# 
# From -- ./inp_files/69104.got.cif
#   From: 2010.05.17/outbox.cif.g08.bks.cpg/sg5_35_cif.got.tgz:69104.got - 2010.06.03 18:56:24.
