data_PCOD9126780
_publ_section_title
;
Structure prediction by ZEFSAII (Michael W. Deem and Ramdas Pophale) SiO2 
 PCOD9126780
Probable space group: C 2
;
_chemical_formula_sum "Si O2"
_cell_formula_units_Z 26
_cell_length_a 8.546177
_cell_length_b 21.239816
_cell_length_c 8.911111
_cell_angle_alpha 90.000000
_cell_angle_beta 51.973766
_cell_angle_gamma 90.000000
_cell_volume 1274.181217
_symmetry_space_group_name_H-M "C 2"
_symmetry_group_IT_number 5
_symmetry_cell_setting 'monoclinic'
loop_
_space_group_symop_operation_xyz
x,y,z
-x,y,-z
1/2+x,1/2+y,z
1/2-x,1/2+y,-z
loop_
_atom_site_type_symbol
_atom_site_label
_atom_site_fract_x
_atom_site_fract_y
_atom_site_fract_z
Si Si1 0.683795 0.049800 0.004697
Si Si2 0.418716 0.513547 0.388588
Si Si3 0.292261 0.769356 0.691552
Si Si4 0.883022 0.352812 0.926004
Si Si5 0.971877 0.864967 0.342911
Si Si6 0.500000 0.169795 0.000000
Si Si7 0.013092 0.470225 0.657945
O O1 0.908353 0.037223 0.820775
O O2 0.500000 0.024705 0.000000
O O3 0.631368 0.123273 0.026491
O O4 0.662867 0.013187 0.172931
O O5 0.500000 0.534400 0.500000
O O6 0.406581 0.437434 0.389544
O O7 0.184317 0.523572 0.536199
O O8 0.500000 0.747535 0.500000
O O9 0.342502 0.804810 0.816768
O O10 0.182436 0.819277 0.647915
O O11 0.142293 0.713269 0.817310
O O12 0.004677 0.411834 0.781130
O O13 0.670142 0.369247 0.124438
O O14 0.000000 0.326787 0.000000
O O15 0.000000 0.844586 0.500000
O O16 0.000000 0.441822 0.500000
#
# Coordination Sequence:
#
# PCOD9126780 Si02
#       7
#     4   4   4   4   4   2   4
#     4  10  22  42  65  90 124 173 223 263 319 391
#     4  11  19  36  65  93 127 167 209 259 328 402
#     4  12  24  44  66  99 135 176 223 278 328 395
#     4  12  22  40  66  99 137 173 214 276 338 403
#     4  11  22  37  65 101 135 173 213 267 342 402
#     4  10  24  44  70  88 128 180 236 268 318 386
#     4  12  24  38  63 101 137 165 208 275 342 402
#
# _framework density 20.405260999999999
#
# number of rings (size 3 to 8) (size 9 to 14) (size 15 to 20)
#    0.462    0.308    4.615    5.538    0.000    2.462 
#    0.000    0.769    3.385    0.000    0.000    0.000 
#    0.000    0.000    0.000    0.000    0.000    0.000 
#
# Total GULP energy -72409.712700 kJ/mol
# GULP energy per Si atom -5569.977900 kJ/mol
# Density = 2.035882 g / cm^3
# Si number density = 20.405261 Si / 1000 Ang^3
#
#
#
# Elastic Constant Matrix: (Units=GPa)
#
#
# Indices 1 2 3 4 5 6 
#
# 1 74.0408 21.3204 38.7461 0.0000 3.5755 0.0000
# 2 21.3204 77.5797 36.7184 0.0000 6.9260 0.0000
# 3 38.7461 36.7184 171.3414 0.0000 -13.3200 0.0000
# 4 0.0000 0.0000 0.0000 9.1645 0.0000 -28.9424
# 5 3.5755 6.9260 -13.3200 0.0000 45.1865 0.0000
# 6 0.0000 0.0000 0.0000 -28.9424 0.0000 -63.3491
#
#
#
# Elastic Compliance Matrix: (Units=1/GPa)
#
#
# Indices 1 2 3 4 5 6 
#
# 1 0.016047 -0.002746 -0.003179 0.000000 -0.001786 0.000000
# 2 -0.002746 0.015275 -0.002884 0.000000 -0.002974 0.000000
# 3 -0.003179 -0.002884 0.007397 0.000000 0.002874 0.000000
# 4 0.000000 0.000000 0.000000 0.044668 0.000000 -0.020407
# 5 -0.001786 -0.002974 0.002874 0.000000 0.023575 0.000000
# 6 0.000000 0.000000 0.000000 -0.020407 0.000000 -0.006462
#
#
# Mechanical properties :
#
#
# Convention : Reuss Voigt Hill
#
# Bulk Modulus (GPa) = 47.39123 57.39240 52.39182
# Shear Modulus (GPa) = 39.95211 13.27886 26.61549
#
# Velocity S-wave (km/s) = 4.42965 2.55376 3.61549
# Velocity P-wave (km/s) = 7.03121 6.07313 6.56966
#
# Compressibility (1/GPa) = 0.02110095
#
# Stress axis : x y z
#
# Youngs Moduli (GPa) = 62.31840 65.46673 135.19734
#
# Poissons Ratio (x) = 0.17976 0.42981
# Poissons Ratio (y) = 0.17111 0.38987
# Poissons Ratio (z) = 0.19812 0.18879
#
# Static dielectric constant tensor:
#      x y z
#    x 2.635180 0.000000 -0.871390 
#    y 0.000000 1.703610 0.000000 
#    z -0.871390 0.000000 2.655280 
# 
# From -- ./inp_files/17011.got.cif
#   From: 2010.05.17/outbox.cif.g08.bks.cpg/sg5_9_cif.got.tgz:17011.got - 2010.06.03 18:56:24.
