data_PCOD9126096
_publ_section_title
;
Structure prediction by ZEFSAII (Michael W. Deem and Ramdas Pophale) SiO2 
 PCOD9126096
Probable space group: C 2
;
_chemical_formula_sum "Si O2"
_cell_formula_units_Z 26
_cell_length_a 12.922353
_cell_length_b 8.016173
_cell_length_c 14.871714
_cell_angle_alpha 90.000000
_cell_angle_beta 56.931583
_cell_angle_gamma 90.000000
_cell_volume 1290.993011
_symmetry_space_group_name_H-M "C 2"
_symmetry_group_IT_number 5
_symmetry_cell_setting 'monoclinic'
loop_
_space_group_symop_operation_xyz
x,y,z
-x,y,-z
1/2+x,1/2+y,z
1/2-x,1/2+y,-z
loop_
_atom_site_type_symbol
_atom_site_label
_atom_site_fract_x
_atom_site_fract_y
_atom_site_fract_z
Si Si1 0.139073 0.562760 0.394488
Si Si2 0.123261 0.600214 0.031017
Si Si3 0.635393 0.955765 0.846293
Si Si4 0.372040 0.737839 0.507894
Si Si5 0.500000 0.389313 0.000000
Si Si6 0.273137 0.904995 0.390826
Si Si7 0.737976 0.597781 0.848945
O O1 0.194952 0.386517 0.403771
O O2 0.195689 0.737733 0.402970
O O3 0.162406 0.559178 0.276252
O O4 0.000000 0.560906 0.500000
O O5 0.053004 0.775017 0.055376
O O6 0.207018 0.587055 0.077319
O O7 0.013286 0.464727 0.087049
O O8 0.180502 0.579381 0.904156
O O9 0.678828 0.982849 0.724733
O O10 0.689642 0.781595 0.851376
O O11 0.500000 0.705582 0.500000
O O12 0.376892 0.829968 0.408558
O O13 0.303272 0.560216 0.531430
O O14 0.385278 0.488656 0.093898
#
# Coordination Sequence:
#
# PCOD9126096 Si02
#       7
#     4   4   4   4   2   4   4
#     4  10  24  43  65 100 129 175 223 265 333 392
#     4  10  22  40  63  90 129 167 206 271 325 378
#     4   9  22  40  60  94 124 167 212 263 328 378
#     4  11  24  40  63  94 122 171 219 262 326 388
#     4  10  22  38  62 100 116 162 224 248 320 396
#     4  11  22  44  66  90 137 168 217 282 317 388
#     4  11  22  41  66  89 130 167 210 271 317 389
#
# _framework density 20.139534999999999
#
# number of rings (size 3 to 8) (size 9 to 14) (size 15 to 20)
#    0.000    1.846    1.538    2.308    8.615    0.000 
#    0.000    7.692    0.000    0.000    0.000    0.000 
#    0.000    0.000    0.000    0.000    0.000    0.000 
#
# Total GULP energy -72369.908496 kJ/mol
# GULP energy per Si atom -5566.916038 kJ/mol
# Density = 2.009370 g / cm^3
# Si number density = 20.139535 Si / 1000 Ang^3
#
#
#
# Elastic Constant Matrix: (Units=GPa)
#
#
# Indices 1 2 3 4 5 6 
#
# 1 102.9853 39.8651 59.6303 0.0000 20.8345 0.0000
# 2 39.8651 79.6353 24.3878 0.0000 7.6313 0.0000
# 3 59.6303 24.3878 111.3630 0.0000 17.4140 0.0000
# 4 0.0000 0.0000 0.0000 61.5711 0.0000 -25.0945
# 5 20.8345 7.6313 17.4140 0.0000 32.0764 0.0000
# 6 0.0000 0.0000 0.0000 -25.0945 0.0000 44.7015
#
#
#
# Elastic Compliance Matrix: (Units=1/GPa)
#
#
# Indices 1 2 3 4 5 6 
#
# 1 0.017282 -0.005927 -0.007017 0.000000 -0.006006 0.000000
# 2 -0.005927 0.015583 -0.000285 0.000000 0.000297 0.000000
# 3 -0.007017 -0.000285 0.013196 0.000000 -0.002539 0.000000
# 4 0.000000 0.000000 0.000000 0.021060 0.000000 0.011823
# 5 -0.006006 0.000297 -0.002539 0.000000 0.036384 0.000000
# 6 0.000000 0.000000 0.000000 0.011823 0.000000 0.029008
#
#
# Mechanical properties :
#
#
# Convention : Reuss Voigt Hill
#
# Bulk Modulus (GPa) = 51.01197 60.19444 55.60320
# Shear Modulus (GPa) = 30.21027 39.00984 34.61006
#
# Velocity S-wave (km/s) = 3.87725 4.40589 4.14999
# Velocity P-wave (km/s) = 6.74005 7.47235 7.11563
#
# Compressibility (1/GPa) = 0.01960324
#
# Stress axis : x y z
#
# Youngs Moduli (GPa) = 57.86235 64.17150 75.77850
#
# Poissons Ratio (x) = 0.38035 0.53173
# Poissons Ratio (y) = 0.34296 0.02163
# Poissons Ratio (z) = 0.40601 0.01831
#
# Static dielectric constant tensor:
#      x y z
#    x 1.716310 0.000000 -0.014520 
#    y 0.000000 1.750250 0.000000 
#    z -0.014520 0.000000 1.783160 
# 
# From -- ./inp_files/52189.got.cif
#   From: 2010.05.17/outbox.cif.g08.bks.cpg/sg5_27_cif.got.tgz:52189.got - 2010.06.03 18:56:24.
