data_PCOD9126573
_publ_section_title
;
Structure prediction by ZEFSAII (Michael W. Deem and Ramdas Pophale) SiO2 
 PCOD9126573
Probable space group: C 2
;
_chemical_formula_sum "Si O2"
_cell_formula_units_Z 24
_cell_length_a 14.507785
_cell_length_b 6.423643
_cell_length_c 22.053171
_cell_angle_alpha 90.000000
_cell_angle_beta 151.990274
_cell_angle_gamma 90.000000
_cell_volume 965.164780
_symmetry_space_group_name_H-M "C 2"
_symmetry_group_IT_number 5
_symmetry_cell_setting 'monoclinic'
loop_
_space_group_symop_operation_xyz
x,y,z
-x,y,-z
1/2+x,1/2+y,z
1/2-x,1/2+y,-z
loop_
_atom_site_type_symbol
_atom_site_label
_atom_site_fract_x
_atom_site_fract_y
_atom_site_fract_z
Si Si1 0.297878 0.150920 0.906986
Si Si2 0.001124 0.560921 0.853251
Si Si3 0.193687 0.176071 0.319663
Si Si4 0.572824 0.897047 0.356861
Si Si5 0.054802 0.799889 0.765199
Si Si6 0.902838 0.312159 0.382385
O O1 0.127394 0.307633 0.790254
O O2 0.236516 0.926567 0.843421
O O3 0.500000 0.236659 0.000000
O O4 0.345456 0.095317 0.004031
O O5 0.933483 0.327334 0.797435
O O6 0.797773 0.687570 0.747897
O O7 0.095454 0.662763 0.848157
O O8 0.237460 0.320187 0.404538
O O9 0.345943 0.050924 0.366452
O O10 0.082112 0.983067 0.287582
O O11 0.550639 0.813860 0.411836
O O12 0.549468 0.144579 0.341190
O O13 0.000000 0.223982 0.500000
#
# Coordination Sequence:
#
# PCOD9126573 Si02
#       6
#     4   4   4   4   4   4
#     4  11  22  35  60  95 127 168 206 260 333 404
#     4  10  22  41  63  92 133 162 217 269 325 397
#     4   9  22  43  62  93 125 172 220 274 329 387
#     4  10  22  43  62  95 134 167 220 275 329 400
#     4   9  22  37  62  89 126 172 208 263 325 394
#     4  11  24  44  67  95 127 176 227 273 334 387
#
# _framework density 24.866219999999998
#
# number of rings (size 3 to 8) (size 9 to 14) (size 15 to 20)
#    0.000    2.000    1.667    0.000    9.333    2.667 
#    9.000    0.000    0.000    0.000    0.000    0.000 
#    0.000    0.000    0.000    0.000    0.000    0.000 
#
# Total GULP energy -66978.078835 kJ/mol
# GULP energy per Si atom -5581.506570 kJ/mol
# Density = 2.480962 g / cm^3
# Si number density = 24.866220 Si / 1000 Ang^3
#
#
#
# Elastic Constant Matrix: (Units=GPa)
#
#
# Indices 1 2 3 4 5 6 
#
# 1 88.2803 17.9889 32.4011 0.0000 -17.1942 0.0000
# 2 17.9889 115.1305 44.7000 0.0000 2.8278 -0.0001
# 3 32.4011 44.7000 110.8592 0.0007 -9.1162 0.0004
# 4 0.0000 0.0000 0.0007 14.6531 0.0003 2.3887
# 5 -17.1942 2.8278 -9.1162 0.0003 39.1698 0.0001
# 6 0.0000 -0.0001 0.0004 2.3887 0.0001 26.0606
#
#
#
# Elastic Compliance Matrix: (Units=1/GPa)
#
#
# Indices 1 2 3 4 5 6 
#
# 1 0.013746 -0.001057 -0.003149 0.000000 0.005377 0.000000
# 2 -0.001057 0.010497 -0.004103 0.000000 -0.002177 0.000000
# 3 -0.003149 -0.004103 0.011730 -0.000001 0.001644 0.000000
# 4 0.000000 0.000000 -0.000001 0.069280 -0.000001 -0.006350
# 5 0.005377 -0.002177 0.001644 -0.000001 0.028430 0.000000
# 6 0.000000 0.000000 0.000000 -0.006350 0.000000 0.038954
#
#
# Mechanical properties :
#
#
# Convention : Reuss Voigt Hill
#
# Bulk Modulus (GPa) = 51.66432 56.05000 53.85716
# Shear Modulus (GPa) = 25.54821 30.58869 28.06845
#
# Velocity S-wave (km/s) = 3.20883 3.51113 3.36337
# Velocity P-wave (km/s) = 5.87799 6.24715 6.06538
#
# Compressibility (1/GPa) = 0.01935572
#
# Stress axis : x y z
#
# Youngs Moduli (GPa) = 72.74762 95.26223 85.24930
#
# Poissons Ratio (x) = 0.10071 0.26846
# Poissons Ratio (y) = 0.07691 0.34975
# Poissons Ratio (z) = 0.22909 0.39083
#
# Static dielectric constant tensor:
#      x y z
#    x 2.062230 0.000000 0.020200 
#    y 0.000000 1.995080 0.000000 
#    z 0.020200 0.000000 2.010900 
# 
# From -- ./inp_files/43804.got.cif
#   From: 2010.05.17/outbox.cif.g08.bks.cpg/sg5_22_cif.got.tgz:43804.got - 2010.06.03 18:56:24.
