data_PCOD9126793
_publ_section_title
;
Structure prediction by ZEFSAII (Michael W. Deem and Ramdas Pophale) SiO2 
 PCOD9126793
Probable space group: C 2
;
_chemical_formula_sum "Si O2"
_cell_formula_units_Z 26
_cell_length_a 17.658694
_cell_length_b 7.140375
_cell_length_c 9.782348
_cell_angle_alpha 90.000000
_cell_angle_beta 73.928565
_cell_angle_gamma 90.000000
_cell_volume 1185.246601
_symmetry_space_group_name_H-M "C 2"
_symmetry_group_IT_number 5
_symmetry_cell_setting 'monoclinic'
loop_
_space_group_symop_operation_xyz
x,y,z
-x,y,-z
1/2+x,1/2+y,z
1/2-x,1/2+y,-z
loop_
_atom_site_type_symbol
_atom_site_label
_atom_site_fract_x
_atom_site_fract_y
_atom_site_fract_z
Si Si1 0.407401 0.056700 0.047741
Si Si2 0.632259 0.080714 0.630264
Si Si3 0.704456 0.674108 0.558322
Si Si4 0.000000 0.659262 0.500000
Si Si5 0.698167 0.688541 0.862755
Si Si6 0.917306 0.023918 0.602398
Si Si7 0.653044 0.393433 0.109344
O O1 0.383168 0.139927 0.207564
O O2 0.364236 0.853587 0.067462
O O3 0.500000 0.022593 0.000000
O O4 0.387651 0.215696 0.944890
O O5 0.704244 0.194916 0.527976
O O6 0.548827 0.063103 0.594089
O O7 0.669494 0.877286 0.602939
O O8 0.692670 0.591776 0.716156
O O9 0.652700 0.587495 0.461540
O O10 0.065405 0.801431 0.410187
O O11 0.780168 0.800773 0.829566
O O12 0.693365 0.524378 0.975723
O O13 0.000000 0.104718 0.500000
O O14 0.897754 0.038499 0.772006
#
# Coordination Sequence:
#
# PCOD9126793 Si02
#       7
#     4   4   4   2   4   4   4
#     4  11  26  46  68 104 142 178 237 287 347 419
#     4  11  24  43  70 102 135 186 225 289 350 406
#     4  11  25  44  71 100 141 175 240 284 343 422
#     4  10  22  42  66 100 136 170 230 270 352 400
#     4  11  26  44  74 102 135 189 235 284 353 417
#     4  10  25  44  67 102 138 174 233 282 348 410
#     4  12  24  47  73 100 145 184 231 292 350 416
#
# _framework density 21.936363
#
# number of rings (size 3 to 8) (size 9 to 14) (size 15 to 20)
#    0.462    0.615    1.538    4.615    5.385    3.077 
#    2.769    0.000    0.000    0.000    0.000    0.000 
#    0.000    0.000    0.000    0.000    0.000    0.000 
#
# Total GULP energy -72449.526424 kJ/mol
# GULP energy per Si atom -5573.040494 kJ/mol
# Density = 2.188644 g / cm^3
# Si number density = 21.936363 Si / 1000 Ang^3
#
#
#
# Elastic Constant Matrix: (Units=GPa)
#
#
# Indices 1 2 3 4 5 6 
#
# 1 140.9272 20.4602 38.7348 0.0000 -0.7181 0.0000
# 2 20.4602 32.8300 21.9733 0.0000 -0.8000 0.0000
# 3 38.7348 21.9733 131.9582 0.0000 3.8038 0.0000
# 4 0.0000 0.0000 0.0000 28.6264 0.0000 9.8056
# 5 -0.7181 -0.8000 3.8038 0.0000 31.9837 0.0000
# 6 0.0000 0.0000 0.0000 9.8056 0.0000 41.6868
#
#
#
# Elastic Compliance Matrix: (Units=1/GPa)
#
#
# Indices 1 2 3 4 5 6 
#
# 1 0.008144 -0.003897 -0.001750 0.000000 0.000294 0.000000
# 2 -0.003897 0.036221 -0.004928 0.000000 0.001405 0.000000
# 3 -0.001750 -0.004928 0.008948 0.000000 -0.001227 0.000000
# 4 0.000000 0.000000 0.000000 0.037994 0.000000 -0.008937
# 5 0.000294 0.001405 -0.001227 0.000000 0.031454 0.000000
# 6 0.000000 0.000000 0.000000 -0.008937 0.000000 0.026091
#
#
# Mechanical properties :
#
#
# Convention : Reuss Voigt Hill
#
# Bulk Modulus (GPa) = 31.09184 52.00580 41.54882
# Shear Modulus (GPa) = 27.66668 35.42918 31.54793
#
# Velocity S-wave (km/s) = 3.55523 4.02318 3.79642
# Velocity P-wave (km/s) = 5.57290 6.73352 6.18052
#
# Compressibility (1/GPa) = 0.03216278
#
# Stress axis : x y z
#
# Youngs Moduli (GPa) = 122.78692 27.60816 111.75861
#
# Poissons Ratio (x) = 0.10759 0.19560
# Poissons Ratio (y) = 0.47851 0.55075
# Poissons Ratio (z) = 0.21490 0.13605
#
# Static dielectric constant tensor:
#      x y z
#    x 1.790120 0.000000 0.024080 
#    y 0.000000 1.821040 0.000000 
#    z 0.024080 0.000000 1.924230 
# 
# From -- ./inp_files/26705.got.cif
#   From: 2010.05.17/outbox.cif.g08.bks.cpg/sg5_14_cif.got.tgz:26705.got - 2010.06.03 18:56:24.
