data_PCOD9126943
_publ_section_title
;
Structure prediction by ZEFSAII (Michael W. Deem and Ramdas Pophale) SiO2 
 PCOD9126943
Probable space group: C 2
;
_chemical_formula_sum "Si O2"
_cell_formula_units_Z 30
_cell_length_a 8.534858
_cell_length_b 12.256585
_cell_length_c 12.837777
_cell_angle_alpha 90.000000
_cell_angle_beta 72.924251
_cell_angle_gamma 90.000000
_cell_volume 1283.736734
_symmetry_space_group_name_H-M "C 2"
_symmetry_group_IT_number 5
_symmetry_cell_setting 'monoclinic'
loop_
_space_group_symop_operation_xyz
x,y,z
-x,y,-z
1/2+x,1/2+y,z
1/2-x,1/2+y,-z
loop_
_atom_site_type_symbol
_atom_site_label
_atom_site_fract_x
_atom_site_fract_y
_atom_site_fract_z
Si Si1 0.644543 0.130760 0.254602
Si Si2 0.367580 0.437421 0.196338
Si Si3 0.307681 0.291640 0.565814
Si Si4 0.105411 0.297583 0.147909
Si Si5 0.883227 0.783280 0.935203
Si Si6 0.441303 0.586533 0.722458
Si Si7 0.136985 0.474057 0.732672
Si Si8 0.500000 0.711094 0.500000
O O1 0.698991 0.190606 0.349826
O O2 0.612959 0.221402 0.174046
O O3 0.768862 0.043433 0.178455
O O4 0.483841 0.056334 0.303837
O O5 0.239537 0.338683 0.208993
O O6 0.528083 0.398594 0.104330
O O7 0.435249 0.484347 0.291299
O O8 0.500000 0.299419 0.500000
O O9 0.246567 0.400466 0.635402
O O10 0.166869 0.272703 0.505203
O O11 0.033994 0.183017 0.198788
O O12 0.967651 0.389274 0.179249
O O13 0.206368 0.292591 0.021848
O O14 0.000000 0.728393 0.000000
O O15 0.259161 0.543935 0.777437
O O16 0.451341 0.638720 0.607849
#
# Coordination Sequence:
#
# PCOD9126943 Si02
#       8
#     4   4   4   4   4   4   4   2
#     4  11  23  49  73 102 152 193 246 311 372 451
#     4  10  22  42  71  99 145 189 239 299 368 434
#     4  12  27  52  74 110 151 197 257 323 380 448
#     4  10  23  45  68 107 151 188 241 305 369 447
#     4  10  22  42  74 111 148 195 243 304 371 446
#     4  12  24  45  70 102 147 187 251 309 368 445
#     4  11  24  45  71 104 144 194 245 306 381 442
#     4  12  26  50  78 108 150 202 260 316 386 448
#
# _framework density 23.369274999999998
#
# number of rings (size 3 to 8) (size 9 to 14) (size 15 to 20)
#    0.000    1.067    2.667    3.200    0.933    5.333 
#    3.600   12.000    0.000    0.000    0.000    0.000 
#    0.000    0.000    0.000    0.000    0.000    0.000 
#
# Total GULP energy -83782.846928 kJ/mol
# GULP energy per Si atom -5585.523129 kJ/mol
# Density = 2.331609 g / cm^3
# Si number density = 23.369275 Si / 1000 Ang^3
#
#
#
# Elastic Constant Matrix: (Units=GPa)
#
#
# Indices 1 2 3 4 5 6 
#
# 1 111.8666 48.2442 32.1249 0.0000 -16.7967 0.0000
# 2 48.2442 92.0835 32.2130 0.0000 -13.0258 0.0000
# 3 32.1249 32.2130 83.4428 0.0000 -23.1005 0.0000
# 4 0.0000 0.0000 0.0000 7.8502 0.0000 -6.3606
# 5 -16.7967 -13.0258 -23.1005 0.0000 46.8382 0.0000
# 6 0.0000 0.0000 0.0000 -6.3606 0.0000 50.5273
#
#
#
# Elastic Compliance Matrix: (Units=1/GPa)
#
#
# Indices 1 2 3 4 5 6 
#
# 1 0.012127 -0.005363 -0.002093 0.000000 0.001825 0.000000
# 2 -0.005363 0.014993 -0.003592 0.000000 0.000475 0.000000
# 3 -0.002093 -0.003592 0.015858 0.000000 0.006071 0.000000
# 4 0.000000 0.000000 0.000000 0.141854 0.000000 0.017857
# 5 0.001825 0.000475 0.006071 0.000000 0.025131 0.000000
# 6 0.000000 0.000000 0.000000 0.017857 0.000000 0.022039
#
#
# Mechanical properties :
#
#
# Convention : Reuss Voigt Hill
#
# Bulk Modulus (GPa) = 47.88923 56.95081 52.42002
# Shear Modulus (GPa) = 19.15271 32.69718 25.92494
#
# Velocity S-wave (km/s) = 2.86592 3.74458 3.33432
# Velocity P-wave (km/s) = 5.61143 6.56648 6.10765
#
# Compressibility (1/GPa) = 0.02088152
#
# Stress axis : x y z
#
# Youngs Moduli (GPa) = 82.45806 66.69626 63.06136
#
# Poissons Ratio (x) = 0.35771 0.13200
# Poissons Ratio (y) = 0.44225 0.22651
# Poissons Ratio (z) = 0.17260 0.23956
#
# Static dielectric constant tensor:
#      x y z
#    x 1.995990 0.000000 0.006640 
#    y 0.000000 1.847160 0.000000 
#    z 0.006640 0.000000 1.835350 
# 
# From -- ./inp_files/50477.got.cif
#   From: 2010.05.17/outbox.cif.g08.bks.cpg/sg5_26_cif.got.tgz:50477.got - 2010.06.03 18:56:24.
