data_PCOD9126048
_publ_section_title
;
Structure prediction by ZEFSAII (Michael W. Deem and Ramdas Pophale) SiO2 
 PCOD9126048
Probable space group: C 2
;
_chemical_formula_sum "Si O2"
_cell_formula_units_Z 32
_cell_length_a 8.523184
_cell_length_b 23.443270
_cell_length_c 14.060404
_cell_angle_alpha 90.000000
_cell_angle_beta 31.005237
_cell_angle_gamma 90.000000
_cell_volume 1447.182317
_symmetry_space_group_name_H-M "C 2"
_symmetry_group_IT_number 5
_symmetry_cell_setting 'monoclinic'
loop_
_space_group_symop_operation_xyz
x,y,z
-x,y,-z
1/2+x,1/2+y,z
1/2-x,1/2+y,-z
loop_
_atom_site_type_symbol
_atom_site_label
_atom_site_fract_x
_atom_site_fract_y
_atom_site_fract_z
Si Si1 0.134647 0.993260 0.325172
Si Si2 0.617675 0.292636 0.546455
Si Si3 0.170441 0.198149 0.810102
Si Si4 0.287543 0.621159 0.705894
Si Si5 0.831066 0.237981 0.802495
Si Si6 0.357527 0.397817 0.337562
Si Si7 0.842593 0.960781 0.978280
Si Si8 0.076794 0.084662 0.069001
O O1 0.000000 0.996014 0.500000
O O2 0.939033 0.950636 0.363936
O O3 0.130194 0.059261 0.292723
O O4 0.477902 0.969038 0.161530
O O5 0.500000 0.305103 0.500000
O O6 0.485870 0.231481 0.648634
O O7 0.537965 0.341571 0.661014
O O8 0.978202 0.283678 0.354948
O O9 0.990614 0.230146 0.821087
O O10 0.000000 0.200585 0.000000
O O11 0.164617 0.132903 0.777505
O O12 0.500000 0.627504 0.500000
O O13 0.325363 0.676985 0.751259
O O14 0.917660 0.612298 0.889182
O O15 0.500000 0.257848 0.000000
O O16 0.546950 0.409401 0.144079
O O17 0.000000 0.396231 0.500000
O O18 0.945441 0.021622 0.878025
O O19 0.000000 0.954609 0.000000
O O20 0.000000 0.073202 0.000000
#
# Coordination Sequence:
#
# PCOD9126048 Si02
#       8
#     4   4   4   4   4   4   4   4
#     4  10  22  43  69 102 141 186 229 284 353 417
#     4  10  26  49  68  93 134 182 240 289 348 409
#     4  10  22  41  65  97 135 178 227 275 344 412
#     4  10  22  37  67 103 143 183 219 281 352 416
#     4  11  23  41  67  99 133 177 227 288 342 414
#     4  12  26  45  68  99 136 187 239 299 338 411
#     4  10  22  42  71 104 143 180 230 286 353 415
#     4   9  19  37  64 101 144 177 219 272 342 423
#
# _framework density 22.111934999999999
#
# number of rings (size 3 to 8) (size 9 to 14) (size 15 to 20)
#    0.000    1.750    1.250    1.500    5.250    3.500 
#    0.000    5.625    0.000    0.000    0.000    0.000 
#    0.000    0.000    0.000    0.000    0.000    0.000 
#
# Total GULP energy -89287.664231 kJ/mol
# GULP energy per Si atom -5580.479014 kJ/mol
# Density = 2.206161 g / cm^3
# Si number density = 22.111935 Si / 1000 Ang^3
#
#
#
# Elastic Constant Matrix: (Units=GPa)
#
#
# Indices 1 2 3 4 5 6 
#
# 1 72.7093 29.4084 21.7902 0.0000 5.5412 -0.0001
# 2 29.4084 95.5572 53.6937 0.0000 -1.1557 0.0000
# 3 21.7902 53.6937 90.9741 0.0000 0.7143 0.0000
# 4 0.0000 0.0000 0.0000 34.1545 0.0000 10.6563
# 5 5.5412 -1.1557 0.7143 0.0000 29.2369 0.0000
# 6 -0.0001 0.0000 0.0000 10.6563 0.0000 11.5207
#
#
#
# Elastic Compliance Matrix: (Units=1/GPa)
#
#
# Indices 1 2 3 4 5 6 
#
# 1 0.016114 -0.004254 -0.001324 0.000000 -0.003190 0.000000
# 2 -0.004254 0.016801 -0.008911 0.000000 0.001688 0.000000
# 3 -0.001324 -0.008911 0.016572 0.000000 -0.000506 0.000000
# 4 0.000000 0.000000 0.000000 0.041156 0.000000 -0.038068
# 5 -0.003190 0.001688 -0.000506 0.000000 0.034887 0.000000
# 6 0.000000 0.000000 0.000000 -0.038068 0.000000 0.122013
#
#
# Mechanical properties :
#
#
# Convention : Reuss Voigt Hill
#
# Bulk Modulus (GPa) = 48.75496 52.11392 50.43444
# Shear Modulus (GPa) = 17.64556 25.27231 21.45894
#
# Velocity S-wave (km/s) = 2.82797 3.38439 3.11861
# Velocity P-wave (km/s) = 5.72366 6.23630 5.98547
#
# Compressibility (1/GPa) = 0.02051073
#
# Stress axis : x y z
#
# Youngs Moduli (GPa) = 62.05866 59.51871 60.34124
#
# Poissons Ratio (x) = 0.25318 0.07989
# Poissons Ratio (y) = 0.26398 0.53768
# Poissons Ratio (z) = 0.08216 0.53036
#
# Static dielectric constant tensor:
#      x y z
#    x 1.872050 0.000000 -0.024240 
#    y 0.000000 1.837030 0.000000 
#    z -0.024240 0.000000 1.826940 
# 
# From -- ./inp_files/51661.got.cif
#   From: 2010.05.17/outbox.cif.g08.bks.cpg/sg5_26_cif.got.tgz:51661.got - 2010.06.03 18:56:24.
