data_PCOD9126272
_publ_section_title
;
Structure prediction by ZEFSAII (Michael W. Deem and Ramdas Pophale) SiO2 
 PCOD9126272
Probable space group: C 2
;
_chemical_formula_sum "Si O2"
_cell_formula_units_Z 18
_cell_length_a 13.849421
_cell_length_b 5.054866
_cell_length_c 10.383825
_cell_angle_alpha 90.000000
_cell_angle_beta 66.424181
_cell_angle_gamma 90.000000
_cell_volume 666.263578
_symmetry_space_group_name_H-M "C 2"
_symmetry_group_IT_number 5
_symmetry_cell_setting 'monoclinic'
loop_
_space_group_symop_operation_xyz
x,y,z
-x,y,-z
1/2+x,1/2+y,z
1/2-x,1/2+y,-z
loop_
_atom_site_type_symbol
_atom_site_label
_atom_site_fract_x
_atom_site_fract_y
_atom_site_fract_z
Si Si1 0.886366 0.280510 0.992313
Si Si2 0.238917 0.799188 0.593804
Si Si3 0.000000 0.977657 0.500000
Si Si4 0.927011 0.445383 0.682730
Si Si5 0.380087 0.272920 0.108354
O O1 0.905859 0.403955 0.843563
O O2 0.826474 0.491579 0.112114
O O3 0.000000 0.227354 0.000000
O O4 0.834447 0.996111 0.039030
O O5 0.251925 0.513777 0.523329
O O6 0.326105 0.850855 0.655265
O O7 0.132637 0.828911 0.734180
O O8 0.052137 0.745420 0.379293
O O9 0.985661 0.216728 0.398903
O O10 0.500000 0.227565 0.000000
#
# Coordination Sequence:
#
# PCOD9126272 Si02
#       5
#     4   4   2   4   4
#     4  10  22  39  64  94 128 173 230 283 334 401
#     4  12  27  45  69 102 143 185 230 288 348 410
#     4  10  24  42  68  98 140 184 228 284 352 418
#     4  11  24  42  66 101 139 181 233 286 344 414
#     4  10  23  42  67  96 134 182 231 278 340 414
#
# _framework density 27.016335000000002
#
# number of rings (size 3 to 8) (size 9 to 14) (size 15 to 20)
#    0.000    1.333    0.000    4.000    0.000   23.111 
#    0.000    0.000    0.000    0.000    0.000    0.000 
#    0.000    0.000    0.000    0.000    0.000    0.000 
#
# Total GULP energy -50171.996618 kJ/mol
# GULP energy per Si atom -5574.666291 kJ/mol
# Density = 2.695485 g / cm^3
# Si number density = 27.016335 Si / 1000 Ang^3
#
#
#
# Elastic Constant Matrix: (Units=GPa)
#
#
# Indices 1 2 3 4 5 6 
#
# 1 75.2517 -19.6818 24.6707 0.0002 5.8313 0.0001
# 2 -19.6818 182.8857 3.2397 0.0005 -11.9107 0.0007
# 3 24.6707 3.2397 159.8785 0.0001 -16.8201 0.0002
# 4 0.0002 0.0005 0.0001 44.0253 0.0001 -6.1517
# 5 5.8313 -11.9107 -16.8201 0.0001 45.7583 0.0001
# 6 0.0001 0.0007 0.0002 -6.1517 0.0001 13.3387
#
#
#
# Elastic Compliance Matrix: (Units=1/GPa)
#
#
# Indices 1 2 3 4 5 6 
#
# 1 0.014698 0.001469 -0.002553 0.000000 -0.002429 0.000000
# 2 0.001469 0.005709 -0.000214 0.000000 0.001220 0.000000
# 3 -0.002553 -0.000214 0.006950 0.000000 0.002825 0.000000
# 4 0.000000 0.000000 0.000000 0.024279 0.000000 0.011197
# 5 -0.002429 0.001220 0.002825 0.000000 0.023519 0.000000
# 6 0.000000 0.000000 0.000000 0.011197 0.000000 0.080134
#
#
# Mechanical properties :
#
#
# Convention : Reuss Voigt Hill
#
# Bulk Modulus (GPa) = 40.38671 48.27479 44.33075
# Shear Modulus (GPa) = 30.09494 47.94359 39.01927
#
# Velocity S-wave (km/s) = 3.34122 4.21719 3.80450
# Velocity P-wave (km/s) = 5.46502 6.45139 5.97858
#
# Compressibility (1/GPa) = 0.02476062
#
# Stress axis : x y z
#
# Youngs Moduli (GPa) = 68.03515 175.15499 143.87956
#
# Poissons Ratio (x) = -0.25727 0.36739
# Poissons Ratio (y) = -0.09993 0.03078
# Poissons Ratio (z) = 0.17372 0.03748
#
# Static dielectric constant tensor:
#      x y z
#    x 3.215820 0.000000 -0.253990 
#    y 0.000000 2.232340 0.000000 
#    z -0.253990 0.000000 2.180630 
# 
# From -- ./inp_files/25836.got.cif
#   From: 2010.05.17/outbox.cif.g08.bks.cpg/sg5_13_cif.got.tgz:25836.got - 2010.06.03 18:56:24.
