data_PCOD9126300
_publ_section_title
;
Structure prediction by ZEFSAII (Michael W. Deem and Ramdas Pophale) SiO2 
 PCOD9126300
Probable space group: C 2
;
_chemical_formula_sum "Si O2"
_cell_formula_units_Z 32
_cell_length_a 20.589990
_cell_length_b 13.063930
_cell_length_c 8.682004
_cell_angle_alpha 90.000000
_cell_angle_beta 37.493848
_cell_angle_gamma 90.000000
_cell_volume 1421.465462
_symmetry_space_group_name_H-M "C 2"
_symmetry_group_IT_number 5
_symmetry_cell_setting 'monoclinic'
loop_
_space_group_symop_operation_xyz
x,y,z
-x,y,-z
1/2+x,1/2+y,z
1/2-x,1/2+y,-z
loop_
_atom_site_type_symbol
_atom_site_label
_atom_site_fract_x
_atom_site_fract_y
_atom_site_fract_z
Si Si1 0.661273 0.495840 0.805643
Si Si2 0.004924 0.185129 0.160610
Si Si3 0.260806 0.645311 0.591852
Si Si4 0.800633 0.439708 0.839757
Si Si5 0.669277 0.143561 0.094218
Si Si6 0.109982 0.230575 0.244128
Si Si7 0.396419 0.351115 0.621958
Si Si8 0.395502 0.294491 0.263716
O O1 0.724485 0.547892 0.545265
O O2 0.738778 0.465191 0.799026
O O3 0.610994 0.394127 0.831432
O O4 0.569506 0.577030 0.028183
O O5 0.078317 0.255300 0.128962
O O6 0.879932 0.168747 0.433141
O O7 0.000000 0.229499 0.000000
O O8 0.210860 0.730746 0.573821
O O9 0.183978 0.638360 0.883709
O O10 0.868561 0.536978 0.764922
O O11 0.866169 0.334343 0.709118
O O12 0.709370 0.415304 0.139657
O O13 0.613579 0.246072 0.259027
O O14 0.788849 0.158971 0.936837
O O15 0.000000 0.177516 0.500000
O O16 0.500000 0.404753 0.500000
O O17 0.404081 0.323380 0.427628
O O18 0.500000 0.237023 0.000000
#
# Coordination Sequence:
#
# PCOD9126300 Si02
#       8
#     4   4   4   4   4   4   4   4
#     4  11  23  43  66 104 135 175 225 279 339 400
#     4  10  22  39  67  95 132 170 221 275 335 394
#     4  11  23  40  69  98 134 177 220 279 340 402
#     4  11  24  39  66  97 133 172 225 277 331 398
#     4  11  22  42  63  96 129 171 225 270 334 401
#     4  11  22  41  63  94 134 176 222 270 334 397
#     4  11  25  42  66  92 131 178 220 279 332 402
#     4  12  24  43  67  96 136 176 224 279 344 403
#
# _framework density 22.511979
#
# number of rings (size 3 to 8) (size 9 to 14) (size 15 to 20)
#    0.000    1.000    2.500    5.625    5.250    2.000 
#    0.000    1.250    0.000    0.000    0.000    0.000 
#    0.000    0.000    0.000    0.000    0.000    0.000 
#
# Total GULP energy -89397.580566 kJ/mol
# GULP energy per Si atom -5587.348785 kJ/mol
# Density = 2.246074 g / cm^3
# Si number density = 22.511979 Si / 1000 Ang^3
#
#
#
# Elastic Constant Matrix: (Units=GPa)
#
#
# Indices 1 2 3 4 5 6 
#
# 1 143.3343 13.4606 24.8313 0.0000 14.4657 0.0000
# 2 13.4606 67.7948 -4.4511 0.0000 -0.0196 0.0000
# 3 24.8313 -4.4511 67.2701 0.0000 1.6861 0.0000
# 4 0.0000 0.0000 0.0000 11.9751 0.0000 10.0558
# 5 14.4657 -0.0196 1.6861 0.0000 37.6615 0.0000
# 6 0.0000 0.0000 0.0000 10.0558 0.0000 35.3139
#
#
#
# Elastic Compliance Matrix: (Units=1/GPa)
#
#
# Indices 1 2 3 4 5 6 
#
# 1 0.007955 -0.001776 -0.002981 0.000000 -0.002923 0.000000
# 2 -0.001776 0.015211 0.001647 0.000000 0.000616 0.000000
# 3 -0.002981 0.001647 0.016064 0.000000 0.000427 0.000000
# 4 0.000000 0.000000 0.000000 0.109749 0.000000 -0.031252
# 5 -0.002923 0.000616 0.000427 0.000000 0.027656 0.000000
# 6 0.000000 0.000000 0.000000 -0.031252 0.000000 0.037216
#
#
# Mechanical properties :
#
#
# Convention : Reuss Voigt Hill
#
# Bulk Modulus (GPa) = 30.29372 38.45343 34.37357
# Shear Modulus (GPa) = 21.63800 33.29400 27.46600
#
# Velocity S-wave (km/s) = 3.10365 3.84988 3.49673
# Velocity P-wave (km/s) = 5.13122 6.07293 5.62183
#
# Compressibility (1/GPa) = 0.03301014
#
# Stress axis : x y z
#
# Youngs Moduli (GPa) = 125.70984 65.74062 62.25125
#
# Poissons Ratio (x) = 0.11675 0.18555
# Poissons Ratio (y) = 0.22326 -0.10250
# Poissons Ratio (z) = 0.37469 -0.10825
#
# Static dielectric constant tensor:
#      x y z
#    x 1.889000 0.000000 0.039250 
#    y 0.000000 1.802640 0.000000 
#    z 0.039250 0.000000 1.962300 
# 
# From -- ./inp_files/29829.got.cif
#   From: 2010.05.17/outbox.cif.g08.bks.cpg/sg5_15_cif.got.tgz:29829.got - 2010.06.03 18:56:24.
