data_PCOD9126203
_publ_section_title
;
Structure prediction by ZEFSAII (Michael W. Deem and Ramdas Pophale) SiO2 
 PCOD9126203
Probable space group: C 2
;
_chemical_formula_sum "Si O2"
_cell_formula_units_Z 24
_cell_length_a 10.712372
_cell_length_b 20.468090
_cell_length_c 5.450801
_cell_angle_alpha 90.000000
_cell_angle_beta 120.057102
_cell_angle_gamma 90.000000
_cell_volume 1034.436277
_symmetry_space_group_name_H-M "C 2"
_symmetry_group_IT_number 5
_symmetry_cell_setting 'monoclinic'
loop_
_space_group_symop_operation_xyz
x,y,z
-x,y,-z
1/2+x,1/2+y,z
1/2-x,1/2+y,-z
loop_
_atom_site_type_symbol
_atom_site_label
_atom_site_fract_x
_atom_site_fract_y
_atom_site_fract_z
Si Si1 0.265589 0.466860 0.032087
Si Si2 0.578774 0.244983 0.318320
Si Si3 0.094948 0.106638 0.839667
Si Si4 0.171319 0.230976 0.141774
Si Si5 0.835775 0.367302 0.746492
Si Si6 0.500000 0.375902 0.000000
Si Si7 0.500000 0.908260 0.500000
O O1 0.110289 0.455711 0.753077
O O2 0.313127 0.541044 0.089081
O O3 0.251318 0.432554 0.284515
O O4 0.384755 0.423053 0.012297
O O5 0.500000 0.231829 0.500000
O O6 0.739196 0.218019 0.522244
O O7 0.573475 0.323610 0.260611
O O8 0.500000 0.217719 0.000000
O O9 0.000000 0.112809 0.500000
O O10 0.189554 0.172003 0.974299
O O11 0.000000 0.101419 0.000000
O O12 0.219877 0.306026 0.149068
O O13 0.000000 0.237113 0.000000
O O14 0.882406 0.360270 0.511987
O O15 0.000000 0.378933 0.000000
#
# Coordination Sequence:
#
# PCOD9126203 Si02
#       7
#     4   4   4   4   4   2   2
#     4  11  22  42  71 104 146 191 246 305 369 446
#     4  10  23  41  66 107 140 183 237 303 374 419
#     4  11  27  48  71 106 146 200 250 301 370 446
#     4  10  22  46  71 102 148 192 248 297 365 443
#     4   9  20  39  68 109 138 183 243 309 367 427
#     4  10  22  38  72 106 150 184 240 310 374 442
#     4  10  22  40  72 110 142 188 246 306 380 432
#
# _framework density 23.201042000000001
#
# number of rings (size 3 to 8) (size 9 to 14) (size 15 to 20)
#    0.500    1.333    0.833    2.000    2.333    4.667 
#   25.500    0.000    0.000    0.000    0.000    0.000 
#    0.000    0.000    0.000    0.000    0.000    0.000 
#
# Total GULP energy -66822.632820 kJ/mol
# GULP energy per Si atom -5568.552735 kJ/mol
# Density = 2.314824 g / cm^3
# Si number density = 23.201042 Si / 1000 Ang^3
#
#
#
# Elastic Constant Matrix: (Units=GPa)
#
#
# Indices 1 2 3 4 5 6 
#
# 1 87.5144 45.8864 50.6653 0.0000 -3.7680 0.0000
# 2 45.8864 165.7519 56.3833 0.0000 -3.5523 0.0000
# 3 50.6653 56.3833 168.5426 0.0000 17.1208 0.0000
# 4 0.0000 0.0000 0.0000 25.3222 0.0000 0.5879
# 5 -3.7680 -3.5523 17.1208 0.0000 41.9309 0.0000
# 6 0.0000 0.0000 0.0000 0.5879 0.0000 26.5440
#
#
#
# Elastic Compliance Matrix: (Units=1/GPa)
#
#
# Indices 1 2 3 4 5 6 
#
# 1 0.015310 -0.002843 -0.003930 0.000000 0.002739 0.000000
# 2 -0.002843 0.007437 -0.001743 0.000000 0.001086 0.000000
# 3 -0.003930 -0.001743 0.008084 0.000000 -0.003802 0.000000
# 4 0.000000 0.000000 0.000000 0.039511 0.000000 -0.000875
# 5 0.002739 0.001086 -0.003802 0.000000 0.025739 0.000000
# 6 0.000000 0.000000 0.000000 -0.000875 0.000000 0.037693
#
#
# Mechanical properties :
#
#
# Convention : Reuss Voigt Hill
#
# Bulk Modulus (GPa) = 72.47159 80.85320 76.66240
# Shear Modulus (GPa) = 32.17384 36.68435 34.42909
#
# Velocity S-wave (km/s) = 3.72794 3.98068 3.85638
# Velocity P-wave (km/s) = 7.05933 7.48681 7.27621
#
# Compressibility (1/GPa) = 0.01379851
#
# Stress axis : x y z
#
# Youngs Moduli (GPa) = 65.31539 134.47115 123.70250
#
# Poissons Ratio (x) = 0.38231 0.48610
# Poissons Ratio (y) = 0.18570 0.21567
# Poissons Ratio (z) = 0.25666 0.23445
#
# Static dielectric constant tensor:
#      x y z
#    x 2.061590 0.000000 -0.111610 
#    y 0.000000 1.859420 0.000000 
#    z -0.111610 0.000000 2.234430 
# 
# From -- ./inp_files/5546.got.cif
#   From: 2010.05.17/outbox.cif.g08.bks.cpg/sg5_3_cif.got.tgz:5546.got - 2010.06.03 18:56:24.
