data_PCOD9126251
_publ_section_title
;
Structure prediction by ZEFSAII (Michael W. Deem and Ramdas Pophale) SiO2 
 PCOD9126251
Probable space group: C 2
;
_chemical_formula_sum "Si O2"
_cell_formula_units_Z 20
_cell_length_a 8.815253
_cell_length_b 13.369879
_cell_length_c 12.260953
_cell_angle_alpha 90.000000
_cell_angle_beta 33.781179
_cell_angle_gamma 90.000000
_cell_volume 803.487164
_symmetry_space_group_name_H-M "C 2"
_symmetry_group_IT_number 5
_symmetry_cell_setting 'monoclinic'
loop_
_space_group_symop_operation_xyz
x,y,z
-x,y,-z
1/2+x,1/2+y,z
1/2-x,1/2+y,-z
loop_
_atom_site_type_symbol
_atom_site_label
_atom_site_fract_x
_atom_site_fract_y
_atom_site_fract_z
Si Si1 0.473050 0.294910 0.284288
Si Si2 0.971679 0.158846 0.363543
Si Si3 0.311879 0.978370 0.453187
Si Si4 0.762436 0.339521 0.893410
Si Si5 0.776492 0.143900 0.228546
O O1 0.243356 0.209283 0.424646
O O2 0.304728 0.396904 0.393213
O O3 0.644391 0.253610 0.285015
O O4 0.680363 0.303417 0.061416
O O5 0.886431 0.145680 0.285648
O O6 0.197372 0.243748 0.210571
O O7 0.957874 0.044484 0.409393
O O8 0.470947 0.908660 0.271600
O O9 0.547185 0.057075 0.349658
O O10 0.500000 0.395186 0.000000
O O11 0.000000 0.129777 0.000000
#
# Coordination Sequence:
#
# PCOD9126251 Si02
#       5
#     4   4   4   4   4
#     4  10  22  39  62  94 130 157 206 261 315 359
#     4  10  23  42  65  94 125 164 209 260 315 365
#     4  10  23  36  64  95 120 159 212 253 304 368
#     4  11  24  39  63  94 128 165 207 258 311 368
#     4  11  21  41  70  93 123 161 214 264 306 368
#
# _framework density 24.891499
#
# number of rings (size 3 to 8) (size 9 to 14) (size 15 to 20)
#    0.000    1.600    2.000    3.000    8.400    2.400 
#    0.000    1.000   35.200    0.000    0.000    0.000 
#    0.000    0.000    0.000    0.000    0.000    0.000 
#
# Total GULP energy -55714.868210 kJ/mol
# GULP energy per Si atom -5571.486821 kJ/mol
# Density = 2.483484 g / cm^3
# Si number density = 24.891499 Si / 1000 Ang^3
#
#
#
# Elastic Constant Matrix: (Units=GPa)
#
#
# Indices 1 2 3 4 5 6 
#
# 1 73.1459 14.5352 8.2024 -0.0075 24.2261 0.0035
# 2 14.5352 138.3580 50.3699 -0.0151 -4.6108 0.0094
# 3 8.2024 50.3699 185.9042 -0.0244 25.8271 0.0164
# 4 -0.0075 -0.0151 -0.0244 26.0058 0.0119 -15.4018
# 5 24.2261 -4.6108 25.8271 0.0119 40.3993 -0.0054
# 6 0.0035 0.0094 0.0164 -15.4018 -0.0054 22.6977
#
#
#
# Elastic Compliance Matrix: (Units=1/GPa)
#
#
# Indices 1 2 3 4 5 6 
#
# 1 0.018138 -0.002936 0.001704 0.000012 -0.012301 0.000003
# 2 -0.002936 0.008736 -0.002876 -0.000001 0.004596 -0.000001
# 3 0.001704 -0.002876 0.006882 0.000008 -0.005750 0.000000
# 4 0.000012 -0.000001 0.000008 0.064289 -0.000026 0.043624
# 5 -0.012301 0.004596 -0.005750 -0.000026 0.036330 -0.000005
# 6 0.000003 -0.000001 0.000000 0.043624 -0.000005 0.073659
#
#
# Mechanical properties :
#
#
# Convention : Reuss Voigt Hill
#
# Bulk Modulus (GPa) = 39.15344 60.40256 49.77800
# Shear Modulus (GPa) = 22.24566 39.44061 30.84314
#
# Velocity S-wave (km/s) = 2.99273 3.98490 3.52391
# Velocity P-wave (km/s) = 5.26362 6.74474 6.04968
#
# Compressibility (1/GPa) = 0.02554054
#
# Stress axis : x y z
#
# Youngs Moduli (GPa) = 55.13366 114.46554 145.30713
#
# Poissons Ratio (x) = 0.33605 -0.24762
# Poissons Ratio (y) = 0.16186 0.41791
# Poissons Ratio (z) = -0.09395 0.32921
#
# Static dielectric constant tensor:
#      x y z
#    x 2.113890 0.000000 -0.062110 
#    y 0.000000 1.962290 0.000010 
#    z -0.062110 0.000010 1.947470 
# 
# From -- ./inp_files/44944.got.cif
#   From: 2010.05.17/outbox.cif.g08.bks.cpg/sg5_23_cif.got.tgz:44944.got - 2010.06.03 18:56:24.
