data_PCOD9126376
_publ_section_title
;
Structure prediction by ZEFSAII (Michael W. Deem and Ramdas Pophale) SiO2 
 PCOD9126376
Probable space group: C 2
;
_chemical_formula_sum "Si O2"
_cell_formula_units_Z 32
_cell_length_a 25.079146
_cell_length_b 12.236856
_cell_length_c 11.477755
_cell_angle_alpha 90.000000
_cell_angle_beta 27.402565
_cell_angle_gamma 90.000000
_cell_volume 1621.150971
_symmetry_space_group_name_H-M "C 2"
_symmetry_group_IT_number 5
_symmetry_cell_setting 'monoclinic'
loop_
_space_group_symop_operation_xyz
x,y,z
-x,y,-z
1/2+x,1/2+y,z
1/2-x,1/2+y,-z
loop_
_atom_site_type_symbol
_atom_site_label
_atom_site_fract_x
_atom_site_fract_y
_atom_site_fract_z
Si Si1 0.121316 0.757920 0.706996
Si Si2 0.327127 0.209885 0.738924
Si Si3 0.291244 0.059905 0.618146
Si Si4 0.127720 0.005687 0.718942
Si Si5 0.757561 0.188551 0.652911
Si Si6 0.848715 0.386929 0.892103
Si Si7 0.594039 0.140918 0.172009
Si Si8 0.594141 0.853370 0.489751
O O1 0.152754 0.665383 0.553844
O O2 0.221371 0.755885 0.609876
O O3 0.112641 0.885083 0.693320
O O4 0.000000 0.726390 0.000000
O O5 0.252958 0.117330 0.814234
O O6 0.461354 0.181521 0.444595
O O7 0.331945 0.195821 0.868486
O O8 0.267825 0.328308 0.835592
O O9 0.200737 0.012909 0.698756
O O10 0.376406 0.962056 0.491798
O O11 0.189751 0.078794 0.501946
O O12 0.000000 0.047249 0.000000
O O13 0.844464 0.254070 0.565349
O O14 0.643269 0.170295 0.951229
O O15 0.878898 0.512930 0.860728
O O16 0.859014 0.374408 0.732169
O O17 0.958794 0.328704 0.737750
#
# Coordination Sequence:
#
# PCOD9126376 Si02
#       8
#     4   4   4   4   4   4   4   4
#     4  10  22  40  63  88 122 168 224 274 329 402
#     4  11  22  39  69  98 131 178 222 277 343 408
#     4  11  21  40  63  91 126 176 222 280 344 391
#     4  10  24  43  61  91 132 175 227 283 340 408
#     4  11  23  41  64  91 131 173 214 278 339 399
#     4  11  23  40  67  98 135 176 223 272 345 409
#     4  11  22  42  66  99 135 169 229 281 334 413
#     4  11  21  42  63  93 134 176 215 280 340 403
#
# _framework density 19.739061
#
# number of rings (size 3 to 8) (size 9 to 14) (size 15 to 20)
#    0.000    1.250    5.000    1.500    3.500    0.000 
#    0.000    0.625    5.500    0.000    0.000    0.000 
#    0.000    0.000    0.000    0.000    0.000    0.000 
#
# Total GULP energy -89143.702089 kJ/mol
# GULP energy per Si atom -5571.481381 kJ/mol
# Density = 1.969413 g / cm^3
# Si number density = 19.739061 Si / 1000 Ang^3
#
#
#
# Elastic Constant Matrix: (Units=GPa)
#
#
# Indices 1 2 3 4 5 6 
#
# 1 119.1373 24.1516 19.8188 0.0000 -10.7364 0.0000
# 2 24.1516 50.3471 38.7038 0.0000 -10.4765 0.0000
# 3 19.8188 38.7038 72.9638 0.0000 -2.0550 0.0000
# 4 0.0000 0.0000 0.0000 24.3498 0.0000 8.9892
# 5 -10.7364 -10.4765 -2.0550 0.0000 23.2735 0.0000
# 6 0.0000 0.0000 0.0000 8.9892 0.0000 -1.7481
#
#
#
# Elastic Compliance Matrix: (Units=1/GPa)
#
#
# Indices 1 2 3 4 5 6 
#
# 1 0.009451 -0.003459 -0.000655 0.000000 0.002745 0.000000
# 2 -0.003459 0.039696 -0.019708 0.000000 0.014533 0.000000
# 3 -0.000655 -0.019708 0.024139 0.000000 -0.007042 0.000000
# 4 0.000000 0.000000 0.000000 0.014169 0.000000 0.072863
# 5 0.002745 0.014533 -0.007042 0.000000 0.050154 0.000000
# 6 0.000000 0.000000 0.000000 0.072863 0.000000 -0.197372
#
#
# Mechanical properties :
#
#
# Convention : Reuss Voigt Hill
#
# Bulk Modulus (GPa) = 38.99803 45.31074 42.15438
# Shear Modulus (GPa) = -1399.93176 19.82664 -690.05256
#
# Velocity S-wave (km/s) = -26.66006 3.17272 -18.71754
# Velocity P-wave (km/s) = 30.46110 6.03542 21.11223
#
# Compressibility (1/GPa) = 0.02564232
#
# Stress axis : x y z
#
# Youngs Moduli (GPa) = 105.80627 25.19165 41.42669
#
# Poissons Ratio (x) = 0.08714 0.02714
# Poissons Ratio (y) = 0.36598 0.81643
# Poissons Ratio (z) = 0.06931 0.49647
#
# Static dielectric constant tensor:
#      x y z
#    x 1.730900 0.000000 0.005710 
#    y 0.000000 1.708310 0.000000 
#    z 0.005710 0.000000 1.707590 
# 
# From -- ./inp_files/47480.got.cif
#   From: 2010.05.17/outbox.cif.g08.bks.cpg/sg5_24_cif.got.tgz:47480.got - 2010.06.03 18:56:24.
