data_PCOD9126483
_publ_section_title
;
Structure prediction by ZEFSAII (Michael W. Deem and Ramdas Pophale) SiO2 
 PCOD9126483
Probable space group: C 2
;
_chemical_formula_sum "Si O2"
_cell_formula_units_Z 20
_cell_length_a 16.250186
_cell_length_b 7.341604
_cell_length_c 9.331854
_cell_angle_alpha 90.000000
_cell_angle_beta 37.739531
_cell_angle_gamma 90.000000
_cell_volume 681.428517
_symmetry_space_group_name_H-M "C 2"
_symmetry_group_IT_number 5
_symmetry_cell_setting 'monoclinic'
loop_
_space_group_symop_operation_xyz
x,y,z
-x,y,-z
1/2+x,1/2+y,z
1/2-x,1/2+y,-z
loop_
_atom_site_type_symbol
_atom_site_label
_atom_site_fract_x
_atom_site_fract_y
_atom_site_fract_z
Si Si1 0.324824 0.500000 0.366233
Si Si2 0.611065 0.991386 0.439576
Si Si3 0.640026 0.881765 0.851528
Si Si4 0.056961 0.820450 0.190961
Si Si5 0.812598 0.173988 0.935388
O O1 0.204783 0.415161 0.435041
O O2 0.352553 0.689820 0.247236
O O3 0.261757 0.494148 0.613756
O O4 0.463436 0.393026 0.193624
O O5 0.500000 0.878362 0.500000
O O6 0.530559 0.163148 0.616415
O O7 0.709893 0.082518 0.190065
O O8 0.633240 0.831433 0.030460
O O9 0.500000 0.972668 0.000000
O O10 0.207161 0.739552 0.960782
O O11 0.088585 0.007834 0.234573
#
# Coordination Sequence:
#
# PCOD9126483 Si02
#       5
#     4   4   4   4   4
#     4  11  21  41  70  98 134 184 225 280 331 419
#     4   9  21  42  69  91 140 175 216 287 339 393
#     4  11  23  42  69  95 137 181 225 277 349 394
#     4  11  21  41  70 100 136 179 235 270 348 408
#     4  10  22  40  68  96 136 184 216 289 335 396
#
# _framework density 29.350107999999999
#
# number of rings (size 3 to 8) (size 9 to 14) (size 15 to 20)
#    0.000    1.600    6.000    0.000    0.000    3.200 
#    0.000    9.000    0.000    0.000    0.000    0.000 
#    0.000    0.000    0.000    0.000    0.000    0.000 
#
# Total GULP energy -55923.062375 kJ/mol
# GULP energy per Si atom -5592.306238 kJ/mol
# Density = 2.928331 g / cm^3
# Si number density = 29.350108 Si / 1000 Ang^3
#
#
#
# Elastic Constant Matrix: (Units=GPa)
#
#
# Indices 1 2 3 4 5 6 
#
# 1 223.2533 51.7951 62.9390 -0.0002 -42.9660 0.0000
# 2 51.7951 158.0525 39.3410 -0.0015 3.5023 0.0007
# 3 62.9390 39.3410 88.8386 -0.0002 0.0025 0.0002
# 4 -0.0002 -0.0015 -0.0002 35.7483 0.0002 0.7509
# 5 -42.9660 3.5023 0.0025 0.0002 69.7753 0.0000
# 6 0.0000 0.0007 0.0002 0.7509 0.0000 36.2835
#
#
#
# Elastic Compliance Matrix: (Units=1/GPa)
#
#
# Indices 1 2 3 4 5 6 
#
# 1 0.006786 -0.001260 -0.004250 0.000000 0.004242 0.000000
# 2 -0.001260 0.007354 -0.002364 0.000000 -0.001145 0.000000
# 3 -0.004250 -0.002364 0.015314 0.000000 -0.002499 0.000000
# 4 0.000000 0.000000 0.000000 0.027985 0.000000 -0.000579
# 5 0.004242 -0.001145 -0.002499 0.000000 0.017001 0.000000
# 6 0.000000 0.000000 0.000000 -0.000579 0.000000 0.027573
#
#
# Mechanical properties :
#
#
# Convention : Reuss Voigt Hill
#
# Bulk Modulus (GPa) = 72.95774 86.47719 79.71746
# Shear Modulus (GPa) = 40.87323 49.43271 45.15297
#
# Velocity S-wave (km/s) = 3.73582 4.10840 3.92653
# Velocity P-wave (km/s) = 6.59698 7.21341 6.91207
#
# Compressibility (1/GPa) = 0.01370657
#
# Stress axis : x y z
#
# Youngs Moduli (GPa) = 147.36121 135.98655 65.29954
#
# Poissons Ratio (x) = 0.17135 0.27751
# Poissons Ratio (y) = 0.18568 0.15435
# Poissons Ratio (z) = 0.62626 0.32144
#
# Static dielectric constant tensor:
#      x y z
#    x 2.340980 0.000000 -0.024480 
#    y 0.000000 2.403160 0.000000 
#    z -0.024480 0.000000 2.312130 
# 
# From -- ./inp_files/43901.got.cif
#   From: 2010.05.17/outbox.cif.g08.bks.cpg/sg5_22_cif.got.tgz:43901.got - 2010.06.03 18:56:24.
