data_PCOD9126722
_publ_section_title
;
Structure prediction by ZEFSAII (Michael W. Deem and Ramdas Pophale) SiO2 
 PCOD9126722
Probable space group: C 2
;
_chemical_formula_sum "Si O2"
_cell_formula_units_Z 28
_cell_length_a 8.914479
_cell_length_b 10.649184
_cell_length_c 23.411935
_cell_angle_alpha 90.000000
_cell_angle_beta 139.043993
_cell_angle_gamma 90.000000
_cell_volume 1456.829151
_symmetry_space_group_name_H-M "C 2"
_symmetry_group_IT_number 5
_symmetry_cell_setting 'monoclinic'
loop_
_space_group_symop_operation_xyz
x,y,z
-x,y,-z
1/2+x,1/2+y,z
1/2-x,1/2+y,-z
loop_
_atom_site_type_symbol
_atom_site_label
_atom_site_fract_x
_atom_site_fract_y
_atom_site_fract_z
Si Si1 0.486156 0.524660 0.122455
Si Si2 0.491674 0.163437 0.401546
Si Si3 0.384169 0.663117 0.606238
Si Si4 0.985945 0.309458 0.121595
Si Si5 0.204275 0.920998 0.697612
Si Si6 0.000000 0.403800 0.000000
Si Si7 0.064144 0.425952 0.696872
Si Si8 0.500000 0.430502 0.000000
O O1 0.533931 0.667372 0.153481
O O2 0.229790 0.486105 0.064874
O O3 0.676261 0.437445 0.206297
O O4 0.504475 0.509973 0.059346
O O5 0.726703 0.166153 0.504698
O O6 0.287716 0.149785 0.389323
O O7 0.446957 0.296731 0.358041
O O8 0.486410 0.045313 0.357759
O O9 0.552915 0.545355 0.653962
O O10 0.515633 0.794838 0.651386
O O11 0.160814 0.399978 0.204569
O O12 0.004469 0.323898 0.059061
O O13 0.728367 0.347162 0.064010
O O14 0.393975 0.929822 0.702184
#
# Coordination Sequence:
#
# PCOD9126722 Si02
#       8
#     4   4   4   4   4   2   4   2
#     4  11  22  42  63  91 125 162 205 254 309 363
#     4  10  22  44  64  89 127 164 208 255 311 366
#     4  10  24  41  64  94 124 164 207 256 309 374
#     4  11  22  41  62  91 124 162 206 253 309 365
#     4  11  23  40  66  94 126 164 206 258 307 371
#     4  10  26  38  62  92 120 166 208 256 300 372
#     4  11  23  40  66  94 127 164 205 259 307 370
#     4  10  22  42  60  90 122 162 202 254 312 362
#
# _framework density 19.219823999999999
#
# number of rings (size 3 to 8) (size 9 to 14) (size 15 to 20)
#    0.000    1.429    2.857    1.714    2.000    4.000 
#   10.286    0.000    0.000    0.000    0.000    0.000 
#    0.000    0.000    0.000    0.000    0.000    0.000 
#
# Total GULP energy -78247.660074 kJ/mol
# GULP energy per Si atom -5589.118577 kJ/mol
# Density = 1.917608 g / cm^3
# Si number density = 19.219824 Si / 1000 Ang^3
#
#
#
# Elastic Constant Matrix: (Units=GPa)
#
#
# Indices 1 2 3 4 5 6 
#
# 1 56.8922 41.8681 45.6118 0.0000 10.2480 0.0000
# 2 41.8681 138.8235 76.1893 0.0000 10.1501 0.0000
# 3 45.6118 76.1893 161.2393 0.0000 11.8758 0.0000
# 4 0.0000 0.0000 0.0000 40.8376 0.0000 11.5178
# 5 10.2480 10.1501 11.8758 0.0000 24.3351 0.0000
# 6 0.0000 0.0000 0.0000 11.5178 0.0000 168.0949
#
#
#
# Elastic Compliance Matrix: (Units=1/GPa)
#
#
# Indices 1 2 3 4 5 6 
#
# 1 0.026020 -0.004845 -0.004577 0.000000 -0.006703 0.000000
# 2 -0.004845 0.010711 -0.003643 0.000000 -0.000650 0.000000
# 3 -0.004577 -0.003643 0.009299 0.000000 -0.001091 0.000000
# 4 0.000000 0.000000 0.000000 0.024970 0.000000 -0.001711
# 5 -0.006703 -0.000650 -0.001091 0.000000 0.044719 0.000000
# 6 0.000000 0.000000 0.000000 -0.001711 0.000000 0.006066
#
#
# Mechanical properties :
#
#
# Convention : Reuss Voigt Hill
#
# Bulk Modulus (GPa) = 50.25412 76.03258 63.14335
# Shear Modulus (GPa) = 32.35222 59.53926 45.94574
#
# Velocity S-wave (km/s) = 4.10722 5.57183 4.89462
# Velocity P-wave (km/s) = 6.97826 9.00217 8.05404
#
# Compressibility (1/GPa) = 0.01989886
#
# Stress axis : x y z
#
# Youngs Moduli (GPa) = 38.43197 93.35782 107.54340
#
# Poissons Ratio (x) = 0.45233 0.49228
# Poissons Ratio (y) = 0.18621 0.39178
# Poissons Ratio (z) = 0.17592 0.34010
#
# Static dielectric constant tensor:
#      x y z
#    x 1.649900 0.000000 -0.003870 
#    y 0.000000 1.636030 0.000000 
#    z -0.003870 0.000000 1.638140 
# 
# From -- ./inp_files/50391.got.cif
#   From: 2010.05.17/outbox.cif.g08.bks.cpg/sg5_26_cif.got.tgz:50391.got - 2010.06.03 18:56:24.
