data_PCOD9126351
_publ_section_title
;
Structure prediction by ZEFSAII (Michael W. Deem and Ramdas Pophale) SiO2 
 PCOD9126351
Probable space group: C 2
;
_chemical_formula_sum "Si O2"
_cell_formula_units_Z 26
_cell_length_a 21.052347
_cell_length_b 8.765619
_cell_length_c 13.438386
_cell_angle_alpha 90.000000
_cell_angle_beta 155.258975
_cell_angle_gamma 90.000000
_cell_volume 1037.872060
_symmetry_space_group_name_H-M "C 2"
_symmetry_group_IT_number 5
_symmetry_cell_setting 'monoclinic'
loop_
_space_group_symop_operation_xyz
x,y,z
-x,y,-z
1/2+x,1/2+y,z
1/2-x,1/2+y,-z
loop_
_atom_site_type_symbol
_atom_site_label
_atom_site_fract_x
_atom_site_fract_y
_atom_site_fract_z
Si Si1 0.500000 0.819940 0.500000
Si Si2 0.923881 0.858669 0.748735
Si Si3 0.000000 0.828463 0.500000
Si Si4 0.321004 0.044014 0.680446
Si Si5 0.757208 0.077880 0.211128
Si Si6 0.196403 0.003183 0.218366
Si Si7 0.444926 0.063970 0.274535
Si Si8 0.500000 0.777762 0.000000
O O1 0.381245 0.712361 0.386948
O O2 0.400976 0.924964 0.284800
O O3 0.848542 0.976082 0.565234
O O4 0.867463 0.682960 0.674244
O O5 0.849350 0.923735 0.743712
O O6 0.146718 0.574712 0.957935
O O7 0.067748 0.719924 0.682005
O O8 0.864090 0.929135 0.351412
O O9 0.334963 0.088520 0.816458
O O10 0.417098 0.888888 0.804293
O O11 0.601775 0.399344 0.005757
O O12 0.374408 0.029166 0.472517
O O13 0.116675 0.168808 0.109227
#
# Coordination Sequence:
#
# PCOD9126351 Si02
#       8
#     2   4   2   4   4   4   4   2
#     4  10  24  48  72 108 138 182 236 294 362 424
#     4  10  23  44  67 100 145 191 236 294 338 437
#     4  10  24  48  72 108 138 182 236 294 364 420
#     4  12  24  44  71 102 144 190 245 287 360 412
#     4  11  25  47  73 108 136 186 238 296 358 423
#     4  10  22  45  66 103 143 184 237 282 359 417
#     4  11  23  47  76 104 143 183 230 298 356 427
#     4  10  22  40  62 102 138 182 232 282 336 430
#
# _framework density 25.051258000000001
#
# number of rings (size 3 to 8) (size 9 to 14) (size 15 to 20)
#    0.000    1.538    0.000    5.538    2.154    0.000 
#   38.769    0.000    0.000    0.000    0.000    0.000 
#    0.000    0.000    0.000    0.000    0.000    0.000 
#
# Total GULP energy -72687.398212 kJ/mol
# GULP energy per Si atom -5591.338324 kJ/mol
# Density = 2.499424 g / cm^3
# Si number density = 25.051258 Si / 1000 Ang^3
#
#
#
# Elastic Constant Matrix: (Units=GPa)
#
#
# Indices 1 2 3 4 5 6 
#
# 1 60.3997 26.5659 13.4279 0.0000 -5.5581 0.0000
# 2 26.5659 172.9879 43.3745 0.0000 -3.7487 0.0000
# 3 13.4279 43.3745 96.4376 0.0000 -14.9976 0.0000
# 4 0.0000 0.0000 0.0000 35.9991 0.0000 4.3771
# 5 -5.5581 -3.7487 -14.9976 0.0000 54.5043 0.0000
# 6 0.0000 0.0000 0.0000 4.3771 0.0000 37.0164
#
#
#
# Elastic Compliance Matrix: (Units=1/GPa)
#
#
# Indices 1 2 3 4 5 6 
#
# 1 0.018019 -0.002436 -0.001205 0.000000 0.001338 0.000000
# 2 -0.002436 0.006852 -0.002829 0.000000 -0.000556 0.000000
# 3 -0.001205 -0.002829 0.012286 0.000000 0.003063 0.000000
# 4 0.000000 0.000000 0.000000 0.028184 0.000000 -0.003333
# 5 0.001338 -0.000556 0.003063 0.000000 0.019288 0.000000
# 6 0.000000 0.000000 0.000000 -0.003333 0.000000 0.027409
#
#
# Mechanical properties :
#
#
# Convention : Reuss Voigt Hill
#
# Bulk Modulus (GPa) = 41.29407 55.17353 48.23380
# Shear Modulus (GPa) = 37.57959 41.93442 39.75701
#
# Velocity S-wave (km/s) = 3.87732 4.09583 3.98807
# Velocity P-wave (km/s) = 6.04686 6.66632 6.36413
#
# Compressibility (1/GPa) = 0.02421655
#
# Stress axis : x y z
#
# Youngs Moduli (GPa) = 55.49729 145.93917 81.39336
#
# Poissons Ratio (x) = 0.35551 0.09809
# Poissons Ratio (y) = 0.13519 0.23027
# Poissons Ratio (z) = 0.06688 0.41288
#
# Static dielectric constant tensor:
#      x y z
#    x 1.990330 0.000000 -0.031180 
#    y 0.000000 2.050010 0.000000 
#    z -0.031180 0.000000 2.149190 
# 
# From -- ./inp_files/41469.got.cif
#   From: 2010.05.17/outbox.cif.g08.bks.cpg/sg5_21_cif.got.tgz:41469.got - 2010.06.03 18:56:24.
