data_PCOD9126661
_publ_section_title
;
Structure prediction by ZEFSAII (Michael W. Deem and Ramdas Pophale) SiO2 
 PCOD9126661
Probable space group: C 2
;
_chemical_formula_sum "Si O2"
_cell_formula_units_Z 32
_cell_length_a 12.195869
_cell_length_b 7.226421
_cell_length_c 30.184488
_cell_angle_alpha 90.000000
_cell_angle_beta 145.574250
_cell_angle_gamma 90.000000
_cell_volume 1503.930703
_symmetry_space_group_name_H-M "C 2"
_symmetry_group_IT_number 5
_symmetry_cell_setting 'monoclinic'
loop_
_space_group_symop_operation_xyz
x,y,z
-x,y,-z
1/2+x,1/2+y,z
1/2-x,1/2+y,-z
loop_
_atom_site_type_symbol
_atom_site_label
_atom_site_fract_x
_atom_site_fract_y
_atom_site_fract_z
Si Si1 0.693396 0.531550 0.022396
Si Si2 0.248237 0.688260 0.701614
Si Si3 0.494774 0.468173 0.330272
Si Si4 0.012348 0.568222 0.703025
Si Si5 0.792889 0.741336 0.411081
Si Si6 0.335197 0.596502 0.187681
Si Si7 0.752765 0.171946 0.867265
Si Si8 0.940803 0.635875 0.024504
O O1 0.797689 0.630247 0.098371
O O2 0.814060 0.531856 0.017711
O O3 0.481814 0.619767 0.942261
O O4 0.669720 0.318365 0.027754
O O5 0.183391 0.648956 0.629736
O O6 0.479887 0.671583 0.777184
O O7 0.156782 0.888013 0.684594
O O8 0.160908 0.556013 0.710697
O O9 0.566110 0.278278 0.330249
O O10 0.675098 0.596517 0.402812
O O11 0.385699 0.585407 0.256201
O O12 0.843886 0.418934 0.642634
O O13 0.128683 0.565357 0.788142
O O14 0.000000 0.788842 0.500000
O O15 0.286925 0.385840 0.157339
O O16 0.136949 0.701486 0.113340
O O17 0.000000 0.528148 0.000000
#
# Coordination Sequence:
#
# PCOD9126661 Si02
#       8
#     4   4   4   4   4   4   4   4
#     4  11  26  44  61  96 133 175 228 290 339 399
#     4   9  22  45  64  96 133 168 221 278 324 401
#     4   8  21  45  61  97 131 165 221 273 325 394
#     4   9  22  44  67  96 133 177 224 274 332 405
#     4  11  23  41  70 104 138 175 220 268 341 413
#     4  10  22  41  68  89 121 174 224 274 335 396
#     4  10  22  45  67  92 131 179 234 278 345 399
#     4  12  27  41  63  91 128 172 223 280 347 396
#
# _framework density 21.277576
#
# number of rings (size 3 to 8) (size 9 to 14) (size 15 to 20)
#    0.750    1.250    1.250    0.750    8.750    3.500 
#    6.750    0.000    0.000    0.000    0.000    0.000 
#    0.000    0.000    0.000    0.000    0.000    0.000 
#
# Total GULP energy -89246.765331 kJ/mol
# GULP energy per Si atom -5577.922833 kJ/mol
# Density = 2.122915 g / cm^3
# Si number density = 21.277576 Si / 1000 Ang^3
#
#
#
# Elastic Constant Matrix: (Units=GPa)
#
#
# Indices 1 2 3 4 5 6 
#
# 1 119.3701 7.3067 17.5659 0.0000 8.3813 0.0000
# 2 7.3067 52.0052 25.2337 0.0000 5.7709 0.0000
# 3 17.5659 25.2337 95.9903 0.0000 12.4890 0.0000
# 4 0.0000 0.0000 0.0000 25.6478 0.0000 5.2794
# 5 8.3813 5.7709 12.4890 0.0000 19.2010 0.0000
# 6 0.0000 0.0000 0.0000 5.2794 0.0000 27.3362
#
#
#
# Elastic Compliance Matrix: (Units=1/GPa)
#
#
# Indices 1 2 3 4 5 6 
#
# 1 0.008774 -0.000356 -0.001123 0.000000 -0.002993 0.000000
# 2 -0.000356 0.022227 -0.005385 0.000000 -0.003023 0.000000
# 3 -0.001123 -0.005385 0.012852 0.000000 -0.006251 0.000000
# 4 0.000000 0.000000 0.000000 0.040604 0.000000 -0.007842
# 5 -0.002993 -0.003023 -0.006251 0.000000 0.058361 0.000000
# 6 0.000000 0.000000 0.000000 -0.007842 0.000000 0.038096
#
#
# Mechanical properties :
#
#
# Convention : Reuss Voigt Hill
#
# Bulk Modulus (GPa) = 33.19297 40.84202 37.01749
# Shear Modulus (GPa) = 24.42801 28.92096 26.67449
#
# Velocity S-wave (km/s) = 3.39198 3.69076 3.54452
# Velocity P-wave (km/s) = 5.56548 6.11546 5.84694
#
# Compressibility (1/GPa) = 0.03012686
#
# Stress axis : x y z
#
# Youngs Moduli (GPa) = 113.96738 44.99047 77.80929
#
# Poissons Ratio (x) = 0.01601 0.08736
# Poissons Ratio (y) = 0.04056 0.41897
# Poissons Ratio (z) = 0.12796 0.24225
#
# Static dielectric constant tensor:
#      x y z
#    x 1.801160 0.000000 0.001470 
#    y 0.000000 1.804300 0.000000 
#    z 0.001470 0.000000 1.767090 
# 
# From -- ./inp_files/71758.got.cif
#   From: 2010.05.17/outbox.cif.g08.bks.cpg/sg5_36_cif.got.tgz:71758.got - 2010.06.03 18:56:24.
