data_PCOD9126682
_publ_section_title
;
Structure prediction by ZEFSAII (Michael W. Deem and Ramdas Pophale) SiO2 
 PCOD9126682
Probable space group: C 2
;
_chemical_formula_sum "Si O2"
_cell_formula_units_Z 26
_cell_length_a 15.548326
_cell_length_b 12.580041
_cell_length_c 9.498638
_cell_angle_alpha 90.000000
_cell_angle_beta 137.976010
_cell_angle_gamma 90.000000
_cell_volume 1243.769195
_symmetry_space_group_name_H-M "C 2"
_symmetry_group_IT_number 5
_symmetry_cell_setting 'monoclinic'
loop_
_space_group_symop_operation_xyz
x,y,z
-x,y,-z
1/2+x,1/2+y,z
1/2-x,1/2+y,-z
loop_
_atom_site_type_symbol
_atom_site_label
_atom_site_fract_x
_atom_site_fract_y
_atom_site_fract_z
Si Si1 0.500000 0.726080 0.500000
Si Si2 0.367174 0.682293 0.792239
Si Si3 0.535437 0.864613 0.292214
Si Si4 0.154291 0.590677 0.350080
Si Si5 0.754899 0.837002 0.132947
Si Si6 0.759476 0.076799 0.170022
Si Si7 0.057381 0.676354 0.726429
O O1 0.570806 0.806028 0.478919
O O2 0.386811 0.648658 0.306562
O O3 0.416255 0.784565 0.767135
O O4 0.286577 0.606826 0.593899
O O5 0.280247 0.738104 0.806087
O O6 0.500000 0.628129 0.000000
O O7 0.591567 0.978173 0.318622
O O8 0.380868 0.861095 0.105683
O O9 0.180224 0.604223 0.216403
O O10 0.057757 0.674791 0.302047
O O11 0.872961 0.789847 0.191131
O O12 0.793025 0.952868 0.235329
O O13 0.666695 0.097871 0.923250
O O14 0.000000 0.650534 0.500000
#
# Coordination Sequence:
#
# PCOD9126682 Si02
#       7
#     2   4   4   4   4   4   4
#     4  12  26  42  70 106 144 174 236 300 336 404
#     4  10  22  41  70 100 139 183 233 288 346 411
#     4  11  23  42  70  99 137 188 229 285 350 408
#     4  12  24  44  77 101 138 189 238 279 350 419
#     4  11  23  44  68 100 138 185 229 281 351 417
#     4  12  26  46  71 104 137 188 235 283 352 416
#     4  12  26  43  68 106 139 176 234 294 340 408
#
# _framework density 20.904199999999999
#
# number of rings (size 3 to 8) (size 9 to 14) (size 15 to 20)
#    0.000    0.615    7.692    0.462    2.154    0.000 
#    0.000    0.000    6.769    0.000    0.000    0.000 
#    0.000    0.000    0.000    0.000    0.000    0.000 
#
# Total GULP energy -72493.885087 kJ/mol
# GULP energy per Si atom -5576.452699 kJ/mol
# Density = 2.085662 g / cm^3
# Si number density = 20.904200 Si / 1000 Ang^3
#
#
#
# Elastic Constant Matrix: (Units=GPa)
#
#
# Indices 1 2 3 4 5 6 
#
# 1 95.2727 45.4101 28.4700 0.0000 9.5705 0.0000
# 2 45.4101 45.6580 39.5996 0.0000 -4.4386 0.0000
# 3 28.4700 39.5996 121.6452 0.0000 7.1916 0.0000
# 4 0.0000 0.0000 0.0000 -13.7409 0.0000 -18.0115
# 5 9.5705 -4.4386 7.1916 0.0000 26.1701 0.0000
# 6 0.0000 0.0000 0.0000 -18.0115 0.0000 22.9631
#
#
#
# Elastic Compliance Matrix: (Units=1/GPa)
#
#
# Indices 1 2 3 4 5 6 
#
# 1 0.025611 -0.031594 0.005247 0.000000 -0.016167 0.000000
# 2 -0.031594 0.071252 -0.017482 0.000000 0.028443 0.000000
# 3 0.005247 -0.017482 0.013187 0.000000 -0.008508 0.000000
# 4 0.000000 0.000000 0.000000 -0.035883 0.000000 -0.028145
# 5 -0.016167 0.028443 -0.008508 0.000000 0.051286 0.000000
# 6 0.000000 0.000000 0.000000 -0.028145 0.000000 0.021472
#
#
# Mechanical properties :
#
#
# Convention : Reuss Voigt Hill
#
# Bulk Modulus (GPa) = 44.66162 54.39283 49.52723
# Shear Modulus (GPa) = 20.65703 17.01819 18.83761
#
# Velocity S-wave (km/s) = 3.14694 2.85635 3.00516
# Velocity P-wave (km/s) = 5.88350 6.07905 5.98207
#
# Compressibility (1/GPa) = 0.02239059
#
# Stress axis : x y z
#
# Youngs Moduli (GPa) = 39.04538 14.03463 75.83398
#
# Poissons Ratio (x) = 0.44341 -0.39788
# Poissons Ratio (y) = 1.23361 1.32575
# Poissons Ratio (z) = -0.20486 0.24536
#
# Static dielectric constant tensor:
#      x y z
#    x 1.915080 0.000000 -0.043460 
#    y 0.000000 1.741970 0.000000 
#    z -0.043460 0.000000 1.835740 
# 
# From -- ./inp_files/24744.got.cif
#   From: 2010.05.17/outbox.cif.g08.bks.cpg/sg5_13_cif.got.tgz:24744.got - 2010.06.03 18:56:24.
