data_PCOD9126231
_publ_section_title
;
Structure prediction by ZEFSAII (Michael W. Deem and Ramdas Pophale) SiO2 
 PCOD9126231
Probable space group: C 2
;
_chemical_formula_sum "Si O2"
_cell_formula_units_Z 32
_cell_length_a 13.229499
_cell_length_b 26.436810
_cell_length_c 7.402597
_cell_angle_alpha 90.000000
_cell_angle_beta 145.009611
_cell_angle_gamma 90.000000
_cell_volume 1484.649022
_symmetry_space_group_name_H-M "C 2"
_symmetry_group_IT_number 5
_symmetry_cell_setting 'monoclinic'
loop_
_space_group_symop_operation_xyz
x,y,z
-x,y,-z
1/2+x,1/2+y,z
1/2-x,1/2+y,-z
loop_
_atom_site_type_symbol
_atom_site_label
_atom_site_fract_x
_atom_site_fract_y
_atom_site_fract_z
Si Si1 0.291390 0.766680 0.652531
Si Si2 0.321836 0.970222 0.631529
Si Si3 0.185233 0.013402 0.769352
Si Si4 0.483159 0.182059 0.757892
Si Si5 0.290674 0.752958 0.221012
Si Si6 0.029970 0.566006 0.334304
Si Si7 0.516009 0.336692 0.805205
Si Si8 0.362615 0.445283 0.956301
O O1 0.278114 0.760142 0.417750
O O2 0.172020 0.718856 0.540330
O O3 0.172828 0.815201 0.536353
O O4 0.500000 0.767867 0.000000
O O5 0.185932 0.975743 0.598536
O O6 0.338001 0.025680 0.560702
O O7 0.500000 0.957901 0.000000
O O8 0.292668 0.933731 0.417816
O O9 0.000000 0.041210 0.500000
O O10 0.199213 0.982759 0.977071
O O11 0.344065 0.051346 0.972625
O O12 0.437757 0.124990 0.639914
O O13 0.500000 0.183292 0.000000
O O14 0.675135 0.204764 0.985609
O O15 0.500000 0.750713 0.500000
O O16 0.176451 0.800418 0.979563
O O17 0.000000 0.555342 0.500000
O O18 0.565369 0.394551 0.846995
O O19 0.500000 0.333681 0.000000
O O20 0.500000 0.464744 0.000000
#
# Coordination Sequence:
#
# PCOD9126231 Si02
#       8
#     4   4   4   4   4   4   4   4
#     4   9  18  37  64  87 120 159 207 263 315 389
#     4  10  22  39  60  88 126 167 214 274 315 372
#     4  11  22  38  61  87 123 170 216 260 320 376
#     4   9  19  37  59  84 123 166 203 253 323 386
#     4   9  18  36  58  86 122 160 200 251 313 384
#     4  11  22  39  60  89 125 164 213 263 322 382
#     4   8  18  37  61  83 121 168 199 255 330 370
#     4  11  20  39  64  88 127 169 214 272 317 379
#
# _framework density 21.553916000000001
#
# number of rings (size 3 to 8) (size 9 to 14) (size 15 to 20)
#    0.000    2.250    2.500    2.625    0.000    1.500 
#    4.500   11.875    0.000    0.000    0.000    0.000 
#    0.000    0.000    0.000    0.000    0.000    0.000 
#
# Total GULP energy -89080.424876 kJ/mol
# GULP energy per Si atom -5567.526555 kJ/mol
# Density = 2.150486 g / cm^3
# Si number density = 21.553916 Si / 1000 Ang^3
#
#
#
# Elastic Constant Matrix: (Units=GPa)
#
#
# Indices 1 2 3 4 5 6 
#
# 1 78.8078 14.9046 19.5641 0.0000 -8.4214 0.0000
# 2 14.9046 105.5738 49.9288 0.0000 16.5912 0.0000
# 3 19.5641 49.9288 105.7495 0.0000 15.2047 0.0000
# 4 0.0000 0.0000 0.0000 17.8837 0.0000 2.7299
# 5 -8.4214 16.5912 15.2047 0.0000 50.4589 0.0000
# 6 0.0000 0.0000 0.0000 2.7299 0.0000 14.5826
#
#
#
# Elastic Compliance Matrix: (Units=1/GPa)
#
#
# Indices 1 2 3 4 5 6 
#
# 1 0.013927 -0.001365 -0.002436 0.000000 0.003507 0.000000
# 2 -0.001365 0.012608 -0.005301 0.000000 -0.002776 0.000000
# 3 -0.002436 -0.005301 0.012771 0.000000 -0.002512 0.000000
# 4 0.000000 0.000000 0.000000 0.057562 0.000000 -0.010776
# 5 0.003507 -0.002776 -0.002512 0.000000 0.022073 0.000000
# 6 0.000000 0.000000 0.000000 -0.010776 0.000000 0.070592
#
#
# Mechanical properties :
#
#
# Convention : Reuss Voigt Hill
#
# Bulk Modulus (GPa) = 47.39120 50.99178 49.19149
# Shear Modulus (GPa) = 23.28049 30.30060 26.79055
#
# Velocity S-wave (km/s) = 3.29006 3.75347 3.52938
# Velocity P-wave (km/s) = 6.03885 6.51873 6.28337
#
# Compressibility (1/GPa) = 0.02110097
#
# Stress axis : x y z
#
# Youngs Moduli (GPa) = 71.80352 79.31418 78.30204
#
# Poissons Ratio (x) = 0.10828 0.19076
# Poissons Ratio (y) = 0.09802 0.41509
# Poissons Ratio (z) = 0.17493 0.42045
#
# Static dielectric constant tensor:
#      x y z
#    x 1.836940 0.000000 0.027790 
#    y 0.000000 1.789100 0.000000 
#    z 0.027790 0.000000 1.985560 
# 
# From -- ./inp_files/25711.got.cif
#   From: 2010.05.17/outbox.cif.g08.bks.cpg/sg5_13_cif.got.tgz:25711.got - 2010.06.03 18:56:24.
