data_PCOD9126951
_publ_section_title
;
Structure prediction by ZEFSAII (Michael W. Deem and Ramdas Pophale) SiO2 
 PCOD9126951
Probable space group: C 2
;
_chemical_formula_sum "Si O2"
_cell_formula_units_Z 16
_cell_length_a 17.341838
_cell_length_b 8.330216
_cell_length_c 13.581735
_cell_angle_alpha 90.000000
_cell_angle_beta 20.124839
_cell_angle_gamma 90.000000
_cell_volume 675.070895
_symmetry_space_group_name_H-M "C 2"
_symmetry_group_IT_number 5
_symmetry_cell_setting 'monoclinic'
loop_
_space_group_symop_operation_xyz
x,y,z
-x,y,-z
1/2+x,1/2+y,z
1/2-x,1/2+y,-z
loop_
_atom_site_type_symbol
_atom_site_label
_atom_site_fract_x
_atom_site_fract_y
_atom_site_fract_z
Si Si1 0.329705 0.574400 0.127737
Si Si2 0.945676 0.706636 0.703211
Si Si3 0.889545 0.786773 0.294324
Si Si4 0.276872 0.977420 0.331578
O O1 0.275001 0.674946 0.095174
O O2 0.108677 0.571365 0.460393
O O3 0.500000 0.654508 0.000000
O O4 0.446189 0.410012 0.956827
O O5 0.955344 0.696685 0.809104
O O6 0.068083 0.878521 0.534667
O O7 0.759337 0.664198 0.381270
O O8 0.720853 0.887317 0.565426
O O9 0.500000 0.973018 0.000000
#
# Coordination Sequence:
#
# PCOD9126951 Si02
#       4
#     4   4   4   4
#     4  11  21  46  75 103 149 194 241 300 366 432
#     4   9  24  43  70 111 146 193 236 306 368 426
#     4  10  23  43  75 110 143 196 245 299 367 434
#     4  10  22  42  72 114 146 190 246 303 366 437
#
# _framework density 23.701215000000001
#
# number of rings (size 3 to 8) (size 9 to 14) (size 15 to 20)
#    1.500    0.500    0.000    3.000    3.500    0.000 
#   13.500   10.000    0.000    0.000    0.000    0.000 
#    0.000    0.000    0.000    0.000    0.000    0.000 
#
# Total GULP energy -44544.271962 kJ/mol
# GULP energy per Si atom -5568.033995 kJ/mol
# Density = 2.364727 g / cm^3
# Si number density = 23.701215 Si / 1000 Ang^3
#
#
#
# Elastic Constant Matrix: (Units=GPa)
#
#
# Indices 1 2 3 4 5 6 
#
# 1 110.2959 43.9230 38.1535 -0.0014 -4.8906 0.0005
# 2 43.9230 137.1535 53.6100 -0.0020 11.6964 0.0007
# 3 38.1535 53.6100 70.9678 -0.0024 8.8729 0.0005
# 4 -0.0014 -0.0020 -0.0024 47.4101 0.0011 18.3916
# 5 -4.8906 11.6964 8.8729 0.0011 48.4513 -0.0002
# 6 0.0005 0.0007 0.0005 18.3916 -0.0002 -3.3139
#
#
#
# Elastic Compliance Matrix: (Units=1/GPa)
#
#
# Indices 1 2 3 4 5 6 
#
# 1 0.011750 -0.001970 -0.005154 0.000000 0.002606 0.000000
# 2 -0.001970 0.010733 -0.006857 0.000000 -0.001534 0.000000
# 3 -0.005154 -0.006857 0.022413 0.000000 -0.002969 0.000002
# 4 0.000000 0.000000 0.000000 0.006690 0.000000 0.037128
# 5 0.002606 -0.001534 -0.002969 0.000000 0.021816 -0.000002
# 6 0.000000 0.000000 0.000002 0.037128 -0.000002 -0.095708
#
#
# Mechanical properties :
#
#
# Convention : Reuss Voigt Hill
#
# Bulk Modulus (GPa) = 59.05640 65.53226 62.29433
# Shear Modulus (GPa) = 442.46357 30.69155 236.57756
#
# Velocity S-wave (km/s) = 13.67806 3.60243 10.00167
# Velocity P-wave (km/s) = 16.56573 6.70915 12.63796
#
# Compressibility (1/GPa) = 0.01693297
#
# Stress axis : x y z
#
# Youngs Moduli (GPa) = 85.10914 93.16968 44.61730
#
# Poissons Ratio (x) = 0.18358 0.22996
# Poissons Ratio (y) = 0.16770 0.30593
# Poissons Ratio (z) = 0.43866 0.63885
#
# Static dielectric constant tensor:
#      x y z
#    x 1.977180 0.000000 -0.081640 
#    y 0.000000 1.948840 0.000000 
#    z -0.081640 0.000000 2.125470 
# 
# From -- ./inp_files/55624.got.cif
#   From: 2010.05.17/outbox.cif.g08.bks.cpg/sg5_28_cif.got.tgz:55624.got - 2010.06.03 18:56:24.
