data_PCOD9126657
_publ_section_title
;
Structure prediction by ZEFSAII (Michael W. Deem and Ramdas Pophale) SiO2 
 PCOD9126657
Probable space group: C 2
;
_chemical_formula_sum "Si O2"
_cell_formula_units_Z 24
_cell_length_a 23.037113
_cell_length_b 9.270512
_cell_length_c 16.349394
_cell_angle_alpha 90.000000
_cell_angle_beta 15.909320
_cell_angle_gamma 90.000000
_cell_volume 957.121946
_symmetry_space_group_name_H-M "C 2"
_symmetry_group_IT_number 5
_symmetry_cell_setting 'monoclinic'
loop_
_space_group_symop_operation_xyz
x,y,z
-x,y,-z
1/2+x,1/2+y,z
1/2-x,1/2+y,-z
loop_
_atom_site_type_symbol
_atom_site_label
_atom_site_fract_x
_atom_site_fract_y
_atom_site_fract_z
Si Si1 0.000000 0.791880 0.500000
Si Si2 0.526321 0.145721 0.302392
Si Si3 0.003752 0.134705 0.664465
Si Si4 0.500000 0.799023 0.500000
Si Si5 0.028287 0.847862 0.145525
Si Si6 0.054755 0.399179 0.143894
Si Si7 0.181815 0.564639 0.652858
O O1 0.073287 0.694432 0.477415
O O2 0.808658 0.886975 0.794824
O O3 0.526870 0.283173 0.240439
O O4 0.453908 0.018273 0.341271
O O5 0.762237 0.085579 0.004848
O O6 0.228852 0.060275 0.375748
O O7 0.991372 0.201803 0.592216
O O8 0.021350 0.253281 0.712563
O O9 0.275146 0.876392 0.793841
O O10 0.928486 0.714976 0.227226
O O11 0.892080 0.993234 0.323630
O O12 0.979561 0.440046 0.156112
#
# Coordination Sequence:
#
# PCOD9126657 Si02
#       7
#     2   4   4   2   4   4   4
#     4  10  22  44  72 108 132 193 243 286 370 447
#     4   9  22  41  69  97 141 183 236 293 353 437
#     4  10  22  41  68 100 140 178 237 292 359 434
#     4  10  24  46  70 108 132 199 237 288 354 459
#     4  10  23  46  70 103 142 186 240 295 368 433
#     4  10  22  44  69 103 141 183 236 297 359 439
#     4  11  22  44  71  96 147 188 226 312 367 421
#
# _framework density 25.075174000000001
#
# number of rings (size 3 to 8) (size 9 to 14) (size 15 to 20)
#    0.000    2.000    1.667    0.000    7.000    7.333 
#    6.000    0.000    7.333    0.000    0.000    0.000 
#    0.000    0.000    0.000    0.000    0.000    0.000 
#
# Total GULP energy -66860.832127 kJ/mol
# GULP energy per Si atom -5571.736011 kJ/mol
# Density = 2.501810 g / cm^3
# Si number density = 25.075174 Si / 1000 Ang^3
#
#
#
# Elastic Constant Matrix: (Units=GPa)
#
#
# Indices 1 2 3 4 5 6 
#
# 1 103.2235 15.7825 33.3548 0.0000 -24.2557 0.0000
# 2 15.7825 91.7952 33.7834 0.0000 -4.1427 0.0000
# 3 33.3548 33.7834 89.3849 -0.0001 -13.2513 0.0000
# 4 0.0000 0.0000 -0.0001 25.8458 0.0001 -0.1998
# 5 -24.2557 -4.1427 -13.2513 0.0001 48.9793 0.0000
# 6 0.0000 0.0000 0.0000 -0.1998 0.0000 33.7659
#
#
#
# Elastic Compliance Matrix: (Units=1/GPa)
#
#
# Indices 1 2 3 4 5 6 
#
# 1 0.012094 -0.000541 -0.003571 0.000000 0.004977 0.000000
# 2 -0.000541 0.012681 -0.004659 0.000000 -0.000456 0.000000
# 3 -0.003571 -0.004659 0.014543 0.000000 0.001772 0.000000
# 4 0.000000 0.000000 0.000000 0.038693 0.000000 0.000229
# 5 0.004977 -0.000456 0.001772 0.000000 0.023323 0.000000
# 6 0.000000 0.000000 0.000000 0.000229 0.000000 0.029617
#
#
# Mechanical properties :
#
#
# Convention : Reuss Voigt Hill
#
# Bulk Modulus (GPa) = 45.91716 50.02721 47.97218
# Shear Modulus (GPa) = 32.10287 35.15041 33.62664
#
# Velocity S-wave (km/s) = 3.58196 3.74813 3.66598
# Velocity P-wave (km/s) = 5.95473 6.22298 6.09033
#
# Compressibility (1/GPa) = 0.02177835
#
# Stress axis : x y z
#
# Youngs Moduli (GPa) = 82.68732 78.86013 68.75934
#
# Poissons Ratio (x) = 0.04263 0.24552
# Poissons Ratio (y) = 0.04470 0.32032
# Poissons Ratio (z) = 0.29525 0.36737
#
# Static dielectric constant tensor:
#      x y z
#    x 2.042760 0.000000 -0.048360 
#    y 0.000000 2.100640 0.000000 
#    z -0.048360 0.000000 2.064690 
# 
# From -- ./inp_files/19367.got.cif
#   From: 2010.05.17/outbox.cif.g08.bks.cpg/sg5_10_cif.got.tgz:19367.got - 2010.06.03 18:56:24.
