data_PCOD9126054
_publ_section_title
;
Structure prediction by ZEFSAII (Michael W. Deem and Ramdas Pophale) SiO2 
 PCOD9126054
Probable space group: C 2
;
_chemical_formula_sum "Si O2"
_cell_formula_units_Z 16
_cell_length_a 17.131283
_cell_length_b 8.206276
_cell_length_c 16.441871
_cell_angle_alpha 90.000000
_cell_angle_beta 17.414525
_cell_angle_gamma 90.000000
_cell_volume 691.781344
_symmetry_space_group_name_H-M "C 2"
_symmetry_group_IT_number 5
_symmetry_cell_setting 'monoclinic'
loop_
_space_group_symop_operation_xyz
x,y,z
-x,y,-z
1/2+x,1/2+y,z
1/2-x,1/2+y,-z
loop_
_atom_site_type_symbol
_atom_site_label
_atom_site_fract_x
_atom_site_fract_y
_atom_site_fract_z
Si Si1 0.764594 0.556210 0.606488
Si Si2 0.282354 0.745527 0.055060
Si Si3 0.979501 0.059468 0.318687
Si Si4 0.257709 0.213551 0.294084
O O1 0.680539 0.492197 0.599922
O O2 0.731445 0.407152 0.699788
O O3 0.055008 0.626093 0.313233
O O4 0.553232 0.700787 0.830112
O O5 0.165631 0.924400 0.172101
O O6 0.346251 0.699521 0.897206
O O7 0.779958 0.127332 0.582370
O O8 0.000000 0.177824 0.500000
O O9 0.500000 0.160705 0.000000
#
# Coordination Sequence:
#
# PCOD9126054 Si02
#       4
#     4   4   4   4
#     4  10  23  42  68 101 134 184 234 275 336 420
#     4  10  22  37  74  98 135 173 246 281 325 398
#     4  10  24  41  73 105 137 179 242 279 341 410
#     4  12  27  44  69 105 146 181 222 292 362 404
#
# _framework density 23.128696000000001
#
# number of rings (size 3 to 8) (size 9 to 14) (size 15 to 20)
#    1.500    0.000    0.000    4.500   10.500    0.000 
#    0.000    5.000    0.000    0.000    0.000    0.000 
#    0.000    0.000    0.000    0.000    0.000    0.000 
#
# Total GULP energy -44726.603239 kJ/mol
# GULP energy per Si atom -5590.825405 kJ/mol
# Density = 2.307605 g / cm^3
# Si number density = 23.128696 Si / 1000 Ang^3
#
#
#
# Elastic Constant Matrix: (Units=GPa)
#
#
# Indices 1 2 3 4 5 6 
#
# 1 33.3712 -16.5785 19.3175 -0.0054 -12.3151 0.0022
# 2 -16.5785 58.2380 37.8298 -0.0107 11.0608 0.0070
# 3 19.3175 37.8298 183.5323 -0.0126 -8.2525 0.0076
# 4 -0.0054 -0.0107 -0.0126 46.1957 0.0070 -6.9134
# 5 -12.3151 11.0608 -8.2525 0.0070 27.1307 -0.0036
# 6 0.0022 0.0070 0.0076 -6.9134 -0.0036 36.7448
#
#
#
# Elastic Compliance Matrix: (Units=1/GPa)
#
#
# Indices 1 2 3 4 5 6 
#
# 1 0.046948 0.015984 -0.007676 0.000005 0.012459 -0.000002
# 2 0.015984 0.027988 -0.007744 0.000007 -0.006510 -0.000004
# 3 -0.007676 -0.007744 0.007947 -0.000001 0.002090 0.000000
# 4 0.000005 0.000007 -0.000001 0.022274 -0.000006 0.004191
# 5 0.012459 -0.006510 0.002090 -0.000006 0.045804 0.000003
# 6 -0.000002 -0.000004 0.000000 0.004191 0.000003 0.028003
#
#
# Mechanical properties :
#
#
# Convention : Reuss Voigt Hill
#
# Bulk Modulus (GPa) = 11.90313 39.58656 25.74484
# Shear Modulus (GPa) = 24.29083 37.65243 30.97163
#
# Velocity S-wave (km/s) = 3.24427 4.03917 3.66334
# Velocity P-wave (km/s) = 4.38079 6.23748 5.38969
#
# Compressibility (1/GPa) = 0.08401152
#
# Stress axis : x y z
#
# Youngs Moduli (GPa) = 21.30017 35.72963 125.83772
#
# Poissons Ratio (x) = -0.57112 0.96592
# Poissons Ratio (y) = -0.34047 0.97449
# Poissons Ratio (z) = 0.16350 0.27669
#
# Static dielectric constant tensor:
#      x y z
#    x 1.823010 0.000000 -0.017740 
#    y 0.000000 1.862080 0.000000 
#    z -0.017740 0.000000 1.823670 
# 
# From -- ./inp_files/7840.got.cif
#   From: 2010.05.17/outbox.cif.g08.bks.cpg/sg5_4_cif.got.tgz:7840.got - 2010.06.03 18:56:24.
