data_PCOD9126029
_publ_section_title
;
Structure prediction by ZEFSAII (Michael W. Deem and Ramdas Pophale) SiO2 
 PCOD9126029
Probable space group: C 2
;
_chemical_formula_sum "Si O2"
_cell_formula_units_Z 32
_cell_length_a 11.264802
_cell_length_b 20.211847
_cell_length_c 7.114936
_cell_angle_alpha 90.000000
_cell_angle_beta 51.801717
_cell_angle_gamma 90.000000
_cell_volume 1273.075823
_symmetry_space_group_name_H-M "C 2"
_symmetry_group_IT_number 5
_symmetry_cell_setting 'monoclinic'
loop_
_space_group_symop_operation_xyz
x,y,z
-x,y,-z
1/2+x,1/2+y,z
1/2-x,1/2+y,-z
loop_
_atom_site_type_symbol
_atom_site_label
_atom_site_fract_x
_atom_site_fract_y
_atom_site_fract_z
Si Si1 0.146219 0.858740 0.601636
Si Si2 0.354144 0.696596 0.896310
Si Si3 0.650826 0.086583 0.971115
Si Si4 0.686295 0.729972 0.635980
Si Si5 0.686338 0.329304 0.005243
Si Si6 0.361863 0.952954 0.888698
Si Si7 0.405869 0.131766 0.449914
Si Si8 0.206269 0.486731 0.461792
O O1 0.259644 0.805255 0.397766
O O2 0.171707 0.845839 0.799430
O O3 0.179078 0.936835 0.548193
O O4 0.972143 0.842017 0.739644
O O5 0.297673 0.631026 0.846701
O O6 0.331555 0.692067 0.145302
O O7 0.525121 0.720337 0.697047
O O8 0.241629 0.754943 0.954866
O O9 0.570157 0.094804 0.255246
O O10 0.679247 0.009171 0.919351
O O11 0.500000 0.105548 0.000000
O O12 0.818653 0.687022 0.413794
O O13 0.809099 0.378957 0.974593
O O14 0.540611 0.958438 0.679743
O O15 0.279429 0.974386 0.776272
O O16 0.500000 0.181237 0.500000
O O17 0.298637 0.066564 0.515820
#
# Coordination Sequence:
#
# PCOD9126029 Si02
#       8
#     4   4   4   4   4   4   4   4
#     4  10  22  37  62  92 120 162 204 257 299 365
#     4  11  24  41  60  90 124 163 203 256 310 365
#     4  11  23  39  63  92 125 163 204 251 305 366
#     4  11  24  40  62  91 122 160 208 255 309 363
#     4  10  22  38  60  89 125 161 205 247 309 363
#     4   9  17  36  58  84 118 159 197 249 296 357
#     4  11  19  39  65  89 117 162 204 248 306 367
#     4   9  16  34  61  86 115 154 207 241 297 360
#
# _framework density 25.135974000000001
#
# number of rings (size 3 to 8) (size 9 to 14) (size 15 to 20)
#    0.000    1.750    3.750    1.500    3.500    2.500 
#    6.750    2.500    0.000    0.000    0.000    0.000 
#    0.000    0.000    0.000    0.000    0.000    0.000 
#
# Total GULP energy -89143.762679 kJ/mol
# GULP energy per Si atom -5571.485167 kJ/mol
# Density = 2.507876 g / cm^3
# Si number density = 25.135974 Si / 1000 Ang^3
#
#
#
# Elastic Constant Matrix: (Units=GPa)
#
#
# Indices 1 2 3 4 5 6 
#
# 1 76.2106 31.1353 26.9535 0.0000 -16.0690 0.0000
# 2 31.1353 100.4339 28.8892 0.0000 2.2906 0.0000
# 3 26.9535 28.8892 44.6484 0.0000 -9.0200 0.0000
# 4 0.0000 0.0000 0.0000 33.7674 0.0000 -7.7040
# 5 -16.0690 2.2906 -9.0200 0.0000 22.6624 0.0000
# 6 0.0000 0.0000 0.0000 -7.7040 0.0000 51.2180
#
#
#
# Elastic Compliance Matrix: (Units=1/GPa)
#
#
# Indices 1 2 3 4 5 6 
#
# 1 0.019812 -0.004498 -0.006655 0.000000 0.011854 0.000000
# 2 -0.004498 0.013748 -0.007727 0.000000 -0.007654 0.000000
# 3 -0.006655 -0.007727 0.033296 0.000000 0.009314 0.000000
# 4 0.000000 0.000000 0.000000 0.030667 0.000000 0.004613
# 5 0.011854 -0.007654 0.009314 0.000000 0.057012 0.000000
# 6 0.000000 0.000000 0.000000 0.004613 0.000000 0.020218
#
#
# Mechanical properties :
#
#
# Convention : Reuss Voigt Hill
#
# Bulk Modulus (GPa) = 34.36793 43.91653 39.14223
# Shear Modulus (GPa) = 22.50098 30.48387 26.49243
#
# Velocity S-wave (km/s) = 2.99519 3.48625 3.25000
# Velocity P-wave (km/s) = 5.06597 5.80644 5.44880
#
# Compressibility (1/GPa) = 0.02909689
#
# Stress axis : x y z
#
# Youngs Moduli (GPa) = 50.47363 72.73612 30.03361
#
# Poissons Ratio (x) = 0.32717 0.19988
# Poissons Ratio (y) = 0.22703 0.23206
# Poissons Ratio (z) = 0.33591 0.56201
#
# Static dielectric constant tensor:
#      x y z
#    x 1.866620 0.000000 -0.236900 
#    y 0.000000 1.943450 0.000000 
#    z -0.236900 0.000000 1.468810 
# 
# From -- ./inp_files/21967.got.cif
#   From: 2010.05.17/outbox.cif.g08.bks.cpg/sg5_11_cif.got.tgz:21967.got - 2010.06.03 18:56:24.
