data_PCOD9126304
_publ_section_title
;
Structure prediction by ZEFSAII (Michael W. Deem and Ramdas Pophale) SiO2 
 PCOD9126304
Probable space group: C 2
;
_chemical_formula_sum "Si O2"
_cell_formula_units_Z 20
_cell_length_a 20.571965
_cell_length_b 4.851797
_cell_length_c 13.756506
_cell_angle_alpha 90.000000
_cell_angle_beta 137.653801
_cell_angle_gamma 90.000000
_cell_volume 924.898795
_symmetry_space_group_name_H-M "C 2"
_symmetry_group_IT_number 5
_symmetry_cell_setting 'monoclinic'
loop_
_space_group_symop_operation_xyz
x,y,z
-x,y,-z
1/2+x,1/2+y,z
1/2-x,1/2+y,-z
loop_
_atom_site_type_symbol
_atom_site_label
_atom_site_fract_x
_atom_site_fract_y
_atom_site_fract_z
Si Si1 0.595377 0.350710 0.049771
Si Si2 0.460892 0.242189 0.741995
Si Si3 0.915032 0.581389 0.477884
Si Si4 0.632653 0.732750 0.263341
Si Si5 0.716791 0.557023 0.668185
O O1 0.558561 0.360680 0.898983
O O2 0.500000 0.232749 0.000000
O O3 0.611098 0.631606 0.128627
O O4 0.692671 0.179474 0.172011
O O5 0.457780 0.210384 0.623816
O O6 0.378436 0.450316 0.690061
O O7 0.439224 0.944290 0.764593
O O8 0.848652 0.318977 0.430022
O O9 0.000000 0.496005 0.500000
O O10 0.849647 0.822004 0.357674
O O11 0.733192 0.891587 0.365228
#
# Coordination Sequence:
#
# PCOD9126304 Si02
#       5
#     4   4   4   4   4
#     4  10  22  39  68 103 145 166 207 284 365 427
#     4  11  25  40  70 103 143 179 222 281 353 417
#     4  12  28  50  66  94 141 197 242 282 316 400
#     4  11  21  40  66 109 138 166 216 281 369 410
#     4  12  23  45  70  99 140 181 227 285 355 407
#
# _framework density 21.623987
#
# number of rings (size 3 to 8) (size 9 to 14) (size 15 to 20)
#    0.000    0.800    6.000    1.800    8.400    3.200 
#    3.600    2.000    0.000    0.000    0.000    0.000 
#    0.000    0.000    0.000    0.000    0.000    0.000 
#
# Total GULP energy -55792.688870 kJ/mol
# GULP energy per Si atom -5579.268887 kJ/mol
# Density = 2.157477 g / cm^3
# Si number density = 21.623987 Si / 1000 Ang^3
#
#
#
# Elastic Constant Matrix: (Units=GPa)
#
#
# Indices 1 2 3 4 5 6 
#
# 1 59.8494 34.4894 65.8016 0.0003 -7.6668 -0.0002
# 2 34.4894 137.1776 43.0173 0.0009 3.7178 0.0003
# 3 65.8016 43.0173 137.9201 0.0002 15.6219 0.0002
# 4 0.0003 0.0009 0.0002 22.2805 0.0002 12.0683
# 5 -7.6668 3.7178 15.6219 0.0002 14.2715 -0.0002
# 6 -0.0002 0.0003 0.0002 12.0683 -0.0002 28.1031
#
#
#
# Elastic Compliance Matrix: (Units=1/GPa)
#
#
# Indices 1 2 3 4 5 6 
#
# 1 0.112464 -0.011432 -0.065377 -0.000003 0.134958 0.000003
# 2 -0.011432 0.009249 0.004039 0.000000 -0.012972 0.000000
# 3 -0.065377 0.004039 0.047122 0.000002 -0.087754 -0.000002
# 4 -0.000003 0.000000 0.000002 0.058486 -0.000005 -0.025116
# 5 0.134958 -0.012972 -0.087754 -0.000005 0.242008 0.000005
# 6 0.000003 0.000000 -0.000002 -0.025116 0.000005 0.046369
#
#
# Mechanical properties :
#
#
# Convention : Reuss Voigt Hill
#
# Bulk Modulus (GPa) = 42.92944 69.06261 55.99602
# Shear Modulus (GPa) = 7.47381 25.70693 16.59037
#
# Velocity S-wave (km/s) = 1.86112 3.45166 2.77288
# Velocity P-wave (km/s) = 4.95118 6.92045 6.01692
#
# Compressibility (1/GPa) = 0.02329404
#
# Stress axis : x y z
#
# Youngs Moduli (GPa) = 8.89176 108.11811 21.22152
#
# Poissons Ratio (x) = 1.23600 1.38740
# Poissons Ratio (y) = 0.10165 -0.08571
# Poissons Ratio (z) = 0.58132 -0.43665
#
# Static dielectric constant tensor:
#      x y z
#    x 1.777850 0.000000 0.020490 
#    y 0.000000 1.844660 0.000000 
#    z 0.020490 0.000000 1.893900 
# 
# From -- ./inp_files/43656.got.cif
#   From: 2010.05.17/outbox.cif.g08.bks.cpg/sg5_22_cif.got.tgz:43656.got - 2010.06.03 18:56:24.
