data_PCOD9126082
_publ_section_title
;
Structure prediction by ZEFSAII (Michael W. Deem and Ramdas Pophale) SiO2 
 PCOD9126082
Probable space group: C 2
;
_chemical_formula_sum "Si O2"
_cell_formula_units_Z 26
_cell_length_a 27.930970
_cell_length_b 8.076256
_cell_length_c 12.402484
_cell_angle_alpha 90.000000
_cell_angle_beta 26.955240
_cell_angle_gamma 90.000000
_cell_volume 1268.192052
_symmetry_space_group_name_H-M "C 2"
_symmetry_group_IT_number 5
_symmetry_cell_setting 'monoclinic'
loop_
_space_group_symop_operation_xyz
x,y,z
-x,y,-z
1/2+x,1/2+y,z
1/2-x,1/2+y,-z
loop_
_atom_site_type_symbol
_atom_site_label
_atom_site_fract_x
_atom_site_fract_y
_atom_site_fract_z
Si Si1 0.150317 0.457850 0.181819
Si Si2 0.861702 0.951630 0.641650
Si Si3 0.209915 0.916995 0.453940
Si Si4 0.018478 0.608627 0.620709
Si Si5 0.124797 0.254162 0.732380
Si Si6 0.000000 0.178844 0.500000
Si Si7 0.069776 0.583990 0.752961
O O1 0.106539 0.488306 0.389769
O O2 0.088629 0.591573 0.232188
O O3 0.094297 0.288004 0.261553
O O4 0.272275 0.451821 0.913314
O O5 0.802687 0.969682 0.645614
O O6 0.927128 0.784028 0.503587
O O7 0.947456 0.082739 0.507221
O O8 0.319481 0.835220 0.274254
O O9 0.132511 0.757878 0.625384
O O10 0.178926 0.082511 0.584387
O O11 0.003556 0.576704 0.775993
O O12 0.133969 0.410142 0.630894
O O13 0.000000 0.220897 0.000000
O O14 0.000000 0.585481 0.000000
#
# Coordination Sequence:
#
# PCOD9126082 Si02
#       7
#     4   4   4   4   4   2   4
#     4  10  22  39  65  87 127 166 207 259 320 375
#     4  11  23  39  65  91 127 164 208 262 320 373
#     4  11  24  42  65  99 127 172 221 261 320 396
#     4   9  21  40  60  92 124 161 212 256 312 383
#     4  11  24  41  65  90 132 168 214 265 320 377
#     4  10  22  38  60  92 122 160 212 258 304 386
#     4  10  22  41  68  92 131 170 209 271 322 374
#
# _framework density 20.501626999999999
#
# number of rings (size 3 to 8) (size 9 to 14) (size 15 to 20)
#    0.000    1.846    1.538    2.308    8.615    0.000 
#    0.000    0.000    3.385    0.000    0.000    0.000 
#    0.000    0.000    0.000    0.000    0.000    0.000 
#
# Total GULP energy -72432.041797 kJ/mol
# GULP energy per Si atom -5571.695523 kJ/mol
# Density = 2.045496 g / cm^3
# Si number density = 20.501627 Si / 1000 Ang^3
#
#
#
# Elastic Constant Matrix: (Units=GPa)
#
#
# Indices 1 2 3 4 5 6 
#
# 1 103.5285 26.1357 16.3391 0.0000 3.5915 0.0000
# 2 26.1357 105.9573 27.7527 0.0000 -8.3736 0.0000
# 3 16.3391 27.7527 58.1755 0.0000 3.6169 0.0000
# 4 0.0000 0.0000 0.0000 23.8726 0.0000 -19.5218
# 5 3.5915 -8.3736 3.6169 0.0000 28.0387 0.0000
# 6 0.0000 0.0000 0.0000 -19.5218 0.0000 128.7524
#
#
#
# Elastic Compliance Matrix: (Units=1/GPa)
#
#
# Indices 1 2 3 4 5 6 
#
# 1 0.010579 -0.002290 -0.001766 0.000000 -0.001811 0.000000
# 2 -0.002290 0.011725 -0.005228 0.000000 0.004469 0.000000
# 3 -0.001766 -0.005228 0.020426 0.000000 -0.003970 0.000000
# 4 0.000000 0.000000 0.000000 0.047818 0.000000 0.007250
# 5 -0.001811 0.004469 -0.003970 0.000000 0.037744 0.000000
# 6 0.000000 0.000000 0.000000 0.007250 0.000000 0.008866
#
#
# Mechanical properties :
#
#
# Convention : Reuss Voigt Hill
#
# Bulk Modulus (GPa) = 41.38768 45.34624 43.36696
# Shear Modulus (GPa) = 30.52856 49.29500 39.91178
#
# Velocity S-wave (km/s) = 3.86305 4.90883 4.41700
# Velocity P-wave (km/s) = 6.33473 7.36853 6.87110
#
# Compressibility (1/GPa) = 0.02416178
#
# Stress axis : x y z
#
# Youngs Moduli (GPa) = 94.52841 85.28624 48.95629
#
# Poissons Ratio (x) = 0.19530 0.08646
# Poissons Ratio (y) = 0.21646 0.25596
# Poissons Ratio (z) = 0.16695 0.44590
#
# Static dielectric constant tensor:
#      x y z
#    x 1.784100 0.000000 -0.011280 
#    y 0.000000 1.809290 0.000000 
#    z -0.011280 0.000000 1.704690 
# 
# From -- ./inp_files/47256.got.cif
#   From: 2010.05.17/outbox.cif.g08.bks.cpg/sg5_24_cif.got.tgz:47256.got - 2010.06.03 18:56:24.
