data_PCOD9126020
_publ_section_title
;
Structure prediction by ZEFSAII (Michael W. Deem and Ramdas Pophale) SiO2 
 PCOD9126020
Probable space group: C 2
;
_chemical_formula_sum "Si O2"
_cell_formula_units_Z 24
_cell_length_a 26.722519
_cell_length_b 7.597398
_cell_length_c 11.772422
_cell_angle_alpha 90.000000
_cell_angle_beta 154.306909
_cell_angle_gamma 90.000000
_cell_volume 1036.209837
_symmetry_space_group_name_H-M "C 2"
_symmetry_group_IT_number 5
_symmetry_cell_setting 'monoclinic'
loop_
_space_group_symop_operation_xyz
x,y,z
-x,y,-z
1/2+x,1/2+y,z
1/2-x,1/2+y,-z
loop_
_atom_site_type_symbol
_atom_site_label
_atom_site_fract_x
_atom_site_fract_y
_atom_site_fract_z
Si Si1 0.851596 0.166540 0.248733
Si Si2 0.500000 0.988286 0.500000
Si Si3 0.177566 0.883683 0.995239
Si Si4 0.500000 0.415259 0.000000
Si Si5 0.897075 0.610946 0.516150
Si Si6 0.357946 0.509404 0.500518
Si Si7 0.886743 0.674736 0.930662
O O1 0.896862 0.344502 0.283040
O O2 0.719852 0.212565 0.011247
O O3 0.897436 0.113902 0.467503
O O4 0.869617 0.016107 0.194367
O O5 0.467672 0.099010 0.543008
O O6 0.104182 0.822537 0.951192
O O7 0.290776 0.977738 0.282360
O O8 0.554168 0.522427 0.214543
O O9 0.600091 0.285044 0.157212
O O10 0.849351 0.804331 0.446833
O O11 0.995461 0.563973 0.810458
O O12 0.232854 0.577834 0.288337
#
# Coordination Sequence:
#
# PCOD9126020 Si02
#       7
#     4   2   4   2   4   4   4
#     4  10  22  37  61 101 138 175 216 258 332 407
#     4  10  24  34  60 102 142 170 220 250 320 418
#     4  10  22  39  62  98 142 169 212 265 331 407
#     4  10  24  46  64  96 124 170 242 282 318 376
#     4  10  23  39  61  97 134 170 214 264 324 395
#     4  10  23  43  69  91 133 180 219 277 333 378
#     4  10  24  44  68  95 128 175 226 274 328 390
#
# _framework density 23.161331000000001
#
# number of rings (size 3 to 8) (size 9 to 14) (size 15 to 20)
#    0.000    2.000    0.000    1.000   18.667    2.667 
#    0.000    5.000    0.000    5.000    0.000    0.000 
#    0.000    0.000    0.000    0.000    0.000    0.000 
#
# Total GULP energy -66983.470260 kJ/mol
# GULP energy per Si atom -5581.955855 kJ/mol
# Density = 2.310862 g / cm^3
# Si number density = 23.161331 Si / 1000 Ang^3
#
#
#
# Elastic Constant Matrix: (Units=GPa)
#
#
# Indices 1 2 3 4 5 6 
#
# 1 104.9115 37.6256 30.0436 0.0000 0.8495 0.0000
# 2 37.6256 90.3928 35.1849 0.0000 -13.1094 0.0000
# 3 30.0436 35.1849 115.7087 0.0000 -10.9093 0.0000
# 4 0.0000 0.0000 0.0000 36.2250 0.0000 3.1324
# 5 0.8495 -13.1094 -10.9093 0.0000 40.2244 0.0000
# 6 0.0000 0.0000 0.0000 3.1324 0.0000 39.8105
#
#
#
# Elastic Compliance Matrix: (Units=1/GPa)
#
#
# Indices 1 2 3 4 5 6 
#
# 1 0.011687 -0.004449 -0.001890 0.000000 -0.002209 0.000000
# 2 -0.004449 0.014639 -0.002912 0.000000 0.004075 0.000000
# 3 -0.001890 -0.002912 0.010194 0.000000 0.001855 0.000000
# 4 0.000000 0.000000 0.000000 0.027794 0.000000 -0.002187
# 5 -0.002209 0.004075 0.001855 0.000000 0.026739 0.000000
# 6 0.000000 0.000000 0.000000 -0.002187 0.000000 0.025291
#
#
# Mechanical properties :
#
#
# Convention : Reuss Voigt Hill
#
# Bulk Modulus (GPa) = 55.50266 57.41344 56.45805
# Shear Modulus (GPa) = 35.49835 37.12924 36.31379
#
# Velocity S-wave (km/s) = 3.91916 4.00818 3.96392
# Velocity P-wave (km/s) = 6.67048 6.80169 6.73640
#
# Compressibility (1/GPa) = 0.01801716
#
# Stress axis : x y z
#
# Youngs Moduli (GPa) = 85.56787 68.30889 98.10163
#
# Poissons Ratio (x) = 0.30393 0.18539
# Poissons Ratio (y) = 0.38072 0.28568
# Poissons Ratio (z) = 0.16170 0.19892
#
# Static dielectric constant tensor:
#      x y z
#    x 1.901990 0.000000 0.050310 
#    y 0.000000 1.892430 0.000000 
#    z 0.050310 0.000000 1.983450 
# 
# From -- ./inp_files/47864.got.cif
#   From: 2010.05.17/outbox.cif.g08.bks.cpg/sg5_24_cif.got.tgz:47864.got - 2010.06.03 18:56:24.
