data_PCOD9126540
_publ_section_title
;
Structure prediction by ZEFSAII (Michael W. Deem and Ramdas Pophale) SiO2 
 PCOD9126540
Probable space group: C 2
;
_chemical_formula_sum "Si O2"
_cell_formula_units_Z 30
_cell_length_a 18.607787
_cell_length_b 5.358293
_cell_length_c 16.478218
_cell_angle_alpha 90.000000
_cell_angle_beta 123.932677
_cell_angle_gamma 90.000000
_cell_volume 1363.168076
_symmetry_space_group_name_H-M "C 2"
_symmetry_group_IT_number 5
_symmetry_cell_setting 'monoclinic'
loop_
_space_group_symop_operation_xyz
x,y,z
-x,y,-z
1/2+x,1/2+y,z
1/2-x,1/2+y,-z
loop_
_atom_site_type_symbol
_atom_site_label
_atom_site_fract_x
_atom_site_fract_y
_atom_site_fract_z
Si Si1 0.197875 0.346220 0.479105
Si Si2 0.500000 0.328438 0.000000
Si Si3 0.342490 0.035436 0.978122
Si Si4 0.097538 0.552587 0.270155
Si Si5 0.668074 0.625974 0.780312
Si Si6 0.637772 0.685577 0.150962
Si Si7 0.239308 0.356350 0.674846
Si Si8 0.097413 0.611820 0.807253
O O1 0.268988 0.560819 0.502267
O O2 0.126246 0.383023 0.364824
O O3 0.177596 0.412946 0.560129
O O4 0.429351 0.169303 0.002519
O O5 0.441820 0.495209 0.903755
O O6 0.256592 0.158626 0.887634
O O7 0.346115 0.774074 0.931342
O O8 0.346173 0.052950 0.076558
O O9 0.106957 0.403842 0.191563
O O10 0.170671 0.763713 0.308356
O O11 0.001396 0.642443 0.226474
O O12 0.697881 0.646630 0.705907
O O13 0.627949 0.364101 0.782687
O O14 0.607508 0.863064 0.759903
O O15 0.725591 0.572949 0.244072
#
# Coordination Sequence:
#
# PCOD9126540 Si02
#       8
#     4   2   4   4   4   4   4   4
#     4  10  22  40  74 110 137 173 238 304 364 420
#     4  12  24  36  68 104 132 176 242 292 356 404
#     4  12  25  43  61 101 134 192 228 291 339 432
#     4  11  24  45  71 104 140 183 240 302 358 426
#     4  12  27  46  68  97 145 186 231 284 354 421
#     4  12  21  40  71 103 140 179 238 304 354 416
#     4  11  23  44  75 102 137 185 242 300 364 427
#     4  12  29  44  67 102 141 190 233 285 349 423
#
# _framework density 22.007558
#
# number of rings (size 3 to 8) (size 9 to 14) (size 15 to 20)
#    0.000    0.533    4.000    4.400    5.600    0.000 
#    0.000    0.667    0.000    3.200    0.000    0.000 
#    0.000    0.000    0.000    0.000    0.000    0.000 
#
# Total GULP energy -83841.632864 kJ/mol
# GULP energy per Si atom -5589.442191 kJ/mol
# Density = 2.195747 g / cm^3
# Si number density = 22.007558 Si / 1000 Ang^3
#
#
#
# Elastic Constant Matrix: (Units=GPa)
#
#
# Indices 1 2 3 4 5 6 
#
# 1 85.8543 33.6576 6.1092 0.0001 -12.2505 -0.0001
# 2 33.6576 97.2439 9.7292 0.0001 -15.1137 -0.0002
# 3 6.1092 9.7292 97.1064 0.0000 -18.5041 0.0000
# 4 0.0001 0.0001 0.0000 32.9995 -0.0001 -3.5103
# 5 -12.2505 -15.1137 -18.5041 -0.0001 12.0146 0.0000
# 6 -0.0001 -0.0002 0.0000 -3.5103 0.0000 31.5774
#
#
#
# Elastic Compliance Matrix: (Units=1/GPa)
#
#
# Indices 1 2 3 4 5 6 
#
# 1 0.014767 -0.003074 0.002139 0.000000 0.014485 0.000000
# 2 -0.003074 0.013875 0.002168 0.000000 0.017659 0.000000
# 3 0.002139 0.002168 0.015402 0.000000 0.028629 0.000000
# 4 0.000000 0.000000 0.000000 0.030666 0.000000 0.003409
# 5 0.014485 0.017659 0.028629 0.000000 0.164307 0.000000
# 6 0.000000 0.000000 0.000000 0.003409 0.000000 0.032047
#
#
# Mechanical properties :
#
#
# Convention : Reuss Voigt Hill
#
# Bulk Modulus (GPa) = 21.50054 42.13296 31.81675
# Shear Modulus (GPa) = 17.59938 30.69888 24.14913
#
# Velocity S-wave (km/s) = 2.83096 3.73892 3.31616
# Velocity P-wave (km/s) = 4.52511 6.15026 5.39918
#
# Compressibility (1/GPa) = 0.04651046
#
# Stress axis : x y z
#
# Youngs Moduli (GPa) = 67.71699 72.07209 64.92862
#
# Poissons Ratio (x) = 0.22155 -0.13889
# Poissons Ratio (y) = 0.20816 -0.14078
# Poissons Ratio (z) = -0.14485 -0.15627
#
# Static dielectric constant tensor:
#      x y z
#    x 1.793580 0.000000 -0.029390 
#    y 0.000000 1.873320 0.000000 
#    z -0.029390 0.000000 1.855910 
# 
# From -- ./inp_files/55475.got.cif
#   From: 2010.05.17/outbox.cif.g08.bks.cpg/sg5_28_cif.got.tgz:55475.got - 2010.06.03 18:56:24.
