data_PCOD9126208
_publ_section_title
;
Structure prediction by ZEFSAII (Michael W. Deem and Ramdas Pophale) SiO2 
 PCOD9126208
Probable space group: C 2
;
_chemical_formula_sum "Si O2"
_cell_formula_units_Z 18
_cell_length_a 14.556292
_cell_length_b 5.738820
_cell_length_c 13.261613
_cell_angle_alpha 90.000000
_cell_angle_beta 134.437104
_cell_angle_gamma 90.000000
_cell_volume 791.005943
_symmetry_space_group_name_H-M "C 2"
_symmetry_group_IT_number 5
_symmetry_cell_setting 'monoclinic'
loop_
_space_group_symop_operation_xyz
x,y,z
-x,y,-z
1/2+x,1/2+y,z
1/2-x,1/2+y,-z
loop_
_atom_site_type_symbol
_atom_site_label
_atom_site_fract_x
_atom_site_fract_y
_atom_site_fract_z
Si Si1 0.798996 0.290060 0.949063
Si Si2 0.805023 0.418735 0.579768
Si Si3 0.500000 0.453925 0.000000
Si Si4 0.894608 0.434027 0.238180
Si Si5 0.211470 0.651018 0.224540
O O1 0.826319 0.518545 0.906409
O O2 0.900296 0.103247 0.986975
O O3 0.658373 0.198354 0.808358
O O4 0.823965 0.327913 0.085102
O O5 0.750126 0.161610 0.510730
O O6 0.780559 0.468713 0.679323
O O7 0.954826 0.413119 0.663500
O O8 0.410854 0.315932 0.852484
O O9 0.836845 0.303564 0.292051
#
# Coordination Sequence:
#
# PCOD9126208 Si02
#       5
#     4   4   2   4   4
#     4  11  22  42  75 111 145 177 242 327 395 450
#     4  12  32  53  74 104 155 215 261 305 360 457
#     4  10  22  38  74 108 146 182 234 318 404 444
#     4  11  25  44  77 112 145 190 247 318 393 452
#     4  11  25  45  73 109 146 196 250 318 380 453
#
# _framework density 22.755834
#
# number of rings (size 3 to 8) (size 9 to 14) (size 15 to 20)
#    0.000    0.889    2.222    3.333   15.556    0.889 
#    0.000    0.000    0.000    0.000    0.000    0.000 
#    0.000    0.000    0.000    0.000    0.000    0.000 
#
# Total GULP energy -50284.514351 kJ/mol
# GULP energy per Si atom -5587.168261 kJ/mol
# Density = 2.270404 g / cm^3
# Si number density = 22.755834 Si / 1000 Ang^3
#
#
#
# Elastic Constant Matrix: (Units=GPa)
#
#
# Indices 1 2 3 4 5 6 
#
# 1 95.6588 16.4765 46.2975 0.0000 21.2855 0.0000
# 2 16.4765 72.9822 29.7927 0.0000 13.1537 0.0000
# 3 46.2975 29.7927 57.3554 0.0000 22.5548 0.0000
# 4 0.0000 0.0000 0.0000 36.3582 0.0000 -8.4102
# 5 21.2855 13.1537 22.5548 0.0000 45.6544 0.0000
# 6 0.0000 0.0000 0.0000 -8.4102 0.0000 28.6239
#
#
#
# Elastic Compliance Matrix: (Units=1/GPa)
#
#
# Indices 1 2 3 4 5 6 
#
# 1 0.017544 0.002349 -0.014768 0.000000 -0.001560 0.000000
# 2 0.002349 0.017721 -0.010751 0.000000 -0.000889 0.000000
# 3 -0.014768 -0.010751 0.038493 0.000000 -0.009034 0.000000
# 4 0.000000 0.000000 0.000000 0.029510 0.000000 0.008671
# 5 -0.001560 -0.000889 -0.009034 0.000000 0.027351 0.000000
# 6 0.000000 0.000000 0.000000 0.008671 0.000000 0.037483
#
#
# Mechanical properties :
#
#
# Convention : Reuss Voigt Hill
#
# Bulk Modulus (GPa) = 36.47340 45.68112 41.07726
# Shear Modulus (GPa) = 22.36317 31.02261 26.69289
#
# Velocity S-wave (km/s) = 3.13828 3.69627 3.42864
# Velocity P-wave (km/s) = 5.40321 6.19149 5.81073
#
# Compressibility (1/GPa) = 0.02741724
#
# Stress axis : x y z
#
# Youngs Moduli (GPa) = 56.99956 56.43069 25.97851
#
# Poissons Ratio (x) = -0.13256 0.38366
# Poissons Ratio (y) = -0.13390 0.27931
# Poissons Ratio (z) = 0.84178 0.60671
#
# Static dielectric constant tensor:
#      x y z
#    x 1.877330 0.000000 -0.036650 
#    y 0.000000 1.950110 0.000000 
#    z -0.036650 0.000000 1.861730 
# 
# From -- ./inp_files/26036.got.cif
#   From: 2010.05.17/outbox.cif.g08.bks.cpg/sg5_14_cif.got.tgz:26036.got - 2010.06.03 18:56:24.
