data_PCOD9126353
_publ_section_title
;
Structure prediction by ZEFSAII (Michael W. Deem and Ramdas Pophale) SiO2 
 PCOD9126353
Probable space group: C 2
;
_chemical_formula_sum "Si O2"
_cell_formula_units_Z 22
_cell_length_a 29.426167
_cell_length_b 7.533934
_cell_length_c 9.560053
_cell_angle_alpha 90.000000
_cell_angle_beta 149.626503
_cell_angle_gamma 90.000000
_cell_volume 1071.649370
_symmetry_space_group_name_H-M "C 2"
_symmetry_group_IT_number 5
_symmetry_cell_setting 'monoclinic'
loop_
_space_group_symop_operation_xyz
x,y,z
-x,y,-z
1/2+x,1/2+y,z
1/2-x,1/2+y,-z
loop_
_atom_site_type_symbol
_atom_site_label
_atom_site_fract_x
_atom_site_fract_y
_atom_site_fract_z
Si Si1 0.037196 0.173700 0.245211
Si Si2 0.605011 0.426816 0.992135
Si Si3 0.760153 0.103271 0.852171
Si Si4 0.602316 0.307509 0.288712
Si Si5 0.642895 0.910960 0.744283
Si Si6 0.000000 0.676518 0.500000
O O1 0.093614 0.309465 0.486220
O O2 0.955284 0.095556 0.120408
O O3 0.091740 0.996692 0.340857
O O4 0.000000 0.250301 0.000000
O O5 0.541967 0.298847 0.732888
O O6 0.689160 0.478679 0.121690
O O7 0.635061 0.340076 0.217841
O O8 0.668688 0.181379 0.546418
O O9 0.731749 0.002233 0.917351
O O10 0.826915 0.263169 0.065637
O O11 0.500000 0.240189 0.000000
O O12 0.577196 0.053665 0.638739
#
# Coordination Sequence:
#
# PCOD9126353 Si02
#       6
#     4   4   4   4   4   2
#     4   9  20  41  64  85 117 159 199 241 296 358
#     4  10  22  40  62  88 119 154 199 248 294 353
#     4  12  24  38  61  91 122 154 200 254 294 346
#     4   9  21  42  63  84 119 161 198 244 300 354
#     4  12  24  38  60  89 122 159 199 245 297 353
#     4  12  24  40  62  86 122 164 196 238 300 364
#
# _framework density 20.529104
#
# number of rings (size 3 to 8) (size 9 to 14) (size 15 to 20)
#    0.000    1.818    0.000    6.545    0.000    6.545 
#    0.000    0.000    0.000    0.000    0.000    0.000 
#    0.000    0.000    0.000    0.000    0.000    0.000 
#
# Total GULP energy -61506.118405 kJ/mol
# GULP energy per Si atom -5591.465310 kJ/mol
# Density = 2.048238 g / cm^3
# Si number density = 20.529104 Si / 1000 Ang^3
#
#
#
# Elastic Constant Matrix: (Units=GPa)
#
#
# Indices 1 2 3 4 5 6 
#
# 1 115.3332 9.1206 1.5782 0.0000 9.8500 0.0000
# 2 9.1206 27.4003 18.3058 0.0000 -2.2022 0.0000
# 3 1.5782 18.3058 65.2472 0.0000 -12.3142 0.0000
# 4 0.0000 0.0000 0.0000 32.0369 0.0000 10.8416
# 5 9.8500 -2.2022 -12.3142 0.0000 24.9712 0.0000
# 6 0.0000 0.0000 0.0000 10.8416 0.0000 23.2014
#
#
#
# Elastic Compliance Matrix: (Units=1/GPa)
#
#
# Indices 1 2 3 4 5 6 
#
# 1 0.009278 -0.003393 -0.000022 0.000000 -0.003970 0.000000
# 2 -0.003393 0.046296 -0.013103 0.000000 -0.001040 0.000000
# 3 -0.000022 -0.013103 0.020715 0.000000 0.009068 0.000000
# 4 0.000000 0.000000 0.000000 0.037077 0.000000 -0.017325
# 5 -0.003970 -0.001040 0.009068 0.000000 0.045992 0.000000
# 6 0.000000 0.000000 0.000000 -0.017325 0.000000 0.051197
#
#
# Mechanical properties :
#
#
# Convention : Reuss Voigt Hill
#
# Bulk Modulus (GPa) = 23.11980 29.55445 26.33712
# Shear Modulus (GPa) = 19.37928 27.97363 23.67646
#
# Velocity S-wave (km/s) = 3.07578 3.69539 3.39973
# Velocity P-wave (km/s) = 4.88879 5.71275 5.31676
#
# Compressibility (1/GPa) = 0.04325298
#
# Stress axis : x y z
#
# Youngs Moduli (GPa) = 107.77975 21.60026 48.27534
#
# Poissons Ratio (x) = 0.07329 0.00105
# Poissons Ratio (y) = 0.36569 0.63255
# Poissons Ratio (z) = 0.00234 0.28303
#
# Static dielectric constant tensor:
#      x y z
#    x 1.707070 0.000000 0.006100 
#    y 0.000000 1.714750 0.000000 
#    z 0.006100 0.000000 1.705680 
# 
# From -- ./inp_files/31720.got.cif
#   From: 2010.05.17/outbox.cif.g08.bks.cpg/sg5_16_cif.got.tgz:31720.got - 2010.06.03 18:56:24.
