data_PCOD9126160
_publ_section_title
;
Structure prediction by ZEFSAII (Michael W. Deem and Ramdas Pophale) SiO2 
 PCOD9126160
Probable space group: C 2
;
_chemical_formula_sum "Si O2"
_cell_formula_units_Z 26
_cell_length_a 5.167224
_cell_length_b 29.983650
_cell_length_c 9.045965
_cell_angle_alpha 90.000000
_cell_angle_beta 120.441468
_cell_angle_gamma 90.000000
_cell_volume 1208.309287
_symmetry_space_group_name_H-M "C 2"
_symmetry_group_IT_number 5
_symmetry_cell_setting 'monoclinic'
loop_
_space_group_symop_operation_xyz
x,y,z
-x,y,-z
1/2+x,1/2+y,z
1/2-x,1/2+y,-z
loop_
_atom_site_type_symbol
_atom_site_label
_atom_site_fract_x
_atom_site_fract_y
_atom_site_fract_z
Si Si1 0.564201 0.884180 0.187785
Si Si2 0.683435 0.429376 0.318000
Si Si3 0.141976 0.026363 0.377202
Si Si4 0.647351 0.296181 0.705670
Si Si5 0.000000 0.782015 0.000000
Si Si6 0.525688 0.710192 0.172730
Si Si7 0.359042 0.622813 0.619649
O O1 0.300690 0.906688 0.203687
O O2 0.578788 0.831397 0.222627
O O3 0.903455 0.903214 0.309351
O O4 0.500000 0.892872 0.000000
O O5 0.579238 0.480678 0.273075
O O6 0.000000 0.428740 0.500000
O O7 0.500000 0.028284 0.500000
O O8 0.059434 0.074574 0.285610
O O9 0.000000 0.021391 0.500000
O O10 0.500000 0.304414 0.500000
O O11 0.690712 0.242699 0.722117
O O12 0.543905 0.305150 0.849269
O O13 0.269907 0.747355 0.109491
O O14 0.519019 0.667603 0.272785
O O15 0.500000 0.692432 0.000000
O O16 0.500000 0.619855 0.500000
O O17 0.000000 0.626580 0.500000
#
# Coordination Sequence:
#
# PCOD9126160 Si02
#       7
#     4   4   4   4   2   4   4
#     4  12  26  43  63  97 135 173 217 282 341 402
#     4  11  22  41  69  94 126 171 227 273 333 405
#     4   9  18  37  64  95 127 164 215 282 329 390
#     4  11  25  43  66  94 130 178 233 273 341 408
#     4  10  24  42  64  90 138 182 214 292 332 400
#     4  10  23  40  60  91 132 172 219 272 340 391
#     4  10  22  38  66  96 125 168 223 272 331 399
#
# _framework density 21.517668
#
# number of rings (size 3 to 8) (size 9 to 14) (size 15 to 20)
#    0.000    1.538    0.000    5.538   10.769    0.000 
#    0.000    1.538    1.692    0.000    0.000    0.000 
#    0.000    0.000    0.000    0.000    0.000    0.000 
#
# Total GULP energy -72382.306099 kJ/mol
# GULP energy per Si atom -5567.869700 kJ/mol
# Density = 2.146869 g / cm^3
# Si number density = 21.517668 Si / 1000 Ang^3
#
#
#
# Elastic Constant Matrix: (Units=GPa)
#
#
# Indices 1 2 3 4 5 6 
#
# 1 113.1758 37.4113 24.4671 0.0000 -14.1611 0.0000
# 2 37.4113 170.7276 32.7770 0.0000 -19.9787 0.0000
# 3 24.4671 32.7770 95.4520 0.0000 -20.9669 0.0000
# 4 0.0000 0.0000 0.0000 -3.5668 0.0000 -13.3265
# 5 -14.1611 -19.9787 -20.9669 0.0000 27.5323 0.0000
# 6 0.0000 0.0000 0.0000 -13.3265 0.0000 20.8650
#
#
#
# Elastic Compliance Matrix: (Units=1/GPa)
#
#
# Indices 1 2 3 4 5 6 
#
# 1 0.010028 -0.001587 -0.001376 0.000000 0.002959 0.000000
# 2 -0.001587 0.006815 -0.001233 0.000000 0.003190 0.000000
# 3 -0.001376 -0.001233 0.013090 0.000000 0.008367 0.000000
# 4 0.000000 0.000000 0.000000 -0.082792 0.000000 -0.052879
# 5 0.002959 0.003190 0.008367 0.000000 0.046529 0.000000
# 6 0.000000 0.000000 0.000000 -0.052879 0.000000 0.014153
#
#
# Mechanical properties :
#
#
# Convention : Reuss Voigt Hill
#
# Bulk Modulus (GPa) = 46.41961 63.18515 54.80238
# Shear Modulus (GPa) = 213.71972 27.94611 120.83291
#
# Velocity S-wave (km/s) = 9.97690 3.60773 7.50181
# Velocity P-wave (km/s) = 12.42327 6.83976 10.02796
#
# Compressibility (1/GPa) = 0.02154262
#
# Stress axis : x y z
#
# Youngs Moduli (GPa) = 99.72046 146.73429 76.39330
#
# Poissons Ratio (x) = 0.23288 0.10509
# Poissons Ratio (y) = 0.15827 0.09416
# Poissons Ratio (z) = 0.13717 0.18086
#
# Static dielectric constant tensor:
#      x y z
#    x 1.974950 0.000000 0.088650 
#    y 0.000000 1.788260 0.000000 
#    z 0.088650 0.000000 1.833260 
# 
# From -- ./inp_files/13160.got.cif
#   From: 2010.05.17/outbox.cif.g08.bks.cpg/sg5_7_cif.got.tgz:13160.got - 2010.06.03 18:56:24.
