data_PCOD9126037
_publ_section_title
;
Structure prediction by ZEFSAII (Michael W. Deem and Ramdas Pophale) SiO2 
 PCOD9126037
Probable space group: C 2
;
_chemical_formula_sum "Si O2"
_cell_formula_units_Z 28
_cell_length_a 20.133256
_cell_length_b 13.116467
_cell_length_c 17.189803
_cell_angle_alpha 90.000000
_cell_angle_beta 19.484662
_cell_angle_gamma 90.000000
_cell_volume 1514.148933
_symmetry_space_group_name_H-M "C 2"
_symmetry_group_IT_number 5
_symmetry_cell_setting 'monoclinic'
loop_
_space_group_symop_operation_xyz
x,y,z
-x,y,-z
1/2+x,1/2+y,z
1/2-x,1/2+y,-z
loop_
_atom_site_type_symbol
_atom_site_label
_atom_site_fract_x
_atom_site_fract_y
_atom_site_fract_z
Si Si1 0.964539 0.575300 0.764399
Si Si2 0.288723 0.203524 0.089755
Si Si3 0.240152 0.574907 0.731931
Si Si4 0.236002 0.339612 0.750541
Si Si5 0.410333 0.837658 0.807320
Si Si6 0.595413 0.255864 0.275664
Si Si7 0.263375 0.183974 0.422917
O O1 0.960963 0.455909 0.755498
O O2 0.915977 0.639953 0.741187
O O3 0.170145 0.614604 0.577323
O O4 0.805184 0.614244 0.005546
O O5 0.210138 0.152939 0.254433
O O6 0.160197 0.295416 0.198381
O O7 0.523163 0.233662 0.837832
O O8 0.295435 0.458782 0.689009
O O9 0.300749 0.614812 0.580001
O O10 0.000000 0.572762 0.000000
O O11 0.369290 0.294473 0.534042
O O12 0.300264 0.280286 0.757595
O O13 0.000000 0.331914 0.000000
O O14 0.597126 0.766971 0.624768
O O15 0.223840 0.814998 0.069577
#
# Coordination Sequence:
#
# PCOD9126037 Si02
#       7
#     4   4   4   4   4   4   4
#     4   9  21  39  55  86 120 152 197 236 283 358
#     4   8  19  38  55  88 119 143 195 248 282 350
#     4   9  17  36  60  88 118 142 197 250 289 336
#     4  10  22  37  63  86 114 158 187 250 302 326
#     4  11  21  38  60  82 121 163 186 237 299 336
#     4  10  23  38  55  89 121 143 202 238 281 365
#     4   9  21  36  55  90 113 152 193 243 284 341
#
# _framework density 18.492235999999998
#
# number of rings (size 3 to 8) (size 9 to 14) (size 15 to 20)
#    0.857    1.714    0.000    0.857    4.000    5.143 
#    5.143    2.857    0.000    1.714    0.000    0.000 
#    0.000    0.000    0.000    0.000    0.000    0.000 
#
# Total GULP energy -77974.989166 kJ/mol
# GULP energy per Si atom -5569.642083 kJ/mol
# Density = 1.845015 g / cm^3
# Si number density = 18.492236 Si / 1000 Ang^3
#
#
#
# Elastic Constant Matrix: (Units=GPa)
#
#
# Indices 1 2 3 4 5 6 
#
# 1 97.6527 71.5946 23.8008 0.0038 -6.6606 -0.0012
# 2 71.5946 150.5332 48.8796 -0.0005 -4.4937 -0.0023
# 3 23.8008 48.8796 98.2896 0.0010 -15.8640 0.0006
# 4 0.0038 -0.0005 0.0010 17.5239 0.0006 -4.7561
# 5 -6.6606 -4.4937 -15.8640 0.0006 21.7320 0.0012
# 6 -0.0012 -0.0023 0.0006 -4.7561 0.0012 21.2425
#
#
#
# Elastic Compliance Matrix: (Units=1/GPa)
#
#
# Indices 1 2 3 4 5 6 
#
# 1 0.015982 -0.007666 0.000541 -0.000004 0.003708 -0.000001
# 2 -0.007666 0.011637 -0.004446 0.000003 -0.003188 0.000002
# 3 0.000541 -0.004446 0.013753 -0.000002 0.009286 -0.000002
# 4 -0.000004 0.000003 -0.000002 0.060757 -0.000004 0.013603
# 5 0.003708 -0.003188 0.009286 -0.000004 0.053270 -0.000004
# 6 -0.000001 0.000002 -0.000002 0.013603 -0.000004 0.050121
#
#
# Mechanical properties :
#
#
# Convention : Reuss Voigt Hill
#
# Bulk Modulus (GPa) = 54.85415 70.55840 62.70627
# Shear Modulus (GPa) = 21.30030 25.57972 23.44001
#
# Velocity S-wave (km/s) = 3.39757 3.72327 3.56414
# Velocity P-wave (km/s) = 6.71707 7.53141 7.13587
#
# Compressibility (1/GPa) = 0.01823016
#
# Stress axis : x y z
#
# Youngs Moduli (GPa) = 62.57120 85.93002 72.71367
#
# Poissons Ratio (x) = 0.65873 -0.03932
# Poissons Ratio (y) = 0.47967 0.32325
# Poissons Ratio (z) = -0.03383 0.38201
#
# Static dielectric constant tensor:
#      x y z
#    x 1.689580 0.000000 -0.029530 
#    y 0.000000 1.601840 0.000000 
#    z -0.029530 0.000000 1.673110 
# 
# From -- ./inp_files/62880.got.cif
#   From: 2010.05.17/outbox.cif.g08.bks.cpg/sg5_32_cif.got.tgz:62880.got - 2010.06.03 18:56:24.
