data_PCOD9126074
_publ_section_title
;
Structure prediction by ZEFSAII (Michael W. Deem and Ramdas Pophale) SiO2 
 PCOD9126074
Probable space group: C 2
;
_chemical_formula_sum "Si O2"
_cell_formula_units_Z 28
_cell_length_a 5.277192
_cell_length_b 29.253176
_cell_length_c 9.662559
_cell_angle_alpha 90.000000
_cell_angle_beta 59.439873
_cell_angle_gamma 90.000000
_cell_volume 1284.457339
_symmetry_space_group_name_H-M "C 2"
_symmetry_group_IT_number 5
_symmetry_cell_setting 'monoclinic'
loop_
_space_group_symop_operation_xyz
x,y,z
-x,y,-z
1/2+x,1/2+y,z
1/2-x,1/2+y,-z
loop_
_atom_site_type_symbol
_atom_site_label
_atom_site_fract_x
_atom_site_fract_y
_atom_site_fract_z
Si Si1 0.666039 0.532180 0.101541
Si Si2 0.038709 0.290461 0.825358
Si Si3 0.083930 0.874989 0.271160
Si Si4 0.852291 0.205930 0.394268
Si Si5 0.000000 0.429900 0.500000
Si Si6 0.000000 0.852352 0.000000
Si Si7 0.721867 0.964070 0.679971
Si Si8 0.148292 0.100150 0.607101
O O1 0.733308 0.491125 0.192256
O O2 0.468518 0.567970 0.240061
O O3 0.500000 0.522038 0.000000
O O4 0.000000 0.552199 0.000000
O O5 0.320005 0.323418 0.721029
O O6 0.048606 0.243221 0.743629
O O7 0.000000 0.283151 0.000000
O O8 0.754740 0.320516 0.866033
O O9 0.307531 0.910739 0.274492
O O10 0.775864 0.895319 0.409655
O O11 0.112167 0.880048 0.098736
O O12 0.500000 0.208330 0.500000
O O13 0.929561 0.153234 0.341038
O O14 0.000000 0.217199 0.500000
O O15 0.963151 0.465618 0.639267
O O16 0.000000 0.972300 0.500000
O O17 0.500000 0.096441 0.500000
O O18 0.000000 0.088231 0.500000
#
# Coordination Sequence:
#
# PCOD9126074 Si02
#       8
#     4   4   4   4   2   2   4   4
#     4  12  28  44  71 113 142 181 237 294 360 426
#     4  10  23  41  60  96 134 184 227 281 350 413
#     4  10  22  40  62  93 128 179 235 275 350 401
#     4  10  24  43  71 105 136 180 235 289 345 413
#     4  10  22  42  66  96 128 188 238 296 338 410
#     4  10  22  38  60  84 134 184 218 280 354 404
#     4  10  24  42  66  93 135 185 234 284 347 419
#     4  10  22  49  76 101 142 189 232 286 359 429
#
# _framework density 21.799088000000001
#
# number of rings (size 3 to 8) (size 9 to 14) (size 15 to 20)
#    0.000    1.714    0.000    2.143    9.000    5.143 
#    5.143    0.000    0.000    0.000    0.000    0.000 
#    0.000    0.000    0.000    0.000    0.000    0.000 
#
# Total GULP energy -78093.098727 kJ/mol
# GULP energy per Si atom -5578.078480 kJ/mol
# Density = 2.174947 g / cm^3
# Si number density = 21.799088 Si / 1000 Ang^3
#
#
#
# Elastic Constant Matrix: (Units=GPa)
#
#
# Indices 1 2 3 4 5 6 
#
# 1 117.8346 31.7777 45.8272 0.0000 20.0673 0.0000
# 2 31.7777 107.0583 74.9749 0.0000 19.8272 0.0000
# 3 45.8272 74.9749 108.7444 0.0000 23.7748 0.0000
# 4 0.0000 0.0000 0.0000 223.6648 0.0000 -116.0963
# 5 20.0673 19.8272 23.7748 0.0000 42.9714 0.0000
# 6 0.0000 0.0000 0.0000 -116.0963 0.0000 100.0673
#
#
#
# Elastic Compliance Matrix: (Units=1/GPa)
#
#
# Indices 1 2 3 4 5 6 
#
# 1 0.010434 0.000139 -0.003883 0.000000 -0.002788 0.000000
# 2 0.000139 0.018166 -0.012214 0.000000 -0.001689 0.000000
# 3 -0.003883 -0.012214 0.020050 0.000000 -0.003644 0.000000
# 4 0.000000 0.000000 0.000000 0.011239 0.000000 0.013040
# 5 -0.002788 -0.001689 -0.003644 0.000000 0.027369 0.000000
# 6 0.000000 0.000000 0.000000 0.013040 0.000000 0.025122
#
#
# Mechanical properties :
#
#
# Convention : Reuss Voigt Hill
#
# Bulk Modulus (GPa) = 59.76080 70.97742 65.36911
# Shear Modulus (GPa) = 33.36116 85.41121 59.38618
#
# Velocity S-wave (km/s) = 3.91627 6.26627 5.22510
# Velocity P-wave (km/s) = 6.92267 9.21875 8.15196
#
# Compressibility (1/GPa) = 0.01673338
#
# Stress axis : x y z
#
# Youngs Moduli (GPa) = 95.83945 55.04805 49.87516
#
# Poissons Ratio (x) = -0.00764 0.19368
# Poissons Ratio (y) = -0.01330 0.60917
# Poissons Ratio (z) = 0.37217 0.67235
#
# Static dielectric constant tensor:
#      x y z
#    x 1.961680 0.000000 0.028780 
#    y 0.000000 1.774330 0.000000 
#    z 0.028780 0.000000 1.675530 
# 
# From -- ./inp_files/13309.got.cif
#   From: 2010.05.17/outbox.cif.g08.bks.cpg/sg5_7_cif.got.tgz:13309.got - 2010.06.03 18:56:24.
