data_PCOD9126873
_publ_section_title
;
Structure prediction by ZEFSAII (Michael W. Deem and Ramdas Pophale) SiO2 
 PCOD9126873
Probable space group: C 2
;
_chemical_formula_sum "Si O2"
_cell_formula_units_Z 28
_cell_length_a 8.408573
_cell_length_b 11.627813
_cell_length_c 13.633965
_cell_angle_alpha 90.000000
_cell_angle_beta 108.951599
_cell_angle_gamma 90.000000
_cell_volume 1260.778311
_symmetry_space_group_name_H-M "C 2"
_symmetry_group_IT_number 5
_symmetry_cell_setting 'monoclinic'
loop_
_space_group_symop_operation_xyz
x,y,z
-x,y,-z
1/2+x,1/2+y,z
1/2-x,1/2+y,-z
loop_
_atom_site_type_symbol
_atom_site_label
_atom_site_fract_x
_atom_site_fract_y
_atom_site_fract_z
Si Si1 0.000000 0.268940 0.000000
Si Si2 0.189484 0.075599 0.536221
Si Si3 0.473608 0.208174 0.690439
Si Si4 0.257858 0.040197 0.329301
Si Si5 0.936013 0.116661 0.160484
Si Si6 0.756801 0.830083 0.781109
Si Si7 0.312210 0.418318 0.993054
Si Si8 0.000000 0.855316 0.500000
O O1 0.037227 0.189358 0.100264
O O2 0.830871 0.339974 0.987145
O O3 0.268448 0.081686 0.443616
O O4 0.156533 0.941013 0.547298
O O5 0.000000 0.126624 0.500000
O O6 0.308653 0.130407 0.639873
O O7 0.438034 0.284324 0.779018
O O8 0.478959 0.286529 0.594936
O O9 0.631434 0.125232 0.714106
O O10 0.310754 0.907424 0.322783
O O11 0.062777 0.051841 0.258269
O O12 0.834139 0.215472 0.197993
O O13 0.835496 0.026452 0.070788
O O14 0.747780 0.923570 0.867365
O O15 0.500000 0.374059 0.000000
#
# Coordination Sequence:
#
# PCOD9126873 Si02
#       8
#     2   4   4   4   4   4   4   2
#     4  10  24  44  68 100 130 186 234 280 366 410
#     4  10  22  43  63  93 139 177 227 286 339 417
#     4  12  24  44  67 105 134 184 235 279 354 419
#     4  12  23  40  66  99 137 175 236 288 338 431
#     4  11  24  45  65  99 140 177 232 293 350 416
#     4  11  25  43  69 102 132 186 233 281 361 410
#     4  11  23  47  70  96 143 181 232 299 347 423
#     4  10  22  42  68  94 136 182 218 282 356 396
#
# _framework density 22.208503
#
# number of rings (size 3 to 8) (size 9 to 14) (size 15 to 20)
#    0.429    0.571    5.000    0.857    2.000    3.429 
#    7.714    0.000    0.000    0.000    0.000    0.000 
#    0.000    0.000    0.000    0.000    0.000    0.000 
#
# Total GULP energy -78005.429164 kJ/mol
# GULP energy per Si atom -5571.816369 kJ/mol
# Density = 2.215796 g / cm^3
# Si number density = 22.208503 Si / 1000 Ang^3
#
#
#
# Elastic Constant Matrix: (Units=GPa)
#
#
# Indices 1 2 3 4 5 6 
#
# 1 68.2568 35.5731 16.0540 0.0000 -11.1171 0.0000
# 2 35.5731 104.8522 34.5205 0.0000 -3.3059 0.0000
# 3 16.0540 34.5205 76.6418 0.0000 -16.9014 0.0000
# 4 0.0000 0.0000 0.0000 67.0765 0.0000 -18.1596
# 5 -11.1171 -3.3059 -16.9014 0.0000 37.6190 0.0000
# 6 0.0000 0.0000 0.0000 -18.1596 0.0000 41.6676
#
#
#
# Elastic Compliance Matrix: (Units=1/GPa)
#
#
# Indices 1 2 3 4 5 6 
#
# 1 0.018683 -0.006169 -0.000041 0.000000 0.004961 0.000000
# 2 -0.006169 0.013303 -0.005377 0.000000 -0.003070 0.000000
# 3 -0.000041 -0.005377 0.017062 0.000000 0.007181 0.000000
# 4 0.000000 0.000000 0.000000 0.016903 0.000000 0.007367
# 5 0.004961 -0.003070 0.007181 0.000000 0.031005 0.000000
# 6 0.000000 0.000000 0.000000 0.007367 0.000000 0.027210
#
#
# Mechanical properties :
#
#
# Convention : Reuss Voigt Hill
#
# Bulk Modulus (GPa) = 38.64736 46.89398 42.77067
# Shear Modulus (GPa) = 32.05873 40.17950 36.11912
#
# Velocity S-wave (km/s) = 3.80351 4.25808 4.03720
# Velocity P-wave (km/s) = 6.06042 6.73321 6.40566
#
# Compressibility (1/GPa) = 0.02587499
#
# Stress axis : x y z
#
# Youngs Moduli (GPa) = 53.52445 75.16826 58.61091
#
# Poissons Ratio (x) = 0.46368 0.00241
# Poissons Ratio (y) = 0.33017 0.31514
# Poissons Ratio (z) = 0.00220 0.40417
#
# Static dielectric constant tensor:
#      x y z
#    x 1.805540 0.000000 -0.005630 
#    y 0.000000 1.853820 0.000000 
#    z -0.005630 0.000000 1.856320 
# 
# From -- ./inp_files/50351.got.cif
#   From: 2010.05.17/outbox.cif.g08.bks.cpg/sg5_26_cif.got.tgz:50351.got - 2010.06.03 18:56:24.
