data_PCOD9126422
_publ_section_title
;
Structure prediction by ZEFSAII (Michael W. Deem and Ramdas Pophale) SiO2 
 PCOD9126422
Probable space group: C 2
;
_chemical_formula_sum "Si O2"
_cell_formula_units_Z 30
_cell_length_a 11.648805
_cell_length_b 8.165488
_cell_length_c 31.114991
_cell_angle_alpha 90.000000
_cell_angle_beta 152.293105
_cell_angle_gamma 90.000000
_cell_volume 1376.062424
_symmetry_space_group_name_H-M "C 2"
_symmetry_group_IT_number 5
_symmetry_cell_setting 'monoclinic'
loop_
_space_group_symop_operation_xyz
x,y,z
-x,y,-z
1/2+x,1/2+y,z
1/2-x,1/2+y,-z
loop_
_atom_site_type_symbol
_atom_site_label
_atom_site_fract_x
_atom_site_fract_y
_atom_site_fract_z
Si Si1 0.964947 0.873570 0.887711
Si Si2 0.989050 0.490139 0.085928
Si Si3 0.500000 0.783243 0.500000
Si Si4 0.094316 0.535636 0.377349
Si Si5 0.641178 0.783375 0.217484
Si Si6 0.368665 0.488006 0.147565
Si Si7 0.080896 0.494862 0.279405
Si Si8 0.776753 0.364583 0.340424
O O1 0.954640 0.682150 0.894126
O O2 0.714789 0.965979 0.817865
O O3 0.019330 0.885707 0.854549
O O4 0.199117 0.955482 0.988268
O O5 0.110513 0.397195 0.166164
O O6 0.111128 0.431856 0.081645
O O7 0.357812 0.883989 0.416548
O O8 0.688821 0.660348 0.538435
O O9 0.865944 0.655509 0.288699
O O10 0.164375 0.449343 0.355553
O O11 0.000855 0.413592 0.382978
O O12 0.392552 0.673769 0.138905
O O13 0.679329 0.884931 0.273430
O O14 0.554249 0.476783 0.249739
O O15 0.174009 0.679663 0.302486
#
# Coordination Sequence:
#
# PCOD9126422 Si02
#       8
#     4   4   2   4   4   4   4   4
#     4  12  25  42  64  96 132 178 230 275 335 386
#     4  12  26  41  62  96 136 175 227 288 326 382
#     4  10  22  40  66 106 128 162 218 282 328 402
#     4  10  23  45  68  97 135 176 216 271 333 401
#     4  11  23  41  68  93 130 176 222 269 332 392
#     4  11  23  45  64  92 130 177 219 273 333 401
#     4  11  22  42  64  93 128 176 222 266 326 397
#     4  10  22  41  72  91 134 174 215 269 336 398
#
# _framework density 21.801337
#
# number of rings (size 3 to 8) (size 9 to 14) (size 15 to 20)
#    0.000    1.067    4.000    3.600    1.867    2.667 
#    2.400    4.000    0.000    1.600    0.000    0.000 
#    0.000    0.000    0.000    0.000    0.000    0.000 
#
# Total GULP energy -83799.083466 kJ/mol
# GULP energy per Si atom -5586.605564 kJ/mol
# Density = 2.175172 g / cm^3
# Si number density = 21.801337 Si / 1000 Ang^3
#
#
#
# Elastic Constant Matrix: (Units=GPa)
#
#
# Indices 1 2 3 4 5 6 
#
# 1 111.7812 41.3906 18.8452 0.0000 -19.6863 0.0000
# 2 41.3906 68.0919 18.0626 0.0000 -7.3637 0.0000
# 3 18.8452 18.0626 67.2504 0.0000 -12.2573 -0.0001
# 4 0.0000 0.0000 0.0000 27.9702 0.0000 0.0511
# 5 -19.6863 -7.3637 -12.2573 0.0000 32.9097 0.0000
# 6 0.0000 0.0000 -0.0001 0.0511 0.0000 37.3346
#
#
#
# Elastic Compliance Matrix: (Units=1/GPa)
#
#
# Indices 1 2 3 4 5 6 
#
# 1 0.012616 -0.006876 -0.000637 0.000000 0.005771 0.000000
# 2 -0.006876 0.019696 -0.003551 0.000000 -0.001028 0.000000
# 3 -0.000637 -0.003551 0.016938 0.000000 0.005133 0.000000
# 4 0.000000 0.000000 0.000000 0.035752 0.000000 -0.000049
# 5 0.005771 -0.001028 0.005133 0.000000 0.035520 0.000000
# 6 0.000000 0.000000 0.000000 -0.000049 0.000000 0.026785
#
#
# Mechanical properties :
#
#
# Convention : Reuss Voigt Hill
#
# Bulk Modulus (GPa) = 36.86898 44.85781 40.86339
# Shear Modulus (GPa) = 28.01528 30.89791 29.45660
#
# Velocity S-wave (km/s) = 3.58861 3.76872 3.67977
# Velocity P-wave (km/s) = 5.84114 6.28952 6.06947
#
# Compressibility (1/GPa) = 0.02712307
#
# Stress axis : x y z
#
# Youngs Moduli (GPa) = 79.26660 50.77125 59.04058
#
# Poissons Ratio (x) = 0.34908 0.03759
# Poissons Ratio (y) = 0.54501 0.20965
# Poissons Ratio (z) = 0.05047 0.18028
#
# Static dielectric constant tensor:
#      x y z
#    x 1.833730 0.000000 0.028490 
#    y 0.000000 1.775340 0.000000 
#    z 0.028490 0.000000 1.837230 
# 
# From -- ./inp_files/71710.got.cif
#   From: 2010.05.17/outbox.cif.g08.bks.cpg/sg5_36_cif.got.tgz:71710.got - 2010.06.03 18:56:24.
