data_PCOD9126438
_publ_section_title
;
Structure prediction by ZEFSAII (Michael W. Deem and Ramdas Pophale) SiO2 
 PCOD9126438
Probable space group: C 2
;
_chemical_formula_sum "Si O2"
_cell_formula_units_Z 18
_cell_length_a 10.102051
_cell_length_b 9.099125
_cell_length_c 9.193226
_cell_angle_alpha 90.000000
_cell_angle_beta 63.470824
_cell_angle_gamma 90.000000
_cell_volume 756.062984
_symmetry_space_group_name_H-M "C 2"
_symmetry_group_IT_number 5
_symmetry_cell_setting 'monoclinic'
loop_
_space_group_symop_operation_xyz
x,y,z
-x,y,-z
1/2+x,1/2+y,z
1/2-x,1/2+y,-z
loop_
_atom_site_type_symbol
_atom_site_label
_atom_site_fract_x
_atom_site_fract_y
_atom_site_fract_z
Si Si1 0.466105 0.052150 0.345784
Si Si2 0.047741 0.250009 0.160790
Si Si3 0.675746 0.310632 0.140480
Si Si4 0.160412 0.075945 0.355894
Si Si5 0.000000 0.996748 0.000000
O O1 0.500000 0.048308 0.500000
O O2 0.584371 0.161289 0.211133
O O3 0.298559 0.102040 0.392884
O O4 0.477837 0.889507 0.271602
O O5 0.168169 0.181757 0.213415
O O6 0.953990 0.106979 0.155081
O O7 0.150629 0.298889 0.976334
O O8 0.656199 0.411990 0.292083
O O9 0.613942 0.395394 0.028969
O O10 0.000000 0.107558 0.500000
#
# Coordination Sequence:
#
# PCOD9126438 Si02
#       5
#     4   4   4   4   2
#     4  12  27  45  70 105 143 183 231 286 348 415
#     4  11  24  43  70 100 135 177 229 286 344 407
#     4  11  24  43  70 100 135 177 229 286 344 407
#     4  11  26  45  66  98 142 188 229 278 344 415
#     4  10  22  40  66  96 130 170 218 274 336 398
#
# _framework density 23.807541000000001
#
# number of rings (size 3 to 8) (size 9 to 14) (size 15 to 20)
#    0.000    0.889    0.000    6.667    0.000   16.889 
#    0.000    0.000    0.000    0.000    0.000    0.000 
#    0.000    0.000    0.000    0.000    0.000    0.000 
#
# Total GULP energy -50293.146106 kJ/mol
# GULP energy per Si atom -5588.127345 kJ/mol
# Density = 2.375335 g / cm^3
# Si number density = 23.807541 Si / 1000 Ang^3
#
#
#
# Elastic Constant Matrix: (Units=GPa)
#
#
# Indices 1 2 3 4 5 6 
#
# 1 123.1703 22.6794 26.0332 0.0000 14.5509 0.0000
# 2 22.6794 112.5466 31.0491 0.0000 6.1341 0.0000
# 3 26.0332 31.0491 80.8565 0.0000 3.7377 0.0000
# 4 0.0000 0.0000 0.0000 29.0397 0.0000 -5.9118
# 5 14.5509 6.1341 3.7377 0.0000 44.0294 0.0000
# 6 0.0000 0.0000 0.0000 -5.9118 0.0000 17.2204
#
#
#
# Elastic Compliance Matrix: (Units=1/GPa)
#
#
# Indices 1 2 3 4 5 6 
#
# 1 0.009136 -0.001027 -0.002424 0.000000 -0.002670 0.000000
# 2 -0.001027 0.010103 -0.003514 0.000000 -0.000770 0.000000
# 3 -0.002424 -0.003514 0.014494 0.000000 0.000060 0.000000
# 4 0.000000 0.000000 0.000000 0.037023 0.000000 0.012710
# 5 -0.002670 -0.000770 0.000060 0.000000 0.023697 0.000000
# 6 0.000000 0.000000 0.000000 0.012710 0.000000 0.062434
#
#
# Mechanical properties :
#
#
# Convention : Reuss Voigt Hill
#
# Bulk Modulus (GPa) = 50.49114 52.89963 51.69539
# Shear Modulus (GPa) = 28.18218 33.84534 31.01376
#
# Velocity S-wave (km/s) = 3.44430 3.77453 3.61319
# Velocity P-wave (km/s) = 6.08865 6.42371 6.25842
#
# Compressibility (1/GPa) = 0.01980546
#
# Stress axis : x y z
#
# Youngs Moduli (GPa) = 109.46151 98.97667 68.99236
#
# Poissons Ratio (x) = 0.10163 0.16721
# Poissons Ratio (y) = 0.11239 0.24241
# Poissons Ratio (z) = 0.26530 0.34776
#
# Static dielectric constant tensor:
#      x y z
#    x 2.075220 0.000000 0.018130 
#    y 0.000000 1.894390 0.000000 
#    z 0.018130 0.000000 1.904730 
# 
# From -- ./inp_files/18227.got.cif
#   From: 2010.05.17/outbox.cif.g08.bks.cpg/sg5_10_cif.got.tgz:18227.got - 2010.06.03 18:56:24.
