data_PCOD9126906
_publ_section_title
;
Structure prediction by ZEFSAII (Michael W. Deem and Ramdas Pophale) SiO2 
 PCOD9126906
Probable space group: C 2
;
_chemical_formula_sum "Si O2"
_cell_formula_units_Z 20
_cell_length_a 11.019934
_cell_length_b 10.220245
_cell_length_c 15.704816
_cell_angle_alpha 90.000000
_cell_angle_beta 148.624125
_cell_angle_gamma 90.000000
_cell_volume 920.914229
_symmetry_space_group_name_H-M "C 2"
_symmetry_group_IT_number 5
_symmetry_cell_setting 'monoclinic'
loop_
_space_group_symop_operation_xyz
x,y,z
-x,y,-z
1/2+x,1/2+y,z
1/2-x,1/2+y,-z
loop_
_atom_site_type_symbol
_atom_site_label
_atom_site_fract_x
_atom_site_fract_y
_atom_site_fract_z
Si Si1 0.487563 0.202780 0.392948
Si Si2 0.431412 0.568589 0.688324
Si Si3 0.490831 0.782248 0.855334
Si Si4 0.015368 0.798839 0.227185
Si Si5 0.276332 0.553349 0.305307
O O1 0.500000 0.249493 0.500000
O O2 0.662674 0.080514 0.496787
O O3 0.210286 0.201647 0.215136
O O4 0.574822 0.283503 0.363651
O O5 0.495681 0.707284 0.768585
O O6 0.438704 0.451645 0.760739
O O7 0.617301 0.548778 0.725382
O O8 0.400410 0.931337 0.793016
O O9 0.742846 0.777502 0.047400
O O10 0.155237 0.690054 0.258331
O O11 0.500000 0.538250 0.500000
#
# Coordination Sequence:
#
# PCOD9126906 Si02
#       5
#     4   4   4   4   4
#     4  10  22  42  69  98 135 181 225 277 337 409
#     4  11  25  46  70 104 140 180 235 284 338 420
#     4  11  25  46  71 102 144 183 223 290 352 405
#     4  12  25  44  74 105 137 183 233 285 350 403
#     4  12  25  45  76 100 139 189 231 281 345 412
#
# _framework density 21.717549000000002
#
# number of rings (size 3 to 8) (size 9 to 14) (size 15 to 20)
#    0.000    0.800    4.000    3.600    0.000    4.800 
#    7.200    0.000    0.000    0.000    0.000    0.000 
#    0.000    0.000    0.000    0.000    0.000    0.000 
#
# Total GULP energy -55744.028442 kJ/mol
# GULP energy per Si atom -5574.402844 kJ/mol
# Density = 2.166812 g / cm^3
# Si number density = 21.717549 Si / 1000 Ang^3
#
#
#
# Elastic Constant Matrix: (Units=GPa)
#
#
# Indices 1 2 3 4 5 6 
#
# 1 64.7052 74.1611 3.7757 0.0009 6.8304 -0.0002
# 2 74.1611 150.3260 45.8991 0.0013 20.6348 0.0004
# 3 3.7757 45.8991 104.5936 0.0039 25.4805 0.0008
# 4 0.0009 0.0013 0.0039 34.3728 0.0009 9.5674
# 5 6.8304 20.6348 25.4805 0.0009 25.4416 0.0000
# 6 -0.0002 0.0004 0.0008 9.5674 0.0000 22.3515
#
#
#
# Elastic Compliance Matrix: (Units=1/GPa)
#
#
# Indices 1 2 3 4 5 6 
#
# 1 0.041380 -0.022941 0.008925 -0.000001 -0.001441 0.000001
# 2 -0.022941 0.020685 -0.007490 0.000001 -0.003116 -0.000001
# 3 0.008925 -0.007490 0.015382 -0.000001 -0.011727 0.000000
# 4 -0.000001 0.000001 -0.000001 0.033028 0.000000 -0.014137
# 5 -0.001441 -0.003116 -0.011727 0.000000 0.053965 0.000000
# 6 0.000001 -0.000001 0.000000 -0.014137 0.000000 0.050791
#
#
# Mechanical properties :
#
#
# Convention : Reuss Voigt Hill
#
# Bulk Modulus (GPa) = 29.04114 63.03295 46.03705
# Shear Modulus (GPa) = 18.53760 29.48577 24.01168
#
# Velocity S-wave (km/s) = 2.92477 3.68869 3.32872
# Velocity P-wave (km/s) = 4.98066 6.87233 6.00149
#
# Compressibility (1/GPa) = 0.03443391
#
# Stress axis : x y z
#
# Youngs Moduli (GPa) = 24.16621 48.34505 65.00971
#
# Poissons Ratio (x) = 1.10911 -0.58019
# Poissons Ratio (y) = 0.55441 0.48691
# Poissons Ratio (z) = -0.21568 0.36209
#
# Static dielectric constant tensor:
#      x y z
#    x 1.842260 0.000000 -0.063770 
#    y 0.000000 1.848650 0.000000 
#    z -0.063770 0.000000 1.891780 
# 
# From -- ./inp_files/38013.got.cif
#   From: 2010.05.17/outbox.cif.g08.bks.cpg/sg5_20_cif.got.tgz:38013.got - 2010.06.03 18:56:24.
