data_PCOD9126809
_publ_section_title
;
Structure prediction by ZEFSAII (Michael W. Deem and Ramdas Pophale) SiO2 
 PCOD9126809
Probable space group: C 2
;
_chemical_formula_sum "Si O2"
_cell_formula_units_Z 28
_cell_length_a 6.721853
_cell_length_b 13.205537
_cell_length_c 19.707811
_cell_angle_alpha 90.000000
_cell_angle_beta 55.222585
_cell_angle_gamma 90.000000
_cell_volume 1436.893154
_symmetry_space_group_name_H-M "C 2"
_symmetry_group_IT_number 5
_symmetry_cell_setting 'monoclinic'
loop_
_space_group_symop_operation_xyz
x,y,z
-x,y,-z
1/2+x,1/2+y,z
1/2-x,1/2+y,-z
loop_
_atom_site_type_symbol
_atom_site_label
_atom_site_fract_x
_atom_site_fract_y
_atom_site_fract_z
Si Si1 0.547283 0.954420 0.643945
Si Si2 0.621925 0.593102 0.786954
Si Si3 0.500000 0.999115 0.500000
Si Si4 0.894689 0.503873 0.091101
Si Si5 0.617559 0.176133 0.133368
Si Si6 0.500000 0.807954 0.000000
Si Si7 0.888009 0.240929 0.723062
Si Si8 0.489429 0.601953 0.578039
O O1 0.514778 0.941260 0.568946
O O2 0.510193 0.848604 0.688217
O O3 0.340923 0.029948 0.711814
O O4 0.805331 0.006945 0.608484
O O5 0.392420 0.521182 0.848476
O O6 0.712106 0.650235 0.836464
O O7 0.529540 0.674558 0.750629
O O8 0.256233 0.066127 0.547818
O O9 0.015069 0.568855 0.126858
O O10 0.970045 0.386138 0.068995
O O11 0.000000 0.547891 0.000000
O O12 0.390033 0.244185 0.199271
O O13 0.769191 0.235618 0.047233
O O14 0.892305 0.179972 0.651700
O O15 0.500000 0.645813 0.500000
#
# Coordination Sequence:
#
# PCOD9126809 Si02
#       8
#     4   4   2   4   4   2   4   4
#     4  11  23  41  64  95 126 171 214 261 321 375
#     4  11  22  41  64  95 132 165 209 267 314 379
#     4  10  22  44  66  88 136 166 212 276 308 374
#     4   9  22  41  62  92 127 161 212 266 302 379
#     4  11  22  41  68  95 127 171 209 258 327 374
#     4  10  22  42  66  94 124 170 212 258 320 372
#     4  11  24  41  65  96 128 170 214 261 318 383
#     4  10  22  44  63  93 129 166 215 266 316 378
#
# _framework density 19.486485999999999
#
# number of rings (size 3 to 8) (size 9 to 14) (size 15 to 20)
#    0.429    1.143    2.857    1.714    1.000    2.286 
#    3.857    4.286    0.000    0.000    0.000    0.000 
#    0.000    0.000    0.000    0.000    0.000    0.000 
#
# Total GULP energy -78131.234800 kJ/mol
# GULP energy per Si atom -5580.802486 kJ/mol
# Density = 1.944213 g / cm^3
# Si number density = 19.486486 Si / 1000 Ang^3
#
#
#
# Elastic Constant Matrix: (Units=GPa)
#
#
# Indices 1 2 3 4 5 6 
#
# 1 96.3237 29.4438 35.3591 -0.0007 -12.3822 0.0001
# 2 29.4438 65.9352 15.3539 -0.0005 -10.0886 0.0001
# 3 35.3591 15.3539 80.3471 -0.0008 -26.9539 0.0001
# 4 -0.0007 -0.0005 -0.0008 8.7326 0.0006 0.5108
# 5 -12.3822 -10.0886 -26.9539 0.0006 34.1083 -0.0001
# 6 0.0001 0.0001 0.0001 0.5108 -0.0001 11.8231
#
#
#
# Elastic Compliance Matrix: (Units=1/GPa)
#
#
# Indices 1 2 3 4 5 6 
#
# 1 0.013788 -0.005020 -0.005344 0.000000 -0.000703 0.000000
# 2 -0.005020 0.017949 -0.000070 0.000000 0.003432 0.000000
# 3 -0.005344 -0.000070 0.019259 0.000000 0.013259 0.000000
# 4 0.000000 0.000000 0.000000 0.114804 -0.000001 -0.004960
# 5 -0.000703 0.003432 0.013259 -0.000001 0.040556 0.000000
# 6 0.000000 0.000000 0.000000 -0.004960 0.000000 0.084795
#
#
# Mechanical properties :
#
#
# Convention : Reuss Voigt Hill
#
# Bulk Modulus (GPa) = 33.19108 44.76886 38.97997
# Shear Modulus (GPa) = 15.52502 21.76274 18.64388
#
# Velocity S-wave (km/s) = 2.82566 3.34550 3.09651
# Velocity P-wave (km/s) = 5.26457 6.16014 5.72988
#
# Compressibility (1/GPa) = 0.03012858
#
# Stress axis : x y z
#
# Youngs Moduli (GPa) = 72.52916 55.71216 51.92380
#
# Poissons Ratio (x) = 0.27968 0.27748
# Poissons Ratio (y) = 0.36410 0.00361
# Poissons Ratio (z) = 0.38760 0.00388
#
# Static dielectric constant tensor:
#      x y z
#    x 1.661190 0.000000 0.007860 
#    y 0.000000 1.655340 0.000000 
#    z 0.007860 0.000000 1.690290 
# 
# From -- ./inp_files/63995.got.cif
#   From: 2010.05.17/outbox.cif.g08.bks.cpg/sg5_32_cif.got.tgz:63995.got - 2010.06.03 18:56:24.
