data_PCOD9126818
_publ_section_title
;
Structure prediction by ZEFSAII (Michael W. Deem and Ramdas Pophale) SiO2 
 PCOD9126818
Probable space group: C 2
;
_chemical_formula_sum "Si O2"
_cell_formula_units_Z 22
_cell_length_a 8.851640
_cell_length_b 16.769891
_cell_length_c 8.308918
_cell_angle_alpha 90.000000
_cell_angle_beta 50.449597
_cell_angle_gamma 90.000000
_cell_volume 951.019216
_symmetry_space_group_name_H-M "C 2"
_symmetry_group_IT_number 5
_symmetry_cell_setting 'monoclinic'
loop_
_space_group_symop_operation_xyz
x,y,z
-x,y,-z
1/2+x,1/2+y,z
1/2-x,1/2+y,-z
loop_
_atom_site_type_symbol
_atom_site_label
_atom_site_fract_x
_atom_site_fract_y
_atom_site_fract_z
Si Si1 0.500000 0.581790 0.500000
Si Si2 0.637076 0.665371 0.124000
Si Si3 0.590742 0.377735 0.195719
Si Si4 0.722949 0.009272 0.159439
Si Si5 0.500000 0.807533 0.000000
Si Si6 0.272546 0.974346 0.465288
Si Si7 0.000000 0.744764 0.000000
O O1 0.480881 0.627796 0.348587
O O2 0.689843 0.526424 0.373651
O O3 0.722781 0.598277 0.943234
O O4 0.545081 0.744721 0.111662
O O5 0.810011 0.690431 0.127463
O O6 0.388820 0.403759 0.418257
O O7 0.646859 0.447777 0.031755
O O8 0.795951 0.356658 0.147810
O O9 0.528839 0.300317 0.134961
O O10 0.504268 0.973571 0.281101
O O11 0.744750 0.007137 0.338021
#
# Coordination Sequence:
#
# PCOD9126818 Si02
#       7
#     2   4   4   4   2   4   2
#     4  12  24  40  70 108 134 178 240 290 346 408
#     4  11  23  45  70 103 139 186 236 292 349 421
#     4  11  22  46  69 101 140 186 229 286 347 419
#     4  11  23  44  78  96 142 178 245 289 339 412
#     4  10  26  42  74  98 146 200 222 292 368 410
#     4  11  24  40  72 110 129 184 233 290 343 410
#     4  10  22  42  66  96 140 186 212 292 354 406
#
# _framework density 23.133075999999999
#
# number of rings (size 3 to 8) (size 9 to 14) (size 15 to 20)
#    0.000    1.091    3.636    2.182    2.545    0.727 
#    6.545    0.000   12.000    0.000    0.000    0.000 
#    0.000    0.000    0.000    0.000    0.000    0.000 
#
# Total GULP energy -61333.219399 kJ/mol
# GULP energy per Si atom -5575.747218 kJ/mol
# Density = 2.308042 g / cm^3
# Si number density = 23.133076 Si / 1000 Ang^3
#
#
#
# Elastic Constant Matrix: (Units=GPa)
#
#
# Indices 1 2 3 4 5 6 
#
# 1 143.6105 25.6912 21.8466 0.0000 -25.5725 0.0000
# 2 25.6912 87.9998 34.7590 0.0000 -12.4881 0.0000
# 3 21.8466 34.7590 108.5599 0.0000 -16.1759 0.0000
# 4 0.0000 0.0000 0.0000 48.7892 0.0000 26.0619
# 5 -25.5725 -12.4881 -16.1759 0.0000 35.9333 0.0000
# 6 0.0000 0.0000 0.0000 26.0619 0.0000 60.1389
#
#
#
# Elastic Compliance Matrix: (Units=1/GPa)
#
#
# Indices 1 2 3 4 5 6 
#
# 1 0.008209 -0.001508 -0.000404 0.000000 0.005136 0.000000
# 2 -0.001508 0.013561 -0.003748 0.000000 0.001953 0.000000
# 3 -0.000404 -0.003748 0.010993 0.000000 0.003359 0.000000
# 4 0.000000 0.000000 0.000000 0.026670 0.000000 -0.011558
# 5 0.005136 0.001953 0.003359 0.000000 0.033675 0.000000
# 6 0.000000 0.000000 0.000000 -0.011558 0.000000 0.021637
#
#
# Mechanical properties :
#
#
# Convention : Reuss Voigt Hill
#
# Bulk Modulus (GPa) = 46.63236 56.08487 51.35861
# Shear Modulus (GPa) = 37.53370 46.16382 41.84876
#
# Velocity S-wave (km/s) = 4.03241 4.47203 4.25790
# Velocity P-wave (km/s) = 6.47167 7.13880 6.81341
#
# Compressibility (1/GPa) = 0.02144434
#
# Stress axis : x y z
#
# Youngs Moduli (GPa) = 121.81567 73.73888 90.96542
#
# Poissons Ratio (x) = 0.11122 0.03673
# Poissons Ratio (y) = 0.18373 0.34091
# Poissons Ratio (z) = 0.04919 0.27635
#
# Static dielectric constant tensor:
#      x y z
#    x 1.910870 0.000000 0.033640 
#    y 0.000000 1.888100 0.000000 
#    z 0.033640 0.000000 0.631250 
# 
# From -- ./inp_files/16054.got.cif
#   From: 2010.05.17/outbox.cif.g08.bks.cpg/sg5_9_cif.got.tgz:16054.got - 2010.06.03 18:56:24.
