data_PCOD9126620
_publ_section_title
;
Structure prediction by ZEFSAII (Michael W. Deem and Ramdas Pophale) SiO2 
 PCOD9126620
Probable space group: C 2
;
_chemical_formula_sum "Si O2"
_cell_formula_units_Z 20
_cell_length_a 10.036699
_cell_length_b 9.015199
_cell_length_c 11.648513
_cell_angle_alpha 90.000000
_cell_angle_beta 112.443374
_cell_angle_gamma 90.000000
_cell_volume 974.158427
_symmetry_space_group_name_H-M "C 2"
_symmetry_group_IT_number 5
_symmetry_cell_setting 'monoclinic'
loop_
_space_group_symop_operation_xyz
x,y,z
-x,y,-z
1/2+x,1/2+y,z
1/2-x,1/2+y,-z
loop_
_atom_site_type_symbol
_atom_site_label
_atom_site_fract_x
_atom_site_fract_y
_atom_site_fract_z
Si Si1 0.233203 0.626750 0.773617
Si Si2 0.336268 0.317566 0.455554
Si Si3 0.707838 0.801423 0.663815
Si Si4 0.500000 0.511753 0.000000
Si Si5 0.000000 0.110155 0.500000
Si Si6 0.997279 0.720745 0.875330
O O1 0.243354 0.756618 0.682596
O O2 0.204773 0.472936 0.697318
O O3 0.373644 0.604424 0.899616
O O4 0.099022 0.655784 0.812844
O O5 0.500000 0.251896 0.500000
O O6 0.258662 0.284506 0.548780
O O7 0.369571 0.493310 0.471235
O O8 0.555826 0.716802 0.619528
O O9 0.832994 0.730421 0.781242
O O10 0.450026 0.390671 0.079777
O O11 0.000000 0.642867 0.000000
#
# Coordination Sequence:
#
# PCOD9126620 Si02
#       6
#     4   4   4   2   2   4
#     4  11  21  43  75  92 132 179 218 271 331 387
#     4  10  22  41  65  96 134 166 209 274 332 382
#     4  11  22  42  66  97 131 173 216 267 329 393
#     4   8  22  42  68  98 134 166 224 270 326 388
#     4  10  24  38  60  98 132 162 212 266 322 386
#     4   9  20  44  62  95 136 169 213 276 320 381
#
# _framework density 20.530543000000002
#
# number of rings (size 3 to 8) (size 9 to 14) (size 15 to 20)
#    1.200    0.800    2.000    1.200    1.400    1.600 
#   14.400    2.000    0.000    0.000    0.000    0.000 
#    0.000    0.000    0.000    0.000    0.000    0.000 
#
# Total GULP energy -55692.413976 kJ/mol
# GULP energy per Si atom -5569.241398 kJ/mol
# Density = 2.048381 g / cm^3
# Si number density = 20.530543 Si / 1000 Ang^3
#
#
#
# Elastic Constant Matrix: (Units=GPa)
#
#
# Indices 1 2 3 4 5 6 
#
# 1 68.3735 40.2059 54.2927 0.0000 -6.2103 0.0000
# 2 40.2059 82.8784 58.2818 0.0000 16.5224 0.0000
# 3 54.2927 58.2818 150.9031 0.0000 13.7752 0.0000
# 4 0.0000 0.0000 0.0000 36.0422 0.0000 12.7697
# 5 -6.2103 16.5224 13.7752 0.0000 40.0742 0.0000
# 6 0.0000 0.0000 0.0000 12.7697 0.0000 20.4281
#
#
#
# Elastic Compliance Matrix: (Units=1/GPa)
#
#
# Indices 1 2 3 4 5 6 
#
# 1 0.027175 -0.010682 -0.006646 0.000000 0.010900 0.000000
# 2 -0.010682 0.021701 -0.003686 0.000000 -0.009336 0.000000
# 3 -0.006646 -0.003686 0.010734 0.000000 -0.003200 0.000000
# 4 0.000000 0.000000 0.000000 0.035638 0.000000 -0.022277
# 5 0.010900 -0.009336 -0.003200 0.000000 0.031592 0.000000
# 6 0.000000 0.000000 0.000000 -0.022277 0.000000 0.062878
#
#
# Mechanical properties :
#
#
# Convention : Reuss Voigt Hill
#
# Bulk Modulus (GPa) = 56.88073 67.52397 62.20235
# Shear Modulus (GPa) = 21.04317 29.26720 25.15519
#
# Velocity S-wave (km/s) = 3.20499 3.77973 3.50416
# Velocity P-wave (km/s) = 6.43906 7.21176 6.83633
#
# Compressibility (1/GPa) = 0.01758065
#
# Stress axis : x y z
#
# Youngs Moduli (GPa) = 36.79896 46.08054 93.16414
#
# Poissons Ratio (x) = 0.49224 0.61921
# Poissons Ratio (y) = 0.39309 0.34340
# Poissons Ratio (z) = 0.24458 0.16985
#
# Static dielectric constant tensor:
#      x y z
#    x 1.744920 0.000000 0.017810 
#    y 0.000000 1.755630 0.000000 
#    z 0.017810 0.000000 1.736540 
# 
# From -- ./inp_files/38177.got.cif
#   From: 2010.05.17/outbox.cif.g08.bks.cpg/sg5_20_cif.got.tgz:38177.got - 2010.06.03 18:56:24.
