data_PCOD9126715
_publ_section_title
;
Structure prediction by ZEFSAII (Michael W. Deem and Ramdas Pophale) SiO2 
 PCOD9126715
Probable space group: C 2
;
_chemical_formula_sum "Si O2"
_cell_formula_units_Z 20
_cell_length_a 12.236059
_cell_length_b 7.967519
_cell_length_c 7.808589
_cell_angle_alpha 90.000000
_cell_angle_beta 103.383231
_cell_angle_gamma 90.000000
_cell_volume 740.594170
_symmetry_space_group_name_H-M "C 2"
_symmetry_group_IT_number 5
_symmetry_cell_setting 'monoclinic'
loop_
_space_group_symop_operation_xyz
x,y,z
-x,y,-z
1/2+x,1/2+y,z
1/2-x,1/2+y,-z
loop_
_atom_site_type_symbol
_atom_site_label
_atom_site_fract_x
_atom_site_fract_y
_atom_site_fract_z
Si Si1 0.741744 0.060950 0.528606
Si Si2 0.881391 0.247496 0.362394
Si Si3 0.946866 0.663660 0.761242
Si Si4 0.883500 0.027322 0.889034
Si Si5 0.351483 0.982714 0.049335
O O1 0.822694 0.073426 0.392300
O O2 0.821442 0.124852 0.712124
O O3 0.703029 0.878213 0.575707
O O4 0.622674 0.142911 0.436305
O O5 0.880100 0.314453 0.167798
O O6 0.000000 0.257627 0.500000
O O7 0.078365 0.621276 0.814208
O O8 0.579110 0.346168 0.173623
O O9 0.895305 0.523911 0.875537
O O10 0.781871 0.000115 0.984012
O O11 0.000000 0.097716 0.000000
#
# Coordination Sequence:
#
# PCOD9126715 Si02
#       5
#     4   4   4   4   4
#     4  11  23  44  73 105 145 185 248 293 355 440
#     4  11  23  44  69 103 143 188 236 299 359 425
#     4  11  21  45  75 106 144 198 240 299 366 437
#     4  11  24  47  71 108 154 186 246 298 367 437
#     4  10  22  41  75 100 143 193 238 294 361 429
#
# _framework density 27.005344000000001
#
# number of rings (size 3 to 8) (size 9 to 14) (size 15 to 20)
#    0.000    1.200    8.000    0.000    0.000    1.600 
#    7.200    5.000    8.800    0.000    0.000    0.000 
#    0.000    0.000    0.000    0.000    0.000    0.000 
#
# Total GULP energy -55883.061664 kJ/mol
# GULP energy per Si atom -5588.306166 kJ/mol
# Density = 2.694388 g / cm^3
# Si number density = 27.005344 Si / 1000 Ang^3
#
#
#
# Elastic Constant Matrix: (Units=GPa)
#
#
# Indices 1 2 3 4 5 6 
#
# 1 173.7750 42.4530 53.2314 0.0000 39.3787 0.0000
# 2 42.4530 78.1578 23.6211 0.0000 -10.7386 0.0000
# 3 53.2314 23.6211 150.1560 0.0000 31.9246 0.0000
# 4 0.0000 0.0000 0.0000 34.2029 0.0000 -22.3737
# 5 39.3787 -10.7386 31.9246 0.0000 72.9376 0.0000
# 6 0.0000 0.0000 0.0000 -22.3737 0.0000 -5.5875
#
#
#
# Elastic Compliance Matrix: (Units=1/GPa)
#
#
# Indices 1 2 3 4 5 6 
#
# 1 0.008369 -0.004826 -0.001208 0.000000 -0.004700 0.000000
# 2 -0.004826 0.016930 -0.002245 0.000000 0.006081 0.000000
# 3 -0.001208 -0.002245 0.008129 0.000000 -0.003236 0.000000
# 4 0.000000 0.000000 0.000000 0.008078 0.000000 -0.032346
# 5 -0.004700 0.006081 -0.003236 0.000000 0.018560 0.000000
# 6 0.000000 0.000000 0.000000 -0.032346 0.000000 -0.049448
#
#
# Mechanical properties :
#
#
# Convention : Reuss Voigt Hill
#
# Bulk Modulus (GPa) = 59.28126 71.18887 65.23507
# Shear Modulus (GPa) = 152.43728 39.16284 95.80006
#
# Velocity S-wave (km/s) = 7.52128 3.81227 5.96251
# Velocity P-wave (km/s) = 9.87044 6.76728 8.46232
#
# Compressibility (1/GPa) = 0.01686874
#
# Stress axis : x y z
#
# Youngs Moduli (GPa) = 119.49154 59.06612 123.01041
#
# Poissons Ratio (x) = 0.28507 0.14864
# Poissons Ratio (y) = 0.57670 0.27619
# Poissons Ratio (z) = 0.14438 0.13262
#
# Static dielectric constant tensor:
#      x y z
#    x 2.110510 0.000000 -0.055660 
#    y 0.000000 2.134870 0.000000 
#    z -0.055660 0.000000 2.215470 
# 
# From -- ./inp_files/19059.got.cif
#   From: 2010.05.17/outbox.cif.g08.bks.cpg/sg5_10_cif.got.tgz:19059.got - 2010.06.03 18:56:24.
