data_PCOD9126961
_publ_section_title
;
Structure prediction by ZEFSAII (Michael W. Deem and Ramdas Pophale) SiO2 
 PCOD9126961
Probable space group: C 2
;
_chemical_formula_sum "Si O2"
_cell_formula_units_Z 30
_cell_length_a 19.000217
_cell_length_b 5.069086
_cell_length_c 14.454239
_cell_angle_alpha 90.000000
_cell_angle_beta 71.528138
_cell_angle_gamma 90.000000
_cell_volume 1320.417710
_symmetry_space_group_name_H-M "C 2"
_symmetry_group_IT_number 5
_symmetry_cell_setting 'monoclinic'
loop_
_space_group_symop_operation_xyz
x,y,z
-x,y,-z
1/2+x,1/2+y,z
1/2-x,1/2+y,-z
loop_
_atom_site_type_symbol
_atom_site_label
_atom_site_fract_x
_atom_site_fract_y
_atom_site_fract_z
Si Si1 0.500000 0.398190 0.000000
Si Si2 0.631244 0.730418 0.693970
Si Si3 0.704302 0.788955 0.000774
Si Si4 0.734987 0.913440 0.282713
Si Si5 0.485362 0.538545 0.801957
Si Si6 0.138854 0.572239 0.861957
Si Si7 0.395983 0.017950 0.795604
Si Si8 0.208084 0.194494 0.488169
O O1 0.516552 0.565153 0.085479
O O2 0.428165 0.222640 0.058370
O O3 0.711547 0.630571 0.694396
O O4 0.570489 0.507410 0.737125
O O5 0.640431 0.786966 0.581866
O O6 0.611507 0.955772 0.775738
O O7 0.647302 0.908639 0.097281
O O8 0.774238 0.989860 0.983705
O O9 0.669243 0.837208 0.914835
O O10 0.789240 0.750104 0.191874
O O11 0.704793 0.736658 0.380121
O O12 0.665931 0.031801 0.257223
O O13 0.434880 0.292288 0.798336
O O14 0.457064 0.791732 0.757652
O O15 0.273636 0.392972 0.494349
#
# Coordination Sequence:
#
# PCOD9126961 Si02
#       8
#     2   4   4   4   4   4   4   4
#     4  12  26  44  64 102 138 194 232 274 340 424
#     4  11  25  44  75 100 140 183 243 288 356 415
#     4  12  25  40  62  95 136 177 223 278 341 411
#     4  11  24  45  74 102 139 178 240 298 351 415
#     4  12  28  45  67  98 147 187 232 283 346 430
#     4  12  24  41  68 100 139 181 236 284 346 409
#     4  12  27  44  66 104 144 184 229 286 357 413
#     4  10  22  42  73 108 133 170 237 304 352 402
#
# _framework density 22.720081
#
# number of rings (size 3 to 8) (size 9 to 14) (size 15 to 20)
#    0.000    0.533    5.333    2.400    3.733    0.533 
#    0.000    0.667    0.000    3.200    0.000    0.000 
#    0.000    0.000    0.000    0.000    0.000    0.000 
#
# Total GULP energy -83943.235655 kJ/mol
# GULP energy per Si atom -5596.215710 kJ/mol
# Density = 2.266837 g / cm^3
# Si number density = 22.720081 Si / 1000 Ang^3
#
#
#
# Elastic Constant Matrix: (Units=GPa)
#
#
# Indices 1 2 3 4 5 6 
#
# 1 120.8968 27.5455 38.3951 0.0000 7.2533 0.0000
# 2 27.5455 45.3967 -0.0824 0.0000 -0.9088 0.0000
# 3 38.3951 -0.0824 130.9297 0.0000 -14.1553 0.0000
# 4 0.0000 0.0000 0.0000 24.6816 0.0000 7.4544
# 5 7.2533 -0.9088 -14.1553 0.0000 17.9909 0.0000
# 6 0.0000 0.0000 0.0000 7.4544 0.0000 30.1525
#
#
#
# Elastic Compliance Matrix: (Units=1/GPa)
#
#
# Indices 1 2 3 4 5 6 
#
# 1 0.011878 -0.007388 -0.004422 0.000000 -0.008641 0.000000
# 2 -0.007388 0.026648 0.002897 0.000000 0.006604 0.000000
# 3 -0.004422 0.002897 0.009995 0.000000 0.009793 0.000000
# 4 0.000000 0.000000 0.000000 0.043785 0.000000 -0.010825
# 5 -0.008641 0.006604 0.009793 0.000000 0.067106 0.000000
# 6 0.000000 0.000000 0.000000 -0.010825 0.000000 0.035841
#
#
# Mechanical properties :
#
#
# Convention : Reuss Voigt Hill
#
# Bulk Modulus (GPa) = 32.57787 47.65998 40.11892
# Shear Modulus (GPa) = 22.39030 29.98933 26.18981
#
# Velocity S-wave (km/s) = 3.14265 3.63705 3.39885
# Velocity P-wave (km/s) = 5.24769 6.21772 5.75319
#
# Compressibility (1/GPa) = 0.03069568
#
# Stress axis : x y z
#
# Youngs Moduli (GPa) = 84.19198 37.52571 100.04962
#
# Poissons Ratio (x) = 0.27724 0.44242
# Poissons Ratio (y) = 0.62201 -0.28988
# Poissons Ratio (z) = 0.37230 -0.10872
#
# Static dielectric constant tensor:
#      x y z
#    x 1.879610 0.000000 -0.022430 
#    y 0.000000 1.901890 0.000000 
#    z -0.022430 0.000000 1.877450 
# 
# From -- ./inp_files/55297.got.cif
#   From: 2010.05.17/outbox.cif.g08.bks.cpg/sg5_28_cif.got.tgz:55297.got - 2010.06.03 18:56:24.
