data_PCOD9126525
_publ_section_title
;
Structure prediction by ZEFSAII (Michael W. Deem and Ramdas Pophale) SiO2 
 PCOD9126525
Probable space group: C 2
;
_chemical_formula_sum "Si O2"
_cell_formula_units_Z 22
_cell_length_a 7.475349
_cell_length_b 12.584231
_cell_length_c 15.094243
_cell_angle_alpha 90.000000
_cell_angle_beta 37.335369
_cell_angle_gamma 90.000000
_cell_volume 861.163273
_symmetry_space_group_name_H-M "C 2"
_symmetry_group_IT_number 5
_symmetry_cell_setting 'monoclinic'
loop_
_space_group_symop_operation_xyz
x,y,z
-x,y,-z
1/2+x,1/2+y,z
1/2-x,1/2+y,-z
loop_
_atom_site_type_symbol
_atom_site_label
_atom_site_fract_x
_atom_site_fract_y
_atom_site_fract_z
Si Si1 0.300363 0.095900 0.652797
Si Si2 0.153821 0.803596 0.850930
Si Si3 0.500000 0.940918 0.000000
Si Si4 0.189423 0.408074 0.580897
Si Si5 0.168310 0.122028 0.027362
Si Si6 0.474146 0.386366 0.294567
O O1 0.500000 0.151562 0.500000
O O2 0.505146 0.015725 0.630593
O O3 0.095679 0.013092 0.677632
O O4 0.084056 0.156017 0.803409
O O5 0.500043 0.832863 0.719926
O O6 0.959786 0.695687 0.916649
O O7 0.131177 0.844910 0.758569
O O8 0.000000 0.851025 0.000000
O O9 0.286348 0.012336 0.023484
O O10 0.679519 0.873906 0.857350
O O11 0.500000 0.440498 0.500000
O O12 0.290291 0.347980 0.450426
O O13 0.000000 0.114800 0.000000
#
# Coordination Sequence:
#
# PCOD9126525 Si02
#       6
#     4   4   2   4   4   4
#     4   8  18  41  63  97 131 174 229 282 338 402
#     4  11  24  43  65 100 143 182 231 280 351 419
#     4  10  22  42  72  98 140 176 232 286 338 414
#     4  10  22  40  72 100 133 177 236 289 339 404
#     4  11  24  41  69 100 146 183 222 281 357 419
#     4   9  21  39  70  93 133 175 232 285 334 398
#
# _framework density 25.546838999999999
#
# number of rings (size 3 to 8) (size 9 to 14) (size 15 to 20)
#    0.000    2.182    0.909    1.636    6.364    5.091 
#    0.000    4.545    0.000    0.000    0.000    0.000 
#    0.000    0.000    0.000    0.000    0.000    0.000 
#
# Total GULP energy -61265.690090 kJ/mol
# GULP energy per Si atom -5569.608190 kJ/mol
# Density = 2.548869 g / cm^3
# Si number density = 25.546839 Si / 1000 Ang^3
#
#
#
# Elastic Constant Matrix: (Units=GPa)
#
#
# Indices 1 2 3 4 5 6 
#
# 1 95.4042 25.4153 17.5456 -0.0173 -1.9072 0.0102
# 2 25.4153 55.7283 35.0955 -0.0086 -2.6939 0.0140
# 3 17.5456 35.0955 210.5836 -0.0167 -4.2031 0.0213
# 4 -0.0173 -0.0086 -0.0167 29.4508 0.0210 2.4499
# 5 -1.9072 -2.6939 -4.2031 0.0210 53.4255 0.0119
# 6 0.0102 0.0140 0.0213 2.4499 0.0119 8.1062
#
#
#
# Elastic Compliance Matrix: (Units=1/GPa)
#
#
# Indices 1 2 3 4 5 6 
#
# 1 0.011934 -0.005375 -0.000096 0.000006 0.000147 -0.000008
# 2 -0.005375 0.022500 -0.003288 0.000003 0.000684 -0.000025
# 3 -0.000096 -0.003288 0.005310 0.000003 0.000249 -0.000009
# 4 0.000006 0.000003 0.000003 0.034831 -0.000011 -0.010527
# 5 0.000147 0.000684 0.000249 -0.000011 0.018777 -0.000026
# 6 -0.000008 -0.000025 -0.000009 -0.010527 -0.000026 0.126543
#
#
# Mechanical properties :
#
#
# Convention : Reuss Voigt Hill
#
# Bulk Modulus (GPa) = 44.99418 57.53657 51.26537
# Shear Modulus (GPa) = 20.42309 37.10716 28.76512
#
# Velocity S-wave (km/s) = 2.83050 3.81532 3.35920
# Velocity P-wave (km/s) = 5.32287 6.47918 5.92928
#
# Compressibility (1/GPa) = 0.02222510
#
# Stress axis : x y z
#
# Youngs Moduli (GPa) = 83.79265 44.44535 188.33674
#
# Poissons Ratio (x) = 0.23891 0.01800
# Poissons Ratio (y) = 0.45042 0.61929
# Poissons Ratio (z) = 0.00801 0.14615
#
# Static dielectric constant tensor:
#      x y z
#    x 2.346170 -0.000010 -0.210530 
#    y -0.000010 2.089120 0.000010 
#    z -0.210530 0.000010 2.186600 
# 
# From -- ./inp_files/51310.got.cif
#   From: 2010.05.17/outbox.cif.g08.bks.cpg/sg5_26_cif.got.tgz:51310.got - 2010.06.03 18:56:24.
