data_PCOD9126171
_publ_section_title
;
Structure prediction by ZEFSAII (Michael W. Deem and Ramdas Pophale) SiO2 
 PCOD9126171
Probable space group: C 2
;
_chemical_formula_sum "Si O2"
_cell_formula_units_Z 22
_cell_length_a 16.899891
_cell_length_b 6.669637
_cell_length_c 8.857355
_cell_angle_alpha 90.000000
_cell_angle_beta 99.261189
_cell_angle_gamma 90.000000
_cell_volume 985.353097
_symmetry_space_group_name_H-M "C 2"
_symmetry_group_IT_number 5
_symmetry_cell_setting 'monoclinic'
loop_
_space_group_symop_operation_xyz
x,y,z
-x,y,-z
1/2+x,1/2+y,z
1/2-x,1/2+y,-z
loop_
_atom_site_type_symbol
_atom_site_label
_atom_site_fract_x
_atom_site_fract_y
_atom_site_fract_z
Si Si1 0.360433 0.029010 0.147031
Si Si2 0.251841 0.870746 0.863681
Si Si3 0.500000 0.852086 0.000000
Si Si4 0.185720 0.713277 0.326847
Si Si5 0.351438 0.869332 0.472334
Si Si6 0.110515 0.111400 0.252349
O O1 0.333178 0.259574 0.159938
O O2 0.432894 0.989601 0.056064
O O3 0.377038 0.923338 0.311571
O O4 0.285489 0.921560 0.039370
O O5 0.311153 0.715622 0.798082
O O6 0.265312 0.073859 0.774462
O O7 0.538314 0.708729 0.138389
O O8 0.255375 0.831131 0.437169
O O9 0.137673 0.563602 0.419879
O O10 0.125113 0.875994 0.242235
O O11 0.390540 0.684399 0.573694
#
# Coordination Sequence:
#
# PCOD9126171 Si02
#       6
#     4   4   2   4   4   4
#     4  11  22  42  69 103 142 190 236 295 344 424
#     4  10  22  38  68 101 139 182 243 287 341 414
#     4  10  26  48  68 100 156 194 232 280 364 428
#     4  11  19  38  67 112 135 172 238 302 352 407
#     4  11  20  35  69 105 138 173 238 295 353 407
#     4  10  22  42  68 100 147 181 223 299 353 432
#
# _framework density 22.327023000000001
#
# number of rings (size 3 to 8) (size 9 to 14) (size 15 to 20)
#    0.000    1.455    3.636    2.182    0.000    0.727 
#    0.000    8.182    0.000    6.545    0.000    0.000 
#    0.000    0.000    0.000    0.000    0.000    0.000 
#
# Total GULP energy -61494.065549 kJ/mol
# GULP energy per Si atom -5590.369595 kJ/mol
# Density = 2.227621 g / cm^3
# Si number density = 22.327023 Si / 1000 Ang^3
#
#
#
# Elastic Constant Matrix: (Units=GPa)
#
#
# Indices 1 2 3 4 5 6 
#
# 1 60.1153 35.3497 25.0943 0.0000 3.1053 0.0000
# 2 35.3497 135.8831 51.0900 0.0000 -10.1640 0.0000
# 3 25.0943 51.0900 133.6226 0.0000 -7.6101 0.0000
# 4 0.0000 0.0000 0.0000 28.9523 0.0000 -0.2239
# 5 3.1053 -10.1640 -7.6101 0.0000 23.6211 0.0000
# 6 0.0000 0.0000 0.0000 -0.2239 0.0000 25.9373
#
#
#
# Elastic Compliance Matrix: (Units=1/GPa)
#
#
# Indices 1 2 3 4 5 6 
#
# 1 0.020815 -0.004958 -0.002333 0.000000 -0.005622 0.000000
# 2 -0.004958 0.009947 -0.002640 0.000000 0.004081 0.000000
# 3 -0.002333 -0.002640 0.009050 0.000000 0.002087 0.000000
# 4 0.000000 0.000000 0.000000 0.034542 0.000000 0.000298
# 5 -0.005622 0.004081 0.002087 0.000000 0.045502 0.000000
# 6 0.000000 0.000000 0.000000 0.000298 0.000000 0.038557
#
#
# Mechanical properties :
#
#
# Convention : Reuss Voigt Hill
#
# Bulk Modulus (GPa) = 50.12681 61.40990 55.76836
# Shear Modulus (GPa) = 27.03801 30.24127 28.63964
#
# Velocity S-wave (km/s) = 3.48372 3.68430 3.58541
# Velocity P-wave (km/s) = 6.21946 6.75746 6.49403
#
# Compressibility (1/GPa) = 0.01994940
#
# Stress axis : x y z
#
# Youngs Moduli (GPa) = 48.04311 100.53476 110.49660
#
# Poissons Ratio (x) = 0.49845 0.25784
# Poissons Ratio (y) = 0.23820 0.29166
# Poissons Ratio (z) = 0.11211 0.26537
#
# Static dielectric constant tensor:
#      x y z
#    x 1.806310 0.000000 -0.004970 
#    y 0.000000 1.862720 0.000000 
#    z -0.004970 0.000000 1.891840 
# 
# From -- ./inp_files/28356.got.cif
#   From: 2010.05.17/outbox.cif.g08.bks.cpg/sg5_15_cif.got.tgz:28356.got - 2010.06.03 18:56:24.
