data_PCOD9126106
_publ_section_title
;
Structure prediction by ZEFSAII (Michael W. Deem and Ramdas Pophale) SiO2 
 PCOD9126106
Probable space group: C 2
;
_chemical_formula_sum "Si O2"
_cell_formula_units_Z 24
_cell_length_a 21.267568
_cell_length_b 5.717019
_cell_length_c 21.002375
_cell_angle_alpha 90.000000
_cell_angle_beta 158.282809
_cell_angle_gamma 90.000000
_cell_volume 944.903698
_symmetry_space_group_name_H-M "C 2"
_symmetry_group_IT_number 5
_symmetry_cell_setting 'monoclinic'
loop_
_space_group_symop_operation_xyz
x,y,z
-x,y,-z
1/2+x,1/2+y,z
1/2-x,1/2+y,-z
loop_
_atom_site_type_symbol
_atom_site_label
_atom_site_fract_x
_atom_site_fract_y
_atom_site_fract_z
Si Si1 0.238164 0.573480 0.318834
Si Si2 0.500000 0.803811 0.000000
Si Si3 0.889214 0.954161 0.702732
Si Si4 0.179926 0.215561 0.056783
Si Si5 0.000000 0.363130 0.500000
Si Si6 0.052182 0.668388 0.422894
Si Si7 0.804730 0.021619 0.081802
O O1 0.154772 0.725143 0.297248
O O2 0.332904 0.703653 0.349679
O O3 0.383072 0.415652 0.488449
O O4 0.090976 0.435379 0.143446
O O5 0.353581 0.673204 0.900529
O O6 0.993278 0.969544 0.734748
O O7 0.708248 0.077878 0.527560
O O8 0.025193 0.094930 0.874562
O O9 0.369547 0.127543 0.219938
O O10 0.214923 0.481502 0.065367
O O11 0.969593 0.515965 0.533694
O O12 0.732620 0.787463 0.976168
#
# Coordination Sequence:
#
# PCOD9126106 Si02
#       7
#     4   2   4   4   2   4   4
#     4  11  23  40  65  98 141 179 232 293 352 426
#     4  12  22  36  72  98 138 182 224 288 362 426
#     4  10  24  45  68  97 136 189 230 300 349 427
#     4  11  24  43  70 102 135 187 231 292 361 429
#     4  10  22  38  62  92 140 184 216 296 348 428
#     4  11  23  44  63 102 141 177 239 289 357 426
#     4  10  23  48  74 102 143 186 241 296 352 426
#
# _framework density 25.399414
#
# number of rings (size 3 to 8) (size 9 to 14) (size 15 to 20)
#    0.000    1.333    1.667    3.500    7.000    0.000 
#   15.000    0.000    0.000    0.000    0.000    0.000 
#    0.000    0.000    0.000    0.000    0.000    0.000 
#
# Total GULP energy -66885.781977 kJ/mol
# GULP energy per Si atom -5573.815165 kJ/mol
# Density = 2.534160 g / cm^3
# Si number density = 25.399414 Si / 1000 Ang^3
#
#
#
# Elastic Constant Matrix: (Units=GPa)
#
#
# Indices 1 2 3 4 5 6 
#
# 1 128.6780 17.5871 30.4143 -0.0001 42.1863 -0.0002
# 2 17.5871 73.5442 34.9420 0.0002 9.0713 -0.0004
# 3 30.4143 34.9420 135.9379 -0.0001 29.8371 0.0001
# 4 -0.0001 0.0002 -0.0001 13.4678 -0.0001 21.6770
# 5 42.1863 9.0713 29.8371 -0.0001 57.5105 -0.0001
# 6 -0.0002 -0.0004 0.0001 21.6770 -0.0001 32.1587
#
#
#
# Elastic Compliance Matrix: (Units=1/GPa)
#
#
# Indices 1 2 3 4 5 6 
#
# 1 0.010424 -0.001420 -0.000381 0.000000 -0.007225 0.000000
# 2 -0.001420 0.015692 -0.003838 0.000007 0.000558 -0.000004
# 3 -0.000381 -0.003838 0.009292 -0.000003 -0.003936 0.000002
# 4 0.000000 0.000007 -0.000003 -0.874143 0.000001 0.589230
# 5 -0.007225 0.000558 -0.003936 0.000001 0.024641 0.000000
# 6 0.000000 -0.000004 0.000002 0.589230 0.000000 -0.366084
#
#
# Mechanical properties :
#
#
# Convention : Reuss Voigt Hill
#
# Bulk Modulus (GPa) = 41.44591 56.00522 48.72557
# Shear Modulus (GPa) = -4.30717 37.64184 16.66733
#
# Velocity S-wave (km/s) = -1.30363 3.85385 2.56444
# Velocity P-wave (km/s) = 3.75328 6.47306 5.29092
#
# Compressibility (1/GPa) = 0.02412783
#
# Stress axis : x y z
#
# Youngs Moduli (GPa) = 95.93090 63.72807 107.61896
#
# Poissons Ratio (x) = 0.09052 0.04105
# Poissons Ratio (y) = 0.13627 0.41306
# Poissons Ratio (z) = 0.03659 0.24460
#
# Static dielectric constant tensor:
#      x y z
#    x 2.159030 0.000000 0.018190 
#    y 0.000000 2.133970 0.000000 
#    z 0.018190 0.000000 2.016320 
# 
# From -- ./inp_files/30308.got.cif
#   From: 2010.05.17/outbox.cif.g08.bks.cpg/sg5_16_cif.got.tgz:30308.got - 2010.06.03 18:56:24.
