data_PCOD9126558
_publ_section_title
;
Structure prediction by ZEFSAII (Michael W. Deem and Ramdas Pophale) SiO2 
 PCOD9126558
Probable space group: C 2
;
_chemical_formula_sum "Si O2"
_cell_formula_units_Z 22
_cell_length_a 14.460856
_cell_length_b 12.714478
_cell_length_c 10.186315
_cell_angle_alpha 90.000000
_cell_angle_beta 153.863569
_cell_angle_gamma 90.000000
_cell_volume 825.021929
_symmetry_space_group_name_H-M "C 2"
_symmetry_group_IT_number 5
_symmetry_cell_setting 'monoclinic'
loop_
_space_group_symop_operation_xyz
x,y,z
-x,y,-z
1/2+x,1/2+y,z
1/2-x,1/2+y,-z
loop_
_atom_site_type_symbol
_atom_site_label
_atom_site_fract_x
_atom_site_fract_y
_atom_site_fract_z
Si Si1 0.591261 0.216070 0.803539
Si Si2 0.238642 0.820841 0.254679
Si Si3 0.315932 0.668915 0.566660
Si Si4 0.201165 0.918316 0.821970
Si Si5 0.000000 0.520462 0.000000
Si Si6 0.282026 0.530415 0.894114
O O1 0.345814 0.216097 0.532154
O O2 0.671870 0.294601 0.795037
O O3 0.720918 0.245550 0.102527
O O4 0.630470 0.104284 0.786557
O O5 0.371744 0.763049 0.536821
O O6 0.000000 0.825126 0.000000
O O7 0.296673 0.944671 0.312647
O O8 0.512675 0.602120 0.869898
O O9 0.171536 0.592151 0.292667
O O10 0.394468 0.952884 0.980797
O O11 0.000000 0.971424 0.500000
O O12 0.162337 0.946800 0.922925
#
# Coordination Sequence:
#
# PCOD9126558 Si02
#       6
#     4   4   4   4   2   4
#     4  10  22  41  61  95 132 160 218 280 321 404
#     4   9  20  41  63  94 133 162 217 280 313 398
#     4  11  20  41  70  92 128 172 212 271 337 397
#     4  11  23  39  64  93 127 166 220 274 321 393
#     4  12  20  38  68  90 120 178 218 258 338 392
#     4  11  22  40  69  95 125 177 218 267 341 389
#
# _framework density 26.665955
#
# number of rings (size 3 to 8) (size 9 to 14) (size 15 to 20)
#    0.000    1.455    6.364    0.000    0.000    1.455 
#    8.182    3.636    0.000    0.000    0.000    0.000 
#    0.000    0.000    0.000    0.000    0.000    0.000 
#
# Total GULP energy -61474.081479 kJ/mol
# GULP energy per Si atom -5588.552862 kJ/mol
# Density = 2.660526 g / cm^3
# Si number density = 26.665955 Si / 1000 Ang^3
#
#
#
# Elastic Constant Matrix: (Units=GPa)
#
#
# Indices 1 2 3 4 5 6 
#
# 1 132.4937 59.6298 53.8778 0.0000 20.9212 0.0000
# 2 59.6298 160.7436 40.0046 0.0000 1.3837 0.0000
# 3 53.8778 40.0046 80.6424 0.0000 15.0355 0.0000
# 4 0.0000 0.0000 0.0000 -50.3655 0.0000 -18.6826
# 5 20.9212 1.3837 15.0355 0.0000 43.7151 0.0000
# 6 0.0000 0.0000 0.0000 -18.6826 0.0000 45.2619
#
#
#
# Elastic Compliance Matrix: (Units=1/GPa)
#
#
# Indices 1 2 3 4 5 6 
#
# 1 0.011751 -0.002897 -0.005751 0.000000 -0.003554 0.000000
# 2 -0.002897 0.007857 -0.002323 0.000000 0.001937 0.000000
# 3 -0.005751 -0.002323 0.018024 0.000000 -0.003373 0.000000
# 4 0.000000 0.000000 0.000000 -0.017219 0.000000 -0.007107
# 5 -0.003554 0.001937 -0.003373 0.000000 0.025675 0.000000
# 6 0.000000 0.000000 0.000000 -0.007107 0.000000 0.019160
#
#
# Mechanical properties :
#
#
# Convention : Reuss Voigt Hill
#
# Bulk Modulus (GPa) = 63.73713 75.65602 69.69657
# Shear Modulus (GPa) = 54.09875 22.41348 38.25612
#
# Velocity S-wave (km/s) = 4.50906 2.90233 3.79178
# Velocity P-wave (km/s) = 7.14582 6.29799 6.73526
#
# Compressibility (1/GPa) = 0.01568944
#
# Stress axis : x y z
#
# Youngs Moduli (GPa) = 85.09572 127.26802 55.48064
#
# Poissons Ratio (x) = 0.36875 0.31908
# Poissons Ratio (y) = 0.24656 0.12889
# Poissons Ratio (z) = 0.48941 0.29567
#
# Static dielectric constant tensor:
#      x y z
#    x 2.290470 0.000000 -0.137010 
#    y 0.000000 2.084580 0.000000 
#    z -0.137010 0.000000 2.332200 
# 
# From -- ./inp_files/42635.got.cif
#   From: 2010.05.17/outbox.cif.g08.bks.cpg/sg5_22_cif.got.tgz:42635.got - 2010.06.03 18:56:24.
