data_PCOD9126191
_publ_section_title
;
Structure prediction by ZEFSAII (Michael W. Deem and Ramdas Pophale) SiO2 
 PCOD9126191
Probable space group: C 2
;
_chemical_formula_sum "Si O2"
_cell_formula_units_Z 30
_cell_length_a 14.796603
_cell_length_b 18.894411
_cell_length_c 8.664384
_cell_angle_alpha 90.000000
_cell_angle_beta 139.844027
_cell_angle_gamma 90.000000
_cell_volume 1562.088512
_symmetry_space_group_name_H-M "C 2"
_symmetry_group_IT_number 5
_symmetry_cell_setting 'monoclinic'
loop_
_space_group_symop_operation_xyz
x,y,z
-x,y,-z
1/2+x,1/2+y,z
1/2-x,1/2+y,-z
loop_
_atom_site_type_symbol
_atom_site_label
_atom_site_fract_x
_atom_site_fract_y
_atom_site_fract_z
Si Si1 0.251009 0.926820 0.473433
Si Si2 0.000000 0.392552 0.000000
Si Si3 0.893841 0.181471 0.504891
Si Si4 0.743627 0.311935 0.194874
Si Si5 0.537289 0.331768 0.366197
Si Si6 0.116076 0.282094 0.920287
Si Si7 0.648767 0.192778 0.618980
Si Si8 0.349688 0.581989 0.720207
O O1 0.397732 0.935000 0.754323
O O2 0.266227 0.867410 0.360912
O O3 0.136139 0.894559 0.440041
O O4 0.196155 0.000764 0.338181
O O5 0.096606 0.340314 0.024776
O O6 0.766108 0.230904 0.281073
O O7 0.858249 0.112567 0.556859
O O8 0.000000 0.167538 0.500000
O O9 0.980176 0.232940 0.732979
O O10 0.859238 0.318898 0.211222
O O11 0.596988 0.327632 0.919740
O O12 0.500000 0.338747 0.500000
O O13 0.614912 0.256022 0.455251
O O14 0.248447 0.231532 0.125056
O O15 0.500000 0.172318 0.500000
O O16 0.734761 0.129625 0.657071
O O17 0.500000 0.590198 0.000000
#
# Coordination Sequence:
#
# PCOD9126191 Si02
#       8
#     4   2   4   4   4   4   4   4
#     4  12  26  41  62  96 131 171 214 266 327 389
#     4  12  22  42  64  94 126 172 216 268 328 384
#     4  10  22  38  68  99 123 162 221 276 317 378
#     4  11  21  39  65 100 123 158 216 280 315 368
#     4  11  21  40  68  94 126 165 214 273 325 377
#     4  11  19  40  71  94 125 156 221 274 323 381
#     4  11  21  40  69  97 127 169 217 264 322 388
#     4  12  25  45  65  90 134 181 218 257 328 400
#
# _framework density 19.205058000000001
#
# number of rings (size 3 to 8) (size 9 to 14) (size 15 to 20)
#    0.000    0.800    6.667    2.800    0.000    0.533 
#    4.800    1.333    0.000    0.000    0.000    0.000 
#    0.000    0.000    0.000    0.000    0.000    0.000 
#
# Total GULP energy -83781.221192 kJ/mol
# GULP energy per Si atom -5585.414746 kJ/mol
# Density = 1.916135 g / cm^3
# Si number density = 19.205058 Si / 1000 Ang^3
#
#
#
# Elastic Constant Matrix: (Units=GPa)
#
#
# Indices 1 2 3 4 5 6 
#
# 1 92.6288 52.2457 21.3099 0.0000 -1.6258 0.0000
# 2 52.2457 91.2447 15.5949 0.0000 3.2132 0.0000
# 3 21.3099 15.5949 119.4753 0.0000 9.8706 0.0000
# 4 0.0000 0.0000 0.0000 28.3014 0.0000 8.4004
# 5 -1.6258 3.2132 9.8706 0.0000 32.2056 0.0000
# 6 0.0000 0.0000 0.0000 8.4004 0.0000 7.0285
#
#
#
# Elastic Compliance Matrix: (Units=1/GPa)
#
#
# Indices 1 2 3 4 5 6 
#
# 1 0.016456 -0.009175 -0.001931 0.000000 0.002338 0.000000
# 2 -0.009175 0.016340 -0.000332 0.000000 -0.001992 0.000000
# 3 -0.001931 -0.000332 0.008991 0.000000 -0.002820 0.000000
# 4 0.000000 0.000000 0.000000 0.054761 0.000000 -0.065450
# 5 0.002338 -0.001992 -0.002820 0.000000 0.032231 0.000000
# 6 0.000000 0.000000 0.000000 -0.065450 0.000000 0.220504
#
#
# Mechanical properties :
#
#
# Convention : Reuss Voigt Hill
#
# Bulk Modulus (GPa) = 52.87754 53.51665 53.19709
# Shear Modulus (GPa) = 13.21141 27.78697 20.49919
#
# Velocity S-wave (km/s) = 2.62565 3.80788 3.27063
# Velocity P-wave (km/s) = 6.06506 6.87457 6.48246
#
# Compressibility (1/GPa) = 0.01891162
#
# Stress axis : x y z
#
# Youngs Moduli (GPa) = 60.76855 61.20033 111.22763
#
# Poissons Ratio (x) = 0.56150 0.21474
# Poissons Ratio (y) = 0.55754 0.03691
# Poissons Ratio (z) = 0.11732 0.02031
#
# Static dielectric constant tensor:
#      x y z
#    x 1.699300 0.000000 0.010960 
#    y 0.000000 1.626910 0.000000 
#    z 0.010960 0.000000 1.720910 
# 
# From -- ./inp_files/25371.got.cif
#   From: 2010.05.17/outbox.cif.g08.bks.cpg/sg5_13_cif.got.tgz:25371.got - 2010.06.03 18:56:24.
