data_PCOD9126297
_publ_section_title
;
Structure prediction by ZEFSAII (Michael W. Deem and Ramdas Pophale) SiO2 
 PCOD9126297
Probable space group: C 2
;
_chemical_formula_sum "Si O2"
_cell_formula_units_Z 24
_cell_length_a 19.723455
_cell_length_b 5.247019
_cell_length_c 14.683107
_cell_angle_alpha 90.000000
_cell_angle_beta 140.441964
_cell_angle_gamma 90.000000
_cell_volume 967.736712
_symmetry_space_group_name_H-M "C 2"
_symmetry_group_IT_number 5
_symmetry_cell_setting 'monoclinic'
loop_
_space_group_symop_operation_xyz
x,y,z
-x,y,-z
1/2+x,1/2+y,z
1/2-x,1/2+y,-z
loop_
_atom_site_type_symbol
_atom_site_label
_atom_site_fract_x
_atom_site_fract_y
_atom_site_fract_z
Si Si1 0.342127 0.420810 0.413062
Si Si2 0.706119 0.234033 0.153181
Si Si3 0.000000 0.971409 0.000000
Si Si4 0.996626 0.237307 0.683116
Si Si5 0.865617 0.211615 0.011179
Si Si6 0.000000 0.534766 0.500000
Si Si7 0.197125 0.421371 0.411014
O O1 0.307658 0.662244 0.317975
O O2 0.426882 0.494167 0.579128
O O3 0.398927 0.216954 0.410565
O O4 0.232065 0.333696 0.346151
O O5 0.605342 0.296874 0.115285
O O6 0.713650 0.485344 0.099761
O O7 0.675653 0.986916 0.061760
O O8 0.030501 0.140223 0.943976
O O9 0.014169 0.380569 0.607391
O O10 0.920563 0.399297 0.671934
O O11 0.100302 0.184441 0.849254
O O12 0.237639 0.711108 0.462283
#
# Coordination Sequence:
#
# PCOD9126297 Si02
#       7
#     4   4   2   4   4   2   4
#     4  11  26  45  75 109 152 197 254 310 379 449
#     4  10  24  41  72 108 154 197 244 309 381 449
#     4   8  22  38  70 108 160 192 240 312 388 438
#     4  11  26  45  75 109 152 197 254 310 379 449
#     4  10  24  41  72 108 154 197 244 309 381 449
#     4  12  26  48  80 106 156 198 260 316 382 444
#     4  10  22  39  67 112 146 190 244 312 370 443
#
# _framework density 24.800135999999998
#
# number of rings (size 3 to 8) (size 9 to 14) (size 15 to 20)
#    1.000    0.667    1.667    1.000    9.333    5.333 
#    0.000    0.000    7.333    0.000    0.000    0.000 
#    0.000    0.000    0.000    0.000    0.000    0.000 
#
# Total GULP energy -67088.478423 kJ/mol
# GULP energy per Si atom -5590.706535 kJ/mol
# Density = 2.474369 g / cm^3
# Si number density = 24.800136 Si / 1000 Ang^3
#
#
#
# Elastic Constant Matrix: (Units=GPa)
#
#
# Indices 1 2 3 4 5 6 
#
# 1 143.6648 31.9384 30.6651 0.0000 -8.2487 0.0000
# 2 31.9384 109.3111 38.2327 0.0001 -8.3996 0.0001
# 3 30.6651 38.2327 118.1311 -0.0001 -23.6308 0.0000
# 4 0.0000 0.0001 -0.0001 29.9247 0.0000 7.3579
# 5 -8.2487 -8.3996 -23.6308 0.0000 21.8699 -0.0001
# 6 0.0000 0.0001 0.0000 7.3579 -0.0001 36.4811
#
#
#
# Elastic Compliance Matrix: (Units=1/GPa)
#
#
# Indices 1 2 3 4 5 6 
#
# 1 0.007664 -0.001734 -0.001254 0.000000 0.000869 0.000000
# 2 -0.001734 0.010712 -0.002966 0.000000 0.000256 0.000000
# 3 -0.001254 -0.002966 0.012028 0.000000 0.011384 0.000000
# 4 0.000000 0.000000 0.000000 0.035161 0.000000 -0.007092
# 5 0.000869 0.000256 0.011384 0.000000 0.058452 0.000000
# 6 0.000000 0.000000 0.000000 -0.007092 0.000000 0.028842
#
#
# Mechanical properties :
#
#
# Convention : Reuss Voigt Hill
#
# Bulk Modulus (GPa) = 54.06585 63.64215 58.85400
# Shear Modulus (GPa) = 29.25168 35.67319 32.46244
#
# Velocity S-wave (km/s) = 3.43811 3.79677 3.62188
# Velocity P-wave (km/s) = 6.13259 6.70361 6.42445
#
# Compressibility (1/GPa) = 0.01849596
#
# Stress axis : x y z
#
# Youngs Moduli (GPa) = 130.48492 93.35644 83.14023
#
# Poissons Ratio (x) = 0.16185 0.10429
# Poissons Ratio (y) = 0.22621 0.24656
# Poissons Ratio (z) = 0.16368 0.27686
#
# Static dielectric constant tensor:
#      x y z
#    x 2.024630 0.000000 0.002280 
#    y 0.000000 1.972080 0.000000 
#    z 0.002280 0.000000 1.993010 
# 
# From -- ./inp_files/56607.got.cif
#   From: 2010.05.17/outbox.cif.g08.bks.cpg/sg5_29_cif.got.tgz:56607.got - 2010.06.03 18:56:24.
