data_PCOD9126622
_publ_section_title
;
Structure prediction by ZEFSAII (Michael W. Deem and Ramdas Pophale) SiO2 
 PCOD9126622
Probable space group: C 2
;
_chemical_formula_sum "Si O2"
_cell_formula_units_Z 24
_cell_length_a 21.876429
_cell_length_b 5.291010
_cell_length_c 23.451978
_cell_angle_alpha 90.000000
_cell_angle_beta 22.276479
_cell_angle_gamma 90.000000
_cell_volume 1029.013655
_symmetry_space_group_name_H-M "C 2"
_symmetry_group_IT_number 5
_symmetry_cell_setting 'monoclinic'
loop_
_space_group_symop_operation_xyz
x,y,z
-x,y,-z
1/2+x,1/2+y,z
1/2-x,1/2+y,-z
loop_
_atom_site_type_symbol
_atom_site_label
_atom_site_fract_x
_atom_site_fract_y
_atom_site_fract_z
Si Si1 0.124835 0.904990 0.023938
Si Si2 0.833050 0.040567 0.444090
Si Si3 0.691506 0.302828 0.840136
Si Si4 0.588585 0.761549 0.144387
Si Si5 0.665552 0.079775 0.693258
Si Si6 0.810897 0.808494 0.674696
O O1 0.210807 0.861134 0.890333
O O2 0.241949 0.802027 0.972295
O O3 0.944062 0.792372 0.182292
O O4 0.111200 0.188415 0.058516
O O5 0.715819 0.246094 0.514331
O O6 0.822150 0.139812 0.519082
O O7 0.994838 0.070058 0.267463
O O8 0.779769 0.051206 0.742245
O O9 0.743080 0.551909 0.760743
O O10 0.500000 0.259201 0.000000
O O11 0.459288 0.982388 0.247213
O O12 0.721962 0.884397 0.692539
O O13 0.000000 0.778213 0.500000
#
# Coordination Sequence:
#
# PCOD9126622 Si02
#       6
#     4   4   4   4   4   4
#     4  12  24  43  73 105 148 185 245 303 371 441
#     4  10  22  41  65  98 138 182 228 281 354 430
#     4  12  27  50  79 108 148 197 254 313 373 438
#     4  11  24  43  68 106 145 187 237 299 375 431
#     4  11  24  46  72 100 146 192 239 306 364 441
#     4  12  29  52  75 109 149 200 257 309 372 443
#
# _framework density 23.323305000000001
#
# number of rings (size 3 to 8) (size 9 to 14) (size 15 to 20)
#    0.000    0.667    5.000    2.000    4.667    0.000 
#   12.000    0.000    0.000    0.000    0.000    0.000 
#    0.000    0.000    0.000    0.000    0.000    0.000 
#
# Total GULP energy -66938.234376 kJ/mol
# GULP energy per Si atom -5578.186198 kJ/mol
# Density = 2.327022 g / cm^3
# Si number density = 23.323305 Si / 1000 Ang^3
#
#
#
# Elastic Constant Matrix: (Units=GPa)
#
#
# Indices 1 2 3 4 5 6 
#
# 1 89.7742 3.4313 28.2170 0.0006 11.5863 -0.0019
# 2 3.4313 68.3473 19.1527 0.0736 9.8316 -0.0630
# 3 28.2170 19.1527 95.7884 -0.0247 20.9134 -0.0093
# 4 0.0006 0.0736 -0.0247 45.3445 -0.0177 10.9038
# 5 11.5863 9.8316 20.9134 -0.0177 45.4684 0.0118
# 6 -0.0019 -0.0630 -0.0093 10.9038 0.0118 26.9978
#
#
#
# Elastic Compliance Matrix: (Units=1/GPa)
#
#
# Indices 1 2 3 4 5 6 
#
# 1 0.012406 0.000576 -0.003393 -0.000004 -0.001725 0.000004
# 2 0.000576 0.015716 -0.002822 -0.000041 -0.002247 0.000053
# 3 -0.003393 -0.002822 0.012985 0.000011 -0.004498 -0.000005
# 4 -0.000004 -0.000041 0.000011 0.024426 0.000017 -0.009865
# 5 -0.001725 -0.002247 -0.004498 0.000017 0.024988 -0.000025
# 6 0.000004 0.000053 -0.000005 -0.009865 -0.000025 0.041024
#
#
# Mechanical properties :
#
#
# Convention : Reuss Voigt Hill
#
# Bulk Modulus (GPa) = 33.52215 39.50132 36.51173
# Shear Modulus (GPa) = 32.72973 37.10273 34.91623
#
# Velocity S-wave (km/s) = 3.75014 3.99281 3.87337
# Velocity P-wave (km/s) = 5.75807 6.18303 5.97433
#
# Compressibility (1/GPa) = 0.02983102
#
# Stress axis : x y z
#
# Youngs Moduli (GPa) = 80.60496 63.62831 77.00960
#
# Poissons Ratio (x) = -0.03666 0.26130
# Poissons Ratio (y) = -0.04644 0.21728
# Poissons Ratio (z) = 0.27350 0.17953
#
# Static dielectric constant tensor:
#      x y z
#    x 1.909040 0.000000 0.042750 
#    y 0.000000 1.992860 0.000010 
#    z 0.042750 0.000010 1.925190 
# 
# From -- ./inp_files/69553.got.cif
#   From: 2010.05.17/outbox.cif.g08.bks.cpg/sg5_35_cif.got.tgz:69553.got - 2010.06.03 18:56:24.
