data_PCOD9126610
_publ_section_title
;
Structure prediction by ZEFSAII (Michael W. Deem and Ramdas Pophale) SiO2 
 PCOD9126610
Probable space group: C 2
;
_chemical_formula_sum "Si O2"
_cell_formula_units_Z 22
_cell_length_a 7.432817
_cell_length_b 13.344007
_cell_length_c 10.326540
_cell_angle_alpha 90.000000
_cell_angle_beta 108.969967
_cell_angle_gamma 90.000000
_cell_volume 968.596547
_symmetry_space_group_name_H-M "C 2"
_symmetry_group_IT_number 5
_symmetry_cell_setting 'monoclinic'
loop_
_space_group_symop_operation_xyz
x,y,z
-x,y,-z
1/2+x,1/2+y,z
1/2-x,1/2+y,-z
loop_
_atom_site_type_symbol
_atom_site_label
_atom_site_fract_x
_atom_site_fract_y
_atom_site_fract_z
Si Si1 0.000000 0.901420 0.000000
Si Si2 0.321907 0.067779 0.051176
Si Si3 0.160438 0.673872 0.679562
Si Si4 0.355503 0.309465 0.707120
Si Si5 0.123627 0.018255 0.400550
Si Si6 0.424262 0.677001 0.200380
O O1 0.971614 0.836103 0.864971
O O2 0.184313 0.972756 0.032904
O O3 0.200653 0.157648 0.955409
O O4 0.500000 0.048652 0.000000
O O5 0.383869 0.101393 0.208675
O O6 0.996708 0.754369 0.642602
O O7 0.215016 0.604370 0.569428
O O8 0.365875 0.723323 0.763754
O O9 0.294804 0.413301 0.627666
O O10 0.188248 0.237717 0.717122
O O11 0.975899 0.064377 0.260774
O O12 0.000000 0.010166 0.500000
#
# Coordination Sequence:
#
# PCOD9126610 Si02
#       6
#     2   4   4   4   4   4
#     4  12  22  38  62  98 132 164 202 262 312 390
#     4  12  19  37  67  93 131 170 194 255 333 375
#     4  10  22  41  65  90 131 161 208 257 317 374
#     4  12  22  40  71  93 124 170 209 252 331 370
#     4  10  24  46  65  89 130 166 218 268 296 364
#     4  10  22  41  65  90 131 161 208 257 317 374
#
# _framework density 22.713276
#
# number of rings (size 3 to 8) (size 9 to 14) (size 15 to 20)
#    1.091    0.000    7.273    1.091    0.000    2.909 
#    3.273    0.000    0.000    0.000    0.000    0.000 
#    0.000    0.000    0.000    0.000    0.000    0.000 
#
# Total GULP energy -61426.594509 kJ/mol
# GULP energy per Si atom -5584.235864 kJ/mol
# Density = 2.266158 g / cm^3
# Si number density = 22.713276 Si / 1000 Ang^3
#
#
#
# Elastic Constant Matrix: (Units=GPa)
#
#
# Indices 1 2 3 4 5 6 
#
# 1 97.8863 43.8031 16.6142 0.0000 -39.1123 0.0000
# 2 43.8031 88.9527 11.6832 0.0000 -18.4744 0.0000
# 3 16.6142 11.6832 78.6379 0.0000 -26.7997 0.0000
# 4 0.0000 0.0000 0.0000 27.6723 0.0000 -1.5606
# 5 -39.1123 -18.4744 -26.7997 0.0000 38.7782 0.0000
# 6 0.0000 0.0000 0.0000 -1.5606 0.0000 8.2342
#
#
#
# Elastic Compliance Matrix: (Units=1/GPa)
#
#
# Indices 1 2 3 4 5 6 
#
# 1 0.020473 -0.006383 0.003432 0.000000 0.019981 0.000000
# 2 -0.006383 0.014469 -0.000845 0.000000 -0.000128 0.000000
# 3 0.003432 -0.000845 0.017214 0.000000 0.014956 0.000000
# 4 0.000000 0.000000 0.000000 0.036528 0.000000 0.006923
# 5 0.019981 -0.000128 0.014956 0.000000 0.056216 0.000000
# 6 0.000000 0.000000 0.000000 0.006923 0.000000 0.122756
#
#
# Mechanical properties :
#
#
# Convention : Reuss Voigt Hill
#
# Bulk Modulus (GPa) = 22.43874 45.51977 33.97925
# Shear Modulus (GPa) = 17.23530 27.82871 22.53201
#
# Velocity S-wave (km/s) = 2.75766 3.50411 3.15305
# Velocity P-wave (km/s) = 4.47662 6.03790 5.31490
#
# Compressibility (1/GPa) = 0.04456579
#
# Stress axis : x y z
#
# Youngs Moduli (GPa) = 48.84398 69.11180 58.09288
#
# Poissons Ratio (x) = 0.44112 -0.19939
# Poissons Ratio (y) = 0.31176 0.04908
# Poissons Ratio (z) = -0.16765 0.05839
#
# Static dielectric constant tensor:
#      x y z
#    x 1.905950 0.000000 0.077870 
#    y 0.000000 1.830250 0.000000 
#    z 0.077870 0.000000 1.923300 
# 
# From -- ./inp_files/35332.got.cif
#   From: 2010.05.17/outbox.cif.g08.bks.cpg/sg5_18_cif.got.tgz:35332.got - 2010.06.03 18:56:24.
