data_PCOD9126140
_publ_section_title
;
Structure prediction by ZEFSAII (Michael W. Deem and Ramdas Pophale) SiO2 
 PCOD9126140
Probable space group: C 2
;
_chemical_formula_sum "Si O2"
_cell_formula_units_Z 24
_cell_length_a 5.021957
_cell_length_b 15.998833
_cell_length_c 14.026604
_cell_angle_alpha 90.000000
_cell_angle_beta 71.773545
_cell_angle_gamma 90.000000
_cell_volume 1070.431002
_symmetry_space_group_name_H-M "C 2"
_symmetry_group_IT_number 5
_symmetry_cell_setting 'monoclinic'
loop_
_space_group_symop_operation_xyz
x,y,z
-x,y,-z
1/2+x,1/2+y,z
1/2-x,1/2+y,-z
loop_
_atom_site_type_symbol
_atom_site_label
_atom_site_fract_x
_atom_site_fract_y
_atom_site_fract_z
Si Si1 0.797823 0.515260 0.938013
Si Si2 0.849033 0.520794 0.608390
Si Si3 0.340507 0.643739 0.213027
Si Si4 0.073510 0.843781 0.598178
Si Si5 0.796363 0.756632 0.250737
Si Si6 0.467199 0.909191 0.246674
O O1 0.680469 0.583873 0.876174
O O2 0.008858 0.454992 0.855941
O O3 0.500000 0.473149 0.000000
O O4 0.000000 0.547816 0.000000
O O5 0.676783 0.587309 0.688930
O O6 0.698779 0.437467 0.584648
O O7 0.000000 0.559490 0.500000
O O8 0.037935 0.480016 0.670762
O O9 0.606591 0.700998 0.202930
O O10 0.078997 0.704804 0.227436
O O11 0.794804 0.852575 0.694642
O O12 0.000000 0.819276 0.500000
O O13 0.273079 0.777657 0.629721
O O14 0.745736 0.851533 0.219740
#
# Coordination Sequence:
#
# PCOD9126140 Si02
#       6
#     4   4   4   4   4   4
#     4  11  26  46  75 104 128 176 238 290 351 408
#     4  10  22  38  64  96 132 183 233 278 334 400
#     4  11  25  44  68  97 144 176 225 285 352 409
#     4  11  22  41  70 101 141 189 238 272 334 403
#     4  11  24  44  66  97 142 184 217 277 351 406
#     4  10  23  44  70  96 137 178 229 291 331 401
#
# _framework density 22.420876
#
# number of rings (size 3 to 8) (size 9 to 14) (size 15 to 20)
#    0.000    1.333    3.333    1.000   11.667    0.667 
#    3.000    5.000    0.000    0.000    0.000    0.000 
#    0.000    0.000    0.000    0.000    0.000    0.000 
#
# Total GULP energy -66828.268140 kJ/mol
# GULP energy per Si atom -5569.022345 kJ/mol
# Density = 2.236985 g / cm^3
# Si number density = 22.420876 Si / 1000 Ang^3
#
#
#
# Elastic Constant Matrix: (Units=GPa)
#
#
# Indices 1 2 3 4 5 6 
#
# 1 88.1870 8.6727 28.3438 0.0000 16.4989 0.0000
# 2 8.6727 25.8655 27.2791 0.0000 5.6700 0.0000
# 3 28.3438 27.2791 118.0251 0.0000 16.1094 0.0000
# 4 0.0000 0.0000 0.0000 10.3882 0.0000 3.6326
# 5 16.4989 5.6700 16.1094 0.0000 33.1677 0.0000
# 6 0.0000 0.0000 0.0000 3.6326 0.0000 23.4463
#
#
#
# Elastic Compliance Matrix: (Units=1/GPa)
#
#
# Indices 1 2 3 4 5 6 
#
# 1 0.013134 -0.000897 -0.002223 0.000000 -0.005300 0.000000
# 2 -0.000897 0.051507 -0.011297 0.000000 -0.002872 0.000000
# 3 -0.002223 -0.011297 0.011999 0.000000 -0.002790 0.000000
# 4 0.000000 0.000000 0.000000 0.101778 0.000000 -0.015769
# 5 -0.005300 -0.002872 -0.002790 0.000000 0.034633 0.000000
# 6 0.000000 0.000000 0.000000 -0.015769 0.000000 0.045094
#
#
# Mechanical properties :
#
#
# Convention : Reuss Voigt Hill
#
# Bulk Modulus (GPa) = 20.91883 40.07430 30.49656
# Shear Modulus (GPa) = 16.50637 24.58590 20.54614
#
# Velocity S-wave (km/s) = 2.71625 3.31503 3.03047
# Velocity P-wave (km/s) = 4.38038 5.70658 5.08688
#
# Compressibility (1/GPa) = 0.04780383
#
# Stress axis : x y z
#
# Youngs Moduli (GPa) = 76.13847 19.41498 83.34219
#
# Poissons Ratio (x) = 0.01742 0.18530
# Poissons Ratio (y) = 0.06830 0.94154
# Poissons Ratio (z) = 0.16928 0.21934
#
# Static dielectric constant tensor:
#      x y z
#    x 1.981200 0.000000 -0.028410 
#    y 0.000000 1.875750 0.000000 
#    z -0.028410 0.000000 1.878290 
# 
# From -- ./inp_files/48910.got.cif
#   From: 2010.05.17/outbox.cif.g08.bks.cpg/sg5_25_cif.got.tgz:48910.got - 2010.06.03 18:56:24.
