data_PCOD9126033
_publ_section_title
;
Structure prediction by ZEFSAII (Michael W. Deem and Ramdas Pophale) SiO2 
 PCOD9126033
Probable space group: C 2
;
_chemical_formula_sum "Si O2"
_cell_formula_units_Z 26
_cell_length_a 14.796337
_cell_length_b 17.842908
_cell_length_c 8.766920
_cell_angle_alpha 90.000000
_cell_angle_beta 32.448043
_cell_angle_gamma 90.000000
_cell_volume 1241.837053
_symmetry_space_group_name_H-M "C 2"
_symmetry_group_IT_number 5
_symmetry_cell_setting 'monoclinic'
loop_
_space_group_symop_operation_xyz
x,y,z
-x,y,-z
1/2+x,1/2+y,z
1/2-x,1/2+y,-z
loop_
_atom_site_type_symbol
_atom_site_label
_atom_site_fract_x
_atom_site_fract_y
_atom_site_fract_z
Si Si1 0.677781 0.506360 0.054644
Si Si2 0.453681 0.240038 0.409740
Si Si3 0.789844 0.175362 0.024013
Si Si4 0.667627 0.909878 0.407798
Si Si5 0.000000 0.276090 0.500000
Si Si6 0.892487 0.888593 0.366209
Si Si7 0.880154 0.456616 0.042292
O O1 0.813412 0.476767 0.738698
O O2 0.638944 0.592038 0.074137
O O3 0.529561 0.446356 0.237080
O O4 0.753531 0.503571 0.117109
O O5 0.500000 0.286132 0.500000
O O6 0.444839 0.301826 0.293972
O O7 0.231749 0.397105 0.707049
O O8 0.611414 0.182724 0.182417
O O9 0.922389 0.227825 0.748305
O O10 0.720399 0.200950 0.289861
O O11 0.645762 0.831986 0.351025
O O12 0.824631 0.911039 0.297663
O O13 0.504600 0.918363 0.745317
O O14 0.000000 0.495064 0.000000
#
# Coordination Sequence:
#
# PCOD9126033 Si02
#       7
#     4   4   4   4   2   4   4
#     4  12  22  41  63  96 126 170 205 267 310 367
#     4   8  19  40  60  89 119 170 205 235 316 378
#     4   9  24  35  64  89 126 172 198 250 327 374
#     4  11  24  38  69  92 126 162 218 261 310 365
#     4  12  20  42  58  94 122 164 208 260 310 362
#     4  11  22  40  65 100 120 164 217 263 303 373
#     4  10  22  37  62  96 122 161 209 261 311 358
#
# _framework density 20.936724000000002
#
# number of rings (size 3 to 8) (size 9 to 14) (size 15 to 20)
#    0.923    0.615    1.538    3.692    6.462    0.000 
#    0.000    4.615    0.000    0.000    0.000    0.000 
#    0.000    0.000    0.000    0.000    0.000    0.000 
#
# Total GULP energy -72411.420496 kJ/mol
# GULP energy per Si atom -5570.109269 kJ/mol
# Density = 2.088907 g / cm^3
# Si number density = 20.936724 Si / 1000 Ang^3
#
#
#
# Elastic Constant Matrix: (Units=GPa)
#
#
# Indices 1 2 3 4 5 6 
#
# 1 96.9627 13.8263 -8.6452 0.0103 -6.8275 -0.0051
# 2 13.8263 89.0883 0.8726 0.0023 4.0174 -0.0016
# 3 -8.6452 0.8726 70.7146 0.0101 1.8270 -0.0053
# 4 0.0103 0.0023 0.0101 -7.4975 -0.0077 11.5190
# 5 -6.8275 4.0174 1.8270 -0.0077 25.6539 0.0040
# 6 -0.0051 -0.0016 -0.0053 11.5190 0.0040 4.8344
#
#
#
# Elastic Compliance Matrix: (Units=1/GPa)
#
#
# Indices 1 2 3 4 5 6 
#
# 1 0.010909 -0.001845 0.001276 0.000006 0.003101 -0.000005
# 2 -0.001845 0.011617 -0.000310 0.000002 -0.002288 -0.000001
# 3 0.001276 -0.000310 0.014318 0.000010 -0.000631 -0.000007
# 4 0.000006 0.000002 0.000010 -0.028617 -0.000019 0.068187
# 5 0.003101 -0.002288 -0.000631 -0.000019 0.040209 0.000013
# 6 -0.000005 -0.000001 -0.000007 0.068187 0.000013 0.044382
#
#
# Mechanical properties :
#
#
# Convention : Reuss Voigt Hill
#
# Bulk Modulus (GPa) = 28.50164 29.87477 29.18821
# Shear Modulus (GPa) = 47.04995 21.31229 34.18112
#
# Velocity S-wave (km/s) = 4.74565 3.19398 4.04492
# Velocity P-wave (km/s) = 6.60841 5.28224 5.98219
#
# Compressibility (1/GPa) = 0.03508570
#
# Stress axis : x y z
#
# Youngs Moduli (GPa) = 91.67128 86.07754 69.84453
#
# Poissons Ratio (x) = 0.15884 -0.08914
# Poissons Ratio (y) = 0.16916 0.02164
# Poissons Ratio (z) = -0.11700 0.02667
#
# Static dielectric constant tensor:
#      x y z
#    x 1.863520 0.000000 0.052250 
#    y 0.000000 1.698490 0.000000 
#    z 0.052250 0.000000 1.890250 
# 
# From -- ./inp_files/44822.got.cif
#   From: 2010.05.17/outbox.cif.g08.bks.cpg/sg5_23_cif.got.tgz:44822.got - 2010.06.03 18:56:24.
