data_PCOD9126211
_publ_section_title
;
Structure prediction by ZEFSAII (Michael W. Deem and Ramdas Pophale) SiO2 
 PCOD9126211
Probable space group: C 2
;
_chemical_formula_sum "Si O2"
_cell_formula_units_Z 24
_cell_length_a 17.080102
_cell_length_b 9.593378
_cell_length_c 6.264666
_cell_angle_alpha 90.000000
_cell_angle_beta 88.105144
_cell_angle_gamma 90.000000
_cell_volume 1025.941024
_symmetry_space_group_name_H-M "C 2"
_symmetry_group_IT_number 5
_symmetry_cell_setting 'monoclinic'
loop_
_space_group_symop_operation_xyz
x,y,z
-x,y,-z
1/2+x,1/2+y,z
1/2-x,1/2+y,-z
loop_
_atom_site_type_symbol
_atom_site_label
_atom_site_fract_x
_atom_site_fract_y
_atom_site_fract_z
Si Si1 0.500000 0.610651 0.000000
Si Si2 0.598627 0.807291 0.305286
Si Si3 0.755805 0.253530 0.993582
Si Si4 0.660376 0.124283 0.646433
Si Si5 0.277316 0.388338 0.605409
Si Si6 0.500000 0.047920 0.500000
Si Si7 0.128621 0.101135 0.685022
O O1 0.448078 0.708801 0.853746
O O2 0.559084 0.536452 0.832910
O O3 0.600850 0.726027 0.531684
O O4 0.684055 0.817459 0.185661
O O5 0.549807 0.948411 0.337716
O O6 0.691422 0.163283 0.877397
O O7 0.836037 0.989854 0.479517
O O8 0.713987 0.369678 0.141806
O O9 0.808499 0.164454 0.154183
O O10 0.694632 0.970564 0.591466
O O11 0.568005 0.129934 0.617363
O O12 0.704084 0.237383 0.494133
#
# Coordination Sequence:
#
# PCOD9126211 Si02
#       7
#     2   4   4   4   4   2   4
#     4  10  22  38  78 118 144 204 256 316 394 462
#     4  11  22  46  75 113 155 200 262 319 384 468
#     4  11  24  44  78 114 145 213 265 315 388 469
#     4  12  28  49  79 115 158 208 264 326 396 472
#     4  12  26  50  79 113 158 204 264 332 381 469
#     4  12  26  50  72 114 166 204 246 340 394 456
#     4  11  22  46  75 115 153 199 261 331 377 462
#
# _framework density 23.393155
#
# number of rings (size 3 to 8) (size 9 to 14) (size 15 to 20)
#    0.000    0.667    5.000    2.000    4.667    1.333 
#    3.000    0.000    3.667    0.000    0.000    0.000 
#    0.000    0.000    0.000    0.000    0.000    0.000 
#
# Total GULP energy -67093.634697 kJ/mol
# GULP energy per Si atom -5591.136225 kJ/mol
# Density = 2.333991 g / cm^3
# Si number density = 23.393155 Si / 1000 Ang^3
#
#
#
# Elastic Constant Matrix: (Units=GPa)
#
#
# Indices 1 2 3 4 5 6 
#
# 1 156.7987 36.4637 88.5716 0.0000 -2.1847 0.0000
# 2 36.4637 81.5027 41.2423 0.0000 1.3927 0.0000
# 3 88.5716 41.2423 139.0973 0.0000 0.9418 0.0000
# 4 0.0000 0.0000 0.0000 47.7320 0.0000 -8.0565
# 5 -2.1847 1.3927 0.9418 0.0000 56.0008 0.0000
# 6 0.0000 0.0000 0.0000 -8.0565 0.0000 37.8137
#
#
#
# Elastic Compliance Matrix: (Units=1/GPa)
#
#
# Indices 1 2 3 4 5 6 
#
# 1 0.010127 -0.001500 -0.006008 0.000000 0.000533 0.000000
# 2 -0.001500 0.014662 -0.003390 0.000000 -0.000366 0.000000
# 3 -0.006008 -0.003390 0.012022 0.000000 -0.000352 0.000000
# 4 0.000000 0.000000 0.000000 0.021732 0.000000 0.004630
# 5 0.000533 -0.000366 -0.000352 0.000000 0.017893 0.000000
# 6 0.000000 0.000000 0.000000 0.004630 0.000000 0.027432
#
#
# Mechanical properties :
#
#
# Convention : Reuss Voigt Hill
#
# Bulk Modulus (GPa) = 66.59132 78.88375 72.73754
# Shear Modulus (GPa) = 38.26485 42.38405 40.32445
#
# Velocity S-wave (km/s) = 4.04880 4.26116 4.15634
# Velocity P-wave (km/s) = 7.09824 7.61604 7.36169
#
# Compressibility (1/GPa) = 0.01501697
#
# Stress axis : x y z
#
# Youngs Moduli (GPa) = 98.74208 68.20285 83.18085
#
# Poissons Ratio (x) = 0.10231 0.49971
# Poissons Ratio (y) = 0.14812 0.28195
# Poissons Ratio (z) = 0.59320 0.23118
#
# Static dielectric constant tensor:
#      x y z
#    x 1.936680 0.000000 0.013050 
#    y 0.000000 1.922410 0.000000 
#    z 0.013050 0.000000 1.899930 
# 
# From -- ./inp_files/10740.got.cif
#   From: 2010.05.17/outbox.cif.g08.bks.cpg/sg5_6_cif.got.tgz:10740.got - 2010.06.03 18:56:24.
