data_PCOD9126979
_publ_section_title
;
Structure prediction by ZEFSAII (Michael W. Deem and Ramdas Pophale) SiO2 
 PCOD9126979
Probable space group: C 2
;
_chemical_formula_sum "Si O2"
_cell_formula_units_Z 24
_cell_length_a 18.158324
_cell_length_b 9.407354
_cell_length_c 10.949035
_cell_angle_alpha 90.000000
_cell_angle_beta 147.292820
_cell_angle_gamma 90.000000
_cell_volume 1010.626886
_symmetry_space_group_name_H-M "C 2"
_symmetry_group_IT_number 5
_symmetry_cell_setting 'monoclinic'
loop_
_space_group_symop_operation_xyz
x,y,z
-x,y,-z
1/2+x,1/2+y,z
1/2-x,1/2+y,-z
loop_
_atom_site_type_symbol
_atom_site_label
_atom_site_fract_x
_atom_site_fract_y
_atom_site_fract_z
Si Si1 0.333768 0.343060 0.002619
Si Si2 0.486791 0.958397 0.845486
Si Si3 0.407851 0.299345 0.484525
Si Si4 0.725075 0.538763 0.855021
Si Si5 0.322483 0.692902 0.664334
Si Si6 0.214795 0.907779 0.342308
O O1 0.318821 0.390398 0.843790
O O2 0.230303 0.208781 0.870565
O O3 0.485398 0.297455 0.255378
O O4 0.303578 0.468134 0.055162
O O5 0.451844 0.793877 0.821847
O O6 0.358792 0.986662 0.577849
O O7 0.500000 0.024514 0.000000
O O8 0.623483 0.992697 0.969334
O O9 0.500000 0.235993 0.500000
O O10 0.366740 0.456795 0.375034
O O11 0.264643 0.233965 0.334385
O O12 0.225748 0.755672 0.421163
O O13 0.374874 0.532824 0.726010
#
# Coordination Sequence:
#
# PCOD9126979 Si02
#       6
#     4   4   4   4   4   4
#     4  11  27  46  76 104 147 194 240 308 366 444
#     4  10  22  42  75  95 142 188 232 303 356 436
#     4  10  23  45  73  98 144 190 236 303 357 428
#     4  11  24  50  71 106 145 192 250 296 375 430
#     4  10  23  46  65 104 139 183 244 291 361 430
#     4  10  25  44  70 106 137 190 237 296 369 429
#
# _framework density 23.747636
#
# number of rings (size 3 to 8) (size 9 to 14) (size 15 to 20)
#    1.000    0.667    1.667    1.000    9.333    1.333 
#   21.000    0.000    0.000    0.000    0.000    0.000 
#    0.000    0.000    0.000    0.000    0.000    0.000 
#
# Total GULP energy -66830.738652 kJ/mol
# GULP energy per Si atom -5569.228221 kJ/mol
# Density = 2.369359 g / cm^3
# Si number density = 23.747636 Si / 1000 Ang^3
#
#
#
# Elastic Constant Matrix: (Units=GPa)
#
#
# Indices 1 2 3 4 5 6 
#
# 1 80.1943 3.0897 26.2383 0.0000 -5.0170 0.0000
# 2 3.0897 132.9539 26.4994 0.0000 -28.0139 0.0000
# 3 26.2383 26.4994 136.9072 0.0000 -32.5326 0.0000
# 4 0.0000 0.0000 0.0000 25.0818 0.0000 1.5837
# 5 -5.0170 -28.0139 -32.5326 0.0000 42.4035 0.0000
# 6 0.0000 0.0000 0.0000 1.5837 0.0000 24.7472
#
#
#
# Elastic Compliance Matrix: (Units=1/GPa)
#
#
# Indices 1 2 3 4 5 6 
#
# 1 0.013314 0.000143 -0.002669 0.000000 -0.000378 0.000000
# 2 0.000143 0.008756 -0.000420 0.000000 0.005479 0.000000
# 3 -0.002669 -0.000420 0.009485 0.000000 0.006684 0.000000
# 4 0.000000 0.000000 0.000000 0.040031 0.000000 -0.002562
# 5 -0.000378 0.005479 0.006684 0.000000 0.032286 0.000000
# 6 0.000000 0.000000 0.000000 -0.002562 0.000000 0.040572
#
#
# Mechanical properties :
#
#
# Convention : Reuss Voigt Hill
#
# Bulk Modulus (GPa) = 38.96697 51.30113 45.13405
# Shear Modulus (GPa) = 31.46779 38.06171 34.76475
#
# Velocity S-wave (km/s) = 3.64413 4.00779 3.83028
# Velocity P-wave (km/s) = 5.84385 6.56247 6.21356
#
# Compressibility (1/GPa) = 0.02566276
#
# Stress axis : x y z
#
# Youngs Moduli (GPa) = 75.10979 114.20252 105.42572
#
# Poissons Ratio (x) = -0.01632 0.28139
# Poissons Ratio (y) = -0.01073 0.04430
# Poissons Ratio (z) = 0.20048 0.04799
#
# Static dielectric constant tensor:
#      x y z
#    x 1.932140 0.000000 0.070760 
#    y 0.000000 2.056590 0.000000 
#    z 0.070760 0.000000 2.073110 
# 
# From -- ./inp_files/47360.got.cif
#   From: 2010.05.17/outbox.cif.g08.bks.cpg/sg5_24_cif.got.tgz:47360.got - 2010.06.03 18:56:24.
