data_PCOD9126115
_publ_section_title
;
Structure prediction by ZEFSAII (Michael W. Deem and Ramdas Pophale) SiO2 
 PCOD9126115
Probable space group: C 2
;
_chemical_formula_sum "Si O2"
_cell_formula_units_Z 26
_cell_length_a 18.050187
_cell_length_b 7.180082
_cell_length_c 11.810556
_cell_angle_alpha 90.000000
_cell_angle_beta 58.694254
_cell_angle_gamma 90.000000
_cell_volume 1307.814388
_symmetry_space_group_name_H-M "C 2"
_symmetry_group_IT_number 5
_symmetry_cell_setting 'monoclinic'
loop_
_space_group_symop_operation_xyz
x,y,z
-x,y,-z
1/2+x,1/2+y,z
1/2-x,1/2+y,-z
loop_
_atom_site_type_symbol
_atom_site_label
_atom_site_fract_x
_atom_site_fract_y
_atom_site_fract_z
Si Si1 0.224652 0.311110 0.886072
Si Si2 0.545453 0.055553 0.642165
Si Si3 0.351879 0.614699 0.701419
Si Si4 0.153993 0.930259 0.540127
Si Si5 0.845104 0.471912 0.839641
Si Si6 0.500000 0.785793 0.500000
Si Si7 0.663275 0.782225 0.677417
O O1 0.302007 0.461402 0.811024
O O2 0.184591 0.285316 0.793466
O O3 0.272557 0.127682 0.889605
O O4 0.158130 0.380302 0.033704
O O5 0.586174 0.259367 0.594995
O O6 0.441254 0.051596 0.738884
O O7 0.562269 0.927143 0.517605
O O8 0.592515 0.939300 0.703533
O O9 0.346374 0.549625 0.575889
O O10 0.318355 0.814053 0.769726
O O11 0.454729 0.654614 0.628634
O O12 0.249563 0.838169 0.461469
O O13 0.139517 0.076496 0.652318
#
# Coordination Sequence:
#
# PCOD9126115 Si02
#       7
#     4   4   4   4   4   2   4
#     4  11  25  44  72  90 132 182 236 274 342 392
#     4  11  25  40  65 102 138 176 221 284 338 412
#     4  10  23  38  63  96 131 167 215 281 332 400
#     4  11  23  39  65 101 134 172 216 270 360 401
#     4  11  25  46  68  98 129 179 238 281 326 402
#     4  10  22  38  62  98 140 160 224 278 340 400
#     4  11  24  41  65  97 140 178 212 282 344 418
#
# _framework density 19.880496999999998
#
# number of rings (size 3 to 8) (size 9 to 14) (size 15 to 20)
#    0.000    1.231    4.615    0.000   12.923    0.615 
#    0.000    0.000    0.000    0.000    0.000    0.000 
#    0.000    0.000    0.000    0.000    0.000    0.000 
#
# Total GULP energy -72492.288873 kJ/mol
# GULP energy per Si atom -5576.329913 kJ/mol
# Density = 1.983525 g / cm^3
# Si number density = 19.880497 Si / 1000 Ang^3
#
#
#
# Elastic Constant Matrix: (Units=GPa)
#
#
# Indices 1 2 3 4 5 6 
#
# 1 65.1100 50.2636 26.6989 0.0000 18.5371 0.0000
# 2 50.2636 118.2841 45.1148 0.0000 4.2681 0.0000
# 3 26.6989 45.1148 99.0509 0.0000 8.4725 0.0000
# 4 0.0000 0.0000 0.0000 19.3493 0.0000 1.2406
# 5 18.5371 4.2681 8.4725 0.0000 21.4244 0.0000
# 6 0.0000 0.0000 0.0000 1.2406 0.0000 41.4226
#
#
#
# Elastic Compliance Matrix: (Units=1/GPa)
#
#
# Indices 1 2 3 4 5 6 
#
# 1 0.032739 -0.012657 -0.000882 0.000000 -0.025456 0.000000
# 2 -0.012657 0.015126 -0.004302 0.000000 0.009639 0.000000
# 3 -0.000882 -0.004302 0.012580 0.000000 -0.003354 0.000000
# 4 0.000000 0.000000 0.000000 0.051781 0.000000 -0.001551
# 5 -0.025456 0.009639 -0.003354 0.000000 0.068107 0.000000
# 6 0.000000 0.000000 0.000000 -0.001551 0.000000 0.024188
#
#
# Mechanical properties :
#
#
# Convention : Reuss Voigt Hill
#
# Bulk Modulus (GPa) = 40.38491 58.51104 49.44797
# Shear Modulus (GPa) = 20.12415 27.13044 23.62730
#
# Velocity S-wave (km/s) = 3.18505 3.69816 3.45115
# Velocity P-wave (km/s) = 5.82099 6.90872 6.38805
#
# Compressibility (1/GPa) = 0.02476173
#
# Stress axis : x y z
#
# Youngs Moduli (GPa) = 30.54482 66.11253 79.49055
#
# Poissons Ratio (x) = 0.83678 0.07014
# Poissons Ratio (y) = 0.38660 0.34198
# Poissons Ratio (z) = 0.02695 0.28443
#
# Static dielectric constant tensor:
#      x y z
#    x 1.746720 0.000000 -0.029460 
#    y 0.000000 1.719990 0.000000 
#    z -0.029460 0.000000 1.746370 
# 
# From -- ./inp_files/45582.got.cif
#   From: 2010.05.17/outbox.cif.g08.bks.cpg/sg5_23_cif.got.tgz:45582.got - 2010.06.03 18:56:24.
