data_PCOD9126679
_publ_section_title
;
Structure prediction by ZEFSAII (Michael W. Deem and Ramdas Pophale) SiO2 
 PCOD9126679
Probable space group: C 2
;
_chemical_formula_sum "Si O2"
_cell_formula_units_Z 32
_cell_length_a 21.049621
_cell_length_b 17.150664
_cell_length_c 11.243186
_cell_angle_alpha 90.000000
_cell_angle_beta 21.850824
_cell_angle_gamma 90.000000
_cell_volume 1510.709051
_symmetry_space_group_name_H-M "C 2"
_symmetry_group_IT_number 5
_symmetry_cell_setting 'monoclinic'
loop_
_space_group_symop_operation_xyz
x,y,z
-x,y,-z
1/2+x,1/2+y,z
1/2-x,1/2+y,-z
loop_
_atom_site_type_symbol
_atom_site_label
_atom_site_fract_x
_atom_site_fract_y
_atom_site_fract_z
Si Si1 0.384628 0.432510 0.318913
Si Si2 0.276063 0.708124 0.803339
Si Si3 0.722595 0.557803 0.332658
Si Si4 0.698694 0.634399 0.626285
Si Si5 0.019426 0.365788 0.601154
Si Si6 0.102738 0.489443 0.643572
Si Si7 0.909254 0.758739 0.367155
Si Si8 0.689671 0.282737 0.202736
O O1 0.405261 0.491797 0.393962
O O2 0.192185 0.446741 0.601686
O O3 0.419309 0.347990 0.311216
O O4 0.500000 0.446442 0.000000
O O5 0.330269 0.620018 0.676928
O O6 0.393612 0.779866 0.554093
O O7 0.247113 0.726809 0.994008
O O8 0.094910 0.721335 0.054246
O O9 0.737289 0.609398 0.425702
O O10 0.905760 0.517244 0.990648
O O11 0.789388 0.569389 0.551555
O O12 0.786982 0.716312 0.489280
O O13 0.500000 0.636778 0.000000
O O14 0.115992 0.427423 0.514365
O O15 0.000000 0.393817 0.500000
O O16 0.827046 0.350758 0.978003
O O17 0.826626 0.745179 0.640316
O O18 0.500000 0.311691 0.500000
#
# Coordination Sequence:
#
# PCOD9126679 Si02
#       8
#     4   4   4   4   4   4   4   4
#     4  11  24  39  64  99 139 174 222 276 340 405
#     4  10  22  41  69  91 130 176 224 274 334 393
#     4  11  23  41  61  90 138 171 213 272 337 389
#     4  11  25  39  61  97 137 175 221 276 335 403
#     4  10  22  42  70  98 128 173 227 277 328 400
#     4  11  22  41  62  97 136 174 219 274 338 400
#     4  11  23  40  67  96 129 182 225 275 338 401
#     4   9  21  42  63  97 130 165 227 283 322 389
#
# _framework density 21.182105
#
# number of rings (size 3 to 8) (size 9 to 14) (size 15 to 20)
#    0.000    1.500    1.250    4.500    5.250    1.000 
#    2.250    1.250    0.000   16.500    0.000    0.000 
#    0.000    0.000    0.000    0.000    0.000    0.000 
#
# Total GULP energy -89266.094209 kJ/mol
# GULP energy per Si atom -5579.130888 kJ/mol
# Density = 2.113389 g / cm^3
# Si number density = 21.182105 Si / 1000 Ang^3
#
#
#
# Elastic Constant Matrix: (Units=GPa)
#
#
# Indices 1 2 3 4 5 6 
#
# 1 32.8927 14.5479 9.3071 0.0005 0.2443 0.0024
# 2 14.5479 94.2713 25.0612 0.0012 10.2551 0.0031
# 3 9.3071 25.0612 76.5516 0.0023 6.6951 0.0016
# 4 0.0005 0.0012 0.0023 26.5723 -0.0021 -1.9080
# 5 0.2443 10.2551 6.6951 -0.0021 10.2515 -0.0018
# 6 0.0024 0.0031 0.0016 -1.9080 -0.0018 40.4994
#
#
#
# Elastic Compliance Matrix: (Units=1/GPa)
#
#
# Indices 1 2 3 4 5 6 
#
# 1 0.033423 -0.005045 -0.002952 0.000000 0.006178 -0.000001
# 2 -0.005045 0.013365 -0.002761 -0.000001 -0.011447 -0.000001
# 3 -0.002952 -0.002761 0.014931 -0.000002 -0.006919 -0.000001
# 4 0.000000 -0.000001 -0.000002 0.037761 0.000010 0.001779
# 5 0.006178 -0.011447 -0.006919 0.000010 0.113369 0.000006
# 6 -0.000001 -0.000001 -0.000001 0.001779 0.000006 0.024776
#
#
# Mechanical properties :
#
#
# Convention : Reuss Voigt Hill
#
# Bulk Modulus (GPa) = 24.87410 33.50533 29.18972
# Shear Modulus (GPa) = 18.34581 25.78459 22.06520
#
# Velocity S-wave (km/s) = 2.94615 3.49274 3.23102
# Velocity P-wave (km/s) = 4.83131 5.66725 5.26589
#
# Compressibility (1/GPa) = 0.04020246
#
# Stress axis : x y z
#
# Youngs Moduli (GPa) = 29.91983 74.81986 66.97461
#
# Poissons Ratio (x) = 0.37747 0.19772
# Poissons Ratio (y) = 0.15095 0.18492
# Poissons Ratio (z) = 0.08833 0.20658
#
# Static dielectric constant tensor:
#      x y z
#    x 1.768260 0.000000 -0.017830 
#    y 0.000000 1.770460 0.000000 
#    z -0.017830 0.000000 1.645540 
# 
# From -- ./inp_files/47563.got.cif
#   From: 2010.05.17/outbox.cif.g08.bks.cpg/sg5_24_cif.got.tgz:47563.got - 2010.06.03 18:56:24.
