data_PCOD9126324
_publ_section_title
;
Structure prediction by ZEFSAII (Michael W. Deem and Ramdas Pophale) SiO2 
 PCOD9126324
Probable space group: C 2
;
_chemical_formula_sum "Si O2"
_cell_formula_units_Z 28
_cell_length_a 12.436241
_cell_length_b 11.833383
_cell_length_c 12.485790
_cell_angle_alpha 90.000000
_cell_angle_beta 44.861841
_cell_angle_gamma 90.000000
_cell_volume 1296.132268
_symmetry_space_group_name_H-M "C 2"
_symmetry_group_IT_number 5
_symmetry_cell_setting 'monoclinic'
loop_
_space_group_symop_operation_xyz
x,y,z
-x,y,-z
1/2+x,1/2+y,z
1/2-x,1/2+y,-z
loop_
_atom_site_type_symbol
_atom_site_label
_atom_site_fract_x
_atom_site_fract_y
_atom_site_fract_z
Si Si1 0.936028 0.276570 0.872230
Si Si2 0.120898 0.735224 0.682785
Si Si3 0.118662 0.840011 0.002680
Si Si4 0.485993 0.007906 0.205958
Si Si5 0.274057 0.593621 0.120753
Si Si6 0.361763 0.919742 0.514796
Si Si7 0.245574 0.152693 0.624257
O O1 0.969744 0.401425 0.896787
O O2 0.882924 0.187561 0.997300
O O3 0.088406 0.218443 0.719632
O O4 0.789123 0.291186 0.897436
O O5 0.272301 0.806019 0.601730
O O6 0.134960 0.705634 0.545304
O O7 0.976865 0.812139 0.821206
O O8 0.123827 0.612636 0.739971
O O9 0.149035 0.969039 0.941249
O O10 0.000000 0.789595 0.000000
O O11 0.431166 0.938080 0.348909
O O12 0.633352 0.076421 0.140284
O O13 0.780553 0.641363 0.726033
O O14 0.500000 0.937547 0.500000
O O15 0.237631 0.019838 0.604928
#
# Coordination Sequence:
#
# PCOD9126324 Si02
#       7
#     4   4   4   4   4   4   4
#     4  11  22  41  65  96 140 178 225 286 340 401
#     4  11  23  40  65 102 136 170 221 288 346 397
#     4  11  24  41  68 101 132 177 239 279 332 407
#     4  10  22  40  60 100 132 175 216 283 334 411
#     4  11  21  42  70  98 129 176 236 280 328 407
#     4  11  21  39  70  99 131 170 232 286 333 397
#     4  11  23  39  70 102 132 175 230 280 344 405
#
# _framework density 21.602734000000002
#
# number of rings (size 3 to 8) (size 9 to 14) (size 15 to 20)
#    0.000    1.143    4.286    3.000    2.000    0.000 
#    0.000    1.429    0.000    4.286    3.714    0.000 
#    0.000    0.000    0.000    0.000    0.000    0.000 
#
# Total GULP energy -77945.658275 kJ/mol
# GULP energy per Si atom -5567.547020 kJ/mol
# Density = 2.155357 g / cm^3
# Si number density = 21.602734 Si / 1000 Ang^3
#
#
#
# Elastic Constant Matrix: (Units=GPa)
#
#
# Indices 1 2 3 4 5 6 
#
# 1 77.4811 58.0983 27.7979 0.0000 -14.9865 0.0000
# 2 58.0983 133.1521 47.7601 0.0000 -16.2360 0.0000
# 3 27.7979 47.7601 94.1359 0.0000 -6.6274 0.0000
# 4 0.0000 0.0000 0.0000 49.1434 0.0000 -14.2766
# 5 -14.9865 -16.2360 -6.6274 0.0000 33.3853 0.0000
# 6 0.0000 0.0000 0.0000 -14.2766 0.0000 21.3535
#
#
#
# Elastic Compliance Matrix: (Units=1/GPa)
#
#
# Indices 1 2 3 4 5 6 
#
# 1 0.020182 -0.007557 -0.001771 0.000000 0.005033 0.000000
# 2 -0.007557 0.012456 -0.003955 0.000000 0.001880 0.000000
# 3 -0.001771 -0.003955 0.013145 0.000000 -0.000109 0.000000
# 4 0.000000 0.000000 0.000000 0.025254 0.000000 0.016884
# 5 0.005033 0.001880 -0.000109 0.000000 0.033105 0.000000
# 6 0.000000 0.000000 0.000000 0.016884 0.000000 0.058119
#
#
# Mechanical properties :
#
#
# Convention : Reuss Voigt Hill
#
# Bulk Modulus (GPa) = 52.04228 63.56465 57.80347
# Shear Modulus (GPa) = 25.61048 32.18396 28.89722
#
# Velocity S-wave (km/s) = 3.44687 3.86399 3.66138
# Velocity P-wave (km/s) = 6.32330 7.02819 6.68504
#
# Compressibility (1/GPa) = 0.01921515
#
# Stress axis : x y z
#
# Youngs Moduli (GPa) = 49.54971 80.28565 76.07396
#
# Poissons Ratio (x) = 0.60671 0.13474
# Poissons Ratio (y) = 0.37444 0.30091
# Poissons Ratio (z) = 0.08776 0.31757
#
# Static dielectric constant tensor:
#      x y z
#    x 1.807580 0.000000 0.029950 
#    y 0.000000 1.828750 0.000000 
#    z 0.029950 0.000000 1.937330 
# 
# From -- ./inp_files/54436.got.cif
#   From: 2010.05.17/outbox.cif.g08.bks.cpg/sg5_28_cif.got.tgz:54436.got - 2010.06.03 18:56:24.
