data_PCOD9126011
_publ_section_title
;
Structure prediction by ZEFSAII (Michael W. Deem and Ramdas Pophale) SiO2 
 PCOD9126011
Probable space group: C 2
;
_chemical_formula_sum "Si O2"
_cell_formula_units_Z 30
_cell_length_a 17.764997
_cell_length_b 13.141582
_cell_length_c 10.386497
_cell_angle_alpha 90.000000
_cell_angle_beta 41.625992
_cell_angle_gamma 90.000000
_cell_volume 1610.732814
_symmetry_space_group_name_H-M "C 2"
_symmetry_group_IT_number 5
_symmetry_cell_setting 'monoclinic'
loop_
_space_group_symop_operation_xyz
x,y,z
-x,y,-z
1/2+x,1/2+y,z
1/2-x,1/2+y,-z
loop_
_atom_site_type_symbol
_atom_site_label
_atom_site_fract_x
_atom_site_fract_y
_atom_site_fract_z
Si Si1 0.109190 0.388650 0.533072
Si Si2 0.766716 0.745266 0.454932
Si Si3 0.264325 0.248629 0.179095
Si Si4 0.808636 0.603330 0.638819
Si Si5 0.507085 0.338831 0.211453
Si Si6 0.500000 0.247590 0.500000
Si Si7 0.059707 0.216241 0.289742
Si Si8 0.437461 0.566037 0.944847
O O1 0.171833 0.334102 0.573438
O O2 0.191247 0.348496 0.312827
O O3 0.118074 0.508969 0.511640
O O4 0.990195 0.330097 0.670218
O O5 0.757985 0.691839 0.325286
O O6 0.762130 0.668537 0.577819
O O7 0.887859 0.800619 0.308289
O O8 0.192342 0.206451 0.152902
O O9 0.390775 0.275064 0.981497
O O10 0.891506 0.674968 0.615446
O O11 0.697458 0.568153 0.857179
O O12 0.510196 0.315556 0.359329
O O13 0.525849 0.455615 0.152371
O O14 0.031293 0.148623 0.203286
O O15 0.000000 0.182461 0.500000
O O16 0.500000 0.585787 0.000000
#
# Coordination Sequence:
#
# PCOD9126011 Si02
#       8
#     4   4   4   4   4   2   4   4
#     4   9  19  35  58  82 110 151 195 236 285 353
#     4   9  20  34  57  86 115 144 200 243 283 346
#     4   9  18  36  59  80 114 153 192 236 290 349
#     4  11  21  38  58  90 111 160 200 238 295 351
#     4  11  20  39  56  87 115 157 194 247 298 347
#     4  10  26  36  58  84 126 148 198 258 290 346
#     4  10  22  37  57  88 115 153 193 247 289 344
#     4  12  23  36  63  88 117 155 201 239 296 357
#
# _framework density 18.625063000000001
#
# number of rings (size 3 to 8) (size 9 to 14) (size 15 to 20)
#    0.800    1.067    1.333    3.600    3.733    0.000 
#    0.000    0.000    0.000    9.600    0.000    0.000 
#    0.000    0.000    0.000    0.000    0.000    0.000 
#
# Total GULP energy -83535.605029 kJ/mol
# GULP energy per Si atom -5569.040335 kJ/mol
# Density = 1.858267 g / cm^3
# Si number density = 18.625063 Si / 1000 Ang^3
#
#
#
# Elastic Constant Matrix: (Units=GPa)
#
#
# Indices 1 2 3 4 5 6 
#
# 1 131.0858 39.7563 20.6423 0.0000 5.8011 0.0000
# 2 39.7563 75.2065 27.5584 0.0000 12.7114 0.0000
# 3 20.6423 27.5584 39.9024 0.0000 -1.4332 0.0000
# 4 0.0000 0.0000 0.0000 19.5405 0.0000 2.0751
# 5 5.8011 12.7114 -1.4332 0.0000 26.7174 0.0000
# 6 0.0000 0.0000 0.0000 2.0751 0.0000 19.0942
#
#
#
# Elastic Compliance Matrix: (Units=1/GPa)
#
#
# Indices 1 2 3 4 5 6 
#
# 1 0.009189 -0.004140 -0.001899 0.000000 -0.000127 0.000000
# 2 -0.004140 0.022218 -0.013577 0.000000 -0.010400 0.000000
# 3 -0.001899 -0.013577 0.035736 0.000000 0.008789 0.000000
# 4 0.000000 0.000000 0.000000 0.051773 0.000000 -0.005627
# 5 -0.000127 -0.010400 0.008789 0.000000 0.042876 0.000000
# 6 0.000000 0.000000 0.000000 -0.005627 0.000000 0.052983
#
#
# Mechanical properties :
#
#
# Convention : Reuss Voigt Hill
#
# Bulk Modulus (GPa) = 35.82738 46.90097 41.36417
# Shear Modulus (GPa) = 18.98899 23.61959 21.30429
#
# Velocity S-wave (km/s) = 3.19649 3.56499 3.38576
# Velocity P-wave (km/s) = 5.73596 6.49475 6.12712
#
# Compressibility (1/GPa) = 0.02791162
#
# Stress axis : x y z
#
# Youngs Moduli (GPa) = 108.82700 45.00815 27.98323
#
# Poissons Ratio (x) = 0.18635 0.05313
# Poissons Ratio (y) = 0.45057 0.37992
# Poissons Ratio (z) = 0.20663 0.61106
#
# Static dielectric constant tensor:
#      x y z
#    x 1.691160 0.000000 -0.015010 
#    y 0.000000 1.642320 0.000000 
#    z -0.015010 0.000000 1.653950 
# 
# From -- ./inp_files/44692.got.cif
#   From: 2010.05.17/outbox.cif.g08.bks.cpg/sg5_23_cif.got.tgz:44692.got - 2010.06.03 18:56:24.
