data_PCOD9126706
_publ_section_title
;
Structure prediction by ZEFSAII (Michael W. Deem and Ramdas Pophale) SiO2 
 PCOD9126706
Probable space group: C 2
;
_chemical_formula_sum "Si O2"
_cell_formula_units_Z 32
_cell_length_a 23.651582
_cell_length_b 9.124349
_cell_length_c 22.952545
_cell_angle_alpha 90.000000
_cell_angle_beta 161.293471
_cell_angle_gamma 90.000000
_cell_volume 1588.620738
_symmetry_space_group_name_H-M "C 2"
_symmetry_group_IT_number 5
_symmetry_cell_setting 'monoclinic'
loop_
_space_group_symop_operation_xyz
x,y,z
-x,y,-z
1/2+x,1/2+y,z
1/2-x,1/2+y,-z
loop_
_atom_site_type_symbol
_atom_site_label
_atom_site_fract_x
_atom_site_fract_y
_atom_site_fract_z
Si Si1 0.648742 0.800950 0.809954
Si Si2 0.817067 0.127605 0.753708
Si Si3 0.707123 0.729411 0.143011
Si Si4 0.524658 0.794670 0.820686
Si Si5 0.981288 0.957741 0.821327
Si Si6 0.184054 0.969609 0.821155
Si Si7 0.125629 0.828653 0.404337
Si Si8 0.510199 0.092353 0.368276
O O1 0.607360 0.782469 0.837579
O O2 0.665790 0.642540 0.798418
O O3 0.505478 0.917613 0.646675
O O4 0.836832 0.878130 0.990004
O O5 0.760744 0.142755 0.765636
O O6 0.650663 0.160905 0.550501
O O7 0.882406 0.977337 0.786781
O O8 0.995911 0.225861 0.927323
O O9 0.785628 0.891716 0.211856
O O10 0.820209 0.649057 0.203486
O O11 0.506763 0.625827 0.824546
O O12 0.324704 0.850552 0.619733
O O13 0.649394 0.904480 0.979219
O O14 0.891091 0.874008 0.679245
O O15 0.012820 0.917804 0.690815
O O16 0.065666 0.660765 0.360293
#
# Coordination Sequence:
#
# PCOD9126706 Si02
#       8
#     4   4   4   4   4   4   4   4
#     4  12  24  37  64  95 141 177 205 272 339 396
#     4  11  21  42  70  94 119 168 236 264 325 384
#     4  10  22  41  72  91 119 169 229 283 313 387
#     4  12  22  40  60  92 138 178 216 259 332 400
#     4  12  22  40  61  99 127 177 216 265 325 392
#     4  11  23  42  61  98 136 171 223 266 334 390
#     4  11  23  37  64  94 132 174 223 261 321 403
#     4  11  22  41  64  99 128 172 217 267 332 390
#
# _framework density 20.143259
#
# number of rings (size 3 to 8) (size 9 to 14) (size 15 to 20)
#    0.000    0.750    6.250    1.875    1.750    0.000 
#    2.250    0.000    5.500    3.000    0.000    0.000 
#    0.000    0.000    0.000    0.000    0.000    0.000 
#
# Total GULP energy -89166.161674 kJ/mol
# GULP energy per Si atom -5572.885105 kJ/mol
# Density = 2.009741 g / cm^3
# Si number density = 20.143259 Si / 1000 Ang^3
#
#
#
# Elastic Constant Matrix: (Units=GPa)
#
#
# Indices 1 2 3 4 5 6 
#
# 1 100.8680 32.8084 26.6926 0.0003 -1.2953 -0.0002
# 2 32.8084 124.3914 42.9697 -0.0004 -6.8070 -0.0012
# 3 26.6926 42.9697 104.6081 -0.0028 5.8258 -0.0023
# 4 0.0003 -0.0004 -0.0028 17.9645 -0.0006 -1.7041
# 5 -1.2953 -6.8070 5.8258 -0.0006 29.0075 -0.0004
# 6 -0.0002 -0.0012 -0.0023 -1.7041 -0.0004 26.2746
#
#
#
# Elastic Compliance Matrix: (Units=1/GPa)
#
#
# Indices 1 2 3 4 5 6 
#
# 1 0.011166 -0.002254 -0.001943 -0.000001 0.000360 0.000000
# 2 -0.002254 0.010090 -0.003737 0.000000 0.003018 0.000000
# 3 -0.001943 -0.003737 0.011776 0.000002 -0.003329 0.000001
# 4 -0.000001 0.000000 0.000002 0.056010 0.000001 0.003633
# 5 0.000360 0.003018 -0.003329 0.000001 0.035867 0.000000
# 6 0.000000 0.000000 0.000001 0.003633 0.000000 0.038295
#
#
# Mechanical properties :
#
#
# Convention : Reuss Voigt Hill
#
# Bulk Modulus (GPa) = 58.26801 59.42321 58.84561
# Shear Modulus (GPa) = 27.05714 29.80910 28.43312
#
# Velocity S-wave (km/s) = 3.66899 3.85106 3.76113
# Velocity P-wave (km/s) = 6.85115 7.02414 6.93819
#
# Compressibility (1/GPa) = 0.01716207
#
# Stress axis : x y z
#
# Youngs Moduli (GPa) = 89.55768 99.10941 84.91846
#
# Poissons Ratio (x) = 0.22340 0.16503
# Poissons Ratio (y) = 0.20187 0.31738
# Poissons Ratio (z) = 0.17404 0.37042
#
# Static dielectric constant tensor:
#      x y z
#    x 1.768310 0.000000 -0.010110 
#    y 0.000000 1.760750 0.000000 
#    z -0.010110 0.000000 1.774980 
# 
# From -- ./inp_files/69672.got.cif
#   From: 2010.05.17/outbox.cif.g08.bks.cpg/sg5_35_cif.got.tgz:69672.got - 2010.06.03 18:56:24.
