data_PCOD9126359
_publ_section_title
;
Structure prediction by ZEFSAII (Michael W. Deem and Ramdas Pophale) SiO2 
 PCOD9126359
Probable space group: C 2
;
_chemical_formula_sum "Si O2"
_cell_formula_units_Z 28
_cell_length_a 11.089243
_cell_length_b 8.294380
_cell_length_c 20.801587
_cell_angle_alpha 90.000000
_cell_angle_beta 140.281752
_cell_angle_gamma 90.000000
_cell_volume 1222.621069
_symmetry_space_group_name_H-M "C 2"
_symmetry_group_IT_number 5
_symmetry_cell_setting 'monoclinic'
loop_
_space_group_symop_operation_xyz
x,y,z
-x,y,-z
1/2+x,1/2+y,z
1/2-x,1/2+y,-z
loop_
_atom_site_type_symbol
_atom_site_label
_atom_site_fract_x
_atom_site_fract_y
_atom_site_fract_z
Si Si1 0.644600 0.784640 0.926107
Si Si2 0.227488 0.431559 0.697598
Si Si3 0.500000 0.482337 0.500000
Si Si4 0.743141 0.817490 0.291122
Si Si5 0.926444 0.928194 0.647488
Si Si6 0.500000 0.733974 0.000000
Si Si7 0.854717 0.228645 0.545555
Si Si8 0.508728 0.464883 0.088732
O O1 0.478979 0.847499 0.811720
O O2 0.612583 0.591481 0.916875
O O3 0.851955 0.846921 0.995203
O O4 0.600637 0.826264 0.983832
O O5 0.223409 0.625542 0.698584
O O6 0.341591 0.378977 0.680822
O O7 0.343184 0.373603 0.806926
O O8 0.020027 0.359458 0.613251
O O9 0.338963 0.385931 0.395060
O O10 0.401412 0.601404 0.509311
O O11 0.853897 0.903247 0.276984
O O12 0.832462 0.817703 0.553323
O O13 0.862805 0.113360 0.610537
O O14 0.616985 0.597109 0.088208
#
# Coordination Sequence:
#
# PCOD9126359 Si02
#       8
#     4   4   2   4   4   2   4   4
#     4   9  20  42  62  90 124 161 203 257 309 367
#     4  11  23  42  62  91 128 162 207 270 304 377
#     4  10  22  40  62  90 128 166 206 264 306 372
#     4  10  24  41  61  95 125 165 216 253 316 374
#     4  11  24  39  61  88 124 167 211 255 316 372
#     4   8  20  42  60  86 128 148 210 250 306 366
#     4  11  23  42  61  93 125 168 215 257 318 371
#     4   9  21  40  66  91 122 163 205 250 321 364
#
# _framework density 22.901617999999999
#
# number of rings (size 3 to 8) (size 9 to 14) (size 15 to 20)
#    0.857    1.143    1.429    0.857    8.000    2.286 
#    7.714    0.714    0.000    0.000    0.000    0.000 
#    0.000    0.000    0.000    0.000    0.000    0.000 
#
# Total GULP energy -78021.368566 kJ/mol
# GULP energy per Si atom -5572.954898 kJ/mol
# Density = 2.284949 g / cm^3
# Si number density = 22.901618 Si / 1000 Ang^3
#
#
#
# Elastic Constant Matrix: (Units=GPa)
#
#
# Indices 1 2 3 4 5 6 
#
# 1 30.0433 2.0025 27.1042 0.0000 7.4861 0.0000
# 2 2.0025 56.7966 17.9223 0.0000 6.9683 0.0000
# 3 27.1042 17.9223 117.1777 0.0000 7.9685 0.0000
# 4 0.0000 0.0000 0.0000 7.4316 0.0000 13.6198
# 5 7.4861 6.9683 7.9685 0.0000 22.3608 0.0000
# 6 0.0000 0.0000 0.0000 13.6198 0.0000 32.2628
#
#
#
# Elastic Compliance Matrix: (Units=1/GPa)
#
#
# Indices 1 2 3 4 5 6 
#
# 1 0.045323 0.003131 -0.010109 0.000000 -0.012547 0.000000
# 2 0.003131 0.019249 -0.003269 0.000000 -0.005882 0.000000
# 3 -0.010109 -0.003269 0.011348 0.000000 0.000359 0.000000
# 4 0.000000 0.000000 0.000000 0.594535 0.000000 -0.250983
# 5 -0.012547 -0.005882 0.000359 0.000000 0.050627 0.000000
# 6 0.000000 0.000000 0.000000 -0.250983 0.000000 0.136948
#
#
# Mechanical properties :
#
#
# Convention : Reuss Voigt Hill
#
# Bulk Modulus (GPa) = 18.04150 33.11952 25.58051
# Shear Modulus (GPa) = 5.57414 22.87696 14.22555
#
# Velocity S-wave (km/s) = 1.56180 3.16400 2.49501
# Velocity P-wave (km/s) = 3.33875 5.27645 4.41521
#
# Compressibility (1/GPa) = 0.05542778
#
# Stress axis : x y z
#
# Youngs Moduli (GPa) = 22.06364 51.94980 88.12169
#
# Poissons Ratio (x) = -0.16268 0.89086
# Poissons Ratio (y) = -0.06909 0.28803
# Poissons Ratio (z) = 0.22305 0.16980
#
# Static dielectric constant tensor:
#      x y z
#    x 1.937870 0.000000 -0.083900 
#    y 0.000000 1.836730 0.000000 
#    z -0.083900 0.000000 1.929800 
# 
# From -- ./inp_files/65066.got.cif
#   From: 2010.05.17/outbox.cif.g08.bks.cpg/sg5_33_cif.got.tgz:65066.got - 2010.06.03 18:56:24.
