data_PCOD9126360
_publ_section_title
;
Structure prediction by ZEFSAII (Michael W. Deem and Ramdas Pophale) SiO2 
 PCOD9126360
Probable space group: C 2
;
_chemical_formula_sum "Si O2"
_cell_formula_units_Z 30
_cell_length_a 14.546368
_cell_length_b 12.581091
_cell_length_c 8.018227
_cell_angle_alpha 90.000000
_cell_angle_beta 78.966469
_cell_angle_gamma 90.000000
_cell_volume 1440.284598
_symmetry_space_group_name_H-M "C 2"
_symmetry_group_IT_number 5
_symmetry_cell_setting 'monoclinic'
loop_
_space_group_symop_operation_xyz
x,y,z
-x,y,-z
1/2+x,1/2+y,z
1/2-x,1/2+y,-z
loop_
_atom_site_type_symbol
_atom_site_label
_atom_site_fract_x
_atom_site_fract_y
_atom_site_fract_z
Si Si1 0.849612 0.210870 0.256599
Si Si2 0.500000 0.052493 0.000000
Si Si3 0.050228 0.817511 0.671614
Si Si4 0.848294 0.736173 0.050504
Si Si5 0.364127 0.721961 0.853564
Si Si6 0.141368 0.758334 0.317907
Si Si7 0.500289 0.537314 0.799283
Si Si8 0.986662 0.392102 0.315510
O O1 0.738131 0.194964 0.315665
O O2 0.907607 0.105422 0.278927
O O3 0.896456 0.312461 0.332148
O O4 0.870587 0.230584 0.052703
O O5 0.408379 0.127985 0.008369
O O6 0.484001 0.979562 0.169579
O O7 0.096785 0.801885 0.832321
O O8 0.125319 0.817277 0.498364
O O9 0.969048 0.728434 0.673945
O O10 0.998325 0.929066 0.700332
O O11 0.744275 0.717807 0.152124
O O12 0.838841 0.797579 0.877808
O O13 0.413911 0.612847 0.787690
O O14 0.423778 0.817190 0.755690
O O15 0.500000 0.519753 0.000000
O O16 0.000000 0.433088 0.500000
#
# Coordination Sequence:
#
# PCOD9126360 Si02
#       8
#     4   2   4   4   4   4   4   4
#     4   9  19  42  67  93 129 164 214 270 315 370
#     4  12  24  44  64  96 130 170 218 260 318 390
#     4  11  22  40  64  92 134 164 210 257 322 380
#     4  11  23  43  67  89 131 172 206 264 319 381
#     4   9  20  43  69  93 126 168 213 264 324 367
#     4  10  22  40  62  90 131 169 202 258 318 373
#     4   9  18  38  67  96 119 166 214 264 310 374
#     4  11  23  42  70  93 129 168 214 271 319 377
#
# _framework density 20.829218000000001
#
# number of rings (size 3 to 8) (size 9 to 14) (size 15 to 20)
#    0.000    1.867    2.667    1.600    1.867    2.133 
#   16.800    1.333    0.000    0.000    0.000    0.000 
#    0.000    0.000    0.000    0.000    0.000    0.000 
#
# Total GULP energy -83506.058340 kJ/mol
# GULP energy per Si atom -5567.070556 kJ/mol
# Density = 2.078181 g / cm^3
# Si number density = 20.829218 Si / 1000 Ang^3
#
#
#
# Elastic Constant Matrix: (Units=GPa)
#
#
# Indices 1 2 3 4 5 6 
#
# 1 123.3981 24.4859 18.4366 0.0000 -24.9327 0.0000
# 2 24.4859 72.6537 45.5978 0.0000 -5.9077 0.0000
# 3 18.4366 45.5978 99.1368 0.0000 -3.6351 0.0000
# 4 0.0000 0.0000 0.0000 7.6117 0.0000 0.3954
# 5 -24.9327 -5.9077 -3.6351 0.0000 34.7898 0.0000
# 6 0.0000 0.0000 0.0000 0.3954 0.0000 9.0665
#
#
#
# Elastic Compliance Matrix: (Units=1/GPa)
#
#
# Indices 1 2 3 4 5 6 
#
# 1 0.010033 -0.002557 -0.000444 0.000000 0.006710 0.000000
# 2 -0.002557 0.020197 -0.008789 0.000000 0.000678 0.000000
# 3 -0.000444 -0.008789 0.014200 0.000000 -0.000327 0.000000
# 4 0.000000 0.000000 0.000000 0.131676 0.000000 -0.005743
# 5 0.006710 0.000678 -0.000327 0.000000 0.033634 0.000000
# 6 0.000000 0.000000 0.000000 -0.005743 0.000000 0.110546
#
#
# Mechanical properties :
#
#
# Convention : Reuss Voigt Hill
#
# Bulk Modulus (GPa) = 47.96106 52.46993 50.21549
# Shear Modulus (GPa) = 14.25244 24.07147 19.16196
#
# Velocity S-wave (km/s) = 2.61866 3.40319 3.03637
# Velocity P-wave (km/s) = 5.67618 6.37867 6.03765
#
# Compressibility (1/GPa) = 0.02085025
#
# Stress axis : x y z
#
# Youngs Moduli (GPa) = 99.66748 49.51201 70.42185
#
# Poissons Ratio (x) = 0.12663 0.03124
# Poissons Ratio (y) = 0.25490 0.61895
# Poissons Ratio (z) = 0.04421 0.43517
#
# Static dielectric constant tensor:
#      x y z
#    x 1.730170 0.000000 0.022920 
#    y 0.000000 1.748230 0.000000 
#    z 0.022920 0.000000 1.783310 
# 
# From -- ./inp_files/23848.got.cif
#   From: 2010.05.17/outbox.cif.g08.bks.cpg/sg5_12_cif.got.tgz:23848.got - 2010.06.03 18:56:24.
