data_PCOD9126942
_publ_section_title
;
Structure prediction by ZEFSAII (Michael W. Deem and Ramdas Pophale) SiO2 
 PCOD9126942
Probable space group: C 2
;
_chemical_formula_sum "Si O2"
_cell_formula_units_Z 30
_cell_length_a 12.346680
_cell_length_b 13.367421
_cell_length_c 8.343488
_cell_angle_alpha 90.000000
_cell_angle_beta 107.920855
_cell_angle_gamma 90.000000
_cell_volume 1310.226122
_symmetry_space_group_name_H-M "C 2"
_symmetry_group_IT_number 5
_symmetry_cell_setting 'monoclinic'
loop_
_space_group_symop_operation_xyz
x,y,z
-x,y,-z
1/2+x,1/2+y,z
1/2-x,1/2+y,-z
loop_
_atom_site_type_symbol
_atom_site_label
_atom_site_fract_x
_atom_site_fract_y
_atom_site_fract_z
Si Si1 0.371142 0.761780 0.450758
Si Si2 0.929178 0.637739 0.822904
Si Si3 0.730246 0.617325 0.371467
Si Si4 0.378393 0.267443 0.256916
Si Si5 0.006659 0.070049 0.829024
Si Si6 0.383872 0.965650 0.548776
Si Si7 0.000000 0.935731 0.500000
Si Si8 0.713765 0.730751 0.903261
O O1 0.500000 0.725796 0.500000
O O2 0.294374 0.671130 0.472355
O O3 0.363233 0.849970 0.576331
O O4 0.338488 0.800862 0.259590
O O5 0.902002 0.548287 0.691001
O O6 0.821190 0.681084 0.865281
O O7 0.005874 0.726831 0.777140
O O8 0.000000 0.590918 0.000000
O O9 0.834022 0.673324 0.336837
O O10 0.611835 0.630710 0.226821
O O11 0.771246 0.504558 0.406844
O O12 0.403879 0.357862 0.390645
O O13 0.274393 0.283494 0.082739
O O14 0.115987 0.144382 0.878622
O O15 0.994059 0.004724 0.659071
O O16 0.000000 0.014423 0.000000
O O17 0.500000 0.965103 0.500000
#
# Coordination Sequence:
#
# PCOD9126942 Si02
#       8
#     4   4   4   4   4   4   2   4
#     4  11  24  40  68 104 144 196 246 305 379 459
#     4  10  22  42  71  99 141 191 246 304 371 446
#     4  12  23  43  72 100 146 192 247 306 386 452
#     4  11  25  46  73 106 146 194 254 318 380 454
#     4  12  27  49  77 111 156 203 253 320 396 465
#     4  11  23  40  65 102 140 187 244 306 366 445
#     4  12  30  48  74 120 156 196 260 328 392 452
#     4  11  23  47  72 104 146 204 249 303 386 472
#
# _framework density 22.896812000000001
#
# number of rings (size 3 to 8) (size 9 to 14) (size 15 to 20)
#    0.000    0.800    5.333    1.600    1.867    2.667 
#    0.000    3.333    0.000    0.000    0.000    0.000 
#    0.000    0.000    0.000    0.000    0.000    0.000 
#
# Total GULP energy -83579.492782 kJ/mol
# GULP energy per Si atom -5571.966185 kJ/mol
# Density = 2.284470 g / cm^3
# Si number density = 22.896812 Si / 1000 Ang^3
#
#
#
# Elastic Constant Matrix: (Units=GPa)
#
#
# Indices 1 2 3 4 5 6 
#
# 1 125.9358 31.2391 25.6006 0.0000 13.4299 0.0000
# 2 31.2391 79.4216 26.3983 0.0000 -0.6690 0.0000
# 3 25.6006 26.3983 156.1792 0.0000 9.7935 0.0000
# 4 0.0000 0.0000 0.0000 27.5601 0.0000 -1.9731
# 5 13.4299 -0.6690 9.7935 0.0000 31.7500 0.0000
# 6 0.0000 0.0000 0.0000 -1.9731 0.0000 13.9655
#
#
#
# Elastic Compliance Matrix: (Units=1/GPa)
#
#
# Indices 1 2 3 4 5 6 
#
# 1 0.009353 -0.003476 -0.000707 0.000000 -0.003811 0.000000
# 2 -0.003476 0.014663 -0.002060 0.000000 0.002415 0.000000
# 3 -0.000707 -0.002060 0.006986 0.000000 -0.001899 0.000000
# 4 0.000000 0.000000 0.000000 0.036655 0.000000 0.005179
# 5 -0.003811 0.002415 -0.001899 0.000000 0.033745 0.000000
# 6 0.000000 0.000000 0.000000 0.005179 0.000000 0.072337
#
#
# Mechanical properties :
#
#
# Convention : Reuss Voigt Hill
#
# Bulk Modulus (GPa) = 54.00493 58.66808 56.33650
# Shear Modulus (GPa) = 25.98794 33.20837 29.59815
#
# Velocity S-wave (km/s) = 3.37263 3.81248 3.59928
# Velocity P-wave (km/s) = 6.22926 6.71256 6.47542
#
# Compressibility (1/GPa) = 0.01851683
#
# Stress axis : x y z
#
# Youngs Moduli (GPa) = 106.91871 68.19719 143.14266
#
# Poissons Ratio (x) = 0.23706 0.10114
# Poissons Ratio (y) = 0.37166 0.29489
# Poissons Ratio (z) = 0.07554 0.14049
#
# Static dielectric constant tensor:
#      x y z
#    x 1.910950 0.000000 0.053230 
#    y 0.000000 1.823560 0.000000 
#    z 0.053230 0.000000 2.072120 
# 
# From -- ./inp_files/20700.got.cif
#   From: 2010.05.17/outbox.cif.g08.bks.cpg/sg5_11_cif.got.tgz:20700.got - 2010.06.03 18:56:24.
