data_PCOD9126867
_publ_section_title
;
Structure prediction by ZEFSAII (Michael W. Deem and Ramdas Pophale) SiO2 
 PCOD9126867
Probable space group: C 2
;
_chemical_formula_sum "Si O2"
_cell_formula_units_Z 28
_cell_length_a 19.863039
_cell_length_b 8.933353
_cell_length_c 13.546499
_cell_angle_alpha 90.000000
_cell_angle_beta 32.082831
_cell_angle_gamma 90.000000
_cell_volume 1276.733110
_symmetry_space_group_name_H-M "C 2"
_symmetry_group_IT_number 5
_symmetry_cell_setting 'monoclinic'
loop_
_space_group_symop_operation_xyz
x,y,z
-x,y,-z
1/2+x,1/2+y,z
1/2-x,1/2+y,-z
loop_
_atom_site_type_symbol
_atom_site_label
_atom_site_fract_x
_atom_site_fract_y
_atom_site_fract_z
Si Si1 0.380657 0.363560 0.388693
Si Si2 0.475378 0.128860 0.415002
Si Si3 0.581488 0.223891 0.985277
Si Si4 0.848248 0.214080 0.972270
Si Si5 0.373684 0.686619 0.328734
Si Si6 0.214949 0.538845 0.983052
Si Si7 0.792573 0.024120 0.236796
O O1 0.426718 0.287056 0.432341
O O2 0.485988 0.305937 0.180160
O O3 0.366040 0.541245 0.408461
O O4 0.246899 0.293557 0.520813
O O5 0.500000 0.135979 0.500000
O O6 0.596790 0.068949 0.204882
O O7 0.353613 0.023423 0.549317
O O8 0.672764 0.117794 0.934407
O O9 0.500000 0.146138 0.000000
O O10 0.657934 0.358311 0.840425
O O11 0.767479 0.363512 0.056275
O O12 0.992452 0.261705 0.814717
O O13 0.831700 0.114932 0.894580
O O14 0.805445 0.115390 0.118715
O O15 0.370669 0.610375 0.223919
#
# Coordination Sequence:
#
# PCOD9126867 Si02
#       7
#     4   4   4   4   4   4   4
#     4  10  23  40  66  96 128 172 224 271 329 390
#     4  10  22  42  68  91 129 177 222 267 333 396
#     4  11  21  42  68  93 130 170 222 276 325 394
#     4  12  24  42  66  95 133 171 224 269 335 394
#     4  11  24  41  68  96 135 176 220 272 331 397
#     4  11  27  41  66  98 131 175 221 279 331 391
#     4  11  21  41  71  94 125 180 219 267 336 398
#
# _framework density 21.930973000000002
#
# number of rings (size 3 to 8) (size 9 to 14) (size 15 to 20)
#    0.000    1.143    4.286    1.286    8.000    1.143 
#    2.571    0.000    0.000    0.000    0.000    0.000 
#    0.000    0.000    0.000    0.000    0.000    0.000 
#
# Total GULP energy -78328.102623 kJ/mol
# GULP energy per Si atom -5594.864473 kJ/mol
# Density = 2.188106 g / cm^3
# Si number density = 21.930973 Si / 1000 Ang^3
#
#
#
# Elastic Constant Matrix: (Units=GPa)
#
#
# Indices 1 2 3 4 5 6 
#
# 1 136.6675 20.2876 -0.1989 0.0000 0.2033 0.0000
# 2 20.2876 58.0063 -21.3098 0.0000 5.9148 0.0000
# 3 -0.1989 -21.3098 39.2594 0.0000 -13.9004 0.0000
# 4 0.0000 0.0000 0.0000 23.9437 0.0000 2.8089
# 5 0.2033 5.9148 -13.9004 0.0000 31.2609 0.0000
# 6 0.0000 0.0000 0.0000 2.8089 0.0000 34.5827
#
#
#
# Elastic Compliance Matrix: (Units=1/GPa)
#
#
# Indices 1 2 3 4 5 6 
#
# 1 0.007820 -0.003407 -0.001898 0.000000 -0.000250 0.000000
# 2 -0.003407 0.023065 0.013014 0.000000 0.001445 0.000000
# 3 -0.001898 0.013014 0.037574 0.000000 0.014258 0.000000
# 4 0.000000 0.000000 0.000000 0.042166 0.000000 -0.003425
# 5 -0.000250 0.001445 0.014258 0.000000 0.038057 0.000000
# 6 0.000000 0.000000 0.000000 -0.003425 0.000000 0.029194
#
#
# Mechanical properties :
#
#
# Convention : Reuss Voigt Hill
#
# Bulk Modulus (GPa) = 11.92244 25.72122 18.82183
# Shear Modulus (GPa) = 26.25795 33.63441 29.94618
#
# Velocity S-wave (km/s) = 3.46396 3.92043 3.69924
# Velocity P-wave (km/s) = 4.63107 5.67862 5.18139
#
# Compressibility (1/GPa) = 0.08387542
#
# Stress axis : x y z
#
# Youngs Moduli (GPa) = 127.87079 43.35640 26.61426
#
# Poissons Ratio (x) = 0.14772 0.05052
# Poissons Ratio (y) = 0.43566 -0.34635
# Poissons Ratio (z) = 0.24274 -0.56423
#
# Static dielectric constant tensor:
#      x y z
#    x 1.811740 0.000000 -0.011230 
#    y 0.000000 1.763760 0.000000 
#    z -0.011230 0.000000 1.823370 
# 
# From -- ./inp_files/41896.got.cif
#   From: 2010.05.17/outbox.cif.g08.bks.cpg/sg5_21_cif.got.tgz:41896.got - 2010.06.03 18:56:24.
