data_PCOD9126318
_publ_section_title
;
Structure prediction by ZEFSAII (Michael W. Deem and Ramdas Pophale) SiO2 
 PCOD9126318
Probable space group: C 2
;
_chemical_formula_sum "Si O2"
_cell_formula_units_Z 20
_cell_length_a 15.189844
_cell_length_b 7.109897
_cell_length_c 18.918645
_cell_angle_alpha 90.000000
_cell_angle_beta 159.168419
_cell_angle_gamma 90.000000
_cell_volume 726.600157
_symmetry_space_group_name_H-M "C 2"
_symmetry_group_IT_number 5
_symmetry_cell_setting 'monoclinic'
loop_
_space_group_symop_operation_xyz
x,y,z
-x,y,-z
1/2+x,1/2+y,z
1/2-x,1/2+y,-z
loop_
_atom_site_type_symbol
_atom_site_label
_atom_site_fract_x
_atom_site_fract_y
_atom_site_fract_z
Si Si1 0.810633 0.021740 0.760895
Si Si2 0.078811 0.306576 0.457100
Si Si3 0.342808 0.906071 0.147414
Si Si4 0.868835 0.491374 0.004937
Si Si5 0.875915 0.907922 0.312272
O O1 0.654380 0.204603 0.671251
O O2 0.698458 0.866537 0.728200
O O3 0.751963 0.928975 0.639552
O O4 0.105842 0.040238 0.986893
O O5 0.076305 0.388669 0.375741
O O6 0.076182 0.080128 0.468226
O O7 0.230777 0.699947 0.068535
O O8 0.404277 0.929233 0.111598
O O9 0.672361 0.382904 0.807482
O O10 0.128410 0.490425 0.160952
#
# Coordination Sequence:
#
# PCOD9126318 Si02
#       5
#     4   4   4   4   4
#     4  11  23  41  72  96 136 183 227 280 340 409
#     4  10  24  43  66 101 137 175 231 284 331 412
#     4  11  22  43  68 102 138 181 226 284 344 404
#     4  10  22  39  72 101 139 179 229 283 340 414
#     4  10  22  44  68 103 134 183 229 280 347 405
#
# _framework density 27.525458
#
# number of rings (size 3 to 8) (size 9 to 14) (size 15 to 20)
#    0.000    1.600    2.000    1.800    8.400    3.200 
#    0.000    6.000    0.000    0.000    0.000    0.000 
#    0.000    0.000    0.000    0.000    0.000    0.000 
#
# Total GULP energy -55800.451259 kJ/mol
# GULP energy per Si atom -5580.045126 kJ/mol
# Density = 2.746281 g / cm^3
# Si number density = 27.525458 Si / 1000 Ang^3
#
#
#
# Elastic Constant Matrix: (Units=GPa)
#
#
# Indices 1 2 3 4 5 6 
#
# 1 103.3870 29.6022 49.5270 0.0034 -35.8320 0.0011
# 2 29.6022 191.5323 70.3740 0.0073 -21.5915 0.0034
# 3 49.5270 70.3740 125.4202 0.0115 -36.5379 0.0061
# 4 0.0034 0.0073 0.0115 24.3095 0.0073 -5.5984
# 5 -35.8320 -21.5915 -36.5379 0.0073 55.0295 0.0016
# 6 0.0011 0.0034 0.0061 -5.5984 0.0016 39.3644
#
#
#
# Elastic Compliance Matrix: (Units=1/GPa)
#
#
# Indices 1 2 3 4 5 6 
#
# 1 0.013606 -0.000115 -0.003398 -0.000002 0.006558 0.000000
# 2 -0.000115 0.006579 -0.003615 0.000000 0.000106 0.000000
# 3 -0.003398 -0.003615 0.012752 -0.000007 0.004836 -0.000003
# 4 -0.000002 0.000000 -0.000007 0.042529 -0.000012 0.006049
# 5 0.006558 0.000106 0.004836 -0.000012 0.025695 -0.000004
# 6 0.000000 0.000000 -0.000003 0.006049 -0.000004 0.026264
#
#
# Mechanical properties :
#
#
# Convention : Reuss Voigt Hill
#
# Bulk Modulus (GPa) = 53.52911 79.92732 66.72821
# Shear Modulus (GPa) = 33.80457 41.79643 37.80050
#
# Velocity S-wave (km/s) = 3.50826 3.90098 3.70982
# Velocity P-wave (km/s) = 5.99165 7.02786 6.53034
#
# Compressibility (1/GPa) = 0.01868142
#
# Stress axis : x y z
#
# Youngs Moduli (GPa) = 73.49715 151.99580 78.41689
#
# Poissons Ratio (x) = 0.01751 0.26643
# Poissons Ratio (y) = 0.00846 0.28349
# Poissons Ratio (z) = 0.24972 0.54950
#
# Static dielectric constant tensor:
#      x y z
#    x 2.182890 0.000000 -0.126640 
#    y 0.000000 2.245540 0.000000 
#    z -0.126640 0.000000 2.299540 
# 
# From -- ./inp_files/26279.got.cif
#   From: 2010.05.17/outbox.cif.g08.bks.cpg/sg5_14_cif.got.tgz:26279.got - 2010.06.03 18:56:24.
