data_PCOD9126842
_publ_section_title
;
Structure prediction by ZEFSAII (Michael W. Deem and Ramdas Pophale) SiO2 
 PCOD9126842
Probable space group: C 2
;
_chemical_formula_sum "Si O2"
_cell_formula_units_Z 18
_cell_length_a 10.331311
_cell_length_b 12.932770
_cell_length_c 7.054592
_cell_angle_alpha 90.000000
_cell_angle_beta 61.717377
_cell_angle_gamma 90.000000
_cell_volume 830.057115
_symmetry_space_group_name_H-M "C 2"
_symmetry_group_IT_number 5
_symmetry_cell_setting 'monoclinic'
loop_
_space_group_symop_operation_xyz
x,y,z
-x,y,-z
1/2+x,1/2+y,z
1/2-x,1/2+y,-z
loop_
_atom_site_type_symbol
_atom_site_label
_atom_site_fract_x
_atom_site_fract_y
_atom_site_fract_z
Si Si1 0.245163 0.364270 0.291413
Si Si2 0.825725 0.823696 0.654084
Si Si3 0.500000 0.525879 0.000000
Si Si4 0.630427 0.958731 0.035518
Si Si5 0.735941 0.666878 0.021922
O O1 0.242902 0.340389 0.513678
O O2 0.380453 0.446219 0.171225
O O3 0.120156 0.423071 0.258667
O O4 0.247735 0.255332 0.174038
O O5 0.776402 0.911772 0.836650
O O6 0.775450 0.720324 0.795237
O O7 0.000000 0.823845 0.500000
O O8 0.584943 0.603036 0.087560
O O9 0.500000 0.916194 0.000000
O O10 0.644288 0.080428 0.016304
#
# Coordination Sequence:
#
# PCOD9126842 Si02
#       5
#     4   4   2   4   4
#     4  10  22  42  67  96 136 178 220 283 334 402
#     4  11  24  42  70 100 132 176 232 276 336 410
#     4  10  22  46  66  98 138 182 220 278 346 402
#     4  10  24  43  66  97 141 176 218 281 346 402
#     4  10  23  41  70  96 137 177 226 277 347 400
#
# _framework density 21.685255000000002
#
# number of rings (size 3 to 8) (size 9 to 14) (size 15 to 20)
#    0.000    1.778    0.000    4.000   10.889    4.444 
#    0.000    6.667    0.000    0.000    0.000    0.000 
#    0.000    0.000    0.000    0.000    0.000    0.000 
#
# Total GULP energy -50171.624568 kJ/mol
# GULP energy per Si atom -5574.624952 kJ/mol
# Density = 2.163590 g / cm^3
# Si number density = 21.685255 Si / 1000 Ang^3
#
#
#
# Elastic Constant Matrix: (Units=GPa)
#
#
# Indices 1 2 3 4 5 6 
#
# 1 122.6003 24.3926 38.6838 0.0000 15.0960 0.0000
# 2 24.3926 133.0419 37.9152 0.0000 0.6407 0.0000
# 3 38.6838 37.9152 83.9544 0.0000 18.1999 0.0000
# 4 0.0000 0.0000 0.0000 11.4101 0.0000 7.2885
# 5 15.0960 0.6407 18.1999 0.0000 29.4035 0.0000
# 6 0.0000 0.0000 0.0000 7.2885 0.0000 34.2169
#
#
#
# Elastic Compliance Matrix: (Units=1/GPa)
#
#
# Indices 1 2 3 4 5 6 
#
# 1 0.009774 -0.000767 -0.003549 0.000000 -0.002805 0.000000
# 2 -0.000767 0.008858 -0.004263 0.000000 0.002839 0.000000
# 3 -0.003549 -0.004263 0.017390 0.000000 -0.008849 0.000000
# 4 0.000000 0.000000 0.000000 0.101444 0.000000 -0.021609
# 5 -0.002805 0.002839 -0.008849 0.000000 0.040865 0.000000
# 6 0.000000 0.000000 0.000000 -0.021609 0.000000 0.033828
#
#
# Mechanical properties :
#
#
# Convention : Reuss Voigt Hill
#
# Bulk Modulus (GPa) = 53.00930 60.17552 56.59241
# Shear Modulus (GPa) = 21.22188 30.91312 26.06750
#
# Velocity S-wave (km/s) = 3.13170 3.77972 3.47087
# Velocity P-wave (km/s) = 6.12982 6.84530 6.49742
#
# Compressibility (1/GPa) = 0.01886462
#
# Stress axis : x y z
#
# Youngs Moduli (GPa) = 102.30739 112.89023 57.50446
#
# Poissons Ratio (x) = 0.08659 0.20411
# Poissons Ratio (y) = 0.07848 0.24511
# Poissons Ratio (z) = 0.36313 0.48120
#
# Static dielectric constant tensor:
#      x y z
#    x 1.856080 0.000000 -0.030550 
#    y 0.000000 1.782150 0.000000 
#    z -0.030550 0.000000 1.767050 
# 
# From -- ./inp_files/18943.got.cif
#   From: 2010.05.17/outbox.cif.g08.bks.cpg/sg5_10_cif.got.tgz:18943.got - 2010.06.03 18:56:24.
