data_PCOD9126870
_publ_section_title
;
Structure prediction by ZEFSAII (Michael W. Deem and Ramdas Pophale) SiO2 
 PCOD9126870
Probable space group: C 2
;
_chemical_formula_sum "Si O2"
_cell_formula_units_Z 16
_cell_length_a 7.129004
_cell_length_b 12.929861
_cell_length_c 9.521963
_cell_angle_alpha 90.000000
_cell_angle_beta 98.962234
_cell_angle_gamma 90.000000
_cell_volume 866.990570
_symmetry_space_group_name_H-M "C 2"
_symmetry_group_IT_number 5
_symmetry_cell_setting 'monoclinic'
loop_
_space_group_symop_operation_xyz
x,y,z
-x,y,-z
1/2+x,1/2+y,z
1/2-x,1/2+y,-z
loop_
_atom_site_type_symbol
_atom_site_label
_atom_site_fract_x
_atom_site_fract_y
_atom_site_fract_z
Si Si1 0.126004 0.095740 0.273327
Si Si2 0.117181 0.860486 0.369192
Si Si3 0.500000 0.699605 0.000000
Si Si4 0.500000 0.751601 0.500000
Si Si5 0.396287 0.215493 0.129902
O O1 0.976327 0.125734 0.132891
O O2 0.090218 0.177184 0.392781
O O3 0.326730 0.121685 0.221250
O O4 0.113463 0.980305 0.325800
O O5 0.330829 0.820475 0.417725
O O6 0.000000 0.846548 0.500000
O O7 0.018580 0.793607 0.235617
O O8 0.690848 0.761375 0.057112
O O9 0.500000 0.183557 0.000000
#
# Coordination Sequence:
#
# PCOD9126870 Si02
#       5
#     4   4   2   2   4
#     4  10  23  44  65  94 136 165 214 271 312 380
#     4  12  24  42  69  96 128 176 211 262 329 377
#     4   8  20  44  60  96 124 166 212 262 310 374
#     4  12  24  44  64  98 134 162 226 262 312 394
#     4  10  22  42  68  92 131 172 209 263 324 372
#
# _framework density 18.454642
#
# number of rings (size 3 to 8) (size 9 to 14) (size 15 to 20)
#    1.500    0.000    3.750    1.500    1.750    2.000 
#    4.500    2.500    8.250    0.000    0.000    0.000 
#    0.000    0.000    0.000    0.000    0.000    0.000 
#
# Total GULP energy -44549.383484 kJ/mol
# GULP energy per Si atom -5568.672936 kJ/mol
# Density = 1.841264 g / cm^3
# Si number density = 18.454642 Si / 1000 Ang^3
#
#
#
# Elastic Constant Matrix: (Units=GPa)
#
#
# Indices 1 2 3 4 5 6 
#
# 1 115.8702 33.3203 51.0626 0.0000 10.7030 0.0000
# 2 33.3203 68.6320 46.0594 0.0000 11.0387 0.0000
# 3 51.0626 46.0594 121.3465 0.0000 -0.2865 0.0000
# 4 0.0000 0.0000 0.0000 5.2452 0.0000 8.4558
# 5 10.7030 11.0387 -0.2865 0.0000 58.0127 0.0000
# 6 0.0000 0.0000 0.0000 8.4558 0.0000 5.2411
#
#
#
# Elastic Compliance Matrix: (Units=1/GPa)
#
#
# Indices 1 2 3 4 5 6 
#
# 1 0.011174 -0.002704 -0.003679 0.000000 -0.001565 0.000000
# 2 -0.002704 0.021059 -0.006864 0.000000 -0.003542 0.000000
# 3 -0.003679 -0.006864 0.012399 0.000000 0.002046 0.000000
# 4 0.000000 0.000000 0.000000 -0.119089 0.000000 0.192134
# 5 -0.001565 -0.003542 0.002046 0.000000 0.018211 0.000000
# 6 0.000000 0.000000 0.000000 0.192134 0.000000 -0.119182
#
#
# Mechanical properties :
#
#
# Convention : Reuss Voigt Hill
#
# Bulk Modulus (GPa) = 55.13264 62.97038 59.05151
# Shear Modulus (GPa) = -34.99252 25.39354 -4.79949
#
# Velocity S-wave (km/s) = -4.35919 3.71347 -1.61442
# Velocity P-wave (km/s) = 2.14542 7.25136 5.34720
#
# Compressibility (1/GPa) = 0.01813808
#
# Stress axis : x y z
#
# Youngs Moduli (GPa) = 89.49408 47.48460 80.64909
#
# Poissons Ratio (x) = 0.12839 0.29674
# Poissons Ratio (y) = 0.24198 0.55358
# Poissons Ratio (z) = 0.32928 0.32594
#
# Static dielectric constant tensor:
#      x y z
#    x 1.675160 0.000000 -0.012060 
#    y 0.000000 1.573690 0.000000 
#    z -0.012060 0.000000 1.665180 
# 
# From -- ./inp_files/13857.got.cif
#   From: 2010.05.17/outbox.cif.g08.bks.cpg/sg5_7_cif.got.tgz:13857.got - 2010.06.03 18:56:24.
