data_PCOD9126728
_publ_section_title
;
Structure prediction by ZEFSAII (Michael W. Deem and Ramdas Pophale) SiO2 
 PCOD9126728
Probable space group: C 2
;
_chemical_formula_sum "Si O2"
_cell_formula_units_Z 28
_cell_length_a 7.761036
_cell_length_b 12.242379
_cell_length_c 15.664459
_cell_angle_alpha 90.000000
_cell_angle_beta 78.337241
_cell_angle_gamma 90.000000
_cell_volume 1457.608198
_symmetry_space_group_name_H-M "C 2"
_symmetry_group_IT_number 5
_symmetry_cell_setting 'monoclinic'
loop_
_space_group_symop_operation_xyz
x,y,z
-x,y,-z
1/2+x,1/2+y,z
1/2-x,1/2+y,-z
loop_
_atom_site_type_symbol
_atom_site_label
_atom_site_fract_x
_atom_site_fract_y
_atom_site_fract_z
Si Si1 0.788411 0.694930 0.648092
Si Si2 0.000000 0.548240 0.500000
Si Si3 0.500000 0.010922 0.000000
Si Si4 0.299823 0.339875 0.988350
Si Si5 0.189090 0.931921 0.433756
Si Si6 0.544093 0.305199 0.207839
Si Si7 0.043023 0.041411 0.284666
Si Si8 0.218569 0.668600 0.869166
O O1 0.930584 0.625782 0.581903
O O2 0.759322 0.811104 0.604065
O O3 0.865012 0.728050 0.732136
O O4 0.616943 0.619016 0.672208
O O5 0.838396 0.476949 0.481270
O O6 0.663124 0.937236 0.012960
O O7 0.432010 0.086759 0.082952
O O8 0.231768 0.237572 0.051277
O O9 0.500000 0.363263 0.000000
O O10 0.323753 0.319041 0.885410
O O11 0.000000 0.926343 0.500000
O O12 0.163764 0.012956 0.354936
O O13 0.495746 0.420873 0.254945
O O14 0.368908 0.252359 0.187600
O O15 0.137943 0.101235 0.196309
#
# Coordination Sequence:
#
# PCOD9126728 Si02
#       8
#     4   2   2   4   4   4   4   4
#     4  11  25  42  68  99 132 174 217 273 333 388
#     4  12  24  44  72  98 124 186 210 262 348 384
#     4  12  22  42  66  90 132 176 216 274 324 378
#     4  10  23  42  63  99 132 175 229 270 319 392
#     4  11  24  45  68 100 137 163 225 271 318 411
#     4  10  22  42  61  95 136 165 227 272 313 398
#     4  11  24  42  67  99 133 172 215 278 327 380
#     4  11  23  43  64  97 133 173 223 272 322 385
#
# _framework density 19.209551999999999
#
# number of rings (size 3 to 8) (size 9 to 14) (size 15 to 20)
#    0.000    1.143    5.714    0.857    2.000    4.571 
#    1.286    0.000    0.000    0.000    0.000    0.000 
#    0.000    0.000    0.000    0.000    0.000    0.000 
#
# Total GULP energy -78176.774188 kJ/mol
# GULP energy per Si atom -5584.055299 kJ/mol
# Density = 1.916583 g / cm^3
# Si number density = 19.209552 Si / 1000 Ang^3
#
#
#
# Elastic Constant Matrix: (Units=GPa)
#
#
# Indices 1 2 3 4 5 6 
#
# 1 74.4176 50.3252 49.5135 0.0000 -6.6064 0.0000
# 2 50.3252 98.0620 47.6632 0.0000 3.1283 0.0000
# 3 49.5135 47.6632 107.6404 0.0000 4.4047 0.0000
# 4 0.0000 0.0000 0.0000 56.5326 0.0000 -4.0494
# 5 -6.6064 3.1283 4.4047 0.0000 29.9776 0.0000
# 6 0.0000 0.0000 0.0000 -4.0494 0.0000 21.0302
#
#
#
# Elastic Compliance Matrix: (Units=1/GPa)
#
#
# Indices 1 2 3 4 5 6 
#
# 1 0.026042 -0.009732 -0.007994 0.000000 0.007929 0.000000
# 2 -0.009732 0.016639 -0.002749 0.000000 -0.003477 0.000000
# 3 -0.007994 -0.002749 0.014331 0.000000 -0.003581 0.000000
# 4 0.000000 0.000000 0.000000 0.017936 0.000000 0.003454
# 5 0.007929 -0.003477 -0.003581 0.000000 0.035995 0.000000
# 6 0.000000 0.000000 0.000000 0.003454 0.000000 0.048216
#
#
# Mechanical properties :
#
#
# Convention : Reuss Voigt Hill
#
# Bulk Modulus (GPa) = 62.25859 63.90264 63.08061
# Shear Modulus (GPa) = 24.33536 30.34930 27.34233
#
# Velocity S-wave (km/s) = 3.56313 3.97912 3.77685
# Velocity P-wave (km/s) = 7.02911 7.37899 7.20617
#
# Compressibility (1/GPa) = 0.01606204
#
# Stress axis : x y z
#
# Youngs Moduli (GPa) = 38.39992 60.09947 69.77823
#
# Poissons Ratio (x) = 0.58489 0.55781
# Poissons Ratio (y) = 0.37371 0.19181
# Poissons Ratio (z) = 0.30697 0.16521
#
# Static dielectric constant tensor:
#      x y z
#    x 1.612910 0.000000 0.019370 
#    y 0.000000 1.661450 0.000000 
#    z 0.019370 0.000000 1.672660 
# 
# From -- ./inp_files/50282.got.cif
#   From: 2010.05.17/outbox.cif.g08.bks.cpg/sg5_26_cif.got.tgz:50282.got - 2010.06.03 18:56:24.
