data_PCOD9126135
_publ_section_title
;
Structure prediction by ZEFSAII (Michael W. Deem and Ramdas Pophale) SiO2 
 PCOD9126135
Probable space group: C 2
;
_chemical_formula_sum "Si O2"
_cell_formula_units_Z 18
_cell_length_a 18.765826
_cell_length_b 6.979965
_cell_length_c 8.102285
_cell_angle_alpha 90.000000
_cell_angle_beta 39.416440
_cell_angle_gamma 90.000000
_cell_volume 673.859700
_symmetry_space_group_name_H-M "C 2"
_symmetry_group_IT_number 5
_symmetry_cell_setting 'monoclinic'
loop_
_space_group_symop_operation_xyz
x,y,z
-x,y,-z
1/2+x,1/2+y,z
1/2-x,1/2+y,-z
loop_
_atom_site_type_symbol
_atom_site_label
_atom_site_fract_x
_atom_site_fract_y
_atom_site_fract_z
Si Si1 0.771250 0.931010 0.816449
Si Si2 0.916070 0.932111 0.999639
Si Si3 0.179498 0.370320 0.339653
Si Si4 0.000000 0.914923 0.500000
Si Si5 0.547315 0.973421 0.091249
O O1 0.666742 0.868939 0.894565
O O2 0.887010 0.816980 0.631476
O O3 0.809825 0.139936 0.687158
O O4 0.714362 0.940982 0.096561
O O5 0.781966 0.949279 0.270599
O O6 0.931271 0.701934 0.943147
O O7 0.000000 0.983315 0.000000
O O8 0.951286 0.013806 0.755080
O O9 0.053379 0.423280 0.607280
O O10 0.500000 0.922702 0.000000
#
# Coordination Sequence:
#
# PCOD9126135 Si02
#       5
#     4   4   4   2   4
#     4  10  23  39  63  94 124 163 213 259 314 378
#     4   9  21  40  62  91 127 169 210 260 316 379
#     4  10  22  40  65  93 124 169 209 259 319 372
#     4  10  22  38  64  92 128 168 210 262 320 370
#     4  10  22  39  64  91 124 171 207 258 321 374
#
# _framework density 26.711790000000001
#
# number of rings (size 3 to 8) (size 9 to 14) (size 15 to 20)
#    0.000    2.222    0.000    0.667   15.556    0.000 
#    0.000    1.111    0.000    0.000    0.000    0.000 
#    0.000    0.000    0.000    0.000    0.000    0.000 
#
# Total GULP energy -50298.850574 kJ/mol
# GULP energy per Si atom -5588.761175 kJ/mol
# Density = 2.665099 g / cm^3
# Si number density = 26.711790 Si / 1000 Ang^3
#
#
#
# Elastic Constant Matrix: (Units=GPa)
#
#
# Indices 1 2 3 4 5 6 
#
# 1 195.8716 -1.8730 54.1766 0.0000 -55.8230 0.0000
# 2 -1.8730 117.7431 24.9656 0.0000 -17.5924 0.0000
# 3 54.1766 24.9656 145.3989 0.0000 -46.8594 0.0000
# 4 0.0000 0.0000 0.0000 -37.8850 0.0000 9.2766
# 5 -55.8230 -17.5924 -46.8594 0.0000 63.9920 0.0000
# 6 0.0000 0.0000 0.0000 9.2766 0.0000 3.2766
#
#
#
# Elastic Compliance Matrix: (Units=1/GPa)
#
#
# Indices 1 2 3 4 5 6 
#
# 1 0.007019 0.001174 -0.000968 0.000000 0.005737 0.000000
# 2 0.001174 0.009158 -0.001137 0.000000 0.002709 0.000000
# 3 -0.000968 -0.001137 0.009242 0.000000 0.005610 0.000000
# 4 0.000000 0.000000 0.000000 -0.015589 0.000000 0.044135
# 5 0.005737 0.002709 0.005610 0.000000 0.025485 0.000000
# 6 0.000000 0.000000 0.000000 0.044135 0.000000 0.180243
#
#
# Mechanical properties :
#
#
# Convention : Reuss Voigt Hill
#
# Bulk Modulus (GPa) = 42.44934 68.17244 55.31089
# Shear Modulus (GPa) = 22.19546 31.32635 26.76090
#
# Velocity S-wave (km/s) = 2.88570 3.42826 3.16862
# Velocity P-wave (km/s) = 5.19896 6.42243 5.84280
#
# Compressibility (1/GPa) = 0.02355749
#
# Stress axis : x y z
#
# Youngs Moduli (GPa) = 142.46031 109.19900 108.20589
#
# Poissons Ratio (x) = -0.12822 0.10475
# Poissons Ratio (y) = -0.16727 0.12300
# Poissons Ratio (z) = 0.13792 0.12412
#
# Static dielectric constant tensor:
#      x y z
#    x 2.143320 0.000000 -0.048030 
#    y 0.000000 2.153920 0.000000 
#    z -0.048030 0.000000 2.129070 
# 
# From -- ./inp_files/18003.got.cif
#   From: 2010.05.17/outbox.cif.g08.bks.cpg/sg5_10_cif.got.tgz:18003.got - 2010.06.03 18:56:24.
