data_PCOD9126853
_publ_section_title
;
Structure prediction by ZEFSAII (Michael W. Deem and Ramdas Pophale) SiO2 
 PCOD9126853
Probable space group: C 2
;
_chemical_formula_sum "Si O2"
_cell_formula_units_Z 30
_cell_length_a 14.676271
_cell_length_b 9.337174
_cell_length_c 21.127798
_cell_angle_alpha 90.000000
_cell_angle_beta 28.240237
_cell_angle_gamma 90.000000
_cell_volume 1369.942086
_symmetry_space_group_name_H-M "C 2"
_symmetry_group_IT_number 5
_symmetry_cell_setting 'monoclinic'
loop_
_space_group_symop_operation_xyz
x,y,z
-x,y,-z
1/2+x,1/2+y,z
1/2-x,1/2+y,-z
loop_
_atom_site_type_symbol
_atom_site_label
_atom_site_fract_x
_atom_site_fract_y
_atom_site_fract_z
Si Si1 0.110151 0.398430 0.611817
Si Si2 0.884498 0.647026 0.173941
Si Si3 0.399769 0.308308 0.738227
Si Si4 0.048781 0.083635 0.609255
Si Si5 0.519023 0.478774 0.911228
Si Si6 0.000000 0.444651 0.000000
Si Si7 0.404297 0.053586 0.834169
Si Si8 0.574528 0.094342 0.382242
O O1 0.134559 0.232119 0.581476
O O2 0.286267 0.496863 0.528933
O O3 0.949890 0.414107 0.764073
O O4 0.037005 0.475828 0.592203
O O5 0.658530 0.619061 0.295499
O O6 0.939216 0.812267 0.129961
O O7 0.019450 0.552460 0.045962
O O8 0.942638 0.587176 0.205992
O O9 0.503752 0.458819 0.688156
O O10 0.427072 0.185145 0.771883
O O11 0.453300 0.245429 0.636777
O O12 0.177424 0.345976 0.875962
O O13 0.700272 0.559481 0.768678
O O14 0.500000 0.495418 0.000000
O O15 0.315722 0.535978 0.009057
O O16 0.500000 0.093297 0.500000
#
# Coordination Sequence:
#
# PCOD9126853 Si02
#       8
#     4   4   4   4   4   2   4   4
#     4  11  23  47  73 105 144 201 247 310 377 448
#     4  11  25  44  70 112 146 196 248 316 372 446
#     4  10  22  44  69 104 148 189 241 310 370 441
#     4  11  24  48  73 101 148 203 243 307 380 451
#     4  12  21  47  79 106 153 200 247 310 379 448
#     4  10  22  42  68 100 144 190 244 300 376 426
#     4  11  25  43  75 112 145 191 254 311 376 445
#     4  11  24  45  73 112 147 195 249 304 377 447
#
# _framework density 21.898734999999999
#
# number of rings (size 3 to 8) (size 9 to 14) (size 15 to 20)
#    0.000    1.067    4.667    2.400    3.733    2.667 
#   12.000    0.000    0.000    0.000    0.000    0.000 
#    0.000    0.000    0.000    0.000    0.000    0.000 
#
# Total GULP energy -83706.289364 kJ/mol
# GULP energy per Si atom -5580.419291 kJ/mol
# Density = 2.184889 g / cm^3
# Si number density = 21.898735 Si / 1000 Ang^3
#
#
#
# Elastic Constant Matrix: (Units=GPa)
#
#
# Indices 1 2 3 4 5 6 
#
# 1 81.7747 44.7047 52.3403 0.0002 5.1148 -0.0001
# 2 44.7047 143.3151 55.7312 0.0003 -3.3433 -0.0001
# 3 52.3403 55.7312 142.2010 0.0009 -4.4166 -0.0005
# 4 0.0002 0.0003 0.0009 32.9694 -0.0003 -4.1029
# 5 5.1148 -3.3433 -4.4166 -0.0003 40.8608 0.0002
# 6 -0.0001 -0.0001 -0.0005 -4.1029 0.0002 -2.2645
#
#
#
# Elastic Compliance Matrix: (Units=1/GPa)
#
#
# Indices 1 2 3 4 5 6 
#
# 1 0.017710 -0.003568 -0.005216 0.000000 -0.003072 0.000000
# 2 -0.003568 0.008955 -0.002167 0.000000 0.000945 0.000000
# 3 -0.005216 -0.002167 0.009849 0.000000 0.001540 -0.000001
# 4 0.000000 0.000000 0.000000 0.024751 0.000000 -0.044843
# 5 -0.003072 0.000945 0.001540 0.000000 0.025102 0.000002
# 6 0.000000 0.000000 -0.000001 -0.044843 0.000002 -0.360343
#
#
# Mechanical properties :
#
#
# Convention : Reuss Voigt Hill
#
# Bulk Modulus (GPa) = 68.43178 74.76036 71.59607
# Shear Modulus (GPa) = -20.22619 28.61410 4.19395
#
# Velocity S-wave (km/s) = -3.04242 3.61869 1.38539
# Velocity P-wave (km/s) = 4.35607 7.18840 5.94342
#
# Compressibility (1/GPa) = 0.01461309
#
# Stress axis : x y z
#
# Youngs Moduli (GPa) = 56.46682 111.66536 101.53076
#
# Poissons Ratio (x) = 0.39838 0.52954
# Poissons Ratio (y) = 0.20145 0.22004
# Poissons Ratio (z) = 0.29451 0.24201
#
# Static dielectric constant tensor:
#      x y z
#    x 1.867950 0.000000 0.041440 
#    y 0.000000 1.838550 0.000000 
#    z 0.041440 0.000000 2.015590 
# 
# From -- ./inp_files/65982.got.cif
#   From: 2010.05.17/outbox.cif.g08.bks.cpg/sg5_33_cif.got.tgz:65982.got - 2010.06.03 18:56:24.
