data_PCOD9126384
_publ_section_title
;
Structure prediction by ZEFSAII (Michael W. Deem and Ramdas Pophale) SiO2 
 PCOD9126384
Probable space group: C 2
;
_chemical_formula_sum "Si O2"
_cell_formula_units_Z 30
_cell_length_a 16.008341
_cell_length_b 8.725921
_cell_length_c 27.170890
_cell_angle_alpha 90.000000
_cell_angle_beta 21.700854
_cell_angle_gamma 90.000000
_cell_volume 1403.402054
_symmetry_space_group_name_H-M "C 2"
_symmetry_group_IT_number 5
_symmetry_cell_setting 'monoclinic'
loop_
_space_group_symop_operation_xyz
x,y,z
-x,y,-z
1/2+x,1/2+y,z
1/2-x,1/2+y,-z
loop_
_atom_site_type_symbol
_atom_site_label
_atom_site_fract_x
_atom_site_fract_y
_atom_site_fract_z
Si Si1 0.204441 0.255710 0.997730
Si Si2 0.188700 0.072578 0.732442
Si Si3 0.020728 0.931480 0.341458
Si Si4 0.146092 0.533609 0.664196
Si Si5 0.500000 0.305654 0.500000
Si Si6 0.560754 0.043449 0.826003
Si Si7 0.976132 0.562963 0.371802
Si Si8 0.512579 0.348320 0.238915
O O1 0.003166 0.150052 0.128292
O O2 0.118389 0.423565 0.055545
O O3 0.436255 0.206266 0.897791
O O4 0.277112 0.256744 0.900677
O O5 0.331579 0.198935 0.623346
O O6 0.363033 0.994020 0.674672
O O7 0.083108 0.961802 0.749612
O O8 0.005962 0.747786 0.359761
O O9 0.081853 0.934849 0.250109
O O10 0.209121 0.014052 0.271299
O O11 0.780668 0.014111 0.478057
O O12 0.357250 0.419765 0.543186
O O13 0.081523 0.507924 0.756400
O O14 0.981368 0.509502 0.707830
O O15 0.176406 0.718299 0.645438
#
# Coordination Sequence:
#
# PCOD9126384 Si02
#       8
#     4   4   4   4   2   4   4   4
#     4  11  22  43  69  92 129 175 220 273 334 385
#     4  12  23  42  66  96 134 179 220 279 329 395
#     4  11  24  44  66 102 131 181 217 277 328 399
#     4  10  22  40  63  95 126 174 218 266 330 395
#     4  12  22  38  68  90 134 180 216 274 334 388
#     4  11  22  44  69  94 131 173 224 272 333 387
#     4  11  23  40  65  97 136 173 218 267 334 391
#     4  10  25  42  68  97 133 174 231 266 333 398
#
# _framework density 21.376625000000001
#
# number of rings (size 3 to 8) (size 9 to 14) (size 15 to 20)
#    0.000    1.067    4.000    2.400    0.000    5.333 
#    2.400    0.000    2.933    0.000    0.000    0.000 
#    0.000    0.000    0.000    0.000    0.000    0.000 
#
# Total GULP energy -83661.393690 kJ/mol
# GULP energy per Si atom -5577.426246 kJ/mol
# Density = 2.132797 g / cm^3
# Si number density = 21.376625 Si / 1000 Ang^3
#
#
#
# Elastic Constant Matrix: (Units=GPa)
#
#
# Indices 1 2 3 4 5 6 
#
# 1 136.0889 6.8227 56.5575 -0.0060 17.5329 0.0010
# 2 6.8227 19.5664 21.0867 -0.0030 0.7337 0.0018
# 3 56.5575 21.0867 110.0528 -0.0242 -0.4206 -0.0076
# 4 -0.0060 -0.0030 -0.0242 45.3594 0.0032 -1.2299
# 5 17.5329 0.7337 -0.4206 0.0032 16.3909 0.0016
# 6 0.0010 0.0018 -0.0076 -1.2299 0.0016 28.6060
#
#
#
# Elastic Compliance Matrix: (Units=1/GPa)
#
#
# Indices 1 2 3 4 5 6 
#
# 1 0.011594 0.003665 -0.006709 -0.000001 -0.012738 -0.000002
# 2 0.003665 0.065735 -0.014507 -0.000003 -0.007236 -0.000008
# 3 -0.006709 -0.014507 0.015345 0.000006 0.008220 0.000005
# 4 -0.000001 -0.000003 0.000006 0.022072 -0.000003 0.000949
# 5 -0.012738 -0.007236 0.008220 -0.000003 0.075169 -0.000001
# 6 -0.000002 -0.000008 0.000005 0.000949 -0.000001 0.034999
#
#
# Mechanical properties :
#
#
# Convention : Reuss Voigt Hill
#
# Bulk Modulus (GPa) = 17.36906 48.29353 32.83130
# Shear Modulus (GPa) = 17.90796 30.15400 24.03098
#
# Velocity S-wave (km/s) = 2.89751 3.75988 3.35650
# Velocity P-wave (km/s) = 4.39738 6.44125 5.51483
#
# Compressibility (1/GPa) = 0.05757363
#
# Stress axis : x y z
#
# Youngs Moduli (GPa) = 86.25391 15.21259 65.16617
#
# Poissons Ratio (x) = -0.05576 0.43721
# Poissons Ratio (y) = -0.31616 0.94533
# Poissons Ratio (z) = 0.57869 0.22068
#
# Static dielectric constant tensor:
#      x y z
#    x 1.819790 0.000000 0.048820 
#    y 0.000000 1.818300 0.000000 
#    z 0.048820 0.000000 1.826740 
# 
# From -- ./inp_files/72105.got.cif
#   From: 2010.05.17/outbox.cif.g08.bks.cpg/sg5_37_cif.got.tgz:72105.got - 2010.06.03 18:56:24.
