data_PCOD9126244
_publ_section_title
;
Structure prediction by ZEFSAII (Michael W. Deem and Ramdas Pophale) SiO2 
 PCOD9126244
Probable space group: C 2
;
_chemical_formula_sum "Si O2"
_cell_formula_units_Z 28
_cell_length_a 17.372435
_cell_length_b 14.584448
_cell_length_c 13.683228
_cell_angle_alpha 90.000000
_cell_angle_beta 156.963566
_cell_angle_gamma 90.000000
_cell_volume 1356.648367
_symmetry_space_group_name_H-M "C 2"
_symmetry_group_IT_number 5
_symmetry_cell_setting 'monoclinic'
loop_
_space_group_symop_operation_xyz
x,y,z
-x,y,-z
1/2+x,1/2+y,z
1/2-x,1/2+y,-z
loop_
_atom_site_type_symbol
_atom_site_label
_atom_site_fract_x
_atom_site_fract_y
_atom_site_fract_z
Si Si1 0.177277 0.207800 0.566887
Si Si2 0.217034 0.859373 0.447954
Si Si3 0.695055 0.320422 0.089823
Si Si4 0.497222 0.378416 0.603079
Si Si5 0.802383 0.531895 0.784536
Si Si6 0.389015 0.945789 0.163510
Si Si7 0.762860 0.630779 0.943543
O O1 0.195760 0.266359 0.492512
O O2 0.316096 0.119621 0.730084
O O3 0.231377 0.272930 0.723398
O O4 0.963139 0.163247 0.319648
O O5 0.142571 0.846912 0.471479
O O6 0.012083 0.874924 0.148403
O O7 0.393862 0.930527 0.629337
O O8 0.853226 0.387283 0.221932
O O9 0.643152 0.231512 0.960566
O O10 0.500000 0.330438 0.500000
O O11 0.389972 0.475073 0.459483
O O12 0.718556 0.397857 0.897768
O O13 0.790889 0.574412 0.877299
O O14 0.000000 0.474539 0.000000
O O15 0.333699 0.054456 0.104550
#
# Coordination Sequence:
#
# PCOD9126244 Si02
#       7
#     4   4   4   4   4   4   4
#     4  11  20  39  63  95 133 170 218 274 335 392
#     4  11  24  36  58  93 132 181 213 270 337 404
#     4  10  22  39  61  96 137 170 218 281 332 399
#     4  11  22  38  55  90 130 166 217 272 328 394
#     4  11  19  32  61  94 127 156 210 277 330 379
#     4  11  22  38  60  99 137 174 210 275 346 399
#     4  11  20  37  64  97 133 170 215 282 336 384
#
# _framework density 20.639098000000001
#
# number of rings (size 3 to 8) (size 9 to 14) (size 15 to 20)
#    0.000    1.143    4.286    4.714    0.000    0.000 
#    0.000    0.000    0.000    0.000   22.286    0.000 
#    0.000    0.000    0.000    0.000    0.000    0.000 
#
# Total GULP energy -77946.678498 kJ/mol
# GULP energy per Si atom -5567.619893 kJ/mol
# Density = 2.059212 g / cm^3
# Si number density = 20.639098 Si / 1000 Ang^3
#
#
#
# Elastic Constant Matrix: (Units=GPa)
#
#
# Indices 1 2 3 4 5 6 
#
# 1 114.6731 51.5097 42.6661 0.0000 22.4145 0.0000
# 2 51.5097 81.5375 25.4653 0.0000 -2.1475 0.0000
# 3 42.6661 25.4653 135.4177 -0.0001 30.0453 -0.0001
# 4 0.0000 0.0000 -0.0001 38.1815 -0.0001 -5.2223
# 5 22.4145 -2.1475 30.0453 -0.0001 29.0914 0.0000
# 6 0.0000 0.0000 -0.0001 -5.2223 0.0000 24.3341
#
#
#
# Elastic Compliance Matrix: (Units=1/GPa)
#
#
# Indices 1 2 3 4 5 6 
#
# 1 0.015962 -0.010346 -0.000241 0.000000 -0.012814 0.000000
# 2 -0.010346 0.020213 -0.003426 0.000000 0.013002 0.000000
# 3 -0.000241 -0.003426 0.010533 0.000000 -0.010946 0.000000
# 4 0.000000 0.000000 0.000000 0.026983 0.000000 0.005791
# 5 -0.012814 0.013002 -0.010946 0.000000 0.056512 0.000000
# 6 0.000000 0.000000 0.000000 0.005791 0.000000 0.042337
#
#
# Mechanical properties :
#
#
# Convention : Reuss Voigt Hill
#
# Bulk Modulus (GPa) = 53.52557 63.43451 58.48004
# Shear Modulus (GPa) = 24.17882 32.45387 28.31634
#
# Velocity S-wave (km/s) = 3.42644 3.96971 3.70804
# Velocity P-wave (km/s) = 6.45324 7.19815 6.83585
#
# Compressibility (1/GPa) = 0.01868266
#
# Stress axis : x y z
#
# Youngs Moduli (GPa) = 62.64945 49.47415 94.93724
#
# Poissons Ratio (x) = 0.51186 0.02284
# Poissons Ratio (y) = 0.64817 0.32526
# Poissons Ratio (z) = 0.01507 0.16950
#
# Static dielectric constant tensor:
#      x y z
#    x 1.832400 0.000000 0.000650 
#    y 0.000000 1.812710 0.000000 
#    z 0.000650 0.000000 1.871700 
# 
# From -- ./inp_files/63011.got.cif
#   From: 2010.05.17/outbox.cif.g08.bks.cpg/sg5_32_cif.got.tgz:63011.got - 2010.06.03 18:56:24.
