data_PCOD9126878
_publ_section_title
;
Structure prediction by ZEFSAII (Michael W. Deem and Ramdas Pophale) SiO2 
 PCOD9126878
Probable space group: C 2
;
_chemical_formula_sum "Si O2"
_cell_formula_units_Z 28
_cell_length_a 14.673980
_cell_length_b 11.672178
_cell_length_c 7.937944
_cell_angle_alpha 90.000000
_cell_angle_beta 122.406836
_cell_angle_gamma 90.000000
_cell_volume 1147.852597
_symmetry_space_group_name_H-M "C 2"
_symmetry_group_IT_number 5
_symmetry_cell_setting 'monoclinic'
loop_
_space_group_symop_operation_xyz
x,y,z
-x,y,-z
1/2+x,1/2+y,z
1/2-x,1/2+y,-z
loop_
_atom_site_type_symbol
_atom_site_label
_atom_site_fract_x
_atom_site_fract_y
_atom_site_fract_z
Si Si1 0.431317 0.814010 0.105301
Si Si2 0.447151 0.059471 0.269298
Si Si3 0.141541 0.652917 0.275797
Si Si4 0.560925 0.569104 0.843424
Si Si5 0.767221 0.945413 0.225790
Si Si6 0.249051 0.098287 0.267468
Si Si7 0.645646 0.403690 0.323246
O O1 0.456264 0.925908 0.240460
O O2 0.463616 0.698767 0.240293
O O3 0.500000 0.820354 0.000000
O O4 0.306902 0.846219 0.929286
O O5 0.500000 0.084857 0.500000
O O6 0.520505 0.120297 0.206211
O O7 0.328108 0.105849 0.187205
O O8 0.192585 0.553373 0.211579
O O9 0.213517 0.655749 0.521644
O O10 0.135058 0.784310 0.217419
O O11 0.641653 0.497852 0.804842
O O12 0.461532 0.483688 0.777224
O O13 0.629770 0.612830 0.074793
O O14 0.821933 0.897044 0.448759
O O15 0.243076 0.966977 0.324102
#
# Coordination Sequence:
#
# PCOD9126878 Si02
#       7
#     4   4   4   4   4   4   4
#     4  12  24  45  69  99 141 175 229 292 337 415
#     4  10  22  42  68  97 126 176 227 275 343 402
#     4  10  23  45  72  97 133 179 232 287 333 419
#     4  12  26  43  66 102 140 182 221 284 351 403
#     4  11  25  45  69 105 133 186 233 278 351 406
#     4  10  22  44  64  99 131 175 224 271 349 396
#     4  11  25  45  67 100 139 180 229 283 342 410
#
# _framework density 24.393374999999999
#
# number of rings (size 3 to 8) (size 9 to 14) (size 15 to 20)
#    0.000    1.143    2.857    2.571    2.000    6.857 
#    5.143    0.000    0.000    0.000    0.000    0.000 
#    0.000    0.000    0.000    0.000    0.000    0.000 
#
# Total GULP energy -78153.641154 kJ/mol
# GULP energy per Si atom -5582.402940 kJ/mol
# Density = 2.433785 g / cm^3
# Si number density = 24.393375 Si / 1000 Ang^3
#
#
#
# Elastic Constant Matrix: (Units=GPa)
#
#
# Indices 1 2 3 4 5 6 
#
# 1 114.2237 27.2674 4.2403 0.0000 0.4523 0.0000
# 2 27.2674 143.5491 2.0621 0.0000 12.7975 0.0000
# 3 4.2403 2.0621 50.6253 0.0000 -1.1256 0.0000
# 4 0.0000 0.0000 0.0000 13.9918 0.0000 8.4305
# 5 0.4523 12.7975 -1.1256 0.0000 30.9537 0.0000
# 6 0.0000 0.0000 0.0000 8.4305 0.0000 31.9787
#
#
#
# Elastic Compliance Matrix: (Units=1/GPa)
#
#
# Indices 1 2 3 4 5 6 
#
# 1 0.009205 -0.001791 -0.000685 0.000000 0.000581 0.000000
# 2 -0.001791 0.007588 -0.000228 0.000000 -0.003119 0.000000
# 3 -0.000685 -0.000228 0.019838 0.000000 0.000826 0.000000
# 4 0.000000 0.000000 0.000000 0.084967 0.000000 -0.022400
# 5 0.000581 -0.003119 0.000826 0.000000 0.033618 0.000000
# 6 0.000000 0.000000 0.000000 -0.022400 0.000000 0.037176
#
#
# Mechanical properties :
#
#
# Convention : Reuss Voigt Hill
#
# Bulk Modulus (GPa) = 32.02787 41.72640 36.87713
# Shear Modulus (GPa) = 24.01453 33.70673 28.86063
#
# Velocity S-wave (km/s) = 3.14103 3.72129 3.44340
# Velocity P-wave (km/s) = 5.12962 5.96714 5.56416
#
# Compressibility (1/GPa) = 0.03122281
#
# Stress axis : x y z
#
# Youngs Moduli (GPa) = 108.63292 131.79170 50.40826
#
# Poissons Ratio (x) = 0.23597 0.03454
# Poissons Ratio (y) = 0.19451 0.01152
# Poissons Ratio (z) = 0.07443 0.03011
#
# Static dielectric constant tensor:
#      x y z
#    x 1.973030 0.000000 0.030200 
#    y 0.000000 2.049580 0.000000 
#    z 0.030200 0.000000 2.096200 
# 
# From -- ./inp_files/23770.got.cif
#   From: 2010.05.17/outbox.cif.g08.bks.cpg/sg5_12_cif.got.tgz:23770.got - 2010.06.03 18:56:24.
