data_PCOD9126663
_publ_section_title
;
Structure prediction by ZEFSAII (Michael W. Deem and Ramdas Pophale) SiO2 
 PCOD9126663
Probable space group: C 2
;
_chemical_formula_sum "Si O2"
_cell_formula_units_Z 26
_cell_length_a 24.607842
_cell_length_b 7.523196
_cell_length_c 9.946300
_cell_angle_alpha 90.000000
_cell_angle_beta 40.335832
_cell_angle_gamma 90.000000
_cell_volume 1191.847440
_symmetry_space_group_name_H-M "C 2"
_symmetry_group_IT_number 5
_symmetry_cell_setting 'monoclinic'
loop_
_space_group_symop_operation_xyz
x,y,z
-x,y,-z
1/2+x,1/2+y,z
1/2-x,1/2+y,-z
loop_
_atom_site_type_symbol
_atom_site_label
_atom_site_fract_x
_atom_site_fract_y
_atom_site_fract_z
Si Si1 0.250841 0.457430 0.666978
Si Si2 0.201825 0.718432 0.188161
Si Si3 0.666034 0.297730 0.751672
Si Si4 0.500000 0.639894 0.500000
Si Si5 0.643810 0.462498 0.072216
Si Si6 0.562169 0.966675 0.988410
Si Si7 0.451620 0.984003 0.462620
O O1 0.288549 0.389495 0.734490
O O2 0.303279 0.384856 0.442654
O O3 0.239597 0.668032 0.670097
O O4 0.154122 0.383940 0.841051
O O5 0.135080 0.586650 0.383605
O O6 0.171499 0.785148 0.100379
O O7 0.288619 0.613555 0.019955
O O8 0.643469 0.428953 0.914339
O O9 0.590638 0.157441 0.873717
O O10 0.554936 0.523884 0.296897
O O11 0.442461 0.777695 0.523336
O O12 0.511392 0.992113 0.221436
O O13 0.500000 0.875060 0.000000
O O14 0.500000 0.065333 0.500000
#
# Coordination Sequence:
#
# PCOD9126663 Si02
#       7
#     4   4   4   2   4   4   4
#     4  10  23  42  65 100 130 179 225 275 332 404
#     4  12  24  41  72  96 136 181 228 276 340 402
#     4  10  23  41  68  96 137 175 227 275 331 403
#     4  10  26  44  66 100 142 166 230 282 336 398
#     4  12  25  41  69  99 134 180 228 281 334 404
#     4  10  22  41  68  94 132 177 222 269 346 387
#     4  10  23  43  68  95 136 179 225 278 341 397
#
# _framework density 21.814872000000001
#
# number of rings (size 3 to 8) (size 9 to 14) (size 15 to 20)
#    1.385    0.000    0.000    5.538    7.538    0.000 
#    0.000    0.000    0.000    1.846    0.000    0.000 
#    0.000    0.000    0.000    0.000    0.000    0.000 
#
# Total GULP energy -72589.548277 kJ/mol
# GULP energy per Si atom -5583.811406 kJ/mol
# Density = 2.176522 g / cm^3
# Si number density = 21.814872 Si / 1000 Ang^3
#
#
#
# Elastic Constant Matrix: (Units=GPa)
#
#
# Indices 1 2 3 4 5 6 
#
# 1 43.2260 -18.2677 12.8676 0.0000 3.7924 0.0000
# 2 -18.2677 43.8099 5.9857 0.0000 -4.9270 0.0000
# 3 12.8676 5.9857 139.7571 0.0000 15.6409 0.0000
# 4 0.0000 0.0000 0.0000 30.0817 0.0000 -2.6081
# 5 3.7924 -4.9270 15.6409 0.0000 21.8911 0.0000
# 6 0.0000 0.0000 0.0000 -2.6081 0.0000 33.4309
#
#
#
# Elastic Compliance Matrix: (Units=1/GPa)
#
#
# Indices 1 2 3 4 5 6 
#
# 1 0.029490 0.012755 -0.003273 0.000000 0.000100 0.000000
# 2 0.012755 0.029327 -0.003176 0.000000 0.006660 0.000000
# 3 -0.003273 -0.003176 0.008270 0.000000 -0.006057 0.000000
# 4 0.000000 0.000000 0.000000 0.033469 0.000000 0.002611
# 5 0.000100 0.006660 -0.006057 0.000000 0.051490 0.000000
# 6 0.000000 0.000000 0.000000 0.002611 0.000000 0.030116
#
#
# Mechanical properties :
#
#
# Convention : Reuss Voigt Hill
#
# Bulk Modulus (GPa) = 12.54689 25.32935 18.93812
# Shear Modulus (GPa) = 25.49499 32.16124 28.82811
#
# Velocity S-wave (km/s) = 3.42233 3.84380 3.63917
# Velocity P-wave (km/s) = 4.62390 5.59786 5.13403
#
# Compressibility (1/GPa) = 0.07970105
#
# Stress axis : x y z
#
# Youngs Moduli (GPa) = 33.90977 34.09782 120.91206
#
# Poissons Ratio (x) = -0.43492 0.39571
# Poissons Ratio (y) = -0.43252 0.38399
# Poissons Ratio (z) = 0.11098 0.10829
#
# Static dielectric constant tensor:
#      x y z
#    x 1.789310 0.000000 -0.022600 
#    y 0.000000 1.809130 0.000000 
#    z -0.022600 0.000000 1.744720 
# 
# From -- ./inp_files/30543.got.cif
#   From: 2010.05.17/outbox.cif.g08.bks.cpg/sg5_16_cif.got.tgz:30543.got - 2010.06.03 18:56:24.
