data_PCOD9126273
_publ_section_title
;
Structure prediction by ZEFSAII (Michael W. Deem and Ramdas Pophale) SiO2 
 PCOD9126273
Probable space group: C 2
;
_chemical_formula_sum "Si O2"
_cell_formula_units_Z 26
_cell_length_a 25.120353
_cell_length_b 11.196673
_cell_length_c 6.835015
_cell_angle_alpha 90.000000
_cell_angle_beta 34.017599
_cell_angle_gamma 90.000000
_cell_volume 1075.507792
_symmetry_space_group_name_H-M "C 2"
_symmetry_group_IT_number 5
_symmetry_cell_setting 'monoclinic'
loop_
_space_group_symop_operation_xyz
x,y,z
-x,y,-z
1/2+x,1/2+y,z
1/2-x,1/2+y,-z
loop_
_atom_site_type_symbol
_atom_site_label
_atom_site_fract_x
_atom_site_fract_y
_atom_site_fract_z
Si Si1 0.935492 0.889120 0.881835
Si Si2 0.837844 0.247861 0.380152
Si Si3 0.525326 0.934301 0.152406
Si Si4 0.346536 0.155468 0.278621
Si Si5 0.416155 0.580241 0.458969
Si Si6 0.760666 0.976074 0.159118
Si Si7 0.500000 0.774536 0.500000
O O1 0.000000 0.845740 0.500000
O O2 0.903922 0.778424 0.110967
O O3 0.999413 0.985906 0.791711
O O4 0.841935 0.953161 0.078097
O O5 0.746567 0.186483 0.564750
O O6 0.897532 0.158846 0.326998
O O7 0.801022 0.357600 0.624106
O O8 0.911700 0.309431 0.999524
O O9 0.444622 0.890890 0.540468
O O10 0.500000 0.935284 0.000000
O O11 0.583684 0.052909 0.016559
O O12 0.304635 0.090828 0.597465
O O13 0.435547 0.670690 0.579438
O O14 0.320541 0.502857 0.785750
#
# Coordination Sequence:
#
# PCOD9126273 Si02
#       7
#     4   4   4   4   4   4   2
#     4   9  19  38  64  93 125 174 216 268 325 396
#     4  10  22  39  64  95 131 169 218 274 324 395
#     4  11  24  43  66  96 129 174 223 271 322 397
#     4  10  22  41  62  92 137 166 211 283 332 379
#     4  11  20  39  69  96 129 174 224 270 325 406
#     4   9  19  39  61  89 130 170 210 272 337 376
#     4  12  22  38  70  94 126 176 216 268 328 386
#
# _framework density 24.174627000000001
#
# number of rings (size 3 to 8) (size 9 to 14) (size 15 to 20)
#    0.000    1.846    3.846    0.923    1.077    1.231 
#    0.000    4.615    0.000    0.000    0.000    0.000 
#    0.000    0.000    0.000    0.000    0.000    0.000 
#
# Total GULP energy -72476.586258 kJ/mol
# GULP energy per Si atom -5575.122020 kJ/mol
# Density = 2.411960 g / cm^3
# Si number density = 24.174627 Si / 1000 Ang^3
#
#
#
# Elastic Constant Matrix: (Units=GPa)
#
#
# Indices 1 2 3 4 5 6 
#
# 1 68.0638 36.9541 21.5258 0.0000 -4.6191 0.0000
# 2 36.9541 164.5997 65.6046 0.0000 -6.7372 0.0000
# 3 21.5258 65.6046 101.9292 0.0000 -12.2295 0.0000
# 4 0.0000 0.0000 0.0000 72.0370 0.0000 0.7139
# 5 -4.6191 -6.7372 -12.2295 0.0000 26.4483 0.0000
# 6 0.0000 0.0000 0.0000 0.7139 0.0000 29.5533
#
#
#
# Elastic Compliance Matrix: (Units=1/GPa)
#
#
# Indices 1 2 3 4 5 6 
#
# 1 0.016962 -0.003216 -0.001329 0.000000 0.001529 0.000000
# 2 -0.003216 0.008785 -0.005054 0.000000 -0.000661 0.000000
# 3 -0.001329 -0.005054 0.013935 0.000000 0.004924 0.000000
# 4 0.000000 0.000000 0.000000 0.013885 0.000000 -0.000335
# 5 0.001529 -0.000661 0.004924 0.000000 0.040185 0.000000
# 6 0.000000 0.000000 0.000000 -0.000335 0.000000 0.033845
#
#
# Mechanical properties :
#
#
# Convention : Reuss Voigt Hill
#
# Bulk Modulus (GPa) = 48.81858 64.75131 56.78494
# Shear Modulus (GPa) = 32.54705 39.64159 36.09432
#
# Velocity S-wave (km/s) = 3.67322 4.05384 3.86821
# Velocity P-wave (km/s) = 6.18288 6.98244 6.59479
#
# Compressibility (1/GPa) = 0.02048400
#
# Stress axis : x y z
#
# Youngs Moduli (GPa) = 58.95486 113.83299 71.76057
#
# Poissons Ratio (x) = 0.36608 0.09536
# Poissons Ratio (y) = 0.18960 0.36270
# Poissons Ratio (z) = 0.07834 0.57535
#
# Static dielectric constant tensor:
#      x y z
#    x 1.278160 0.000000 -0.862850 
#    y 0.000000 1.908440 0.000000 
#    z -0.862850 0.000000 0.923500 
# 
# From -- ./inp_files/31873.got.cif
#   From: 2010.05.17/outbox.cif.g08.bks.cpg/sg5_16_cif.got.tgz:31873.got - 2010.06.03 18:56:24.
