data_PCOD9126556
_publ_section_title
;
Structure prediction by ZEFSAII (Michael W. Deem and Ramdas Pophale) SiO2 
 PCOD9126556
Probable space group: C 2
;
_chemical_formula_sum "Si O2"
_cell_formula_units_Z 30
_cell_length_a 33.527787
_cell_length_b 7.252729
_cell_length_c 5.639635
_cell_angle_alpha 90.000000
_cell_angle_beta 115.335171
_cell_angle_gamma 90.000000
_cell_volume 1239.479378
_symmetry_space_group_name_H-M "C 2"
_symmetry_group_IT_number 5
_symmetry_cell_setting 'monoclinic'
loop_
_space_group_symop_operation_xyz
x,y,z
-x,y,-z
1/2+x,1/2+y,z
1/2-x,1/2+y,-z
loop_
_atom_site_type_symbol
_atom_site_label
_atom_site_fract_x
_atom_site_fract_y
_atom_site_fract_z
Si Si1 0.500000 0.707450 0.000000
Si Si2 0.805522 0.785992 0.305414
Si Si3 0.541554 0.984830 0.484509
Si Si4 0.315530 0.844925 0.768505
Si Si5 0.548294 0.610291 0.733322
Si Si6 0.363954 0.603130 0.271712
Si Si7 0.263323 0.208991 0.710974
Si Si8 0.374336 0.984952 0.549989
O O1 0.478485 0.844356 0.758719
O O2 0.538563 0.585978 0.984618
O O3 0.718129 0.001261 0.224419
O O4 0.787602 0.777528 0.529594
O O5 0.833401 0.598297 0.343298
O O6 0.773834 0.797404 0.993315
O O7 0.500000 0.089345 0.500000
O O8 0.556742 0.832195 0.718131
O O9 0.581342 0.077866 0.442800
O O10 0.287472 0.746250 0.487028
O O11 0.358805 0.953705 0.781316
O O12 0.331293 0.690655 0.991406
O O13 0.500000 0.562410 0.500000
O O14 0.591845 0.522531 0.738768
O O15 0.339592 0.450579 0.360142
O O16 0.377424 0.777480 0.463213
#
# Coordination Sequence:
#
# PCOD9126556 Si02
#       8
#     2   4   4   4   4   4   4   4
#     4   8  12  26  50  84 124 156 206 268 316 370
#     4  11  26  45  64  97 136 174 218 281 324 400
#     4   8  15  29  54  86 121 162 208 264 316 389
#     4  11  24  40  68  95 131 176 219 278 331 405
#     4   8  16  30  52  89 121 162 209 266 314 389
#     4  11  22  39  67  92 127 177 221 265 338 391
#     4  11  26  45  66  98 137 171 226 275 338 393
#     4  10  22  41  61  95 129 171 221 268 333 393
#
# _framework density 24.203707999999999
#
# number of rings (size 3 to 8) (size 9 to 14) (size 15 to 20)
#    0.000    2.400    1.333    1.600    5.600    0.000 
#    0.000    0.667    0.000    0.000    0.000    0.000 
#    0.000    0.000    0.000    0.000    0.000    0.000 
#
# Total GULP energy -83572.008237 kJ/mol
# GULP energy per Si atom -5571.467216 kJ/mol
# Density = 2.414862 g / cm^3
# Si number density = 24.203708 Si / 1000 Ang^3
#
#
#
# Elastic Constant Matrix: (Units=GPa)
#
#
# Indices 1 2 3 4 5 6 
#
# 1 173.4130 38.6472 34.2886 0.0000 -17.7522 0.0000
# 2 38.6472 55.7461 17.4341 0.0000 -4.7451 0.0000
# 3 34.2886 17.4341 72.9856 0.0000 -3.3855 0.0000
# 4 0.0000 0.0000 0.0000 17.4749 0.0000 -5.3324
# 5 -17.7522 -4.7451 -3.3855 0.0000 34.7050 0.0000
# 6 0.0000 0.0000 0.0000 -5.3324 0.0000 14.7521
#
#
#
# Elastic Compliance Matrix: (Units=1/GPa)
#
#
# Indices 1 2 3 4 5 6 
#
# 1 0.007478 -0.004185 -0.002373 0.000000 0.003021 0.000000
# 2 -0.004185 0.021899 -0.003240 0.000000 0.000538 0.000000
# 3 -0.002373 -0.003240 0.015584 0.000000 -0.000137 0.000000
# 4 0.000000 0.000000 0.000000 0.064319 0.000000 0.023250
# 5 0.003021 0.000538 -0.000137 0.000000 0.030420 0.000000
# 6 0.000000 0.000000 0.000000 0.023250 0.000000 0.076191
#
#
# Mechanical properties :
#
#
# Convention : Reuss Voigt Hill
#
# Bulk Modulus (GPa) = 39.42561 53.65385 46.53973
# Shear Modulus (GPa) = 20.49672 27.50471 24.00072
#
# Velocity S-wave (km/s) = 2.91321 3.37469 3.15241
# Velocity P-wave (km/s) = 5.25739 6.11559 5.70266
#
# Compressibility (1/GPa) = 0.02536422
#
# Stress axis : x y z
#
# Youngs Moduli (GPa) = 133.72998 45.66492 64.16878
#
# Poissons Ratio (x) = 0.19109 0.15229
# Poissons Ratio (y) = 0.55962 0.20791
# Poissons Ratio (z) = 0.31738 0.14796
#
# Static dielectric constant tensor:
#      x y z
#    x 2.113900 0.000000 -0.048440 
#    y 0.000000 1.945850 0.000000 
#    z -0.048440 0.000000 2.035140 
# 
# From -- ./inp_files/10915.got.cif
#   From: 2010.05.17/outbox.cif.g08.bks.cpg/sg5_6_cif.got.tgz:10915.got - 2010.06.03 18:56:24.
