data_PCOD9126500
_publ_section_title
;
Structure prediction by ZEFSAII (Michael W. Deem and Ramdas Pophale) SiO2 
 PCOD9126500
Probable space group: C 2
;
_chemical_formula_sum "Si O2"
_cell_formula_units_Z 26
_cell_length_a 15.892163
_cell_length_b 12.464144
_cell_length_c 5.451367
_cell_angle_alpha 90.000000
_cell_angle_beta 99.836283
_cell_angle_gamma 90.000000
_cell_volume 1063.945384
_symmetry_space_group_name_H-M "C 2"
_symmetry_group_IT_number 5
_symmetry_cell_setting 'monoclinic'
loop_
_space_group_symop_operation_xyz
x,y,z
-x,y,-z
1/2+x,1/2+y,z
1/2-x,1/2+y,-z
loop_
_atom_site_type_symbol
_atom_site_label
_atom_site_fract_x
_atom_site_fract_y
_atom_site_fract_z
Si Si1 0.208942 0.154140 0.315371
Si Si2 0.043496 0.405470 0.770933
Si Si3 0.645964 0.275274 0.371828
Si Si4 0.755030 0.431455 0.133919
Si Si5 0.102604 0.174948 0.765660
Si Si6 0.500000 0.269843 0.000000
Si Si7 0.396725 0.437719 0.273141
O O1 0.299818 0.212645 0.398739
O O2 0.152159 0.176899 0.528537
O O3 0.228165 0.028682 0.296770
O O4 0.161879 0.184878 0.039040
O O5 0.143984 0.430186 0.834001
O O6 0.039983 0.275226 0.755300
O O7 0.000000 0.447051 0.500000
O O8 0.000000 0.441738 0.000000
O O9 0.717030 0.322078 0.224398
O O10 0.601544 0.381156 0.464010
O O11 0.568934 0.210659 0.205751
O O12 0.702613 0.450470 0.857537
O O13 0.063920 0.054796 0.748514
O O14 0.560447 0.349206 0.877063
#
# Coordination Sequence:
#
# PCOD9126500 Si02
#       7
#     4   4   4   4   4   2   4
#     4  11  23  41  74  96 127 176 230 272 322 407
#     4  12  27  42  67  98 140 180 220 280 335 400
#     4  11  21  41  69  93 136 172 219 280 333 414
#     4  10  23  43  67  97 129 178 230 269 339 398
#     4  11  23  42  66 105 127 172 223 272 340 392
#     4  10  24  38  60 104 130 176 212 272 354 390
#     4  10  22  40  69  93 135 168 217 281 332 407
#
# _framework density 24.437346000000002
#
# number of rings (size 3 to 8) (size 9 to 14) (size 15 to 20)
#    0.000    1.231    3.077    2.308    5.385    1.231 
#    0.000    1.538    3.385    0.000    0.000    0.000 
#    0.000    0.000    0.000    0.000    0.000    0.000 
#
# Total GULP energy -72684.144338 kJ/mol
# GULP energy per Si atom -5591.088026 kJ/mol
# Density = 2.438173 g / cm^3
# Si number density = 24.437346 Si / 1000 Ang^3
#
#
#
# Elastic Constant Matrix: (Units=GPa)
#
#
# Indices 1 2 3 4 5 6 
#
# 1 117.5303 -16.2639 74.1549 0.0000 14.5854 0.0000
# 2 -16.2639 31.7732 9.7396 0.0000 6.0422 0.0000
# 3 74.1549 9.7396 176.3060 0.0000 17.9755 0.0000
# 4 0.0000 0.0000 0.0000 16.1431 0.0000 -1.3856
# 5 14.5854 6.0422 17.9755 0.0000 61.5162 0.0000
# 6 0.0000 0.0000 0.0000 -1.3856 0.0000 22.0849
#
#
#
# Elastic Compliance Matrix: (Units=1/GPa)
#
#
# Indices 1 2 3 4 5 6 
#
# 1 0.014033 0.009545 -0.006179 0.000000 -0.002459 0.000000
# 2 0.009545 0.038951 -0.005716 0.000000 -0.004419 0.000000
# 3 -0.006179 -0.005716 0.008637 0.000000 -0.000497 0.000000
# 4 0.000000 0.000000 0.000000 0.062281 0.000000 0.003907
# 5 -0.002459 -0.004419 -0.000497 0.000000 0.017418 0.000000
# 6 0.000000 0.000000 0.000000 0.003907 0.000000 0.045525
#
#
# Mechanical properties :
#
#
# Convention : Reuss Voigt Hill
#
# Bulk Modulus (GPa) = 17.56797 51.20786 34.38791
# Shear Modulus (GPa) = 23.75071 37.14741 30.44906
#
# Velocity S-wave (km/s) = 3.12092 3.90309 3.53371
# Velocity P-wave (km/s) = 4.49349 6.42747 5.54544
#
# Compressibility (1/GPa) = 0.05692178
#
# Stress axis : x y z
#
# Youngs Moduli (GPa) = 71.26080 25.67309 115.77709
#
# Poissons Ratio (x) = -0.24505 0.71537
# Poissons Ratio (y) = -0.68017 0.66176
# Poissons Ratio (z) = 0.44031 0.14674
#
# Static dielectric constant tensor:
#      x y z
#    x 1.955420 0.000000 0.006270 
#    y 0.000000 1.957900 0.000000 
#    z 0.006270 0.000000 1.989830 
# 
# From -- ./inp_files/6905.got.cif
#   From: 2010.05.17/outbox.cif.g08.bks.cpg/sg5_4_cif.got.tgz:6905.got - 2010.06.03 18:56:24.
