data_PCOD9126709
_publ_section_title
;
Structure prediction by ZEFSAII (Michael W. Deem and Ramdas Pophale) SiO2 
 PCOD9126709
Probable space group: C 2
;
_chemical_formula_sum "Si O2"
_cell_formula_units_Z 24
_cell_length_a 16.851286
_cell_length_b 10.613878
_cell_length_c 5.467134
_cell_angle_alpha 90.000000
_cell_angle_beta 80.222839
_cell_angle_gamma 90.000000
_cell_volume 963.635444
_symmetry_space_group_name_H-M "C 2"
_symmetry_group_IT_number 5
_symmetry_cell_setting 'monoclinic'
loop_
_space_group_symop_operation_xyz
x,y,z
-x,y,-z
1/2+x,1/2+y,z
1/2-x,1/2+y,-z
loop_
_atom_site_type_symbol
_atom_site_label
_atom_site_fract_x
_atom_site_fract_y
_atom_site_fract_z
Si Si1 0.920394 0.135930 0.962477
Si Si2 0.707921 0.447551 0.102976
Si Si3 0.107987 0.273246 0.535916
Si Si4 0.362929 0.998006 0.769021
Si Si5 0.909157 0.737097 0.988824
Si Si6 0.274321 0.156033 0.433307
O O1 0.921795 0.240202 0.177930
O O2 0.919839 0.186899 0.683010
O O3 0.000000 0.060960 0.000000
O O4 0.843465 0.047125 0.032580
O O5 0.734149 0.536191 0.314908
O O6 0.795992 0.413721 0.947122
O O7 0.642976 0.334349 0.155477
O O8 0.092331 0.412433 0.449143
O O9 0.203753 0.254927 0.506745
O O10 0.308817 0.098591 0.657848
O O11 0.417212 0.091983 0.894096
O O12 0.846896 0.719668 0.246134
O O13 0.000000 0.779359 0.000000
#
# Coordination Sequence:
#
# PCOD9126709 Si02
#       6
#     4   4   4   4   4   4
#     4  11  24  45  69 106 138 177 234 301 360 417
#     4  10  22  41  72  99 134 184 238 298 356 434
#     4  11  24  43  72 100 136 186 237 289 355 435
#     4  11  24  41  68  95 139 188 240 293 351 446
#     4  11  25  44  66 102 145 189 234 305 372 432
#     4  10  23  40  67  98 131 183 244 286 358 428
#
# _framework density 24.905683
#
# number of rings (size 3 to 8) (size 9 to 14) (size 15 to 20)
#    0.000    1.333    3.333    1.000    7.000    1.333 
#    3.000    0.000    0.000    0.000    0.000    0.000 
#    0.000    0.000    0.000    0.000    0.000    0.000 
#
# Total GULP energy -66957.448368 kJ/mol
# GULP energy per Si atom -5579.787364 kJ/mol
# Density = 2.484900 g / cm^3
# Si number density = 24.905683 Si / 1000 Ang^3
#
#
#
# Elastic Constant Matrix: (Units=GPa)
#
#
# Indices 1 2 3 4 5 6 
#
# 1 155.7729 48.2834 39.8814 0.0000 15.1753 0.0000
# 2 48.2834 83.2923 17.5191 0.0000 -13.0426 0.0000
# 3 39.8814 17.5191 80.8278 0.0000 -9.1191 0.0000
# 4 0.0000 0.0000 0.0000 38.0389 0.0000 4.7445
# 5 15.1753 -13.0426 -9.1191 0.0000 27.2139 0.0000
# 6 0.0000 0.0000 0.0000 4.7445 0.0000 43.5918
#
#
#
# Elastic Compliance Matrix: (Units=1/GPa)
#
#
# Indices 1 2 3 4 5 6 
#
# 1 0.011040 -0.007076 -0.005187 0.000000 -0.011286 0.000000
# 2 -0.007076 0.017901 0.001065 0.000000 0.012882 0.000000
# 3 -0.005187 0.001065 0.015677 0.000000 0.008656 0.000000
# 4 0.000000 0.000000 0.000000 0.026651 0.000000 -0.002901
# 5 -0.011286 0.012882 0.008656 0.000000 0.052114 0.000000
# 6 0.000000 0.000000 0.000000 -0.002901 0.000000 0.023256
#
#
# Mechanical properties :
#
#
# Convention : Reuss Voigt Hill
#
# Bulk Modulus (GPa) = 45.00081 59.02899 52.01490
# Shear Modulus (GPa) = 28.33781 36.04953 32.19367
#
# Velocity S-wave (km/s) = 3.37680 3.80865 3.59921
# Velocity P-wave (km/s) = 5.77160 6.56457 6.18082
#
# Compressibility (1/GPa) = 0.02222182
#
# Stress axis : x y z
#
# Youngs Moduli (GPa) = 90.57640 55.86257 63.78741
#
# Poissons Ratio (x) = 0.39529 0.33087
# Poissons Ratio (y) = 0.64094 -0.06792
# Poissons Ratio (z) = 0.46982 -0.05948
#
# Static dielectric constant tensor:
#      x y z
#    x 1.984280 0.000000 -0.066290 
#    y 0.000000 2.061930 0.000000 
#    z -0.066290 0.000000 1.931590 
# 
# From -- ./inp_files/8288.got.cif
#   From: 2010.05.17/outbox.cif.g08.bks.cpg/sg5_5_cif.got.tgz:8288.got - 2010.06.03 18:56:24.
