data_PCOD9126550
_publ_section_title
;
Structure prediction by ZEFSAII (Michael W. Deem and Ramdas Pophale) SiO2 
 PCOD9126550
Probable space group: C 2
;
_chemical_formula_sum "Si O2"
_cell_formula_units_Z 30
_cell_length_a 15.080189
_cell_length_b 4.892275
_cell_length_c 15.942983
_cell_angle_alpha 90.000000
_cell_angle_beta 84.174063
_cell_angle_gamma 90.000000
_cell_volume 1170.141073
_symmetry_space_group_name_H-M "C 2"
_symmetry_group_IT_number 5
_symmetry_cell_setting 'monoclinic'
loop_
_space_group_symop_operation_xyz
x,y,z
-x,y,-z
1/2+x,1/2+y,z
1/2-x,1/2+y,-z
loop_
_atom_site_type_symbol
_atom_site_label
_atom_site_fract_x
_atom_site_fract_y
_atom_site_fract_z
Si Si1 0.805875 0.456220 0.969351
Si Si2 0.177906 0.506267 0.700781
Si Si3 0.606011 0.167879 0.196343
Si Si4 0.000000 0.279341 0.000000
Si Si5 0.705406 0.642769 0.546601
Si Si6 0.369080 0.677014 0.701980
Si Si7 0.956772 0.948254 0.355193
Si Si8 0.553051 0.785963 0.821614
O O1 0.819494 0.563104 0.873897
O O2 0.906411 0.437693 0.996185
O O3 0.741016 0.664593 0.022344
O O4 0.211876 0.258750 0.639901
O O5 0.265667 0.684428 0.692786
O O6 0.150169 0.414596 0.796697
O O7 0.094208 0.664363 0.664884
O O8 0.620301 0.483415 0.215741
O O9 0.607660 0.988830 0.281148
O O10 0.512608 0.049256 0.170738
O O11 0.024127 0.131200 0.909204
O O12 0.768803 0.395122 0.514848
O O13 0.602866 0.550408 0.561700
O O14 0.439888 0.521053 0.635809
O O15 0.950360 0.114578 0.265677
#
# Coordination Sequence:
#
# PCOD9126550 Si02
#       8
#     4   4   4   2   4   4   4   4
#     4  11  25  43  63  91 131 180 231 285 356 406
#     4  11  23  40  72  98 127 179 227 265 333 412
#     4  10  22  41  60  92 130 171 220 286 332 396
#     4  10  24  44  62  98 142 182 238 296 344 410
#     4  11  23  43  73  97 136 174 209 267 337 399
#     4  11  24  39  68  97 132 168 223 278 327 399
#     4  10  22  44  69  99 135 178 219 280 334 404
#     4   9  21  41  63  93 133 180 228 278 343 395
#
# _framework density 25.637934999999999
#
# number of rings (size 3 to 8) (size 9 to 14) (size 15 to 20)
#    0.000    1.600    2.667    0.800    7.467    0.533 
#    0.000    0.667    5.867    0.000    0.000    0.000 
#    0.000    0.000    0.000    0.000    0.000    0.000 
#
# Total GULP energy -83573.758909 kJ/mol
# GULP energy per Si atom -5571.583927 kJ/mol
# Density = 2.557958 g / cm^3
# Si number density = 25.637935 Si / 1000 Ang^3
#
#
#
# Elastic Constant Matrix: (Units=GPa)
#
#
# Indices 1 2 3 4 5 6 
#
# 1 103.0770 7.4568 31.7382 0.0000 -30.5726 0.0000
# 2 7.4568 101.6058 39.8408 0.0000 -6.7064 0.0000
# 3 31.7382 39.8408 160.9646 0.0000 -42.9034 0.0000
# 4 0.0000 0.0000 0.0000 43.5655 0.0000 -11.3042
# 5 -30.5726 -6.7064 -42.9034 0.0000 42.2022 0.0000
# 6 0.0000 0.0000 0.0000 -11.3042 0.0000 22.4850
#
#
#
# Elastic Compliance Matrix: (Units=1/GPa)
#
#
# Indices 1 2 3 4 5 6 
#
# 1 0.012367 -0.000327 0.000023 0.000000 0.008930 0.000000
# 2 -0.000327 0.010968 -0.003085 0.000000 -0.001630 0.000000
# 3 0.000023 -0.003085 0.009390 0.000000 0.009072 0.000000
# 4 0.000000 0.000000 0.000000 0.026398 0.000000 0.013271
# 5 0.008930 -0.001630 0.009072 0.000000 0.039128 0.000000
# 6 0.000000 0.000000 0.000000 0.013271 0.000000 0.051146
#
#
# Mechanical properties :
#
#
# Convention : Reuss Voigt Hill
#
# Bulk Modulus (GPa) = 38.54119 58.19098 48.36608
# Shear Modulus (GPa) = 30.33558 40.75798 35.54678
#
# Velocity S-wave (km/s) = 3.44354 3.99150 3.72760
# Velocity P-wave (km/s) = 5.55663 6.63244 6.11823
#
# Compressibility (1/GPa) = 0.02594627
#
# Stress axis : x y z
#
# Youngs Moduli (GPa) = 80.86166 91.17511 106.50137
#
# Poissons Ratio (x) = 0.02982 -0.00242
# Poissons Ratio (y) = 0.02645 0.32852
# Poissons Ratio (z) = -0.00184 0.28124
#
# Static dielectric constant tensor:
#      x y z
#    x 2.252220 0.000000 0.085560 
#    y 0.000000 2.069740 0.000000 
#    z 0.085560 0.000000 2.086150 
# 
# From -- ./inp_files/61209.got.cif
#   From: 2010.05.17/outbox.cif.g08.bks.cpg/sg5_31_cif.got.tgz:61209.got - 2010.06.03 18:56:24.
