data_PCOD9126432
_publ_section_title
;
Structure prediction by ZEFSAII (Michael W. Deem and Ramdas Pophale) SiO2 
 PCOD9126432
Probable space group: C 2
;
_chemical_formula_sum "Si O2"
_cell_formula_units_Z 26
_cell_length_a 9.446189
_cell_length_b 14.701423
_cell_length_c 14.762687
_cell_angle_alpha 90.000000
_cell_angle_beta 140.767168
_cell_angle_gamma 90.000000
_cell_volume 1296.652456
_symmetry_space_group_name_H-M "C 2"
_symmetry_group_IT_number 5
_symmetry_cell_setting 'monoclinic'
loop_
_space_group_symop_operation_xyz
x,y,z
-x,y,-z
1/2+x,1/2+y,z
1/2-x,1/2+y,-z
loop_
_atom_site_type_symbol
_atom_site_label
_atom_site_fract_x
_atom_site_fract_y
_atom_site_fract_z
Si Si1 0.754795 0.435410 0.351762
Si Si2 0.500000 0.252764 0.500000
Si Si3 0.998511 0.923944 0.402889
Si Si4 0.291143 0.623450 0.767074
Si Si5 0.989238 0.431245 0.101239
Si Si6 0.438274 0.312527 0.072713
Si Si7 0.691171 0.123782 0.926372
O O1 0.623912 0.463547 0.378919
O O2 0.778848 0.523089 0.299738
O O3 0.604609 0.363303 0.223773
O O4 0.000000 0.401504 0.500000
O O5 0.603111 0.325051 0.479297
O O6 0.681248 0.192183 0.641267
O O7 0.739306 0.906607 0.253519
O O8 0.000000 0.976351 0.500000
O O9 0.208133 0.643062 0.827643
O O10 0.559752 0.624753 0.907441
O O11 0.910319 0.524154 0.109322
O O12 0.809384 0.352629 0.031325
O O13 0.000000 0.448697 0.000000
O O14 0.442382 0.205212 0.093039
O O15 0.500000 0.333706 0.000000
#
# Coordination Sequence:
#
# PCOD9126432 Si02
#       7
#     4   2   4   4   4   4   4
#     4  12  25  44  67 103 139 178 223 282 341 407
#     4  10  22  40  66  94 130 182 226 268 334 408
#     4  10  25  42  66  98 135 180 227 270 341 400
#     4  11  22  41  69 100 135 173 231 280 336 404
#     4  12  23  45  70  97 139 178 230 282 336 411
#     4  12  26  43  71 104 136 179 227 288 341 394
#     4  11  25  41  69 102 134 175 231 283 340 398
#
# _framework density 20.051634
#
# number of rings (size 3 to 8) (size 9 to 14) (size 15 to 20)
#    0.462    0.308    3.846    3.231    6.462    0.000 
#    0.000    0.769    0.000    0.000    0.000    0.000 
#    0.000    0.000    0.000    0.000    0.000    0.000 
#
# Total GULP energy -72624.027961 kJ/mol
# GULP energy per Si atom -5586.463689 kJ/mol
# Density = 2.000600 g / cm^3
# Si number density = 20.051634 Si / 1000 Ang^3
#
#
#
# Elastic Constant Matrix: (Units=GPa)
#
#
# Indices 1 2 3 4 5 6 
#
# 1 73.8345 -10.3885 40.1967 0.0000 -4.5756 0.0000
# 2 -10.3885 50.9206 -2.0917 0.0000 -3.8857 0.0000
# 3 40.1967 -2.0917 124.4255 0.0001 -9.3721 0.0001
# 4 0.0000 0.0000 0.0001 2.7140 0.0000 -11.8111
# 5 -4.5756 -3.8857 -9.3721 0.0000 27.6505 0.0000
# 6 0.0000 0.0000 0.0001 -11.8111 0.0000 32.1419
#
#
#
# Elastic Compliance Matrix: (Units=1/GPa)
#
#
# Indices 1 2 3 4 5 6 
#
# 1 0.017009 0.003364 -0.005327 0.000000 0.001482 0.000000
# 2 0.003364 0.020555 -0.000494 0.000001 0.003278 0.000000
# 3 -0.005327 -0.000494 0.009931 0.000001 0.002415 0.000000
# 4 0.000000 0.000001 0.000001 -0.614934 0.000001 -0.225968
# 5 0.001482 0.003278 0.002415 0.000001 0.037690 0.000000
# 6 0.000000 0.000000 0.000000 -0.225968 0.000000 -0.051924
#
#
# Mechanical properties :
#
#
# Convention : Reuss Voigt Hill
#
# Bulk Modulus (GPa) = 23.48449 33.84595 28.66522
# Shear Modulus (GPa) = -8.88785 27.26555 9.18885
#
# Velocity S-wave (km/s) = -2.10763 3.69150 2.14302
# Velocity P-wave (km/s) = 2.41135 5.92331 4.52218
#
# Compressibility (1/GPa) = 0.04258130
#
# Stress axis : x y z
#
# Youngs Moduli (GPa) = 58.79266 48.65090 100.69092
#
# Poissons Ratio (x) = -0.16368 0.53635
# Poissons Ratio (y) = -0.19780 0.04979
# Poissons Ratio (z) = 0.31317 0.02406
#
# Static dielectric constant tensor:
#      x y z
#    x 1.686200 0.000000 -0.001980 
#    y 0.000000 1.688780 0.000000 
#    z -0.001980 0.000000 1.719230 
# 
# From -- ./inp_files/51089.got.cif
#   From: 2010.05.17/outbox.cif.g08.bks.cpg/sg5_26_cif.got.tgz:51089.got - 2010.06.03 18:56:24.
