data_PCOD9126751
_publ_section_title
;
Structure prediction by ZEFSAII (Michael W. Deem and Ramdas Pophale) SiO2 
 PCOD9126751
Probable space group: C 2
;
_chemical_formula_sum "Si O2"
_cell_formula_units_Z 32
_cell_length_a 19.930763
_cell_length_b 13.289609
_cell_length_c 14.035127
_cell_angle_alpha 90.000000
_cell_angle_beta 24.181075
_cell_angle_gamma 90.000000
_cell_volume 1522.774052
_symmetry_space_group_name_H-M "C 2"
_symmetry_group_IT_number 5
_symmetry_cell_setting 'monoclinic'
loop_
_space_group_symop_operation_xyz
x,y,z
-x,y,-z
1/2+x,1/2+y,z
1/2-x,1/2+y,-z
loop_
_atom_site_type_symbol
_atom_site_label
_atom_site_fract_x
_atom_site_fract_y
_atom_site_fract_z
Si Si1 0.895071 0.296850 0.541916
Si Si2 0.623556 0.434721 0.626879
Si Si3 0.013648 0.843609 0.369026
Si Si4 0.543467 0.112053 0.554209
Si Si5 0.131784 0.433172 0.112548
Si Si6 0.146949 0.983208 0.885368
Si Si7 0.467381 0.025275 0.154011
Si Si8 0.127754 0.741830 0.755721
O O1 0.766908 0.385655 0.738639
O O2 0.789351 0.220884 0.611840
O O3 0.000000 0.264434 0.500000
O O4 0.015122 0.350748 0.311943
O O5 0.609386 0.408712 0.534373
O O6 0.789067 0.495309 0.423878
O O7 0.648179 0.331502 0.654802
O O8 0.459345 0.488492 0.879614
O O9 0.983554 0.727003 0.380654
O O10 0.000000 0.852241 0.500000
O O11 0.189499 0.886968 0.111737
O O12 0.500000 0.107246 0.500000
O O13 0.420336 0.036104 0.766609
O O14 0.729708 0.069989 0.311955
O O15 0.092588 0.461235 0.054308
O O16 0.000000 0.979297 0.000000
O O17 0.459204 0.145509 0.177661
O O18 0.500000 0.008481 0.000000
O O19 0.000000 0.776703 0.000000
#
# Coordination Sequence:
#
# PCOD9126751 Si02
#       8
#     4   4   4   4   4   4   4   4
#     4  11  20  38  68 103 129 164 220 286 339 391
#     4  12  20  42  66  92 128 178 219 272 333 396
#     4  11  25  42  62  88 133 178 221 269 328 393
#     4  10  22  42  63  98 128 163 216 282 335 389
#     4  11  21  43  66  91 128 179 217 265 344 393
#     4  11  19  37  70  99 126 161 219 277 337 388
#     4  11  25  42  62  92 137 177 224 273 320 401
#     4  11  22  42  66 100 131 172 225 282 339 392
#
# _framework density 21.014278999999998
#
# number of rings (size 3 to 8) (size 9 to 14) (size 15 to 20)
#    0.000    1.000    3.750    5.250    0.000    0.000 
#    6.750    3.750    0.000    0.000    0.000    0.000 
#    0.000    0.000    0.000    0.000    0.000    0.000 
#
# Total GULP energy -89216.741835 kJ/mol
# GULP energy per Si atom -5576.046365 kJ/mol
# Density = 2.096645 g / cm^3
# Si number density = 21.014279 Si / 1000 Ang^3
#
#
#
# Elastic Constant Matrix: (Units=GPa)
#
#
# Indices 1 2 3 4 5 6 
#
# 1 79.8251 14.6814 8.5577 -0.0001 1.9161 0.0000
# 2 14.6814 51.4169 23.7661 0.0000 -1.3249 0.0000
# 3 8.5577 23.7661 80.6209 0.0001 -7.4275 0.0000
# 4 -0.0001 0.0000 0.0001 30.6677 0.0001 -0.7121
# 5 1.9161 -1.3249 -7.4275 0.0001 40.9078 0.0000
# 6 0.0000 0.0000 0.0000 -0.7121 0.0000 18.7091
#
#
#
# Elastic Compliance Matrix: (Units=1/GPa)
#
#
# Indices 1 2 3 4 5 6 
#
# 1 0.013256 -0.003613 -0.000417 0.000000 -0.000814 0.000000
# 2 -0.003613 0.023511 -0.006572 0.000000 -0.000262 0.000000
# 3 -0.000417 -0.006572 0.014612 0.000000 0.002460 0.000000
# 4 0.000000 0.000000 0.000000 0.032636 0.000000 0.001242
# 5 -0.000814 -0.000262 0.002460 0.000000 0.024921 0.000000
# 6 0.000000 0.000000 0.000000 0.001242 0.000000 0.053497
#
#
# Mechanical properties :
#
#
# Convention : Reuss Voigt Hill
#
# Bulk Modulus (GPa) = 33.13914 33.98590 33.56252
# Shear Modulus (GPa) = 25.81358 29.04744 27.43051
#
# Velocity S-wave (km/s) = 3.50863 3.72192 3.61685
# Velocity P-wave (km/s) = 5.67609 5.88882 5.78343
#
# Compressibility (1/GPa) = 0.03017580
#
# Stress axis : x y z
#
# Youngs Moduli (GPa) = 75.43647 42.53261 68.43787
#
# Poissons Ratio (x) = 0.15369 0.02853
# Poissons Ratio (y) = 0.27258 0.44974
# Poissons Ratio (z) = 0.03145 0.27950
#
# Static dielectric constant tensor:
#      x y z
#    x 1.421540 0.000000 -0.269190 
#    y 0.000000 1.761860 0.000000 
#    z -0.269190 0.000000 1.604570 
# 
# From -- ./inp_files/57174.got.cif
#   From: 2010.05.17/outbox.cif.g08.bks.cpg/sg5_29_cif.got.tgz:57174.got - 2010.06.03 18:56:24.
