data_PCOD9126088
_publ_section_title
;
Structure prediction by ZEFSAII (Michael W. Deem and Ramdas Pophale) SiO2 
 PCOD9126088
Probable space group: C 2
;
_chemical_formula_sum "Si O2"
_cell_formula_units_Z 20
_cell_length_a 23.391269
_cell_length_b 7.123899
_cell_length_c 5.257514
_cell_angle_alpha 90.000000
_cell_angle_beta 95.675639
_cell_angle_gamma 90.000000
_cell_volume 871.801679
_symmetry_space_group_name_H-M "C 2"
_symmetry_group_IT_number 5
_symmetry_cell_setting 'monoclinic'
loop_
_space_group_symop_operation_xyz
x,y,z
-x,y,-z
1/2+x,1/2+y,z
1/2-x,1/2+y,-z
loop_
_atom_site_type_symbol
_atom_site_label
_atom_site_fract_x
_atom_site_fract_y
_atom_site_fract_z
Si Si1 0.864811 0.075170 0.368596
Si Si2 0.825238 0.390426 0.039734
Si Si3 0.873733 0.781219 0.961610
Si Si4 0.775439 0.058150 0.703467
Si Si5 0.036138 0.011005 0.256596
O O1 0.869992 0.242577 0.173398
O O2 0.798075 0.075722 0.426096
O O3 0.879387 0.876329 0.244484
O O4 0.907432 0.121124 0.618567
O O5 0.856484 0.567038 0.933238
O O6 0.786243 0.483460 0.245077
O O7 0.786497 0.259341 0.840702
O O8 0.932623 0.826279 0.841736
O O9 0.820931 0.903754 0.826717
O O10 0.000000 0.987842 0.500000
O O11 0.000000 0.086761 0.000000
#
# Coordination Sequence:
#
# PCOD9126088 Si02
#       5
#     4   4   4   4   4
#     4  10  24  39  68 101 135 185 232 288 336 420
#     4  11  22  39  64 102 147 185 229 273 345 418
#     4  10  22  42  68  99 137 179 235 280 338 418
#     4  10  22  38  60  98 144 190 219 273 342 413
#     4  11  22  46  80  96 133 187 235 296 363 395
#
# _framework density 22.940995999999998
#
# number of rings (size 3 to 8) (size 9 to 14) (size 15 to 20)
#    0.000    1.600    4.000    0.000    2.800    3.200 
#    0.000    0.000   17.600    0.000    0.000    0.000 
#    0.000    0.000    0.000    0.000    0.000    0.000 
#
# Total GULP energy -55794.551942 kJ/mol
# GULP energy per Si atom -5579.455194 kJ/mol
# Density = 2.288878 g / cm^3
# Si number density = 22.940996 Si / 1000 Ang^3
#
#
#
# Elastic Constant Matrix: (Units=GPa)
#
#
# Indices 1 2 3 4 5 6 
#
# 1 65.5833 -0.4530 16.4209 0.0000 -16.6694 0.0000
# 2 -0.4530 129.8066 28.8235 0.0000 8.0284 0.0000
# 3 16.4209 28.8235 85.8971 0.0000 -14.4231 0.0000
# 4 0.0000 0.0000 0.0000 14.5621 0.0000 -5.8380
# 5 -16.6694 8.0284 -14.4231 0.0000 50.3632 0.0000
# 6 0.0000 0.0000 0.0000 -5.8380 0.0000 21.6183
#
#
#
# Elastic Compliance Matrix: (Units=1/GPa)
#
#
# Indices 1 2 3 4 5 6 
#
# 1 0.017134 0.000327 -0.002565 0.000000 0.004884 0.000000
# 2 0.000327 0.008577 -0.003311 0.000000 -0.002207 0.000000
# 3 -0.002565 -0.003311 0.013856 0.000000 0.003647 0.000000
# 4 0.000000 0.000000 0.000000 0.077008 0.000000 0.020796
# 5 0.004884 -0.002207 0.003647 0.000000 0.022869 0.000000
# 6 0.000000 0.000000 0.000000 0.020796 0.000000 0.051873
#
#
# Mechanical properties :
#
#
# Convention : Reuss Voigt Hill
#
# Bulk Modulus (GPa) = 35.12715 41.20776 38.16746
# Shear Modulus (GPa) = 23.59565 33.07509 28.33537
#
# Velocity S-wave (km/s) = 3.21056 3.80115 3.51827
# Velocity P-wave (km/s) = 5.39340 6.10463 5.76000
#
# Compressibility (1/GPa) = 0.02846801
#
# Stress axis : x y z
#
# Youngs Moduli (GPa) = 58.36440 116.59547 72.17274
#
# Poissons Ratio (x) = -0.03816 0.18514
# Poissons Ratio (y) = -0.01910 0.23897
# Poissons Ratio (z) = 0.14972 0.38606
#
# Static dielectric constant tensor:
#      x y z
#    x 1.925100 0.000000 -0.012340 
#    y 0.000000 1.811050 0.000000 
#    z -0.012340 0.000000 2.033280 
# 
# From -- ./inp_files/10607.got.cif
#   From: 2010.05.17/outbox.cif.g08.bks.cpg/sg5_6_cif.got.tgz:10607.got - 2010.06.03 18:56:24.
