data_PCOD9126744
_publ_section_title
;
Structure prediction by ZEFSAII (Michael W. Deem and Ramdas Pophale) SiO2 
 PCOD9126744
Probable space group: C 2
;
_chemical_formula_sum "Si O2"
_cell_formula_units_Z 32
_cell_length_a 10.436843
_cell_length_b 9.372318
_cell_length_c 27.626616
_cell_angle_alpha 90.000000
_cell_angle_beta 35.340882
_cell_angle_gamma 90.000000
_cell_volume 1563.154963
_symmetry_space_group_name_H-M "C 2"
_symmetry_group_IT_number 5
_symmetry_cell_setting 'monoclinic'
loop_
_space_group_symop_operation_xyz
x,y,z
-x,y,-z
1/2+x,1/2+y,z
1/2-x,1/2+y,-z
loop_
_atom_site_type_symbol
_atom_site_label
_atom_site_fract_x
_atom_site_fract_y
_atom_site_fract_z
Si Si1 0.261850 0.187040 0.349911
Si Si2 0.154666 0.643676 0.160660
Si Si3 0.685138 0.431923 0.807667
Si Si4 0.554035 0.128543 0.346473
Si Si5 0.707979 0.940003 0.905197
Si Si6 0.280404 0.095179 0.201819
Si Si7 0.908740 0.928697 0.652332
Si Si8 0.083544 0.426607 0.528186
O O1 0.466773 0.224848 0.251706
O O2 0.347544 0.182520 0.377908
O O3 0.052647 0.289941 0.409985
O O4 0.212041 0.027417 0.348847
O O5 0.261771 0.519977 0.159930
O O6 0.017532 0.583099 0.157120
O O7 0.320099 0.770930 0.097161
O O8 0.823864 0.511285 0.723198
O O9 0.430936 0.446136 0.868762
O O10 0.752528 0.265967 0.790853
O O11 0.694608 0.272279 0.310178
O O12 0.478226 0.058619 0.419050
O O13 0.726337 0.024052 0.848735
O O14 0.500000 0.993684 0.000000
O O15 0.110409 0.014465 0.290878
O O16 0.154387 0.910423 0.555822
O O17 0.000000 0.452950 0.500000
#
# Coordination Sequence:
#
# PCOD9126744 Si02
#       8
#     4   4   4   4   4   4   4   4
#     4  10  22  45  62  86 123 162 211 261 303 355
#     4   9  21  44  68  92 121 170 210 254 308 368
#     4  10  23  41  69  93 124 166 208 256 306 371
#     4  11  23  42  61  89 122 164 210 254 307 361
#     4  11  24  41  66  97 130 161 198 253 313 377
#     4  10  22  42  63  94 129 159 211 255 310 368
#     4  11  23  39  65  88 117 168 205 258 307 359
#     4  12  24  39  58  87 128 163 204 259 309 353
#
# _framework density 20.471419000000001
#
# number of rings (size 3 to 8) (size 9 to 14) (size 15 to 20)
#    0.000    1.500    1.250    4.500    1.750    6.000 
#    4.500    0.625    0.000    0.000    0.000    0.000 
#    0.000    0.000    0.000    0.000    0.000    0.000 
#
# Total GULP energy -89355.574279 kJ/mol
# GULP energy per Si atom -5584.723392 kJ/mol
# Density = 2.042483 g / cm^3
# Si number density = 20.471419 Si / 1000 Ang^3
#
#
#
# Elastic Constant Matrix: (Units=GPa)
#
#
# Indices 1 2 3 4 5 6 
#
# 1 59.4819 36.9562 16.2590 -0.0001 5.6649 0.0000
# 2 36.9562 135.2125 46.6610 -0.0001 5.3156 0.0000
# 3 16.2590 46.6610 72.6249 -0.0003 -0.4306 0.0000
# 4 -0.0001 -0.0001 -0.0003 14.1735 0.0000 6.5999
# 5 5.6649 5.3156 -0.4306 0.0000 15.3188 0.0000
# 6 0.0000 0.0000 0.0000 6.5999 0.0000 34.9589
#
#
#
# Elastic Compliance Matrix: (Units=1/GPa)
#
#
# Indices 1 2 3 4 5 6 
#
# 1 0.020876 -0.004937 -0.001537 0.000000 -0.006050 0.000000
# 2 -0.004937 0.010859 -0.005884 0.000000 -0.002107 0.000000
# 3 -0.001537 -0.005884 0.017912 0.000000 0.003114 0.000000
# 4 0.000000 0.000000 0.000000 0.077354 0.000000 -0.014604
# 5 -0.006050 -0.002107 0.003114 0.000000 0.068335 0.000000
# 6 0.000000 0.000000 0.000000 -0.014604 0.000000 0.031362
#
#
# Mechanical properties :
#
#
# Convention : Reuss Voigt Hill
#
# Bulk Modulus (GPa) = 40.11239 51.89687 46.00463
# Shear Modulus (GPa) = 19.25113 24.05311 21.65212
#
# Velocity S-wave (km/s) = 3.06991 3.43149 3.25572
# Velocity P-wave (km/s) = 5.67474 6.41140 6.05428
#
# Compressibility (1/GPa) = 0.02492995
#
# Stress axis : x y z
#
# Youngs Moduli (GPa) = 47.90226 92.09353 55.82789
#
# Poissons Ratio (x) = 0.45471 0.08582
# Poissons Ratio (y) = 0.23652 0.32847
# Poissons Ratio (z) = 0.07364 0.54185
#
# Static dielectric constant tensor:
#      x y z
#    x 1.765000 0.000000 -0.038220 
#    y 0.000000 1.743400 0.000000 
#    z -0.038220 0.000000 1.763920 
# 
# From -- ./inp_files/71746.got.cif
#   From: 2010.05.17/outbox.cif.g08.bks.cpg/sg5_36_cif.got.tgz:71746.got - 2010.06.03 18:56:24.
