data_PCOD9126450
_publ_section_title
;
Structure prediction by ZEFSAII (Michael W. Deem and Ramdas Pophale) SiO2 
 PCOD9126450
Probable space group: C 2
;
_chemical_formula_sum "Si O2"
_cell_formula_units_Z 20
_cell_length_a 9.786024
_cell_length_b 12.752714
_cell_length_c 10.969700
_cell_angle_alpha 90.000000
_cell_angle_beta 140.777836
_cell_angle_gamma 90.000000
_cell_volume 865.658840
_symmetry_space_group_name_H-M "C 2"
_symmetry_group_IT_number 5
_symmetry_cell_setting 'monoclinic'
loop_
_space_group_symop_operation_xyz
x,y,z
-x,y,-z
1/2+x,1/2+y,z
1/2-x,1/2+y,-z
loop_
_atom_site_type_symbol
_atom_site_label
_atom_site_fract_x
_atom_site_fract_y
_atom_site_fract_z
Si Si1 0.310975 0.820210 0.969657
Si Si2 0.572371 0.699520 0.723936
Si Si3 0.565478 0.211420 0.404534
Si Si4 0.000000 0.361440 0.500000
Si Si5 0.053319 0.482194 0.293627
Si Si6 0.500000 0.511259 0.500000
O O1 0.080850 0.806278 0.746626
O O2 0.500000 0.807477 0.000000
O O3 0.320720 0.726073 0.075245
O O4 0.367182 0.924398 0.086806
O O5 0.658310 0.780028 0.679690
O O6 0.568294 0.586238 0.660912
O O7 0.320993 0.728802 0.572228
O O8 0.500000 0.193009 0.500000
O O9 0.525672 0.105764 0.297442
O O10 0.925680 0.435128 0.556918
O O11 0.278336 0.456994 0.381956
#
# Coordination Sequence:
#
# PCOD9126450 Si02
#       6
#     4   4   4   2   4   2
#     4  11  23  38  63 101 135 172 221 280 328 398
#     4   9  20  40  64  91 133 175 220 273 337 390
#     4  11  21  41  68  95 131 181 221 270 332 392
#     4   9  18  38  62  93 132 170 212 277 330 387
#     4  10  22  40  67 102 135 173 230 272 331 400
#     4   9  20  40  70  95 130 182 220 281 330 393
#
# _framework density 23.103788999999999
#
# number of rings (size 3 to 8) (size 9 to 14) (size 15 to 20)
#    0.000    2.000    3.000    0.000    0.000    4.800 
#    0.000   21.000    0.000    0.000    0.000    0.000 
#    0.000    0.000    0.000    0.000    0.000    0.000 
#
# Total GULP energy -55847.988906 kJ/mol
# GULP energy per Si atom -5584.798891 kJ/mol
# Density = 2.305120 g / cm^3
# Si number density = 23.103789 Si / 1000 Ang^3
#
#
#
# Elastic Constant Matrix: (Units=GPa)
#
#
# Indices 1 2 3 4 5 6 
#
# 1 111.1541 17.7472 37.5644 0.0005 -11.4871 0.0002
# 2 17.7472 79.8310 34.2134 0.0002 2.4831 0.0002
# 3 37.5644 34.2134 114.6851 0.0009 -1.0831 0.0008
# 4 0.0005 0.0002 0.0009 42.8663 0.0007 -7.4193
# 5 -11.4871 2.4831 -1.0831 0.0007 33.7651 0.0003
# 6 0.0002 0.0002 0.0008 -7.4193 0.0003 31.0021
#
#
#
# Elastic Compliance Matrix: (Units=1/GPa)
#
#
# Indices 1 2 3 4 5 6 
#
# 1 0.010596 -0.001140 -0.003097 0.000000 0.003589 0.000000
# 2 -0.001140 0.014534 -0.003977 0.000000 -0.001584 0.000000
# 3 -0.003097 -0.003977 0.010916 0.000000 -0.000411 0.000000
# 4 0.000000 0.000000 0.000000 0.024336 -0.000001 0.005824
# 5 0.003589 -0.001584 -0.000411 -0.000001 0.030941 0.000000
# 6 0.000000 0.000000 0.000000 0.005824 0.000000 0.033650
#
#
# Mechanical properties :
#
#
# Convention : Reuss Voigt Hill
#
# Bulk Modulus (GPa) = 50.97325 53.85779 52.41552
# Shear Modulus (GPa) = 33.79734 35.93636 34.86685
#
# Velocity S-wave (km/s) = 3.82887 3.94817 3.88898
# Velocity P-wave (km/s) = 6.45427 6.64424 6.54995
#
# Compressibility (1/GPa) = 0.01961813
#
# Stress axis : x y z
#
# Youngs Moduli (GPa) = 94.37528 68.80530 91.60478
#
# Poissons Ratio (x) = 0.07845 0.28367
# Poissons Ratio (y) = 0.10760 0.36434
# Poissons Ratio (z) = 0.29225 0.27366
#
# Static dielectric constant tensor:
#      x y z
#    x 1.885390 0.000000 -0.043550 
#    y 0.000000 1.930640 0.000000 
#    z -0.043550 0.000000 1.864120 
# 
# From -- ./inp_files/39983.got.cif
#   From: 2010.05.17/outbox.cif.g08.bks.cpg/sg5_20_cif.got.tgz:39983.got - 2010.06.03 18:56:24.
