data_PCOD9126176
_publ_section_title
;
Structure prediction by ZEFSAII (Michael W. Deem and Ramdas Pophale) SiO2 
 PCOD9126176
Probable space group: C 2
;
_chemical_formula_sum "Si O2"
_cell_formula_units_Z 22
_cell_length_a 19.263713
_cell_length_b 4.999024
_cell_length_c 32.763618
_cell_angle_alpha 90.000000
_cell_angle_beta 161.500867
_cell_angle_gamma 90.000000
_cell_volume 1001.091742
_symmetry_space_group_name_H-M "C 2"
_symmetry_group_IT_number 5
_symmetry_cell_setting 'monoclinic'
loop_
_space_group_symop_operation_xyz
x,y,z
-x,y,-z
1/2+x,1/2+y,z
1/2-x,1/2+y,-z
loop_
_atom_site_type_symbol
_atom_site_label
_atom_site_fract_x
_atom_site_fract_y
_atom_site_fract_z
Si Si1 0.966791 0.724300 0.244454
Si Si2 0.500000 0.475114 0.000000
Si Si3 0.027338 0.730476 0.928951
Si Si4 0.694867 0.731365 0.231818
Si Si5 0.378884 0.388689 0.580307
Si Si6 0.473197 0.741272 0.775940
O O1 0.711115 0.655452 0.108663
O O2 0.068618 0.453714 0.283052
O O3 0.060603 0.818856 0.339681
O O4 0.006108 0.952385 0.232996
O O5 0.540166 0.290399 0.061906
O O6 0.974465 0.433947 0.884624
O O7 0.887717 0.934156 0.823954
O O8 0.284476 0.795032 0.070305
O O9 0.691313 0.766023 0.278353
O O10 0.924485 0.799242 0.339301
O O11 0.325446 0.700324 0.545461
#
# Coordination Sequence:
#
# PCOD9126176 Si02
#       6
#     4   2   4   4   4   4
#     4  11  24  43  67  98 137 170 222 269 335 390
#     4  10  22  38  68 110 130 180 204 288 328 410
#     4  11  22  36  67 100 140 170 210 261 343 405
#     4  12  24  43  65  96 136 177 220 267 331 393
#     4  12  27  47  68  93 127 179 233 274 313 385
#     4  11  24  40  66 102 137 169 211 271 341 406
#
# _framework density 21.976008
#
# number of rings (size 3 to 8) (size 9 to 14) (size 15 to 20)
#    0.000    0.727    1.818    6.545    5.091    1.455 
#    0.000    5.455    0.000    0.000    0.000    0.000 
#    0.000    0.000    0.000    0.000    0.000    0.000 
#
# Total GULP energy -61619.380434 kJ/mol
# GULP energy per Si atom -5601.761858 kJ/mol
# Density = 2.192599 g / cm^3
# Si number density = 21.976008 Si / 1000 Ang^3
#
#
#
# Elastic Constant Matrix: (Units=GPa)
#
#
# Indices 1 2 3 4 5 6 
#
# 1 122.3361 6.9357 20.7828 0.1578 -6.7082 -0.0375
# 2 6.9357 64.0444 -10.6346 0.1426 -6.3210 -0.1414
# 3 20.7828 -10.6346 21.9788 0.1252 -5.1660 -0.0243
# 4 0.1578 0.1426 0.1252 20.7131 0.0159 -15.8965
# 5 -6.7082 -6.3210 -5.1660 0.0159 23.0264 0.0192
# 6 -0.0375 -0.1414 -0.0243 -15.8965 0.0192 33.8201
#
#
#
# Elastic Compliance Matrix: (Units=1/GPa)
#
#
# Indices 1 2 3 4 5 6 
#
# 1 0.010229 -0.003005 -0.011212 0.000006 -0.000360 -0.000006
# 2 -0.003005 0.018956 0.013758 -0.000209 0.007415 -0.000017
# 3 -0.011212 0.013758 0.066380 -0.000560 0.015404 -0.000179
# 4 0.000006 -0.000209 -0.000560 0.075528 -0.000263 0.035499
# 5 -0.000360 0.007415 0.015404 -0.000263 0.048815 -0.000110
# 6 -0.000006 -0.000017 -0.000179 0.035499 -0.000110 0.046254
#
#
# Mechanical properties :
#
#
# Convention : Reuss Voigt Hill
#
# Bulk Modulus (GPa) = 10.56542 26.94744 18.75643
# Shear Modulus (GPa) = 16.74315 28.26362 22.50339
#
# Velocity S-wave (km/s) = 2.76322 3.59013 3.20347
# Velocity P-wave (km/s) = 3.87281 5.42902 4.71555
#
# Compressibility (1/GPa) = 0.09464840
#
# Stress axis : x y z
#
# Youngs Moduli (GPa) = 97.75694 52.75277 15.06474
#
# Poissons Ratio (x) = 0.15852 0.16890
# Poissons Ratio (y) = 0.29376 -0.20726
# Poissons Ratio (z) = 1.09600 -0.72576
#
# Static dielectric constant tensor:
#      x y z
#    x 1.802280 -0.000010 0.009600 
#    y -0.000010 1.775630 0.000020 
#    z 0.009600 0.000020 1.796390 
# 
# From -- ./inp_files/43717.got.cif
#   From: 2010.05.17/outbox.cif.g08.bks.cpg/sg5_22_cif.got.tgz:43717.got - 2010.06.03 18:56:24.
