data_PCOD9126569
_publ_section_title
;
Structure prediction by ZEFSAII (Michael W. Deem and Ramdas Pophale) SiO2 
 PCOD9126569
Probable space group: C 2
;
_chemical_formula_sum "Si O2"
_cell_formula_units_Z 20
_cell_length_a 10.824275
_cell_length_b 7.820164
_cell_length_c 9.333044
_cell_angle_alpha 90.000000
_cell_angle_beta 70.813858
_cell_angle_gamma 90.000000
_cell_volume 746.138876
_symmetry_space_group_name_H-M "C 2"
_symmetry_group_IT_number 5
_symmetry_cell_setting 'monoclinic'
loop_
_space_group_symop_operation_xyz
x,y,z
-x,y,-z
1/2+x,1/2+y,z
1/2-x,1/2+y,-z
loop_
_atom_site_type_symbol
_atom_site_label
_atom_site_fract_x
_atom_site_fract_y
_atom_site_fract_z
Si Si1 0.319954 0.151970 0.046048
Si Si2 0.484053 0.660695 0.754724
Si Si3 0.384856 0.998164 0.317473
Si Si4 0.797755 0.003016 0.158297
Si Si5 0.854864 0.871167 0.432125
O O1 0.356130 0.350181 0.039744
O O2 0.164481 0.150999 0.141127
O O3 0.389880 0.052313 0.147794
O O4 0.321242 0.081417 0.885018
O O5 0.519105 0.845094 0.678646
O O6 0.591532 0.638710 0.841321
O O7 0.526285 0.501861 0.638889
O O8 0.240254 0.920135 0.403591
O O9 0.394096 0.174156 0.403655
O O10 0.769091 0.911782 0.320613
#
# Coordination Sequence:
#
# PCOD9126569 Si02
#       5
#     4   4   4   4   4
#     4  11  22  40  66  88 123 166 205 246 308 366
#     4  10  22  41  63  86 128 157 205 251 301 359
#     4  11  20  41  65  88 125 163 198 255 307 356
#     4   9  21  39  59  91 121 156 201 256 296 353
#     4   9  20  38  63  90 126 157 199 259 302 354
#
# _framework density 26.804663000000001
#
# number of rings (size 3 to 8) (size 9 to 14) (size 15 to 20)
#    1.200    0.800    2.000    1.800    0.000    0.800 
#    7.200    0.000    8.800    0.000    0.000    0.000 
#    0.000    0.000    0.000    0.000    0.000    0.000 
#
# Total GULP energy -55963.013484 kJ/mol
# GULP energy per Si atom -5596.301348 kJ/mol
# Density = 2.674365 g / cm^3
# Si number density = 26.804663 Si / 1000 Ang^3
#
#
#
# Elastic Constant Matrix: (Units=GPa)
#
#
# Indices 1 2 3 4 5 6 
#
# 1 130.6099 28.2525 19.3625 0.0000 -0.3873 0.0000
# 2 28.2525 204.0000 35.3053 0.0000 -14.7979 0.0000
# 3 19.3625 35.3053 70.6069 0.0000 -3.0785 0.0000
# 4 0.0000 0.0000 0.0000 38.4808 0.0000 -1.7909
# 5 -0.3873 -14.7979 -3.0785 0.0000 57.3117 0.0000
# 6 0.0000 0.0000 0.0000 -1.7909 0.0000 13.9164
#
#
#
# Elastic Compliance Matrix: (Units=1/GPa)
#
#
# Indices 1 2 3 4 5 6 
#
# 1 0.008104 -0.000826 -0.001821 0.000000 -0.000256 0.000000
# 2 -0.000826 0.005541 -0.002488 0.000000 0.001291 0.000000
# 3 -0.001821 -0.002488 0.015915 0.000000 0.000200 0.000000
# 4 0.000000 0.000000 0.000000 0.026144 0.000000 0.003364
# 5 -0.000256 0.001291 0.000200 0.000000 0.017791 0.000000
# 6 0.000000 0.000000 0.000000 0.003364 0.000000 0.072290
#
#
# Mechanical properties :
#
#
# Convention : Reuss Voigt Hill
#
# Bulk Modulus (GPa) = 51.83692 63.45082 57.64387
# Shear Modulus (GPa) = 30.77244 43.42822 37.10033
#
# Velocity S-wave (km/s) = 3.39193 4.02951 3.72439
# Velocity P-wave (km/s) = 5.89245 6.73589 6.32824
#
# Compressibility (1/GPa) = 0.01929127
#
# Stress axis : x y z
#
# Youngs Moduli (GPa) = 123.39316 180.48807 62.83460
#
# Poissons Ratio (x) = 0.14906 0.11440
# Poissons Ratio (y) = 0.10191 0.15631
# Poissons Ratio (z) = 0.22465 0.44899
#
# Static dielectric constant tensor:
#      x y z
#    x 2.098830 0.000000 0.051050 
#    y 0.000000 2.055550 0.000000 
#    z 0.051050 0.000000 2.127970 
# 
# From -- ./inp_files/38042.got.cif
#   From: 2010.05.17/outbox.cif.g08.bks.cpg/sg5_20_cif.got.tgz:38042.got - 2010.06.03 18:56:24.
