data_PCOD9126111
_publ_section_title
;
Structure prediction by ZEFSAII (Michael W. Deem and Ramdas Pophale) SiO2 
 PCOD9126111
Probable space group: C 2
;
_chemical_formula_sum "Si O2"
_cell_formula_units_Z 26
_cell_length_a 19.143692
_cell_length_b 13.080554
_cell_length_c 6.533336
_cell_angle_alpha 90.000000
_cell_angle_beta 50.911102
_cell_angle_gamma 90.000000
_cell_volume 1269.822148
_symmetry_space_group_name_H-M "C 2"
_symmetry_group_IT_number 5
_symmetry_cell_setting 'monoclinic'
loop_
_space_group_symop_operation_xyz
x,y,z
-x,y,-z
1/2+x,1/2+y,z
1/2-x,1/2+y,-z
loop_
_atom_site_type_symbol
_atom_site_label
_atom_site_fract_x
_atom_site_fract_y
_atom_site_fract_z
Si Si1 0.587993 0.733840 0.196273
Si Si2 0.692760 0.049276 0.409833
Si Si3 0.162194 0.973559 0.596059
Si Si4 0.783780 0.756522 0.395869
Si Si5 0.000000 0.100315 0.000000
Si Si6 0.256367 0.118052 0.095316
Si Si7 0.393444 0.869943 0.178826
O O1 0.500000 0.749670 0.500000
O O2 0.553665 0.667315 0.065717
O O3 0.668527 0.672568 0.156790
O O4 0.622470 0.840428 0.031065
O O5 0.699443 0.162399 0.486428
O O6 0.791013 0.001497 0.273618
O O7 0.628860 0.976362 0.663995
O O8 0.682200 0.064699 0.189007
O O9 0.164366 0.852237 0.603574
O O10 0.222811 0.029965 0.313660
O O11 0.067443 0.027029 0.755541
O O12 0.804321 0.707993 0.136681
O O13 0.678564 0.792377 0.582317
O O14 0.500000 0.856275 0.000000
#
# Coordination Sequence:
#
# PCOD9126111 Si02
#       7
#     4   4   4   4   2   4   4
#     4  12  21  36  65 100 135 165 219 282 334 387
#     4  10  22  41  61  91 131 171 215 276 326 394
#     4  10  22  38  62  95 130 169 218 275 328 385
#     4  10  22  42  61  91 131 176 219 276 324 394
#     4  12  20  38  60 100 140 162 214 292 328 374
#     4  11  20  39  67  93 125 176 226 263 331 405
#     4  11  22  41  63  96 132 170 215 277 338 374
#
# _framework density 20.475308999999999
#
# number of rings (size 3 to 8) (size 9 to 14) (size 15 to 20)
#    0.000    1.231    5.385    1.846    0.000    2.462 
#   15.231    0.000    0.000    0.000    0.000    0.000 
#    0.000    0.000    0.000    0.000    0.000    0.000 
#
# Total GULP energy -72398.630106 kJ/mol
# GULP energy per Si atom -5569.125393 kJ/mol
# Density = 2.042871 g / cm^3
# Si number density = 20.475309 Si / 1000 Ang^3
#
#
#
# Elastic Constant Matrix: (Units=GPa)
#
#
# Indices 1 2 3 4 5 6 
#
# 1 38.1610 17.5793 12.0100 0.0000 1.3715 0.0000
# 2 17.5793 156.1059 56.5002 0.0000 1.1624 0.0000
# 3 12.0100 56.5002 93.4841 0.0000 5.5735 0.0000
# 4 0.0000 0.0000 0.0000 26.8979 0.0000 0.8200
# 5 1.3715 1.1624 5.5735 0.0000 27.0745 0.0000
# 6 0.0000 0.0000 0.0000 0.8200 0.0000 19.4855
#
#
#
# Elastic Compliance Matrix: (Units=1/GPa)
#
#
# Indices 1 2 3 4 5 6 
#
# 1 0.027997 -0.002385 -0.002103 0.000000 -0.000883 0.000000
# 2 -0.002385 0.008415 -0.004824 0.000000 0.000753 0.000000
# 3 -0.002103 -0.004824 0.014036 0.000000 -0.002576 0.000000
# 4 0.000000 0.000000 0.000000 0.037225 0.000000 -0.001567
# 5 -0.000883 0.000753 -0.002576 0.000000 0.037478 0.000000
# 6 0.000000 0.000000 0.000000 -0.001567 0.000000 0.051386
#
#
# Mechanical properties :
#
#
# Convention : Reuss Voigt Hill
#
# Bulk Modulus (GPa) = 31.42263 51.10334 41.26298
# Shear Modulus (GPa) = 24.29894 28.13566 26.21730
#
# Velocity S-wave (km/s) = 3.44865 3.71094 3.58220
# Velocity P-wave (km/s) = 5.58905 6.58591 6.10785
#
# Compressibility (1/GPa) = 0.03182420
#
# Stress axis : x y z
#
# Youngs Moduli (GPa) = 35.71812 118.83545 71.24306
#
# Poissons Ratio (x) = 0.28345 0.14980
# Poissons Ratio (y) = 0.08519 0.34370
# Poissons Ratio (z) = 0.07510 0.57330
#
# Static dielectric constant tensor:
#      x y z
#    x 1.748320 0.000000 0.012990 
#    y 0.000000 1.817830 0.000000 
#    z 0.012990 0.000000 1.800770 
# 
# From -- ./inp_files/9515.got.cif
#   From: 2010.05.17/outbox.cif.g08.bks.cpg/sg5_5_cif.got.tgz:9515.got - 2010.06.03 18:56:24.
