data_PCOD9126083
_publ_section_title
;
Structure prediction by ZEFSAII (Michael W. Deem and Ramdas Pophale) SiO2 
 PCOD9126083
Probable space group: C 2
;
_chemical_formula_sum "Si O2"
_cell_formula_units_Z 24
_cell_length_a 11.106139
_cell_length_b 7.914538
_cell_length_c 19.625532
_cell_angle_alpha 90.000000
_cell_angle_beta 133.693723
_cell_angle_gamma 90.000000
_cell_volume 1247.309229
_symmetry_space_group_name_H-M "C 2"
_symmetry_group_IT_number 5
_symmetry_cell_setting 'monoclinic'
loop_
_space_group_symop_operation_xyz
x,y,z
-x,y,-z
1/2+x,1/2+y,z
1/2-x,1/2+y,-z
loop_
_atom_site_type_symbol
_atom_site_label
_atom_site_fract_x
_atom_site_fract_y
_atom_site_fract_z
Si Si1 0.184962 0.919950 0.042597
Si Si2 0.820005 0.857155 0.446464
Si Si3 0.172390 0.250720 0.108508
Si Si4 0.705545 0.656251 0.276245
Si Si5 0.547633 0.000917 0.445152
Si Si6 0.644258 0.558337 0.873833
O O1 0.290139 0.749969 0.094004
O O2 0.260962 0.085421 0.109998
O O3 0.000000 0.888753 0.000000
O O4 0.159073 0.972208 0.954086
O O5 0.683512 0.929161 0.445582
O O6 0.875249 0.679776 0.501568
O O7 0.000000 0.945753 0.500000
O O8 0.737598 0.806574 0.342169
O O9 0.161359 0.217121 0.183694
O O10 0.247151 0.434715 0.129168
O O11 0.000000 0.252633 0.000000
O O12 0.539534 0.555397 0.230021
O O13 0.870882 0.541849 0.340930
O O14 0.500000 0.913885 0.500000
#
# Coordination Sequence:
#
# PCOD9126083 Si02
#       6
#     4   4   4   4   4   4
#     4  11  22  37  59  82 118 170 216 256 312 361
#     4   9  21  41  67  91 125 162 202 256 321 382
#     4  11  22  42  58  85 131 168 212 263 309 364
#     4  10  22  38  60  92 126 159 205 270 309 370
#     4   9  21  42  66  91 127 158 201 262 319 379
#     4  12  22  38  61  85 121 171 212 259 316 369
#
# _framework density 19.241420000000002
#
# number of rings (size 3 to 8) (size 9 to 14) (size 15 to 20)
#    0.000    2.000    5.000    0.500    2.333    6.000 
#    0.000    0.000    0.000    0.000    0.000    0.000 
#    0.000    0.000    0.000    0.000    0.000    0.000 
#
# Total GULP energy -66816.802052 kJ/mol
# GULP energy per Si atom -5568.066838 kJ/mol
# Density = 1.919763 g / cm^3
# Si number density = 19.241420 Si / 1000 Ang^3
#
#
#
# Elastic Constant Matrix: (Units=GPa)
#
#
# Indices 1 2 3 4 5 6 
#
# 1 104.0360 24.3218 44.4721 0.0000 8.6969 0.0000
# 2 24.3218 76.8402 26.0385 0.0000 14.5904 0.0000
# 3 44.4721 26.0385 117.4634 0.0000 4.9471 0.0000
# 4 0.0000 0.0000 0.0000 -13.6370 0.0000 17.4956
# 5 8.6969 14.5904 4.9471 0.0000 23.0790 0.0000
# 6 0.0000 0.0000 0.0000 17.4956 0.0000 19.4200
#
#
#
# Elastic Compliance Matrix: (Units=1/GPa)
#
#
# Indices 1 2 3 4 5 6 
#
# 1 0.011985 -0.001982 -0.003997 0.000000 -0.002406 0.000000
# 2 -0.001982 0.016174 -0.002458 0.000000 -0.008951 0.000000
# 3 -0.003997 -0.002458 0.010538 0.000000 0.000801 0.000000
# 4 0.000000 0.000000 0.000000 -0.034015 0.000000 0.030644
# 5 -0.002406 -0.008951 0.000801 0.000000 0.049723 0.000000
# 6 0.000000 0.000000 0.000000 0.030644 0.000000 0.023886
#
#
# Mechanical properties :
#
#
# Convention : Reuss Voigt Hill
#
# Bulk Modulus (GPa) = 45.82361 54.22272 50.02316
# Shear Modulus (GPa) = 48.80942 19.33956 34.07449
#
# Velocity S-wave (km/s) = 5.04202 3.17377 4.21276
# Velocity P-wave (km/s) = 7.60018 6.45537 7.05105
#
# Compressibility (1/GPa) = 0.02182281
#
# Stress axis : x y z
#
# Youngs Moduli (GPa) = 83.43637 61.82760 94.89815
#
# Poissons Ratio (x) = 0.12256 0.37930
# Poissons Ratio (y) = 0.16539 0.23325
# Poissons Ratio (z) = 0.33348 0.15196
#
# Static dielectric constant tensor:
#      x y z
#    x 1.909750 0.000000 -0.038290 
#    y 0.000000 1.676350 0.000000 
#    z -0.038290 0.000000 1.679260 
# 
# From -- ./inp_files/51986.got.cif
#   From: 2010.05.17/outbox.cif.g08.bks.cpg/sg5_26_cif.got.tgz:51986.got - 2010.06.03 18:56:24.
