data_PCOD9126335
_publ_section_title
;
Structure prediction by ZEFSAII (Michael W. Deem and Ramdas Pophale) SiO2 
 PCOD9126335
Probable space group: C 2
;
_chemical_formula_sum "Si O2"
_cell_formula_units_Z 26
_cell_length_a 11.068535
_cell_length_b 8.580932
_cell_length_c 15.160218
_cell_angle_alpha 90.000000
_cell_angle_beta 123.936223
_cell_angle_gamma 90.000000
_cell_volume 1194.620446
_symmetry_space_group_name_H-M "C 2"
_symmetry_group_IT_number 5
_symmetry_cell_setting 'monoclinic'
loop_
_space_group_symop_operation_xyz
x,y,z
-x,y,-z
1/2+x,1/2+y,z
1/2-x,1/2+y,-z
loop_
_atom_site_type_symbol
_atom_site_label
_atom_site_fract_x
_atom_site_fract_y
_atom_site_fract_z
Si Si1 0.213589 0.021290 0.700455
Si Si2 0.662286 0.684862 0.040962
Si Si3 0.000000 0.219375 0.500000
Si Si4 0.110660 0.642367 0.386214
Si Si5 0.667093 0.055590 0.057663
Si Si6 0.774084 0.951956 0.590867
Si Si7 0.293007 0.152052 0.282571
O O1 0.345506 0.081815 0.691926
O O2 0.249194 0.068738 0.815011
O O3 0.069856 0.106730 0.603586
O O4 0.215011 0.833435 0.693242
O O5 0.755771 0.642223 0.164984
O O6 0.653901 0.871731 0.032056
O O7 0.500000 0.627003 0.000000
O O8 0.738837 0.626989 0.983345
O O9 0.864852 0.334925 0.463606
O O10 0.101430 0.829268 0.380594
O O11 0.233668 0.577856 0.501418
O O12 0.956282 0.588797 0.359029
O O13 0.500000 0.116283 0.000000
O O14 0.801293 0.042991 0.692388
#
# Coordination Sequence:
#
# PCOD9126335 Si02
#       7
#     4   4   2   4   4   4   4
#     4  10  24  40  62  96 129 168 219 266 331 392
#     4  10  24  44  67 100 130 170 226 274 338 391
#     4  10  22  40  60  94 130 170 216 264 326 394
#     4  11  23  39  60  93 126 173 213 265 324 392
#     4  10  22  45  69  97 131 173 219 282 333 399
#     4  11  23  39  62  93 129 169 221 259 325 393
#     4  11  23  42  65  91 132 172 213 277 324 398
#
# _framework density 21.764234999999999
#
# number of rings (size 3 to 8) (size 9 to 14) (size 15 to 20)
#    0.000    1.538    1.538    1.846    6.462    5.538 
#    8.308    0.000    0.000    0.000    0.000    0.000 
#    0.000    0.000    0.000    0.000    0.000    0.000 
#
# Total GULP energy -72611.770173 kJ/mol
# GULP energy per Si atom -5585.520783 kJ/mol
# Density = 2.171470 g / cm^3
# Si number density = 21.764235 Si / 1000 Ang^3
#
#
#
# Elastic Constant Matrix: (Units=GPa)
#
#
# Indices 1 2 3 4 5 6 
#
# 1 78.9140 22.5741 37.1955 0.0000 -13.2722 0.0000
# 2 22.5741 56.5707 55.7782 0.0000 -21.1106 0.0000
# 3 37.1955 55.7782 94.0353 0.0000 -21.0843 0.0000
# 4 0.0000 0.0000 0.0000 27.3672 0.0000 -11.1568
# 5 -13.2722 -21.1106 -21.0843 0.0000 40.1679 0.0000
# 6 0.0000 0.0000 0.0000 -11.1568 0.0000 42.1475
#
#
#
# Elastic Compliance Matrix: (Units=1/GPa)
#
#
# Indices 1 2 3 4 5 6 
#
# 1 0.015750 0.000505 -0.006011 0.000000 0.002315 0.000000
# 2 0.000505 0.046753 -0.025371 0.000000 0.011421 0.000000
# 3 -0.006011 -0.025371 0.027911 0.000000 -0.000670 0.000000
# 4 0.000000 0.000000 0.000000 0.040960 0.000000 0.010843
# 5 0.002315 0.011421 -0.000670 0.000000 0.031311 0.000000
# 6 0.000000 0.000000 0.000000 0.010843 0.000000 0.026596
#
#
# Mechanical properties :
#
#
# Convention : Reuss Voigt Hill
#
# Bulk Modulus (GPa) = 34.89084 51.17952 43.03518
# Shear Modulus (GPa) = 19.18728 29.53467 24.36097
#
# Velocity S-wave (km/s) = 2.97239 3.68778 3.34924
# Velocity P-wave (km/s) = 5.27695 6.45751 5.89685
#
# Compressibility (1/GPa) = 0.02866082
#
# Stress axis : x y z
#
# Youngs Moduli (GPa) = 63.49288 21.38879 35.82811
#
# Poissons Ratio (x) = -0.01081 0.21535
# Poissons Ratio (y) = -0.03208 0.90901
# Poissons Ratio (z) = 0.38163 0.54267
#
# Static dielectric constant tensor:
#      x y z
#    x 1.840130 0.000000 0.028440 
#    y 0.000000 1.783590 0.000000 
#    z 0.028440 0.000000 1.790320 
# 
# From -- ./inp_files/52343.got.cif
#   From: 2010.05.17/outbox.cif.g08.bks.cpg/sg5_27_cif.got.tgz:52343.got - 2010.06.03 18:56:24.
