data_PCOD9126584
_publ_section_title
;
Structure prediction by ZEFSAII (Michael W. Deem and Ramdas Pophale) SiO2 
 PCOD9126584
Probable space group: C 2
;
_chemical_formula_sum "Si O2"
_cell_formula_units_Z 22
_cell_length_a 13.612171
_cell_length_b 5.445502
_cell_length_c 18.085229
_cell_angle_alpha 90.000000
_cell_angle_beta 141.627311
_cell_angle_gamma 90.000000
_cell_volume 832.190883
_symmetry_space_group_name_H-M "C 2"
_symmetry_group_IT_number 5
_symmetry_cell_setting 'monoclinic'
loop_
_space_group_symop_operation_xyz
x,y,z
-x,y,-z
1/2+x,1/2+y,z
1/2-x,1/2+y,-z
loop_
_atom_site_type_symbol
_atom_site_label
_atom_site_fract_x
_atom_site_fract_y
_atom_site_fract_z
Si Si1 0.742615 0.632510 0.304002
Si Si2 0.085165 0.521331 0.730932
Si Si3 0.967530 0.512283 0.865498
Si Si4 0.299142 0.238222 0.620003
Si Si5 0.500000 0.515308 0.500000
Si Si6 0.260019 0.543287 0.129802
O O1 0.834950 0.463055 0.300985
O O2 0.710301 0.523446 0.365175
O O3 0.871187 0.849069 0.383522
O O4 0.580054 0.727265 0.173851
O O5 0.120590 0.274016 0.797702
O O6 0.903209 0.609376 0.619369
O O7 0.167493 0.771436 0.812385
O O8 0.898260 0.643848 0.751857
O O9 0.862464 0.584275 0.874479
O O10 0.149636 0.548140 0.992224
O O11 0.116957 0.157153 0.514157
#
# Coordination Sequence:
#
# PCOD9126584 Si02
#       6
#     4   4   4   4   2   4
#     4  10  22  46  66  98 136 181 230 290 343 422
#     4  11  25  41  69 102 139 173 234 279 343 414
#     4   9  21  38  69  92 141 182 222 267 350 398
#     4  11  23  43  69  94 133 182 224 293 343 411
#     4  10  24  46  66  94 126 178 234 282 366 402
#     4  10  22  41  64 104 137 183 222 275 335 421
#
# _framework density 26.436242
#
# number of rings (size 3 to 8) (size 9 to 14) (size 15 to 20)
#    0.000    1.818    1.818    0.545    7.636    2.909 
#    6.545    0.000    0.000    0.000    0.000    0.000 
#    0.000    0.000    0.000    0.000    0.000    0.000 
#
# Total GULP energy -61437.276512 kJ/mol
# GULP energy per Si atom -5585.206956 kJ/mol
# Density = 2.637607 g / cm^3
# Si number density = 26.436242 Si / 1000 Ang^3
#
#
#
# Elastic Constant Matrix: (Units=GPa)
#
#
# Indices 1 2 3 4 5 6 
#
# 1 97.0862 19.0782 28.2802 0.0000 18.7038 0.0000
# 2 19.0782 103.3603 57.2130 0.0003 19.7867 0.0002
# 3 28.2802 57.2130 128.7826 0.0000 11.7023 0.0000
# 4 0.0000 0.0003 0.0000 24.2468 0.0000 -0.6119
# 5 18.7038 19.7867 11.7023 0.0000 47.0365 0.0000
# 6 0.0000 0.0002 0.0000 -0.6119 0.0000 34.7015
#
#
#
# Elastic Compliance Matrix: (Units=1/GPa)
#
#
# Indices 1 2 3 4 5 6 
#
# 1 0.011739 -0.000223 -0.002111 0.000000 -0.004049 0.000000
# 2 -0.000223 0.013644 -0.005626 0.000000 -0.004251 0.000000
# 3 -0.002111 -0.005626 0.010678 0.000000 0.000549 0.000000
# 4 0.000000 0.000000 0.000000 0.041261 0.000000 0.000728
# 5 -0.004049 -0.004251 0.000549 0.000000 0.024522 0.000000
# 6 0.000000 0.000000 0.000000 0.000728 0.000000 0.028830
#
#
# Mechanical properties :
#
#
# Convention : Reuss Voigt Hill
#
# Bulk Modulus (GPa) = 49.65087 59.81909 54.73498
# Shear Modulus (GPa) = 32.61411 36.17414 34.39412
#
# Velocity S-wave (km/s) = 3.51620 3.70314 3.61088
# Velocity P-wave (km/s) = 5.94197 6.40009 6.17528
#
# Compressibility (1/GPa) = 0.02014063
#
# Stress axis : x y z
#
# Youngs Moduli (GPa) = 85.18726 73.29109 93.64953
#
# Poissons Ratio (x) = 0.01637 0.19766
# Poissons Ratio (y) = 0.01903 0.52690
# Poissons Ratio (z) = 0.17980 0.41235
#
# Static dielectric constant tensor:
#      x y z
#    x 2.160830 0.000000 -0.019330 
#    y 0.000000 2.230320 0.000000 
#    z -0.019330 0.000000 2.049600 
# 
# From -- ./inp_files/41089.got.cif
#   From: 2010.05.17/outbox.cif.g08.bks.cpg/sg5_21_cif.got.tgz:41089.got - 2010.06.03 18:56:24.
