data_PCOD9126675
_publ_section_title
;
Structure prediction by ZEFSAII (Michael W. Deem and Ramdas Pophale) SiO2 
 PCOD9126675
Probable space group: C 2
;
_chemical_formula_sum "Si O2"
_cell_formula_units_Z 24
_cell_length_a 17.724936
_cell_length_b 8.538479
_cell_length_c 11.981552
_cell_angle_alpha 90.000000
_cell_angle_beta 29.677127
_cell_angle_gamma 90.000000
_cell_volume 897.804132
_symmetry_space_group_name_H-M "C 2"
_symmetry_group_IT_number 5
_symmetry_cell_setting 'monoclinic'
loop_
_space_group_symop_operation_xyz
x,y,z
-x,y,-z
1/2+x,1/2+y,z
1/2-x,1/2+y,-z
loop_
_atom_site_type_symbol
_atom_site_label
_atom_site_fract_x
_atom_site_fract_y
_atom_site_fract_z
Si Si1 0.032193 0.510100 0.066068
Si Si2 0.417299 0.516483 0.274197
Si Si3 0.751613 0.749956 0.386212
Si Si4 0.857566 0.920821 0.606614
Si Si5 0.058225 0.350366 0.266867
Si Si6 0.246157 0.117356 0.874716
O O1 0.014384 0.446244 0.211191
O O2 0.906575 0.643637 0.203990
O O3 0.214204 0.532567 0.821017
O O4 0.000000 0.398677 0.000000
O O5 0.341183 0.684352 0.387882
O O6 0.324324 0.417929 0.306885
O O7 0.393723 0.439216 0.429102
O O8 0.594109 0.534448 0.026602
O O9 0.603961 0.771375 0.492673
O O10 0.811365 0.745949 0.705510
O O11 0.000000 0.962213 0.500000
O O12 0.137190 0.482281 0.240327
O O13 0.181351 0.220645 0.064574
#
# Coordination Sequence:
#
# PCOD9126675 Si02
#       6
#     4   4   4   4   4   4
#     4  11  21  41  66  99 134 181 239 289 350 435
#     4  11  23  44  72 104 141 192 237 295 374 425
#     4  11  22  40  72  99 144 193 228 301 365 431
#     4  11  24  44  72 102 138 188 242 293 356 438
#     4  10  22  41  69 103 138 188 239 288 372 425
#     4  10  24  43  73 107 140 194 239 299 362 438
#
# _framework density 26.731887
#
# number of rings (size 3 to 8) (size 9 to 14) (size 15 to 20)
#    0.000    1.333    3.333    2.000    4.667    0.000 
#    0.000    3.333    0.000    0.000    0.000    0.000 
#    0.000    0.000    0.000    0.000    0.000    0.000 
#
# Total GULP energy -66989.599234 kJ/mol
# GULP energy per Si atom -5582.466603 kJ/mol
# Density = 2.667104 g / cm^3
# Si number density = 26.731887 Si / 1000 Ang^3
#
#
#
# Elastic Constant Matrix: (Units=GPa)
#
#
# Indices 1 2 3 4 5 6 
#
# 1 56.7889 32.9219 75.0706 0.0000 -0.7386 0.0000
# 2 32.9219 110.0927 79.3663 0.0000 -16.3076 0.0000
# 3 75.0706 79.3663 198.2298 0.0000 -38.8544 0.0000
# 4 0.0000 0.0000 0.0000 74.3560 0.0000 -6.2728
# 5 -0.7386 -16.3076 -38.8544 0.0000 53.7358 0.0000
# 6 0.0000 0.0000 0.0000 -6.2728 0.0000 23.3860
#
#
#
# Elastic Compliance Matrix: (Units=1/GPa)
#
#
# Indices 1 2 3 4 5 6 
#
# 1 0.041663 -0.001646 -0.017599 0.000000 -0.012652 0.000000
# 2 -0.001646 0.012836 -0.004377 0.000000 0.000708 0.000000
# 3 -0.017599 -0.004377 0.015326 0.000000 0.009512 0.000000
# 4 0.000000 0.000000 0.000000 0.013760 0.000000 0.003691
# 5 -0.012652 0.000708 0.009512 0.000000 0.025528 0.000000
# 6 0.000000 0.000000 0.000000 0.003691 0.000000 0.043751
#
#
# Mechanical properties :
#
#
# Convention : Reuss Voigt Hill
#
# Bulk Modulus (GPa) = 44.28416 82.20325 63.24370
# Shear Modulus (GPa) = 24.08072 42.14571 33.11321
#
# Velocity S-wave (km/s) = 3.00463 3.97496 3.52336
# Velocity P-wave (km/s) = 5.35155 7.20311 6.34523
#
# Compressibility (1/GPa) = 0.02258144
#
# Stress axis : x y z
#
# Youngs Moduli (GPa) = 24.00203 77.90752 65.24721
#
# Poissons Ratio (x) = 0.12822 1.14829
# Poissons Ratio (y) = 0.03950 0.28560
# Poissons Ratio (z) = 0.42241 0.34101
#
# Static dielectric constant tensor:
#      x y z
#    x 2.218860 0.000000 0.130540 
#    y 0.000000 2.320960 0.000000 
#    z 0.130540 0.000000 2.242660 
# 
# From -- ./inp_files/55703.got.cif
#   From: 2010.05.17/outbox.cif.g08.bks.cpg/sg5_28_cif.got.tgz:55703.got - 2010.06.03 18:56:24.
