data_PCOD9126922
_publ_section_title
;
Structure prediction by ZEFSAII (Michael W. Deem and Ramdas Pophale) SiO2 
 PCOD9126922
Probable space group: C 2
;
_chemical_formula_sum "Si O2"
_cell_formula_units_Z 20
_cell_length_a 9.033914
_cell_length_b 16.857855
_cell_length_c 7.007127
_cell_angle_alpha 90.000000
_cell_angle_beta 57.423702
_cell_angle_gamma 90.000000
_cell_volume 899.245905
_symmetry_space_group_name_H-M "C 2"
_symmetry_group_IT_number 5
_symmetry_cell_setting 'monoclinic'
loop_
_space_group_symop_operation_xyz
x,y,z
-x,y,-z
1/2+x,1/2+y,z
1/2-x,1/2+y,-z
loop_
_atom_site_type_symbol
_atom_site_label
_atom_site_fract_x
_atom_site_fract_y
_atom_site_fract_z
Si Si1 0.840919 0.585010 0.347122
Si Si2 0.868851 0.888793 0.234368
Si Si3 0.718842 0.045088 0.164993
Si Si4 0.000000 0.169778 0.000000
Si Si5 0.667267 0.741834 0.514970
Si Si6 0.000000 0.986778 0.500000
O O1 0.811883 0.571169 0.594017
O O2 0.814591 0.678878 0.346929
O O3 0.678860 0.538320 0.363942
O O4 0.037950 0.554789 0.177617
O O5 0.734241 0.829921 0.428714
O O6 0.029279 0.933603 0.666725
O O7 0.780576 0.955265 0.158673
O O8 0.000000 0.844152 0.000000
O O9 0.865343 0.107690 0.994177
O O10 0.103927 0.222449 0.773928
O O11 0.500000 0.726700 0.500000
#
# Coordination Sequence:
#
# PCOD9126922 Si02
#       6
#     4   4   4   2   4   2
#     4   9  19  39  69  99 129 183 231 278 331 417
#     4  11  25  43  67 102 141 179 221 297 347 400
#     4   9  19  39  74  97 130 181 235 273 344 402
#     4  10  22  46  72 100 136 188 228 284 338 422
#     4  11  25  41  68 100 145 172 229 289 351 400
#     4  10  22  42  70  96 140 176 236 278 338 418
#
# _framework density 22.240855
#
# number of rings (size 3 to 8) (size 9 to 14) (size 15 to 20)
#    0.000    2.000    2.000    0.000    5.600    6.400 
#    0.000    3.000    0.000    0.000    2.600    0.000 
#    0.000    0.000    0.000    0.000    0.000    0.000 
#
# Total GULP energy -55841.756966 kJ/mol
# GULP energy per Si atom -5584.175697 kJ/mol
# Density = 2.219023 g / cm^3
# Si number density = 22.240855 Si / 1000 Ang^3
#
#
#
# Elastic Constant Matrix: (Units=GPa)
#
#
# Indices 1 2 3 4 5 6 
#
# 1 135.6156 36.6736 48.1325 0.0000 -11.1676 0.0000
# 2 36.6736 108.9568 59.4505 0.0000 -2.4061 0.0000
# 3 48.1325 59.4505 107.6689 0.0000 -6.2588 0.0000
# 4 0.0000 0.0000 0.0000 17.2827 0.0000 8.6176
# 5 -11.1676 -2.4061 -6.2588 0.0000 35.6839 0.0000
# 6 0.0000 0.0000 0.0000 8.6176 0.0000 14.1436
#
#
#
# Elastic Compliance Matrix: (Units=1/GPa)
#
#
# Indices 1 2 3 4 5 6 
#
# 1 0.009033 -0.001228 -0.003233 0.000000 0.002177 0.000000
# 2 -0.001228 0.013308 -0.006839 0.000000 -0.000686 0.000000
# 3 -0.003233 -0.006839 0.014572 0.000000 0.001083 0.000000
# 4 0.000000 0.000000 0.000000 0.083112 0.000000 -0.050640
# 5 0.002177 -0.000686 0.001083 0.000000 0.028849 0.000000
# 6 0.000000 0.000000 0.000000 -0.050640 0.000000 0.101558
#
#
# Mechanical properties :
#
#
# Convention : Reuss Voigt Hill
#
# Bulk Modulus (GPa) = 69.87098 71.19495 70.53296
# Shear Modulus (GPa) = 17.99835 27.28767 22.64301
#
# Velocity S-wave (km/s) = 2.84781 3.50654 3.19420
# Velocity P-wave (km/s) = 6.50363 6.96238 6.73691
#
# Compressibility (1/GPa) = 0.01431209
#
# Stress axis : x y z
#
# Youngs Moduli (GPa) = 110.70857 75.14477 68.62322
#
# Poissons Ratio (x) = 0.09228 0.22189
# Poissons Ratio (y) = 0.13595 0.46931
# Poissons Ratio (z) = 0.35797 0.51391
#
# Static dielectric constant tensor:
#      x y z
#    x 1.831950 0.000000 -0.006000 
#    y 0.000000 1.830000 0.000000 
#    z -0.006000 0.000000 1.892110 
# 
# From -- ./inp_files/15594.got.cif
#   From: 2010.05.17/outbox.cif.g08.bks.cpg/sg5_8_cif.got.tgz:15594.got - 2010.06.03 18:56:24.
