data_PCOD9126006
_publ_section_title
;
Structure prediction by ZEFSAII (Michael W. Deem and Ramdas Pophale) SiO2 
 PCOD9126006
Probable space group: C 2
;
_chemical_formula_sum "Si O2"
_cell_formula_units_Z 28
_cell_length_a 14.164675
_cell_length_b 7.726847
_cell_length_c 15.329682
_cell_angle_alpha 90.000000
_cell_angle_beta 141.049913
_cell_angle_gamma 90.000000
_cell_volume 1054.742041
_symmetry_space_group_name_H-M "C 2"
_symmetry_group_IT_number 5
_symmetry_cell_setting 'monoclinic'
loop_
_space_group_symop_operation_xyz
x,y,z
-x,y,-z
1/2+x,1/2+y,z
1/2-x,1/2+y,-z
loop_
_atom_site_type_symbol
_atom_site_label
_atom_site_fract_x
_atom_site_fract_y
_atom_site_fract_z
Si Si1 0.925995 0.334890 0.092154
Si Si2 0.035844 0.226533 0.628853
Si Si3 0.619791 0.427043 0.925370
Si Si4 0.666635 0.403994 0.195028
Si Si5 0.623766 0.044107 0.510820
Si Si6 0.991234 0.863054 0.651112
Si Si7 0.195065 0.304553 0.184332
O O1 0.914937 0.130540 0.103185
O O2 0.101269 0.369311 0.200389
O O3 0.798961 0.413733 0.062615
O O4 0.863939 0.376437 0.949868
O O5 0.215041 0.267036 0.759091
O O6 0.962038 0.065470 0.623887
O O7 0.000000 0.205707 0.500000
O O8 0.954377 0.399096 0.604442
O O9 0.505991 0.351748 0.915289
O O10 0.565340 0.330727 0.798441
O O11 0.733596 0.457580 0.339863
O O12 0.675784 0.595936 0.159383
O O13 0.500000 0.062247 0.500000
O O14 0.630483 0.223989 0.465312
O O15 0.131347 0.845646 0.684676
#
# Coordination Sequence:
#
# PCOD9126006 Si02
#       7
#     4   4   4   4   4   4   4
#     4   9  20  36  53  80 111 143 191 239 277 340
#     4   9  19  32  56  82 109 142 194 225 259 340
#     4  10  22  37  55  82 119 147 189 241 301 331
#     4   9  18  37  55  81 116 150 183 232 286 344
#     4   9  17  35  57  81 117 148 182 232 273 339
#     4  11  19  34  60  85 110 150 189 229 282 343
#     4   9  17  34  60  75 104 157 186 223 294 332
#
# _framework density 26.546776000000001
#
# number of rings (size 3 to 8) (size 9 to 14) (size 15 to 20)
#    0.000    2.857    2.857    0.429    0.000    2.286 
#    5.143    0.000    0.000    0.000    0.000    0.000 
#    0.000    0.000    0.000    0.000    0.000    0.000 
#
# Total GULP energy -78170.467333 kJ/mol
# GULP energy per Si atom -5583.604809 kJ/mol
# Density = 2.648635 g / cm^3
# Si number density = 26.546776 Si / 1000 Ang^3
#
#
#
# Elastic Constant Matrix: (Units=GPa)
#
#
# Indices 1 2 3 4 5 6 
#
# 1 118.7724 18.8790 30.0516 0.0000 22.0689 0.0000
# 2 18.8790 95.4633 10.5779 0.0000 -1.3392 0.0000
# 3 30.0516 10.5779 54.7801 0.0000 5.5088 0.0000
# 4 0.0000 0.0000 0.0000 29.2712 0.0000 7.3747
# 5 22.0689 -1.3392 5.5088 0.0000 40.7777 0.0000
# 6 0.0000 0.0000 0.0000 7.3747 0.0000 21.3786
#
#
#
# Elastic Compliance Matrix: (Units=1/GPa)
#
#
# Indices 1 2 3 4 5 6 
#
# 1 0.010977 -0.001673 -0.005166 0.000000 -0.005298 0.000000
# 2 -0.001673 0.010976 -0.001347 0.000000 0.001448 0.000000
# 3 -0.005166 -0.001347 0.021362 0.000000 -0.000134 0.000000
# 4 0.000000 0.000000 0.000000 0.037415 0.000000 -0.012907
# 5 -0.005298 0.001448 -0.000134 0.000000 0.027456 0.000000
# 6 0.000000 0.000000 0.000000 -0.012907 0.000000 0.051228
#
#
# Mechanical properties :
#
#
# Convention : Reuss Voigt Hill
#
# Bulk Modulus (GPa) = 37.11555 43.11473 40.11514
# Shear Modulus (GPa) = 27.06115 32.25266 29.65690
#
# Velocity S-wave (km/s) = 3.19623 3.48938 3.34602
# Velocity P-wave (km/s) = 5.25668 5.70181 5.48377
#
# Compressibility (1/GPa) = 0.02694288
#
# Stress axis : x y z
#
# Youngs Moduli (GPa) = 91.10138 91.11098 46.81112
#
# Poissons Ratio (x) = 0.15240 0.24182
# Poissons Ratio (y) = 0.15238 0.06307
# Poissons Ratio (z) = 0.47063 0.12276
#
# Static dielectric constant tensor:
#      x y z
#    x 2.145490 0.000000 0.010060 
#    y 0.000000 2.132560 0.000000 
#    z 0.010060 0.000000 2.149520 
# 
# From -- ./inp_files/61483.got.cif
#   From: 2010.05.17/outbox.cif.g08.bks.cpg/sg5_31_cif.got.tgz:61483.got - 2010.06.03 18:56:24.
