data_PCOD9126086
_publ_section_title
;
Structure prediction by ZEFSAII (Michael W. Deem and Ramdas Pophale) SiO2 
 PCOD9126086
Probable space group: C 2
;
_chemical_formula_sum "Si O2"
_cell_formula_units_Z 30
_cell_length_a 11.812736
_cell_length_b 18.122943
_cell_length_c 11.071542
_cell_angle_alpha 90.000000
_cell_angle_beta 142.220525
_cell_angle_gamma 90.000000
_cell_volume 1452.049131
_symmetry_space_group_name_H-M "C 2"
_symmetry_group_IT_number 5
_symmetry_cell_setting 'monoclinic'
loop_
_space_group_symop_operation_xyz
x,y,z
-x,y,-z
1/2+x,1/2+y,z
1/2-x,1/2+y,-z
loop_
_atom_site_type_symbol
_atom_site_label
_atom_site_fract_x
_atom_site_fract_y
_atom_site_fract_z
Si Si1 0.607584 0.456100 0.403226
Si Si2 0.000000 0.306340 0.500000
Si Si3 0.223972 0.521887 0.702995
Si Si4 0.196410 0.320718 0.047984
Si Si5 0.715813 0.966227 0.196719
Si Si6 0.323605 0.801696 0.592632
Si Si7 0.282874 0.190153 0.294351
Si Si8 0.816213 0.886527 0.913705
O O1 0.681115 0.487696 0.337781
O O2 0.394754 0.480327 0.258176
O O3 0.721079 0.485756 0.615382
O O4 0.675121 0.368800 0.461576
O O5 0.118043 0.271687 0.490712
O O6 0.146077 0.354730 0.695442
O O7 0.282131 0.606429 0.768260
O O8 0.284521 0.473802 0.870403
O O9 0.000000 0.517917 0.500000
O O10 0.330201 0.349781 0.055814
O O11 0.006454 0.331109 0.815163
O O12 0.209583 0.377915 0.168425
O O13 0.228775 0.240696 0.133044
O O14 0.500000 0.991524 0.000000
O O15 0.277706 0.733031 0.637482
O O16 0.500000 0.187096 0.500000
O O17 0.000000 0.866464 0.000000
#
# Coordination Sequence:
#
# PCOD9126086 Si02
#       8
#     4   2   4   4   4   4   4   4
#     4  11  21  37  65  93 131 168 218 264 325 383
#     4  10  22  38  60  94 128 166 218 268 306 376
#     4  11  23  44  61  94 135 175 210 266 330 389
#     4  11  21  36  59 100 124 165 218 265 318 376
#     4  11  21  35  61  99 128 163 216 275 314 374
#     4  11  20  38  63  91 132 166 215 269 315 382
#     4  11  24  38  65  92 129 175 211 268 327 387
#     4  11  22  36  64  95 128 167 210 265 315 383
#
# _framework density 20.660456
#
# number of rings (size 3 to 8) (size 9 to 14) (size 15 to 20)
#    0.000    1.067    4.667    2.800    1.867    1.067 
#    0.000    1.333    0.000    1.600    0.000    0.000 
#    0.000    0.000    0.000    0.000    0.000    0.000 
#
# Total GULP energy -83508.913896 kJ/mol
# GULP energy per Si atom -5567.260926 kJ/mol
# Density = 2.061343 g / cm^3
# Si number density = 20.660456 Si / 1000 Ang^3
#
#
#
# Elastic Constant Matrix: (Units=GPa)
#
#
# Indices 1 2 3 4 5 6 
#
# 1 169.2731 60.5267 53.1992 0.0000 -9.2158 0.0000
# 2 60.5267 96.7550 30.0697 0.0000 -17.1964 0.0000
# 3 53.1992 30.0697 131.7998 0.0000 6.1190 0.0000
# 4 0.0000 0.0000 0.0000 25.8500 0.0000 -1.5134
# 5 -9.2158 -17.1964 6.1190 0.0000 45.4011 0.0000
# 6 0.0000 0.0000 0.0000 -1.5134 0.0000 17.5095
#
#
#
# Elastic Compliance Matrix: (Units=1/GPa)
#
#
# Indices 1 2 3 4 5 6 
#
# 1 0.008218 -0.004355 -0.002339 0.000000 0.000334 0.000000
# 2 -0.004355 0.014468 -0.001768 0.000000 0.004834 0.000000
# 3 -0.002339 -0.001768 0.009044 0.000000 -0.002363 0.000000
# 4 0.000000 0.000000 0.000000 0.038882 0.000000 0.003361
# 5 0.000334 0.004834 -0.002363 0.000000 0.024243 0.000000
# 6 0.000000 0.000000 0.000000 0.003361 0.000000 0.057402
#
#
# Mechanical properties :
#
#
# Convention : Reuss Voigt Hill
#
# Bulk Modulus (GPa) = 67.53185 76.15768 71.84477
# Shear Modulus (GPa) = 28.71648 34.68760 31.70204
#
# Velocity S-wave (km/s) = 3.73221 4.10193 3.92143
# Velocity P-wave (km/s) = 7.16450 7.70558 7.43996
#
# Compressibility (1/GPa) = 0.01480783
#
# Stress axis : x y z
#
# Youngs Moduli (GPa) = 121.68420 69.11797 110.56560
#
# Poissons Ratio (x) = 0.30098 0.25862
# Poissons Ratio (y) = 0.52988 0.19544
# Poissons Ratio (z) = 0.28463 0.12217
#
# Static dielectric constant tensor:
#      x y z
#    x 1.788950 0.000000 0.002940 
#    y 0.000000 1.748410 0.000000 
#    z 0.002940 0.000000 1.766790 
# 
# From -- ./inp_files/40469.got.cif
#   From: 2010.05.17/outbox.cif.g08.bks.cpg/sg5_21_cif.got.tgz:40469.got - 2010.06.03 18:56:24.
