data_PCOD9126600
_publ_section_title
;
Structure prediction by ZEFSAII (Michael W. Deem and Ramdas Pophale) SiO2 
 PCOD9126600
Probable space group: C 2
;
_chemical_formula_sum "Si O2"
_cell_formula_units_Z 28
_cell_length_a 11.347815
_cell_length_b 17.702484
_cell_length_c 9.298325
_cell_angle_alpha 90.000000
_cell_angle_beta 39.562621
_cell_angle_gamma 90.000000
_cell_volume 1189.698383
_symmetry_space_group_name_H-M "C 2"
_symmetry_group_IT_number 5
_symmetry_cell_setting 'monoclinic'
loop_
_space_group_symop_operation_xyz
x,y,z
-x,y,-z
1/2+x,1/2+y,z
1/2-x,1/2+y,-z
loop_
_atom_site_type_symbol
_atom_site_label
_atom_site_fract_x
_atom_site_fract_y
_atom_site_fract_z
Si Si1 0.721991 0.818960 0.305394
Si Si2 0.500000 0.833645 0.000000
Si Si3 0.736182 0.051612 0.009866
Si Si4 0.236019 0.871944 0.043261
Si Si5 0.334496 0.546353 0.382693
Si Si6 0.336260 0.389727 0.499722
Si Si7 0.277957 0.646029 0.688634
Si Si8 0.000000 0.552744 0.500000
O O1 0.500000 0.822939 0.500000
O O2 0.802123 0.857452 0.087994
O O3 0.771881 0.858199 0.406693
O O4 0.782879 0.732116 0.247029
O O5 0.612656 0.811074 0.039362
O O6 0.325641 0.873133 0.237366
O O7 0.704987 0.095610 0.889640
O O8 0.951274 0.060875 0.859543
O O9 0.606050 0.083845 0.258942
O O10 0.701560 0.961090 0.015419
O O11 0.046202 0.861392 0.308668
O O12 0.353378 0.479304 0.478723
O O13 0.251875 0.614867 0.552317
O O14 0.185512 0.519779 0.403932
O O15 0.500000 0.644603 0.500000
#
# Coordination Sequence:
#
# PCOD9126600 Si02
#       8
#     4   2   4   4   4   4   4   2
#     4  11  22  43  71  93 130 179 221 264 327 395
#     4  12  22  38  64  94 134 160 214 274 326 384
#     4  10  22  41  64  95 131 171 219 269 318 383
#     4  11  23  40  66  98 132 174 218 272 324 383
#     4  10  22  41  64  95 131 171 219 269 318 383
#     4  11  23  40  66  98 132 174 218 272 324 383
#     4   9  21  44  71  89 126 177 222 264 322 388
#     4  12  22  34  62  98 128 162 208 268 334 370
#
# _framework density 23.535378000000001
#
# number of rings (size 3 to 8) (size 9 to 14) (size 15 to 20)
#    0.000    1.429    1.429    3.857    2.000    5.143 
#    5.143    1.429    0.000    0.000    0.000    0.000 
#    0.000    0.000    0.000    0.000    0.000    0.000 
#
# Total GULP energy -77997.527994 kJ/mol
# GULP energy per Si atom -5571.252000 kJ/mol
# Density = 2.348181 g / cm^3
# Si number density = 23.535378 Si / 1000 Ang^3
#
#
#
# Elastic Constant Matrix: (Units=GPa)
#
#
# Indices 1 2 3 4 5 6 
#
# 1 121.9166 0.0594 19.7443 0.0000 -21.6017 0.0000
# 2 0.0594 75.5052 12.2452 0.0000 15.9089 0.0000
# 3 19.7443 12.2452 172.8746 0.0000 -0.3195 0.0000
# 4 0.0000 0.0000 0.0000 16.8736 0.0000 6.1385
# 5 -21.6017 15.9089 -0.3195 0.0000 45.9357 0.0000
# 6 0.0000 0.0000 0.0000 6.1385 0.0000 15.1248
#
#
#
# Elastic Compliance Matrix: (Units=1/GPa)
#
#
# Indices 1 2 3 4 5 6 
#
# 1 0.009175 -0.000815 -0.000982 0.000000 0.004590 0.000000
# 2 -0.000815 0.014542 -0.000947 0.000000 -0.005426 0.000000
# 3 -0.000982 -0.000947 0.005964 0.000000 -0.000092 0.000000
# 4 0.000000 0.000000 0.000000 0.069530 0.000000 -0.028219
# 5 0.004590 -0.005426 -0.000092 0.000000 0.025807 0.000000
# 6 0.000000 0.000000 0.000000 -0.028219 0.000000 0.077569
#
#
# Mechanical properties :
#
#
# Convention : Reuss Voigt Hill
#
# Bulk Modulus (GPa) = 41.33488 48.26601 44.80044
# Shear Modulus (GPa) = 23.13338 38.13665 30.63502
#
# Velocity S-wave (km/s) = 3.13856 4.02978 3.61176
# Velocity P-wave (km/s) = 5.54392 6.49650 6.03902
#
# Compressibility (1/GPa) = 0.02419264
#
# Stress axis : x y z
#
# Youngs Moduli (GPa) = 108.99174 68.76814 167.68499
#
# Poissons Ratio (x) = 0.05606 0.16461
# Poissons Ratio (y) = 0.08884 0.15879
# Poissons Ratio (z) = 0.10699 0.06512
#
# Static dielectric constant tensor:
#      x y z
#    x 2.022360 0.000000 0.054480 
#    y 0.000000 1.859470 0.000000 
#    z 0.054480 0.000000 1.981980 
# 
# From -- ./inp_files/21918.got.cif
#   From: 2010.05.17/outbox.cif.g08.bks.cpg/sg5_11_cif.got.tgz:21918.got - 2010.06.03 18:56:24.
