data_PCOD9126197
_publ_section_title
;
Structure prediction by ZEFSAII (Michael W. Deem and Ramdas Pophale) SiO2 
 PCOD9126197
Probable space group: C 2
;
_chemical_formula_sum "Si O2"
_cell_formula_units_Z 26
_cell_length_a 11.973545
_cell_length_b 8.958316
_cell_length_c 10.660696
_cell_angle_alpha 90.000000
_cell_angle_beta 105.759698
_cell_angle_gamma 90.000000
_cell_volume 1100.511256
_symmetry_space_group_name_H-M "C 2"
_symmetry_group_IT_number 5
_symmetry_cell_setting 'monoclinic'
loop_
_space_group_symop_operation_xyz
x,y,z
-x,y,-z
1/2+x,1/2+y,z
1/2-x,1/2+y,-z
loop_
_atom_site_type_symbol
_atom_site_label
_atom_site_fract_x
_atom_site_fract_y
_atom_site_fract_z
Si Si1 0.160563 0.178520 0.389458
Si Si2 0.113560 0.853200 0.451712
Si Si3 0.605138 0.488061 0.941602
Si Si4 0.075952 0.263159 0.783712
Si Si5 0.003443 0.694039 0.188838
Si Si6 0.500000 0.951299 0.000000
Si Si7 0.214162 0.519219 0.794551
O O1 0.268849 0.274242 0.468202
O O2 0.044249 0.271489 0.327971
O O3 0.200954 0.106020 0.270222
O O4 0.132411 0.031454 0.461378
O O5 0.000000 0.817194 0.500000
O O6 0.084046 0.789098 0.304539
O O7 0.601657 0.590711 0.818385
O O8 0.576541 0.316820 0.905018
O O9 0.500000 0.536429 0.000000
O O10 0.722907 0.512248 0.052458
O O11 0.061831 0.343909 0.916909
O O12 0.178806 0.351192 0.747680
O O13 0.909243 0.600778 0.238498
O O14 0.061393 0.572951 0.112415
#
# Coordination Sequence:
#
# PCOD9126197 Si02
#       7
#     4   4   4   4   4   2   4
#     4  12  27  49  76 102 148 195 244 309 358 428
#     4  12  28  51  74 106 146 197 250 303 358 435
#     4  12  20  41  68 102 148 183 234 299 367 425
#     4  11  23  43  71 109 147 188 244 298 367 437
#     4  11  23  44  69 103 150 187 241 300 364 435
#     4  10  22  38  70 106 142 192 232 292 368 432
#     4  11  24  42  71 105 144 191 232 303 364 437
#
# _framework density 23.625382999999999
#
# number of rings (size 3 to 8) (size 9 to 14) (size 15 to 20)
#    0.000    0.615    6.154    0.923    4.308    2.462 
#    0.000    0.000    0.000    0.000    0.000    0.000 
#    0.000    0.000    0.000    0.000    0.000    0.000 
#
# Total GULP energy -72656.120127 kJ/mol
# GULP energy per Si atom -5588.932317 kJ/mol
# Density = 2.357161 g / cm^3
# Si number density = 23.625383 Si / 1000 Ang^3
#
#
#
# Elastic Constant Matrix: (Units=GPa)
#
#
# Indices 1 2 3 4 5 6 
#
# 1 81.2490 16.9158 30.3791 0.0000 23.8996 0.0000
# 2 16.9158 92.3931 9.7863 0.0000 2.2144 0.0000
# 3 30.3791 9.7863 63.5101 0.0000 20.3932 0.0000
# 4 0.0000 0.0000 0.0000 32.8965 0.0000 11.1048
# 5 23.8996 2.2144 20.3932 0.0000 34.1684 0.0000
# 6 0.0000 0.0000 0.0000 11.1048 0.0000 33.1066
#
#
#
# Elastic Compliance Matrix: (Units=1/GPa)
#
#
# Indices 1 2 3 4 5 6 
#
# 1 0.017332 -0.002425 -0.005041 0.000000 -0.008958 0.000000
# 2 -0.002425 0.011346 -0.001110 0.000000 0.001623 0.000000
# 3 -0.005041 -0.001110 0.021244 0.000000 -0.009081 0.000000
# 4 0.000000 0.000000 0.000000 0.034280 0.000000 -0.011498
# 5 -0.008958 0.001623 -0.009081 0.000000 0.040847 0.000000
# 6 0.000000 0.000000 0.000000 -0.011498 0.000000 0.034062
#
#
# Mechanical properties :
#
#
# Convention : Reuss Voigt Hill
#
# Bulk Modulus (GPa) = 30.51391 39.03496 34.77443
# Shear Modulus (GPa) = 26.71147 32.03903 29.37525
#
# Velocity S-wave (km/s) = 3.36613 3.68656 3.52998
# Velocity P-wave (km/s) = 5.29637 5.88891 5.60048
#
# Compressibility (1/GPa) = 0.03277194
#
# Stress axis : x y z
#
# Youngs Moduli (GPa) = 57.69575 88.13776 47.07273
#
# Poissons Ratio (x) = 0.21371 0.23728
# Poissons Ratio (y) = 0.13989 0.05223
# Poissons Ratio (z) = 0.29083 0.09780
#
# Static dielectric constant tensor:
#      x y z
#    x 1.897180 0.000000 -0.065150 
#    y 0.000000 1.903210 0.000000 
#    z -0.065150 0.000000 1.921810 
# 
# From -- ./inp_files/41826.got.cif
#   From: 2010.05.17/outbox.cif.g08.bks.cpg/sg5_21_cif.got.tgz:41826.got - 2010.06.03 18:56:24.
