data_PCOD9126785
_publ_section_title
;
Structure prediction by ZEFSAII (Michael W. Deem and Ramdas Pophale) SiO2 
 PCOD9126785
Probable space group: C 2
;
_chemical_formula_sum "Si O2"
_cell_formula_units_Z 30
_cell_length_a 20.367828
_cell_length_b 6.310653
_cell_length_c 16.271285
_cell_angle_alpha 90.000000
_cell_angle_beta 138.223757
_cell_angle_gamma 90.000000
_cell_volume 1393.351519
_symmetry_space_group_name_H-M "C 2"
_symmetry_group_IT_number 5
_symmetry_cell_setting 'monoclinic'
loop_
_space_group_symop_operation_xyz
x,y,z
-x,y,-z
1/2+x,1/2+y,z
1/2-x,1/2+y,-z
loop_
_atom_site_type_symbol
_atom_site_label
_atom_site_fract_x
_atom_site_fract_y
_atom_site_fract_z
Si Si1 0.160922 0.469510 0.640321
Si Si2 0.270642 0.631214 0.430319
Si Si3 0.123839 0.299970 0.225002
Si Si4 0.436634 0.673927 0.142719
Si Si5 0.700685 0.789738 0.131510
Si Si6 0.609110 0.430369 0.317729
Si Si7 0.119861 0.108769 0.725639
Si Si8 0.500000 0.299334 0.500000
O O1 0.191384 0.307116 0.597072
O O2 0.240156 0.603046 0.767148
O O3 0.114024 0.311523 0.662570
O O4 0.083799 0.647913 0.540944
O O5 0.221208 0.429712 0.341032
O O6 0.355930 0.572900 0.573160
O O7 0.174306 0.724093 0.386584
O O8 0.117278 0.343824 0.122159
O O9 0.142631 0.055465 0.266736
O O10 0.024817 0.326706 0.188419
O O11 0.492201 0.443281 0.197643
O O12 0.401555 0.691329 0.202964
O O13 0.349075 0.703063 0.997205
O O14 0.774782 0.985146 0.182977
O O15 0.043767 0.941713 0.614172
#
# Coordination Sequence:
#
# PCOD9126785 Si02
#       8
#     4   4   4   4   4   4   4   2
#     4  11  24  42  71  94 131 178 225 267 348 404
#     4  12  21  42  66  99 129 174 217 283 347 400
#     4  10  22  42  65  95 128 175 222 280 330 394
#     4  10  25  44  64  96 136 173 224 276 329 399
#     4  11  23  47  66  94 135 180 230 275 327 405
#     4  10  23  38  64  95 135 165 221 275 342 399
#     4  11  25  44  67 101 137 174 219 284 341 398
#     4  10  26  42  68 102 132 172 224 284 338 412
#
# _framework density 21.530821
#
# number of rings (size 3 to 8) (size 9 to 14) (size 15 to 20)
#    0.800    0.533    4.000    0.800    5.600    1.067 
#    7.200    0.000    0.000    0.000    0.000    0.000 
#    0.000    0.000    0.000    0.000    0.000    0.000 
#
# Total GULP energy -83523.511742 kJ/mol
# GULP energy per Si atom -5568.234116 kJ/mol
# Density = 2.148182 g / cm^3
# Si number density = 21.530821 Si / 1000 Ang^3
#
#
#
# Elastic Constant Matrix: (Units=GPa)
#
#
# Indices 1 2 3 4 5 6 
#
# 1 113.9294 18.2213 31.7625 0.0000 -16.7369 0.0000
# 2 18.2213 34.7776 7.9572 -0.0001 7.9964 -0.0001
# 3 31.7625 7.9572 101.1383 0.0000 0.7829 0.0000
# 4 0.0000 -0.0001 0.0000 16.1246 0.0000 3.5177
# 5 -16.7369 7.9964 0.7829 0.0000 29.9088 0.0000
# 6 0.0000 -0.0001 0.0000 3.5177 0.0000 29.1036
#
#
#
# Elastic Compliance Matrix: (Units=1/GPa)
#
#
# Indices 1 2 3 4 5 6 
#
# 1 0.012264 -0.007742 -0.003312 0.000000 0.009019 0.000000
# 2 -0.007742 0.036092 -0.000300 0.000000 -0.013974 0.000000
# 3 -0.003312 -0.000300 0.010967 0.000000 -0.002060 0.000000
# 4 0.000000 0.000000 0.000000 0.063697 0.000000 -0.007699
# 5 0.009019 -0.013974 -0.002060 0.000000 0.042272 0.000000
# 6 0.000000 0.000000 0.000000 -0.007699 0.000000 0.035291
#
#
# Mechanical properties :
#
#
# Convention : Reuss Voigt Hill
#
# Bulk Modulus (GPa) = 27.31108 40.63637 33.97372
# Shear Modulus (GPa) = 21.23185 27.82102 24.52643
#
# Velocity S-wave (km/s) = 3.14365 3.59855 3.37876
# Velocity P-wave (km/s) = 5.08811 6.01503 5.57088
#
# Compressibility (1/GPa) = 0.03661518
#
# Stress axis : x y z
#
# Youngs Moduli (GPa) = 81.54000 27.70706 91.18075
#
# Poissons Ratio (x) = 0.21449 0.30201
# Poissons Ratio (y) = 0.63124 0.02737
# Poissons Ratio (z) = 0.27008 0.00832
#
# Static dielectric constant tensor:
#      x y z
#    x 1.914180 0.000000 0.039990 
#    y 0.000000 1.796170 0.000000 
#    z 0.039990 0.000000 1.765980 
# 
# From -- ./inp_files/63173.got.cif
#   From: 2010.05.17/outbox.cif.g08.bks.cpg/sg5_32_cif.got.tgz:63173.got - 2010.06.03 18:56:24.
