data_PCOD9126152
_publ_section_title
;
Structure prediction by ZEFSAII (Michael W. Deem and Ramdas Pophale) SiO2 
 PCOD9126152
Probable space group: C 2
;
_chemical_formula_sum "Si O2"
_cell_formula_units_Z 20
_cell_length_a 7.944340
_cell_length_b 13.222026
_cell_length_c 12.401025
_cell_angle_alpha 90.000000
_cell_angle_beta 50.682490
_cell_angle_gamma 90.000000
_cell_volume 1007.757498
_symmetry_space_group_name_H-M "C 2"
_symmetry_group_IT_number 5
_symmetry_cell_setting 'monoclinic'
loop_
_space_group_symop_operation_xyz
x,y,z
-x,y,-z
1/2+x,1/2+y,z
1/2-x,1/2+y,-z
loop_
_atom_site_type_symbol
_atom_site_label
_atom_site_fract_x
_atom_site_fract_y
_atom_site_fract_z
Si Si1 0.779836 0.850130 0.518092
Si Si2 0.022041 0.671669 0.320016
Si Si3 0.062180 0.312587 0.814621
Si Si4 0.500000 0.996115 0.500000
Si Si5 0.000000 0.488619 0.000000
Si Si6 0.152434 0.679322 0.027352
O O1 0.576910 0.840280 0.682730
O O2 0.000000 0.877939 0.500000
O O3 0.829429 0.741156 0.445148
O O4 0.703794 0.927614 0.456445
O O5 0.233055 0.740087 0.254346
O O6 0.024938 0.661538 0.190242
O O7 0.041778 0.570135 0.381183
O O8 0.080278 0.415803 0.873472
O O9 0.861829 0.249196 0.943640
O O10 0.185284 0.566247 0.966350
O O11 0.000000 0.730571 0.000000
#
# Coordination Sequence:
#
# PCOD9126152 Si02
#       6
#     4   4   4   2   2   4
#     4  10  25  44  69 100 137 175 221 274 332 397
#     4  11  22  47  62 100 136 166 226 275 322 399
#     4  11  20  45  65  89 139 168 210 287 316 383
#     4  12  24  44  74  96 132 182 222 268 342 394
#     4  10  22  38  66  90 126 168 222 258 326 386
#     4  10  24  40  67  98 127 173 224 264 330 398
#
# _framework density 19.846045
#
# number of rings (size 3 to 8) (size 9 to 14) (size 15 to 20)
#    0.600    0.800    5.000    1.200    2.800    3.200 
#    1.800    0.000    0.000    0.000    0.000    0.000 
#    0.000    0.000    0.000    0.000    0.000    0.000 
#
# Total GULP energy -55670.026961 kJ/mol
# GULP energy per Si atom -5567.002696 kJ/mol
# Density = 1.980087 g / cm^3
# Si number density = 19.846045 Si / 1000 Ang^3
#
#
#
# Elastic Constant Matrix: (Units=GPa)
#
#
# Indices 1 2 3 4 5 6 
#
# 1 62.8840 38.3911 23.9808 0.0000 19.7968 0.0000
# 2 38.3911 116.5910 34.0063 0.0000 12.8644 0.0000
# 3 23.9808 34.0063 125.0303 0.0000 31.0025 0.0000
# 4 0.0000 0.0000 0.0000 31.5728 0.0000 7.3864
# 5 19.7968 12.8644 31.0025 0.0000 25.7267 0.0000
# 6 0.0000 0.0000 0.0000 7.3864 0.0000 26.4645
#
#
#
# Elastic Compliance Matrix: (Units=1/GPa)
#
#
# Indices 1 2 3 4 5 6 
#
# 1 0.024985 -0.006694 0.001377 0.000000 -0.017539 0.000000
# 2 -0.006694 0.011205 -0.002355 0.000000 0.002386 0.000000
# 3 0.001377 -0.002355 0.011902 0.000000 -0.014224 0.000000
# 4 0.000000 0.000000 0.000000 0.033885 0.000000 -0.009458
# 5 -0.017539 0.002386 -0.014224 0.000000 0.068315 0.000000
# 6 0.000000 0.000000 0.000000 -0.009458 0.000000 0.040426
#
#
# Mechanical properties :
#
#
# Convention : Reuss Voigt Hill
#
# Bulk Modulus (GPa) = 30.53613 55.25129 42.89371
# Shear Modulus (GPa) = 23.04394 30.62795 26.83594
#
# Velocity S-wave (km/s) = 3.41124 3.93272 3.68122
# Velocity P-wave (km/s) = 5.56195 6.96578 6.30307
#
# Compressibility (1/GPa) = 0.03274809
#
# Stress axis : x y z
#
# Youngs Moduli (GPa) = 40.02395 89.24769 84.02228
#
# Poissons Ratio (x) = 0.59739 -0.11573
# Poissons Ratio (y) = 0.26791 0.19791
# Poissons Ratio (z) = -0.05513 0.21022
#
# Static dielectric constant tensor:
#      x y z
#    x 1.772280 0.000000 0.042040 
#    y 0.000000 1.694990 0.000000 
#    z 0.042040 0.000000 1.763960 
# 
# From -- ./inp_files/35328.got.cif
#   From: 2010.05.17/outbox.cif.g08.bks.cpg/sg5_18_cif.got.tgz:35328.got - 2010.06.03 18:56:24.
