data_PCOD9126761
_publ_section_title
;
Structure prediction by ZEFSAII (Michael W. Deem and Ramdas Pophale) SiO2 
 PCOD9126761
Probable space group: C 2
;
_chemical_formula_sum "Si O2"
_cell_formula_units_Z 26
_cell_length_a 19.385508
_cell_length_b 6.834244
_cell_length_c 12.043597
_cell_angle_alpha 90.000000
_cell_angle_beta 125.621474
_cell_angle_gamma 90.000000
_cell_volume 1297.034926
_symmetry_space_group_name_H-M "C 2"
_symmetry_group_IT_number 5
_symmetry_cell_setting 'monoclinic'
loop_
_space_group_symop_operation_xyz
x,y,z
-x,y,-z
1/2+x,1/2+y,z
1/2-x,1/2+y,-z
loop_
_atom_site_type_symbol
_atom_site_label
_atom_site_fract_x
_atom_site_fract_y
_atom_site_fract_z
Si Si1 0.825890 0.205350 0.690773
Si Si2 0.856569 0.546925 0.559191
Si Si3 0.882500 0.455008 0.338984
Si Si4 0.361758 0.581056 0.175099
Si Si5 0.544586 0.427160 0.318784
Si Si6 0.000000 0.801939 0.500000
Si Si7 0.262897 0.730824 0.870308
O O1 0.840218 0.408223 0.644827
O O2 0.731610 0.140769 0.564448
O O3 0.824410 0.238585 0.821208
O O4 0.894834 0.059950 0.700346
O O5 0.886005 0.432436 0.475836
O O6 0.922438 0.707153 0.663714
O O7 0.895514 0.251271 0.289322
O O8 0.793891 0.540566 0.211693
O O9 0.942092 0.646593 0.378750
O O10 0.445938 0.474276 0.206990
O O11 0.297589 0.422656 0.171240
O O12 0.312405 0.688370 0.029628
O O13 0.551528 0.433508 0.461260
#
# Coordination Sequence:
#
# PCOD9126761 Si02
#       7
#     4   4   4   4   4   2   4
#     4  11  24  42  67  98 141 179 215 283 354 413
#     4  10  23  41  64 101 137 169 218 275 358 413
#     4  10  23  40  66 100 131 170 222 285 338 407
#     4  12  25  44  74  94 134 185 235 286 333 399
#     4  11  25  39  67 102 136 179 226 279 340 414
#     4  10  22  42  64 108 140 162 232 284 342 418
#     4  11  25  46  67  98 133 183 242 273 342 410
#
# _framework density 20.045722000000001
#
# number of rings (size 3 to 8) (size 9 to 14) (size 15 to 20)
#    0.000    1.231    4.615    0.000    8.615    0.615 
#    0.000    0.000    3.385    0.000    0.000    0.000 
#    0.000    0.000    0.000    0.000    0.000    0.000 
#
# Total GULP energy -72448.390015 kJ/mol
# GULP energy per Si atom -5572.953078 kJ/mol
# Density = 2.000010 g / cm^3
# Si number density = 20.045722 Si / 1000 Ang^3
#
#
#
# Elastic Constant Matrix: (Units=GPa)
#
#
# Indices 1 2 3 4 5 6 
#
# 1 116.5944 44.8272 42.1469 0.0000 -18.6221 0.0000
# 2 44.8272 80.6618 53.7728 0.0000 -14.6929 0.0000
# 3 42.1469 53.7728 68.2014 0.0000 -5.5822 0.0000
# 4 0.0000 0.0000 0.0000 36.2400 0.0000 -1.7641
# 5 -18.6221 -14.6929 -5.5822 0.0000 33.8626 0.0000
# 6 0.0000 0.0000 0.0000 -1.7641 0.0000 31.2493
#
#
#
# Elastic Compliance Matrix: (Units=1/GPa)
#
#
# Indices 1 2 3 4 5 6 
#
# 1 0.012152 -0.002397 -0.005228 0.000000 0.004781 0.000000
# 2 -0.002397 0.028967 -0.020716 0.000000 0.007836 0.000000
# 3 -0.005228 -0.020716 0.033711 0.000000 -0.006307 0.000000
# 4 0.000000 0.000000 0.000000 0.027670 0.000000 0.001562
# 5 0.004781 0.007836 -0.006307 0.000000 0.034520 0.000000
# 6 0.000000 0.000000 0.000000 0.001562 0.000000 0.032089
#
#
# Mechanical properties :
#
#
# Convention : Reuss Voigt Hill
#
# Bulk Modulus (GPa) = 55.10691 60.77239 57.93965
# Shear Modulus (GPa) = 21.56642 28.58442 25.07542
#
# Velocity S-wave (km/s) = 3.28359 3.78029 3.54066
# Velocity P-wave (km/s) = 6.47505 7.03113 6.75881
#
# Compressibility (1/GPa) = 0.01814654
#
# Stress axis : x y z
#
# Youngs Moduli (GPa) = 82.29198 34.52157 29.66391
#
# Poissons Ratio (x) = 0.08275 0.15509
# Poissons Ratio (y) = 0.19725 0.61453
# Poissons Ratio (z) = 0.43025 0.71517
#
# Static dielectric constant tensor:
#      x y z
#    x 1.849450 0.000000 0.030590 
#    y 0.000000 1.710680 0.000000 
#    z 0.030590 0.000000 1.721920 
# 
# From -- ./inp_files/45745.got.cif
#   From: 2010.05.17/outbox.cif.g08.bks.cpg/sg5_23_cif.got.tgz:45745.got - 2010.06.03 18:56:24.
