data_PCOD9126861
_publ_section_title
;
Structure prediction by ZEFSAII (Michael W. Deem and Ramdas Pophale) SiO2 
 PCOD9126861
Probable space group: C 2
;
_chemical_formula_sum "Si O2"
_cell_formula_units_Z 22
_cell_length_a 17.865634
_cell_length_b 9.346879
_cell_length_c 7.959521
_cell_angle_alpha 90.000000
_cell_angle_beta 136.263404
_cell_angle_gamma 90.000000
_cell_volume 918.895685
_symmetry_space_group_name_H-M "C 2"
_symmetry_group_IT_number 5
_symmetry_cell_setting 'monoclinic'
loop_
_space_group_symop_operation_xyz
x,y,z
-x,y,-z
1/2+x,1/2+y,z
1/2-x,1/2+y,-z
loop_
_atom_site_type_symbol
_atom_site_label
_atom_site_fract_x
_atom_site_fract_y
_atom_site_fract_z
Si Si1 0.991246 0.104450 0.682851
Si Si2 0.964385 0.799565 0.123528
Si Si3 0.429982 0.005462 0.627332
Si Si4 0.764384 0.148387 0.210353
Si Si5 0.661360 0.908292 0.852557
Si Si6 0.000000 0.300480 0.000000
O O1 0.861696 0.131585 0.499297
O O2 0.000000 0.148011 0.500000
O O3 0.029536 0.940681 0.754061
O O4 0.040870 0.196399 0.916885
O O5 0.046204 0.672284 0.309575
O O6 0.847506 0.723528 0.918508
O O7 0.000000 0.852071 0.000000
O O8 0.543008 0.942669 0.735143
O O9 0.342286 0.972258 0.343286
O O10 0.416850 0.913669 0.776469
O O11 0.802067 0.247600 0.115920
O O12 0.741207 0.992950 0.100596
#
# Coordination Sequence:
#
# PCOD9126861 Si02
#       6
#     4   4   4   4   4   2
#     4  12  26  47  77 109 150 197 249 317 378 448
#     4  11  25  48  67 103 153 193 245 313 377 447
#     4  10  22  42  71  96 148 191 237 309 374 439
#     4  11  24  43  71 110 141 196 255 299 386 451
#     4  10  22  42  68 107 137 192 248 302 376 450
#     4  12  22  44  70 106 146 192 244 308 368 442
#
# _framework density 23.941780999999999
#
# number of rings (size 3 to 8) (size 9 to 14) (size 15 to 20)
#    0.000    1.091    3.636    2.182    7.636    0.000 
#    9.818    0.000    0.000    0.000    0.000    0.000 
#    0.000    0.000    0.000    0.000    0.000    0.000 
#
# Total GULP energy -61400.579731 kJ/mol
# GULP energy per Si atom -5581.870885 kJ/mol
# Density = 2.388729 g / cm^3
# Si number density = 23.941781 Si / 1000 Ang^3
#
#
#
# Elastic Constant Matrix: (Units=GPa)
#
#
# Indices 1 2 3 4 5 6 
#
# 1 63.8615 5.9182 20.0917 0.0000 -18.0062 0.0000
# 2 5.9182 97.2396 -3.4101 0.0000 -5.8187 0.0000
# 3 20.0917 -3.4101 61.6976 0.0000 -9.3358 0.0000
# 4 0.0000 0.0000 0.0000 33.4930 0.0000 -3.3155
# 5 -18.0062 -5.8187 -9.3358 0.0000 36.3947 0.0000
# 6 0.0000 0.0000 0.0000 -3.3155 0.0000 27.8677
#
#
#
# Elastic Compliance Matrix: (Units=1/GPa)
#
#
# Indices 1 2 3 4 5 6 
#
# 1 0.019716 -0.000888 -0.005217 0.000000 0.008274 0.000000
# 2 -0.000888 0.010467 0.001097 0.000000 0.001516 0.000000
# 3 -0.005217 0.001097 0.018315 0.000000 0.002292 0.000000
# 4 0.000000 0.000000 0.000000 0.030213 0.000000 0.003595
# 5 0.008274 0.001516 0.002292 0.000000 0.032400 0.000000
# 6 0.000000 0.000000 0.000000 0.003595 0.000000 0.036312
#
#
# Mechanical properties :
#
#
# Convention : Reuss Voigt Hill
#
# Bulk Modulus (GPa) = 25.98708 29.77760 27.88234
# Shear Modulus (GPa) = 29.36593 32.89766 31.13179
#
# Velocity S-wave (km/s) = 3.50602 3.71086 3.60990
# Velocity P-wave (km/s) = 5.22182 5.55204 5.38946
#
# Compressibility (1/GPa) = 0.03848066
#
# Stress axis : x y z
#
# Youngs Moduli (GPa) = 50.72139 95.53776 54.60131
#
# Poissons Ratio (x) = 0.08482 0.28488
# Poissons Ratio (y) = 0.04503 -0.05990
# Poissons Ratio (z) = 0.26464 -0.10480
#
# Static dielectric constant tensor:
#      x y z
#    x 2.049130 0.000000 0.037380 
#    y 0.000000 1.954930 0.000000 
#    z 0.037380 0.000000 1.897830 
# 
# From -- ./inp_files/22679.got.cif
#   From: 2010.05.17/outbox.cif.g08.bks.cpg/sg5_12_cif.got.tgz:22679.got - 2010.06.03 18:56:24.
