data_PCOD9126993
_publ_section_title
;
Structure prediction by ZEFSAII (Michael W. Deem and Ramdas Pophale) SiO2 
 PCOD9126993
Probable space group: C 2
;
_chemical_formula_sum "Si O2"
_cell_formula_units_Z 30
_cell_length_a 13.691729
_cell_length_b 5.016795
_cell_length_c 18.416912
_cell_angle_alpha 90.000000
_cell_angle_beta 118.801498
_cell_angle_gamma 90.000000
_cell_volume 1108.539933
_symmetry_space_group_name_H-M "C 2"
_symmetry_group_IT_number 5
_symmetry_cell_setting 'monoclinic'
loop_
_space_group_symop_operation_xyz
x,y,z
-x,y,-z
1/2+x,1/2+y,z
1/2-x,1/2+y,-z
loop_
_atom_site_type_symbol
_atom_site_label
_atom_site_fract_x
_atom_site_fract_y
_atom_site_fract_z
Si Si1 0.117077 0.775260 0.813157
Si Si2 0.858898 0.998966 0.892089
Si Si3 0.341835 0.806978 0.643917
Si Si4 0.362232 0.493443 0.524037
Si Si5 0.000000 0.468507 0.500000
Si Si6 0.032517 0.630377 0.641541
Si Si7 0.413309 0.983069 0.819916
Si Si8 0.320932 0.586220 0.033705
O O1 0.232156 0.613997 0.847328
O O2 0.133134 0.031472 0.869821
O O3 0.081984 0.830869 0.717380
O O4 0.023378 0.609542 0.823199
O O5 0.929383 0.232077 0.878524
O O6 0.863060 0.725708 0.848857
O O7 0.885666 0.970307 0.987087
O O8 0.344453 0.519667 0.604713
O O9 0.246187 0.945854 0.561553
O O10 0.461280 0.935045 0.665323
O O11 0.336890 0.863558 0.727209
O O12 0.426853 0.748925 0.521299
O O13 0.447787 0.246398 0.547214
O O14 0.105051 0.513290 0.603828
O O15 0.287849 0.889631 0.006906
#
# Coordination Sequence:
#
# PCOD9126993 Si02
#       8
#     4   4   4   4   2   4   4   4
#     4  10  25  48  73 102 147 186 235 307 347 427
#     4  11  25  47  73 109 141 188 238 293 365 430
#     4  10  23  39  66  93 132 182 223 289 343 414
#     4  11  21  41  65  89 134 178 227 281 346 407
#     4  10  24  36  60 100 126 172 234 272 338 424
#     4  10  22  43  62  97 131 180 228 277 357 404
#     4  11  27  44  74 111 142 186 247 288 359 429
#     4  10  22  47  77 105 143 190 234 288 367 431
#
# _framework density 27.062625000000001
#
# number of rings (size 3 to 8) (size 9 to 14) (size 15 to 20)
#    0.000    1.600    1.333    2.000    5.600    5.867 
#   12.000    4.000    0.000    0.000    0.000    0.000 
#    0.000    0.000    0.000    0.000    0.000    0.000 
#
# Total GULP energy -83749.444731 kJ/mol
# GULP energy per Si atom -5583.296315 kJ/mol
# Density = 2.700103 g / cm^3
# Si number density = 27.062625 Si / 1000 Ang^3
#
#
#
# Elastic Constant Matrix: (Units=GPa)
#
#
# Indices 1 2 3 4 5 6 
#
# 1 99.0236 10.0819 17.4658 0.0000 -19.1426 0.0000
# 2 10.0819 110.8653 22.2893 0.0000 -6.4290 0.0001
# 3 17.4658 22.2893 131.1668 0.0000 -28.1829 0.0000
# 4 0.0000 0.0000 0.0000 37.3351 0.0000 -5.3436
# 5 -19.1426 -6.4290 -28.1829 0.0000 46.6203 0.0000
# 6 0.0000 0.0001 0.0000 -5.3436 0.0000 35.8578
#
#
#
# Elastic Compliance Matrix: (Units=1/GPa)
#
#
# Indices 1 2 3 4 5 6 
#
# 1 0.011054 -0.000671 -0.000463 0.000000 0.004167 0.000000
# 2 -0.000671 0.009385 -0.001479 0.000000 0.000125 0.000000
# 3 -0.000463 -0.001479 0.009024 0.000000 0.005061 0.000000
# 4 0.000000 0.000000 0.000000 0.027368 0.000000 0.004078
# 5 0.004167 0.000125 0.005061 0.000000 0.026238 0.000000
# 6 0.000000 0.000000 0.000000 0.004078 0.000000 0.028496
#
#
# Mechanical properties :
#
#
# Convention : Reuss Voigt Hill
#
# Bulk Modulus (GPa) = 41.25463 48.96995 45.11229
# Shear Modulus (GPa) = 40.04187 43.37722 41.70954
#
# Velocity S-wave (km/s) = 3.85073 4.00790 3.93010
# Velocity P-wave (km/s) = 5.92014 6.28904 6.10738
#
# Compressibility (1/GPa) = 0.02423970
#
# Stress axis : x y z
#
# Youngs Moduli (GPa) = 90.46534 106.54757 110.81190
#
# Poissons Ratio (x) = 0.07145 0.05127
# Poissons Ratio (y) = 0.06066 0.16386
# Poissons Ratio (z) = 0.04186 0.15756
#
# Static dielectric constant tensor:
#      x y z
#    x 2.624330 0.000000 -0.047060 
#    y 0.000000 2.116770 0.000000 
#    z -0.047060 0.000000 2.299000 
# 
# From -- ./inp_files/61276.got.cif
#   From: 2010.05.17/outbox.cif.g08.bks.cpg/sg5_31_cif.got.tgz:61276.got - 2010.06.03 18:56:24.
