data_PCOD9126338
_publ_section_title
;
Structure prediction by ZEFSAII (Michael W. Deem and Ramdas Pophale) SiO2 
 PCOD9126338
Probable space group: C 2
;
_chemical_formula_sum "Si O2"
_cell_formula_units_Z 28
_cell_length_a 14.966169
_cell_length_b 13.225086
_cell_length_c 8.084438
_cell_angle_alpha 90.000000
_cell_angle_beta 121.773321
_cell_angle_gamma 90.000000
_cell_volume 1360.342914
_symmetry_space_group_name_H-M "C 2"
_symmetry_group_IT_number 5
_symmetry_cell_setting 'monoclinic'
loop_
_space_group_symop_operation_xyz
x,y,z
-x,y,-z
1/2+x,1/2+y,z
1/2-x,1/2+y,-z
loop_
_atom_site_type_symbol
_atom_site_label
_atom_site_fract_x
_atom_site_fract_y
_atom_site_fract_z
Si Si1 0.000000 0.667450 0.500000
Si Si2 0.850991 0.145788 0.601896
Si Si3 0.455576 0.835407 0.633850
Si Si4 0.000000 0.680016 0.000000
Si Si5 0.126851 0.549148 0.381506
Si Si6 0.354457 0.725325 0.988022
Si Si7 0.545579 0.520634 0.856681
Si Si8 0.128342 0.799790 0.882083
O O1 0.091403 0.594548 0.523088
O O2 0.051530 0.741032 0.683054
O O3 0.877802 0.242380 0.517860
O O4 0.743535 0.088428 0.467071
O O5 0.854572 0.198386 0.790606
O O6 0.942888 0.063869 0.666109
O O7 0.500000 0.868677 0.500000
O O8 0.548053 0.792488 0.845290
O O9 0.393217 0.930096 0.648025
O O10 0.906538 0.750972 0.977221
O O11 0.048848 0.606017 0.182360
O O12 0.372063 0.612493 0.075783
O O13 0.246774 0.775971 0.942563
O O14 0.597878 0.417105 0.853347
O O15 0.500000 0.509320 0.000000
#
# Coordination Sequence:
#
# PCOD9126338 Si02
#       8
#     2   4   4   2   4   4   4   4
#     4  10  22  40  60  98 130 168 220 278 326 404
#     4  10  23  46  68  94 132 176 224 270 329 403
#     4  11  25  43  69  99 135 173 227 270 329 405
#     4  10  26  36  64 102 140 158 236 284 320 406
#     4  11  23  44  65  95 135 182 213 279 339 387
#     4  10  23  43  69  94 133 175 223 271 333 399
#     4   9  20  41  65  91 124 170 218 263 325 400
#     4  11  21  42  63  94 129 174 217 278 334 387
#
# _framework density 20.583044000000001
#
# number of rings (size 3 to 8) (size 9 to 14) (size 15 to 20)
#    0.000    1.714    2.857    1.286    4.000    6.857 
#    5.143    0.000    0.000    0.000    0.000    0.000 
#    0.000    0.000    0.000    0.000    0.000    0.000 
#
# Total GULP energy -78094.338936 kJ/mol
# GULP energy per Si atom -5578.167067 kJ/mol
# Density = 2.053620 g / cm^3
# Si number density = 20.583044 Si / 1000 Ang^3
#
#
#
# Elastic Constant Matrix: (Units=GPa)
#
#
# Indices 1 2 3 4 5 6 
#
# 1 104.2385 59.6866 8.3059 0.0000 30.7178 0.0000
# 2 59.6866 181.1018 28.8732 0.0000 29.6710 0.0000
# 3 8.3059 28.8732 36.0015 0.0000 12.1440 0.0000
# 4 0.0000 0.0000 0.0000 10.9991 0.0000 1.0961
# 5 30.7178 29.6710 12.1440 0.0000 26.7230 0.0000
# 6 0.0000 0.0000 0.0000 1.0961 0.0000 45.3026
#
#
#
# Elastic Compliance Matrix: (Units=1/GPa)
#
#
# Indices 1 2 3 4 5 6 
#
# 1 0.016098 -0.003260 0.004632 0.000000 -0.016989 0.000000
# 2 -0.003260 0.007783 -0.004534 0.000000 -0.002834 0.000000
# 3 0.004632 -0.004534 0.035954 0.000000 -0.016628 0.000000
# 4 0.000000 0.000000 0.000000 0.091136 0.000000 -0.002205
# 5 -0.016989 -0.002834 -0.016628 0.000000 0.067652 0.000000
# 6 0.000000 0.000000 0.000000 -0.002205 0.000000 0.022127
#
#
# Mechanical properties :
#
#
# Convention : Reuss Voigt Hill
#
# Bulk Modulus (GPa) = 18.68864 57.23033 37.95948
# Shear Modulus (GPa) = 18.87419 31.57004 25.22211
#
# Velocity S-wave (km/s) = 3.03145 3.92061 3.50434
# Velocity P-wave (km/s) = 4.62085 6.95413 5.90390
#
# Compressibility (1/GPa) = 0.05350844
#
# Stress axis : x y z
#
# Youngs Moduli (GPa) = 62.12116 128.47720 27.81367
#
# Poissons Ratio (x) = 0.41889 -0.12882
# Poissons Ratio (y) = 0.20254 0.12611
# Poissons Ratio (z) = -0.28772 0.58255
#
# Static dielectric constant tensor:
#      x y z
#    x 1.772550 0.000000 -0.064270 
#    y 0.000000 1.688000 0.000000 
#    z -0.064270 0.000000 1.782550 
# 
# From -- ./inp_files/23566.got.cif
#   From: 2010.05.17/outbox.cif.g08.bks.cpg/sg5_12_cif.got.tgz:23566.got - 2010.06.03 18:56:24.
