data_PCOD9126343
_publ_section_title
;
Structure prediction by ZEFSAII (Michael W. Deem and Ramdas Pophale) SiO2 
 PCOD9126343
Probable space group: C 2
;
_chemical_formula_sum "Si O2"
_cell_formula_units_Z 32
_cell_length_a 10.825758
_cell_length_b 14.912134
_cell_length_c 15.035777
_cell_angle_alpha 90.000000
_cell_angle_beta 32.790762
_cell_angle_gamma 90.000000
_cell_volume 1314.560967
_symmetry_space_group_name_H-M "C 2"
_symmetry_group_IT_number 5
_symmetry_cell_setting 'monoclinic'
loop_
_space_group_symop_operation_xyz
x,y,z
-x,y,-z
1/2+x,1/2+y,z
1/2-x,1/2+y,-z
loop_
_atom_site_type_symbol
_atom_site_label
_atom_site_fract_x
_atom_site_fract_y
_atom_site_fract_z
Si Si1 0.611221 0.168860 0.339280
Si Si2 0.115263 0.456372 0.755463
Si Si3 0.854664 0.229249 0.456563
Si Si4 0.043242 0.039934 0.324001
Si Si5 0.544440 0.771948 0.148231
Si Si6 0.853976 0.000489 0.164868
Si Si7 0.267934 0.096356 0.014093
Si Si8 0.628184 0.924242 0.535270
O O1 0.500000 0.133688 0.500000
O O2 0.403242 0.213108 0.416685
O O3 0.721254 0.090642 0.214274
O O4 0.811332 0.235901 0.244834
O O5 0.339703 0.468914 0.679901
O O6 0.145376 0.432873 0.633830
O O7 0.946330 0.375007 0.886496
O O8 0.991188 0.550458 0.842245
O O9 0.838499 0.322876 0.517544
O O10 0.948290 0.131282 0.427638
O O11 0.001694 0.255752 0.279402
O O12 0.232678 0.074659 0.139632
O O13 0.834961 0.994034 0.394261
O O14 0.741863 0.701248 0.007278
O O15 0.049933 0.044225 0.105509
O O16 0.633952 0.947082 0.331266
O O17 0.000000 0.951802 0.000000
#
# Coordination Sequence:
#
# PCOD9126343 Si02
#       8
#     4   4   4   4   4   4   4   4
#     4   9  16  33  61  84 110 148 202 254 287 352
#     4  11  21  40  61  90 125 160 204 249 314 372
#     4   9  18  35  57  91 115 155 206 242 307 366
#     4  11  22  39  64  90 122 159 199 262 312 364
#     4   8  18  34  60  87 115 159 207 244 294 373
#     4  11  21  37  59  88 116 159 204 251 302 359
#     4  10  22  40  61  89 122 160 205 252 308 362
#     4  11  22  38  64  88 121 163 206 253 301 376
#
# _framework density 24.342728000000001
#
# number of rings (size 3 to 8) (size 9 to 14) (size 15 to 20)
#    0.000    2.000    2.500    2.250    0.000    2.000 
#    2.250    8.750    2.750    0.000    0.000    0.000 
#    0.000    0.000    0.000    0.000    0.000    0.000 
#
# Total GULP energy -89219.895308 kJ/mol
# GULP energy per Si atom -5576.243457 kJ/mol
# Density = 2.428732 g / cm^3
# Si number density = 24.342728 Si / 1000 Ang^3
#
#
#
# Elastic Constant Matrix: (Units=GPa)
#
#
# Indices 1 2 3 4 5 6 
#
# 1 73.2690 12.9888 0.7285 -0.0028 -13.0560 0.0002
# 2 12.9888 117.9238 16.5311 -0.0155 -8.2575 0.0035
# 3 0.7285 16.5311 65.4917 -0.0164 -10.6500 0.0027
# 4 -0.0028 -0.0155 -0.0164 5.8598 -0.0009 5.4481
# 5 -13.0560 -8.2575 -10.6500 -0.0009 25.4572 0.0001
# 6 0.0002 0.0035 0.0027 5.4481 0.0001 18.8909
#
#
#
# Elastic Compliance Matrix: (Units=1/GPa)
#
#
# Indices 1 2 3 4 5 6 
#
# 1 0.015300 -0.001329 0.001471 0.000013 0.008031 -0.000004
# 2 -0.001329 0.009009 -0.002033 0.000026 0.001390 -0.000009
# 3 0.001471 -0.002033 0.016933 0.000063 0.007179 -0.000020
# 4 0.000013 0.000026 0.000063 0.233180 0.000050 -0.067249
# 5 0.008031 0.001390 0.007179 0.000050 0.046855 -0.000016
# 6 -0.000004 -0.000009 -0.000020 -0.067249 -0.000016 0.072330
#
#
# Mechanical properties :
#
#
# Convention : Reuss Voigt Hill
#
# Bulk Modulus (GPa) = 26.69457 35.24237 30.96847
# Shear Modulus (GPa) = 12.19879 25.13731 18.66805
#
# Velocity S-wave (km/s) = 2.24101 3.21696 2.77227
# Velocity P-wave (km/s) = 4.20549 5.32047 4.79550
#
# Compressibility (1/GPa) = 0.03746080
#
# Stress axis : x y z
#
# Youngs Moduli (GPa) = 65.35740 111.00261 59.05487
#
# Poissons Ratio (x) = 0.14754 -0.08689
# Poissons Ratio (y) = 0.08687 0.12007
# Poissons Ratio (z) = -0.09616 0.22568
#
# Static dielectric constant tensor:
#      x y z
#    x 2.009660 0.000000 0.069260 
#    y 0.000000 1.975080 0.000000 
#    z 0.069260 0.000000 2.018650 
# 
# From -- ./inp_files/60696.got.cif
#   From: 2010.05.17/outbox.cif.g08.bks.cpg/sg5_31_cif.got.tgz:60696.got - 2010.06.03 18:56:24.
