data_PCOD9126830
_publ_section_title
;
Structure prediction by ZEFSAII (Michael W. Deem and Ramdas Pophale) SiO2 
 PCOD9126830
Probable space group: C 2
;
_chemical_formula_sum "Si O2"
_cell_formula_units_Z 32
_cell_length_a 10.478671
_cell_length_b 11.727119
_cell_length_c 23.653528
_cell_angle_alpha 90.000000
_cell_angle_beta 26.387052
_cell_angle_gamma 90.000000
_cell_volume 1291.812605
_symmetry_space_group_name_H-M "C 2"
_symmetry_group_IT_number 5
_symmetry_cell_setting 'monoclinic'
loop_
_space_group_symop_operation_xyz
x,y,z
-x,y,-z
1/2+x,1/2+y,z
1/2-x,1/2+y,-z
loop_
_atom_site_type_symbol
_atom_site_label
_atom_site_fract_x
_atom_site_fract_y
_atom_site_fract_z
Si Si1 0.619626 0.159200 0.287009
Si Si2 0.674520 0.983675 0.070035
Si Si3 0.445590 0.198767 0.811914
Si Si4 0.899012 0.066298 0.756265
Si Si5 0.106585 0.205859 0.575242
Si Si6 0.171303 0.943807 0.110529
Si Si7 0.399301 0.774083 0.829624
Si Si8 0.168535 0.424901 0.625735
O O1 0.646605 0.218799 0.215551
O O2 0.887272 0.197887 0.217899
O O3 0.344875 0.193802 0.433508
O O4 0.539988 0.029169 0.303751
O O5 0.746082 0.862182 0.069293
O O6 0.696745 0.087457 0.104581
O O7 0.341509 0.994690 0.181750
O O8 0.851361 0.997918 0.942231
O O9 0.789256 0.185062 0.676917
O O10 0.374794 0.309584 0.876439
O O11 0.122421 0.117392 0.622239
O O12 0.761094 0.179823 0.841938
O O13 0.010768 0.990426 0.764084
O O14 0.135754 0.331087 0.590013
O O15 0.500000 0.963286 0.000000
O O16 0.575043 0.859843 0.719579
O O17 0.500000 0.461382 0.500000
#
# Coordination Sequence:
#
# PCOD9126830 Si02
#       8
#     4   4   4   4   4   4   4   4
#     4  12  23  38  68  97 134 182 216 267 335 397
#     4  10  22  44  68  93 131 178 212 289 339 378
#     4  11  23  41  65 101 132 169 233 268 328 413
#     4   9  22  40  64  91 130 166 226 261 328 392
#     4  10  23  40  64  97 134 180 217 266 337 390
#     4  10  22  42  67  91 129 176 220 281 337 386
#     4  11  23  42  67  98 132 175 221 277 326 398
#     4  11  22  41  62  92 138 175 220 271 325 390
#
# _framework density 24.771393
#
# number of rings (size 3 to 8) (size 9 to 14) (size 15 to 20)
#    0.000    1.500    2.500    2.625    5.250    1.000 
#    0.000    0.000    0.000    0.000    0.000    0.000 
#    0.000    0.000    0.000    0.000    0.000    0.000 
#
# Total GULP energy -89557.282704 kJ/mol
# GULP energy per Si atom -5597.330169 kJ/mol
# Density = 2.471501 g / cm^3
# Si number density = 24.771393 Si / 1000 Ang^3
#
#
#
# Elastic Constant Matrix: (Units=GPa)
#
#
# Indices 1 2 3 4 5 6 
#
# 1 112.7957 32.2180 35.0215 0.0119 8.0915 0.0073
# 2 32.2180 116.7323 17.8153 -0.0046 4.3705 -0.0078
# 3 35.0215 17.8153 63.6652 0.0534 11.8326 0.0239
# 4 0.0119 -0.0046 0.0534 34.5207 -0.0174 8.6275
# 5 8.0915 4.3705 11.8326 -0.0174 45.6475 -0.0160
# 6 0.0073 -0.0078 0.0239 8.6275 -0.0160 40.9702
#
#
#
# Elastic Compliance Matrix: (Units=1/GPa)
#
#
# Indices 1 2 3 4 5 6 
#
# 1 0.011237 -0.002251 -0.005486 0.000004 -0.000354 0.000000
# 2 -0.002251 0.009402 -0.001365 0.000004 -0.000147 0.000002
# 3 -0.005486 -0.001365 0.019859 -0.000029 -0.004045 -0.000006
# 4 0.000004 0.000004 -0.000029 0.030577 0.000016 -0.006439
# 5 -0.000354 -0.000147 -0.004045 0.000016 0.023032 0.000008
# 6 0.000000 0.000002 -0.000006 -0.006439 0.000008 0.025764
#
#
# Mechanical properties :
#
#
# Convention : Reuss Voigt Hill
#
# Bulk Modulus (GPa) = 44.85587 51.47806 48.16696
# Shear Modulus (GPa) = 34.36276 38.10355 36.23316
#
# Velocity S-wave (km/s) = 3.72855 3.92625 3.82868
# Velocity P-wave (km/s) = 6.05668 6.43275 6.24755
#
# Compressibility (1/GPa) = 0.02229363
#
# Stress axis : x y z
#
# Youngs Moduli (GPa) = 88.99020 106.36313 50.35614
#
# Poissons Ratio (x) = 0.23942 0.27624
# Poissons Ratio (y) = 0.20031 0.06875
# Poissons Ratio (z) = 0.48817 0.14521
#
# Static dielectric constant tensor:
#      x y z
#    x 1.970820 -0.000010 0.011900 
#    y -0.000010 1.953710 0.000000 
#    z 0.011900 0.000000 1.946210 
# 
# From -- ./inp_files/39237.got.cif
#   From: 2010.05.17/outbox.cif.g08.bks.cpg/sg5_20_cif.got.tgz:39237.got - 2010.06.03 18:56:24.
