data_PCOD9126230
_publ_section_title
;
Structure prediction by ZEFSAII (Michael W. Deem and Ramdas Pophale) SiO2 
 PCOD9126230
Probable space group: C 2
;
_chemical_formula_sum "Si O2"
_cell_formula_units_Z 26
_cell_length_a 12.325478
_cell_length_b 4.938518
_cell_length_c 19.331455
_cell_angle_alpha 90.000000
_cell_angle_beta 91.347016
_cell_angle_gamma 90.000000
_cell_volume 1176.372662
_symmetry_space_group_name_H-M "C 2"
_symmetry_group_IT_number 5
_symmetry_cell_setting 'monoclinic'
loop_
_space_group_symop_operation_xyz
x,y,z
-x,y,-z
1/2+x,1/2+y,z
1/2-x,1/2+y,-z
loop_
_atom_site_type_symbol
_atom_site_label
_atom_site_fract_x
_atom_site_fract_y
_atom_site_fract_z
Si Si1 0.207585 0.745200 0.585524
Si Si2 0.525754 0.093600 0.681568
Si Si3 0.005002 0.098446 0.227288
Si Si4 0.330645 0.664367 0.111834
Si Si5 0.177747 0.173113 0.114319
Si Si6 0.000000 0.156167 0.000000
Si Si7 0.346776 0.249182 0.568509
O O1 0.143545 0.636794 0.650314
O O2 0.313051 0.559489 0.577429
O O3 0.140110 0.703858 0.513395
O O4 0.246247 0.054814 0.589364
O O5 0.515953 0.299051 0.745415
O O6 0.444690 0.179061 0.619448
O O7 0.493479 0.798569 0.707724
O O8 0.909562 0.216084 0.177229
O O9 0.111746 0.089877 0.181434
O O10 0.249982 0.429295 0.131188
O O11 0.410562 0.543849 0.053059
O O12 0.257509 0.927187 0.091477
O O13 0.087701 0.271309 0.056391
#
# Coordination Sequence:
#
# PCOD9126230 Si02
#       7
#     4   4   4   4   4   2   4
#     4  10  22  39  60  87 117 153 200 251 304 359
#     4  12  23  40  62  87 120 160 200 250 296 351
#     4  11  26  39  59  92 121 158 208 238 289 368
#     4  11  24  43  65  90 126 161 195 247 298 345
#     4  11  24  43  65  90 126 161 195 247 298 345
#     4  10  24  42  68 100 118 154 210 242 290 360
#     4  10  22  39  60  87 117 153 200 251 304 359
#
# _framework density 22.101838000000001
#
# number of rings (size 3 to 8) (size 9 to 14) (size 15 to 20)
#    0.000    1.231    0.000    5.077    0.000   12.308 
#    0.000    6.154    0.000    0.000    0.000    0.000 
#    0.000    0.000    0.000    0.000    0.000    0.000 
#
# Total GULP energy -72538.676908 kJ/mol
# GULP energy per Si atom -5579.898224 kJ/mol
# Density = 2.205153 g / cm^3
# Si number density = 22.101838 Si / 1000 Ang^3
#
#
#
# Elastic Constant Matrix: (Units=GPa)
#
#
# Indices 1 2 3 4 5 6 
#
# 1 78.7266 6.8834 24.3687 0.0000 -2.9581 0.0000
# 2 6.8834 73.1802 -2.5932 0.0000 0.6954 0.0000
# 3 24.3687 -2.5932 64.3874 0.0000 -12.3740 0.0000
# 4 0.0000 0.0000 0.0000 -260.2030 0.0000 -25.4205
# 5 -2.9581 0.6954 -12.3740 0.0000 38.0368 0.0000
# 6 0.0000 0.0000 0.0000 -25.4205 0.0000 17.2781
#
#
#
# Elastic Compliance Matrix: (Units=1/GPa)
#
#
# Indices 1 2 3 4 5 6 
#
# 1 0.014582 -0.001568 -0.005716 0.000000 -0.000697 0.000000
# 2 -0.001568 0.013853 0.001151 0.000000 -0.000001 0.000000
# 3 -0.005716 0.001151 0.018828 0.000000 0.005660 0.000000
# 4 0.000000 0.000000 0.000000 -0.003360 0.000000 -0.004944
# 5 -0.000697 -0.000001 0.005660 0.000000 0.028077 0.000000
# 6 0.000000 0.000000 0.000000 -0.004944 0.000000 0.050603
#
#
# Mechanical properties :
#
#
# Convention : Reuss Voigt Hill
#
# Bulk Modulus (GPa) = 28.57235 30.40130 29.48683
# Shear Modulus (GPa) = 34.12605 -28.46860 2.82873
#
# Velocity S-wave (km/s) = 3.93369 -3.59286 1.13254
# Velocity P-wave (km/s) = 5.79547 1.85109 3.88336
#
# Compressibility (1/GPa) = 0.03499887
#
# Stress axis : x y z
#
# Youngs Moduli (GPa) = 68.57587 72.18579 53.11131
#
# Poissons Ratio (x) = 0.11316 0.30359
# Poissons Ratio (y) = 0.10750 -0.06114
# Poissons Ratio (z) = 0.39198 -0.08309
#
# Static dielectric constant tensor:
#      x y z
#    x 1.847400 0.000000 -0.026040 
#    y 0.000000 1.754440 0.000000 
#    z -0.026040 0.000000 1.851410 
# 
# From -- ./inp_files/60067.got.cif
#   From: 2010.05.17/outbox.cif.g08.bks.cpg/sg5_31_cif.got.tgz:60067.got - 2010.06.03 18:56:24.
