data_PCOD9126495
_publ_section_title
;
Structure prediction by ZEFSAII (Michael W. Deem and Ramdas Pophale) SiO2 
 PCOD9126495
Probable space group: C 2
;
_chemical_formula_sum "Si O2"
_cell_formula_units_Z 26
_cell_length_a 9.251230
_cell_length_b 19.627560
_cell_length_c 9.339911
_cell_angle_alpha 90.000000
_cell_angle_beta 46.175501
_cell_angle_gamma 90.000000
_cell_volume 1223.554508
_symmetry_space_group_name_H-M "C 2"
_symmetry_group_IT_number 5
_symmetry_cell_setting 'monoclinic'
loop_
_space_group_symop_operation_xyz
x,y,z
-x,y,-z
1/2+x,1/2+y,z
1/2-x,1/2+y,-z
loop_
_atom_site_type_symbol
_atom_site_label
_atom_site_fract_x
_atom_site_fract_y
_atom_site_fract_z
Si Si1 0.801213 0.190910 0.833696
Si Si2 0.000000 0.595933 0.500000
Si Si3 0.093930 0.324906 0.083993
Si Si4 0.168769 0.848846 0.507339
Si Si5 0.225076 0.695637 0.563318
Si Si6 0.695234 0.576266 0.944875
Si Si7 0.438355 0.429865 0.879954
O O1 0.789020 0.265311 0.913570
O O2 0.698221 0.183644 0.750568
O O3 0.039886 0.187271 0.635789
O O4 0.737697 0.133029 0.988834
O O5 0.882853 0.644650 0.470335
O O6 0.849659 0.557588 0.711379
O O7 0.898086 0.352406 0.299678
O O8 0.250111 0.385469 0.956952
O O9 0.000000 0.297642 0.000000
O O10 0.154587 0.772758 0.581613
O O11 0.000000 0.853759 0.500000
O O12 0.118726 0.907594 0.654438
O O13 0.500000 0.606226 0.000000
O O14 0.623161 0.508659 0.075676
O O15 0.500000 0.412584 0.000000
#
# Coordination Sequence:
#
# PCOD9126495 Si02
#       7
#     4   2   4   4   4   4   4
#     4  10  22  43  67 100 138 173 223 282 333 390
#     4  12  24  42  70 100 134 176 226 272 334 410
#     4  11  23  42  70 100 135 178 225 283 332 399
#     4  11  22  42  68  99 134 175 222 275 339 398
#     4  10  22  40  69 105 132 171 223 281 334 393
#     4  11  25  46  67  98 137 183 220 278 339 401
#     4  11  26  45  66  97 134 180 228 273 342 402
#
# _framework density 21.249562999999998
#
# number of rings (size 3 to 8) (size 9 to 14) (size 15 to 20)
#    0.000    1.231    3.846    1.385    4.308    4.923 
#    5.538    0.000    0.000    0.000    0.000    0.000 
#    0.000    0.000    0.000    0.000    0.000    0.000 
#
# Total GULP energy -72659.464498 kJ/mol
# GULP energy per Si atom -5589.189577 kJ/mol
# Density = 2.120120 g / cm^3
# Si number density = 21.249563 Si / 1000 Ang^3
#
#
#
# Elastic Constant Matrix: (Units=GPa)
#
#
# Indices 1 2 3 4 5 6 
#
# 1 81.3018 16.5882 7.5448 0.0000 16.9928 0.0000
# 2 16.5882 75.9378 42.7081 0.0000 9.0916 0.0000
# 3 7.5448 42.7081 132.5455 0.0000 5.9249 0.0000
# 4 0.0000 0.0000 0.0000 62.7099 0.0000 13.5840
# 5 16.9928 9.0916 5.9249 0.0000 32.2174 0.0000
# 6 0.0000 0.0000 0.0000 13.5840 0.0000 18.7989
#
#
#
# Elastic Compliance Matrix: (Units=1/GPa)
#
#
# Indices 1 2 3 4 5 6 
#
# 1 0.014205 -0.002442 0.000285 0.000000 -0.006855 0.000000
# 2 -0.002442 0.016932 -0.005203 0.000000 -0.002533 0.000000
# 3 0.000285 -0.005203 0.009222 0.000000 -0.000378 0.000000
# 4 0.000000 0.000000 0.000000 0.018906 0.000000 -0.013661
# 5 -0.006855 -0.002533 -0.000378 0.000000 0.035439 0.000000
# 6 0.000000 0.000000 0.000000 -0.013661 0.000000 0.063066
#
#
# Mechanical properties :
#
#
# Convention : Reuss Voigt Hill
#
# Bulk Modulus (GPa) = 39.00710 47.05193 43.02951
# Shear Modulus (GPa) = 27.61874 37.60817 32.61345
#
# Velocity S-wave (km/s) = 3.60909 4.21150 3.92188
# Velocity P-wave (km/s) = 5.98029 6.77050 6.38762
#
# Compressibility (1/GPa) = 0.02563636
#
# Stress axis : x y z
#
# Youngs Moduli (GPa) = 70.40003 59.06000 108.43769
#
# Poissons Ratio (x) = 0.14425 -0.03089
# Poissons Ratio (y) = 0.17194 0.56425
# Poissons Ratio (z) = -0.02005 0.30732
#
# Static dielectric constant tensor:
#      x y z
#    x 1.764950 0.000000 -0.023680 
#    y 0.000000 1.719010 0.000000 
#    z -0.023680 0.000000 1.768860 
# 
# From -- ./inp_files/16897.got.cif
#   From: 2010.05.17/outbox.cif.g08.bks.cpg/sg5_9_cif.got.tgz:16897.got - 2010.06.03 18:56:24.
