data_PCOD9126487
_publ_section_title
;
Structure prediction by ZEFSAII (Michael W. Deem and Ramdas Pophale) SiO2 
 PCOD9126487
Probable space group: C 2
;
_chemical_formula_sum "Si O2"
_cell_formula_units_Z 30
_cell_length_a 8.402268
_cell_length_b 15.558749
_cell_length_c 11.797046
_cell_angle_alpha 90.000000
_cell_angle_beta 63.277164
_cell_angle_gamma 90.000000
_cell_volume 1377.493050
_symmetry_space_group_name_H-M "C 2"
_symmetry_group_IT_number 5
_symmetry_cell_setting 'monoclinic'
loop_
_space_group_symop_operation_xyz
x,y,z
-x,y,-z
1/2+x,1/2+y,z
1/2-x,1/2+y,-z
loop_
_atom_site_type_symbol
_atom_site_label
_atom_site_fract_x
_atom_site_fract_y
_atom_site_fract_z
Si Si1 0.662937 0.352820 0.154559
Si Si2 0.340462 0.007729 0.197889
Si Si3 0.982164 0.718757 0.372527
Si Si4 0.239364 0.061520 0.707333
Si Si5 0.208233 0.078628 0.462468
Si Si6 0.647075 0.616798 0.102749
Si Si7 0.257335 0.959252 0.918545
Si Si8 0.000000 0.258996 0.000000
O O1 0.682565 0.445524 0.206631
O O2 0.524688 0.291254 0.264110
O O3 0.670535 0.380505 0.017693
O O4 0.855678 0.310667 0.116785
O O5 0.311768 0.022939 0.337668
O O6 0.302638 0.096838 0.142812
O O7 0.534776 0.969083 0.115670
O O8 0.119695 0.637922 0.308865
O O9 0.000000 0.747271 0.500000
O O10 0.788576 0.674744 0.426761
O O11 0.258090 0.042594 0.569364
O O12 0.044181 0.103179 0.779837
O O13 0.244699 0.978478 0.788554
O O14 0.000000 0.076751 0.500000
O O15 0.673694 0.545158 0.998206
O O16 0.627015 0.704481 0.042032
#
# Coordination Sequence:
#
# PCOD9126487 Si02
#       8
#     4   4   4   4   4   4   4   2
#     4  11  22  40  64 100 136 179 214 270 351 402
#     4  11  23  40  65  97 137 172 226 280 329 399
#     4  10  22  40  68  98 134 177 229 273 336 404
#     4  11  20  38  69  99 127 174 231 277 328 396
#     4  11  23  41  70 103 126 175 234 287 325 394
#     4  11  20  35  65  91 127 172 225 272 324 393
#     4  11  21  39  64 100 136 172 221 276 331 405
#     4  12  20  36  66  98 126 182 212 268 346 402
#
# _framework density 21.778696
#
# number of rings (size 3 to 8) (size 9 to 14) (size 15 to 20)
#    0.000    1.067    6.667    1.200    0.000    0.533 
#    0.000    0.000   11.733    0.000    0.000    0.000 
#    0.000    0.000    0.000    0.000    0.000    0.000 
#
# Total GULP energy -83613.207831 kJ/mol
# GULP energy per Si atom -5574.213855 kJ/mol
# Density = 2.172913 g / cm^3
# Si number density = 21.778696 Si / 1000 Ang^3
#
#
#
# Elastic Constant Matrix: (Units=GPa)
#
#
# Indices 1 2 3 4 5 6 
#
# 1 67.4716 14.9267 39.4827 0.0000 8.0397 0.0000
# 2 14.9267 68.5469 44.4008 0.0000 16.4557 0.0000
# 3 39.4827 44.4008 141.6932 0.0000 23.4684 0.0000
# 4 0.0000 0.0000 0.0000 46.3843 0.0000 -1.7584
# 5 8.0397 16.4557 23.4684 0.0000 40.1955 0.0000
# 6 0.0000 0.0000 0.0000 -1.7584 0.0000 22.0724
#
#
#
# Elastic Compliance Matrix: (Units=1/GPa)
#
#
# Indices 1 2 3 4 5 6 
#
# 1 0.017757 -0.000739 -0.004625 0.000000 -0.000548 0.000000
# 2 -0.000739 0.019132 -0.005000 0.000000 -0.004765 0.000000
# 3 -0.004625 -0.005000 0.010430 0.000000 -0.003117 0.000000
# 4 0.000000 0.000000 0.000000 0.021624 0.000000 0.001723
# 5 -0.000548 -0.004765 -0.003117 0.000000 0.028759 0.000000
# 6 0.000000 0.000000 0.000000 0.001723 0.000000 0.045443
#
#
# Mechanical properties :
#
#
# Convention : Reuss Voigt Hill
#
# Bulk Modulus (GPa) = 37.60885 52.81468 45.21177
# Shear Modulus (GPa) = 28.94586 33.65722 31.30154
#
# Velocity S-wave (km/s) = 3.64962 3.93545 3.79523
# Velocity P-wave (km/s) = 5.92164 6.70474 6.32532
#
# Compressibility (1/GPa) = 0.02658948
#
# Stress axis : x y z
#
# Youngs Moduli (GPa) = 56.31718 52.26782 95.88187
#
# Poissons Ratio (x) = 0.03862 0.44350
# Poissons Ratio (y) = 0.04161 0.47942
# Poissons Ratio (z) = 0.26049 0.26134
#
# Static dielectric constant tensor:
#      x y z
#    x 1.927270 0.000000 0.015120 
#    y 0.000000 1.811620 0.000000 
#    z 0.015120 0.000000 1.892900 
# 
# From -- ./inp_files/36984.got.cif
#   From: 2010.05.17/outbox.cif.g08.bks.cpg/sg5_19_cif.got.tgz:36984.got - 2010.06.03 18:56:24.
