data_PCOD9126484
_publ_section_title
;
Structure prediction by ZEFSAII (Michael W. Deem and Ramdas Pophale) SiO2 
 PCOD9126484
Probable space group: C 2
;
_chemical_formula_sum "Si O2"
_cell_formula_units_Z 26
_cell_length_a 11.621368
_cell_length_b 7.888691
_cell_length_c 25.913230
_cell_angle_alpha 90.000000
_cell_angle_beta 151.070198
_cell_angle_gamma 90.000000
_cell_volume 1149.194847
_symmetry_space_group_name_H-M "C 2"
_symmetry_group_IT_number 5
_symmetry_cell_setting 'monoclinic'
loop_
_space_group_symop_operation_xyz
x,y,z
-x,y,-z
1/2+x,1/2+y,z
1/2-x,1/2+y,-z
loop_
_atom_site_type_symbol
_atom_site_label
_atom_site_fract_x
_atom_site_fract_y
_atom_site_fract_z
Si Si1 0.676861 0.075190 0.809161
Si Si2 0.740998 0.642336 0.912863
Si Si3 0.688905 0.712570 0.780648
Si Si4 0.930294 0.764584 0.621399
Si Si5 0.500000 0.817968 0.000000
Si Si6 0.704742 0.115345 0.540215
Si Si7 0.563087 0.932718 0.182215
O O1 0.495202 0.160081 0.697946
O O2 0.772874 0.905519 0.819258
O O3 0.544593 0.014600 0.808852
O O4 0.873059 0.204532 0.907346
O O5 0.608075 0.646493 0.805423
O O6 0.603336 0.770612 0.895325
O O7 0.000000 0.719718 0.000000
O O8 0.805789 0.447550 0.948591
O O9 0.455985 0.702083 0.653759
O O10 0.889676 0.582103 0.840107
O O11 0.855571 0.657987 0.542456
O O12 0.178069 0.857267 0.705013
O O13 0.746432 0.914068 0.561004
O O14 0.500000 0.169641 0.500000
#
# Coordination Sequence:
#
# PCOD9126484 Si02
#       7
#     4   4   4   4   2   4   4
#     4  11  24  43  65  96 143 175 231 287 341 414
#     4   9  21  43  67  94 137 177 232 286 340 406
#     4  10  22  43  68 102 133 179 236 281 349 420
#     4  11  25  43  66 103 130 175 233 273 348 424
#     4  10  22  40  68  96 136 190 226 282 346 406
#     4  11  23  42  71  98 135 177 221 287 346 404
#     4  10  23  44  70  94 139 180 225 298 341 394
#
# _framework density 22.624535000000002
#
# number of rings (size 3 to 8) (size 9 to 14) (size 15 to 20)
#    0.462    1.231    0.000    4.615    4.308    4.923 
#    5.538    0.769    0.000    0.000    0.000    0.000 
#    0.000    0.000    0.000    0.000    0.000    0.000 
#
# Total GULP energy -72628.028003 kJ/mol
# GULP energy per Si atom -5586.771385 kJ/mol
# Density = 2.257304 g / cm^3
# Si number density = 22.624535 Si / 1000 Ang^3
#
#
#
# Elastic Constant Matrix: (Units=GPa)
#
#
# Indices 1 2 3 4 5 6 
#
# 1 91.0854 49.1544 10.0407 0.0012 2.4931 0.0002
# 2 49.1544 183.6424 50.2103 0.0013 -5.0088 0.0002
# 3 10.0407 50.2103 60.6363 -0.0009 -5.3447 -0.0002
# 4 0.0012 0.0013 -0.0009 166.9110 -0.0028 10.6614
# 5 2.4931 -5.0088 -5.3447 -0.0028 33.7354 -0.0004
# 6 0.0002 0.0002 -0.0002 10.6614 -0.0004 38.1014
#
#
#
# Elastic Compliance Matrix: (Units=1/GPa)
#
#
# Indices 1 2 3 4 5 6 
#
# 1 0.012936 -0.003724 0.000820 0.000000 -0.001379 0.000000
# 2 -0.003724 0.008112 -0.006054 0.000000 0.000520 0.000000
# 3 0.000820 -0.006054 0.021586 0.000000 0.002460 0.000000
# 4 0.000000 0.000000 0.000000 0.006100 0.000001 -0.001707
# 5 -0.001379 0.000520 0.002460 0.000001 0.030211 0.000000
# 6 0.000000 0.000000 0.000000 -0.001707 0.000000 0.026723
#
#
# Mechanical properties :
#
#
# Convention : Reuss Voigt Hill
#
# Bulk Modulus (GPa) = 40.45783 61.57499 51.01641
# Shear Modulus (GPa) = 37.92908 62.81346 50.37127
#
# Velocity S-wave (km/s) = 4.09890 5.27482 4.72359
# Velocity P-wave (km/s) = 6.34999 8.02330 7.23518
#
# Compressibility (1/GPa) = 0.02471709
#
# Stress axis : x y z
#
# Youngs Moduli (GPa) = 77.30427 123.27688 46.32579
#
# Poissons Ratio (x) = 0.45913 -0.03801
# Poissons Ratio (y) = 0.28791 0.28048
# Poissons Ratio (z) = -0.06342 0.74638
#
# Static dielectric constant tensor:
#      x y z
#    x 1.814410 0.000000 0.014790 
#    y 0.000000 1.877690 0.000000 
#    z 0.014790 0.000000 1.792210 
# 
# From -- ./inp_files/70371.got.cif
#   From: 2010.05.17/outbox.cif.g08.bks.cpg/sg5_36_cif.got.tgz:70371.got - 2010.06.03 18:56:24.
