data_PCOD9126797
_publ_section_title
;
Structure prediction by ZEFSAII (Michael W. Deem and Ramdas Pophale) SiO2 
 PCOD9126797
Probable space group: C 2
;
_chemical_formula_sum "Si O2"
_cell_formula_units_Z 26
_cell_length_a 21.431658
_cell_length_b 9.750796
_cell_length_c 10.584604
_cell_angle_alpha 90.000000
_cell_angle_beta 148.652215
_cell_angle_gamma 90.000000
_cell_volume 1150.713335
_symmetry_space_group_name_H-M "C 2"
_symmetry_group_IT_number 5
_symmetry_cell_setting 'monoclinic'
loop_
_space_group_symop_operation_xyz
x,y,z
-x,y,-z
1/2+x,1/2+y,z
1/2-x,1/2+y,-z
loop_
_atom_site_type_symbol
_atom_site_label
_atom_site_fract_x
_atom_site_fract_y
_atom_site_fract_z
Si Si1 0.000000 0.853330 0.500000
Si Si2 0.500000 0.279805 0.000000
Si Si3 0.049536 0.960573 0.314340
Si Si4 0.823111 0.587637 0.551918
Si Si5 0.057039 0.236283 0.847152
Si Si6 0.322586 0.122884 0.262058
Si Si7 0.500000 0.897710 0.500000
Si Si8 0.188519 0.341202 0.294777
O O1 0.002648 0.935320 0.374580
O O2 0.885585 0.753705 0.308880
O O3 0.477725 0.375763 0.082864
O O4 0.603675 0.177628 0.221369
O O5 0.185149 0.902252 0.540437
O O6 0.033576 0.120384 0.262424
O O7 0.867720 0.602750 0.485444
O O8 0.824742 0.433642 0.604362
O O9 0.701798 0.677828 0.338859
O O10 0.005061 0.307478 0.633927
O O11 0.181833 0.156274 0.026742
O O12 0.090965 0.345943 0.014999
O O13 0.380075 0.992372 0.292182
#
# Coordination Sequence:
#
# PCOD9126797 Si02
#       8
#     2   2   4   4   4   4   2   4
#     4  11  19  46  68  92 139 181 228 286 340 428
#     4  10  22  42  66 104 130 186 234 274 370 412
#     4  11  24  42  71 100 136 185 236 281 355 427
#     4  10  22  43  67 101 139 180 232 287 358 412
#     4  11  25  45  67 101 135 183 232 289 351 410
#     4  10  24  44  66  96 138 182 227 290 347 420
#     4  11  27  44  64 102 135 175 248 276 350 422
#     4  10  24  45  68 102 143 180 232 290 354 417
#
# _framework density 22.59468
#
# number of rings (size 3 to 8) (size 9 to 14) (size 15 to 20)
#    0.000    1.538    4.615    0.462   12.923    2.462 
#    0.000    0.000    0.000    0.000    0.000    0.000 
#    0.000    0.000    0.000    0.000    0.000    0.000 
#
# Total GULP energy -72576.926203 kJ/mol
# GULP energy per Si atom -5582.840477 kJ/mol
# Density = 2.254325 g / cm^3
# Si number density = 22.594680 Si / 1000 Ang^3
#
#
#
# Elastic Constant Matrix: (Units=GPa)
#
#
# Indices 1 2 3 4 5 6 
#
# 1 94.8620 5.6083 14.3758 0.0000 5.1456 0.0000
# 2 5.6083 69.7561 8.1861 0.0000 9.0666 0.0000
# 3 14.3758 8.1861 52.7153 0.0000 -10.0234 0.0000
# 4 0.0000 0.0000 0.0000 12.4285 0.0000 -0.5492
# 5 5.1456 9.0666 -10.0234 0.0000 31.7970 0.0000
# 6 0.0000 0.0000 0.0000 -0.5492 0.0000 37.0996
#
#
#
# Elastic Compliance Matrix: (Units=1/GPa)
#
#
# Indices 1 2 3 4 5 6 
#
# 1 0.011254 -0.000100 -0.003611 0.000000 -0.002931 0.000000
# 2 -0.000100 0.015455 -0.003412 0.000000 -0.005466 0.000000
# 3 -0.003611 -0.003412 0.022105 0.000000 0.008525 0.000000
# 4 0.000000 0.000000 0.000000 0.080513 0.000000 0.001192
# 5 -0.002931 -0.005466 0.008525 0.000000 0.036170 0.000000
# 6 0.000000 0.000000 0.000000 0.001192 0.000000 0.026972
#
#
# Mechanical properties :
#
#
# Convention : Reuss Voigt Hill
#
# Bulk Modulus (GPa) = 28.92835 30.40819 29.66827
# Shear Modulus (GPa) = 22.91089 28.87589 25.89339
#
# Velocity S-wave (km/s) = 3.18778 3.57878 3.38893
# Velocity P-wave (km/s) = 5.13617 5.52850 5.33594
#
# Compressibility (1/GPa) = 0.03456816
#
# Stress axis : x y z
#
# Youngs Moduli (GPa) = 88.85969 64.70580 45.23790
#
# Poissons Ratio (x) = 0.00648 0.16334
# Poissons Ratio (y) = 0.00890 0.15435
# Poissons Ratio (z) = 0.32084 0.22077
#
# Static dielectric constant tensor:
#      x y z
#    x 2.031680 0.000000 -0.077160 
#    y 0.000000 1.841540 0.000000 
#    z -0.077160 0.000000 1.970220 
# 
# From -- ./inp_files/47281.got.cif
#   From: 2010.05.17/outbox.cif.g08.bks.cpg/sg5_24_cif.got.tgz:47281.got - 2010.06.03 18:56:24.
