data_PCOD9126554
_publ_section_title
;
Structure prediction by ZEFSAII (Michael W. Deem and Ramdas Pophale) SiO2 
 PCOD9126554
Probable space group: C 2
;
_chemical_formula_sum "Si O2"
_cell_formula_units_Z 28
_cell_length_a 9.083361
_cell_length_b 11.089674
_cell_length_c 13.963668
_cell_angle_alpha 90.000000
_cell_angle_beta 114.262103
_cell_angle_gamma 90.000000
_cell_volume 1282.345465
_symmetry_space_group_name_H-M "C 2"
_symmetry_group_IT_number 5
_symmetry_cell_setting 'monoclinic'
loop_
_space_group_symop_operation_xyz
x,y,z
-x,y,-z
1/2+x,1/2+y,z
1/2-x,1/2+y,-z
loop_
_atom_site_type_symbol
_atom_site_label
_atom_site_fract_x
_atom_site_fract_y
_atom_site_fract_z
Si Si1 0.000000 0.190140 0.500000
Si Si2 0.586772 0.717735 0.150382
Si Si3 0.805883 0.944386 0.151687
Si Si4 0.022094 0.344537 0.329251
Si Si5 0.358577 0.336565 0.775405
Si Si6 0.705065 0.082107 0.308300
Si Si7 0.773973 0.106063 0.973515
Si Si8 0.500000 0.245114 0.000000
O O1 0.923523 0.278712 0.559268
O O2 0.865863 0.109516 0.411921
O O3 0.690124 0.831197 0.139660
O O4 0.559635 0.749699 0.253460
O O5 0.411076 0.691119 0.059178
O O6 0.688543 0.607498 0.129386
O O7 0.994769 0.919947 0.219935
O O8 0.750341 0.045580 0.211476
O O9 0.786851 0.984145 0.036855
O O10 0.108059 0.470306 0.326883
O O11 0.829553 0.366083 0.287550
O O12 0.383223 0.209935 0.725415
O O13 0.390722 0.318176 0.896967
O O14 0.605843 0.163140 0.957843
#
# Coordination Sequence:
#
# PCOD9126554 Si02
#       8
#     2   4   4   4   4   4   4   2
#     4  10  22  44  76  94 132 158 218 286 344 404
#     4  10  22  41  61  91 131 170 225 268 311 383
#     4  11  23  41  65  93 131 181 216 264 333 381
#     4  10  22  45  71  97 129 175 216 277 343 387
#     4  11  23  43  62  97 139 176 221 269 310 391
#     4  10  23  45  70  97 129 170 215 279 335 400
#     4  11  22  40  60  89 133 176 222 265 311 375
#     4  12  20  40  62  90 138 180 222 256 314 370
#
# _framework density 21.834987999999999
#
# number of rings (size 3 to 8) (size 9 to 14) (size 15 to 20)
#    0.000    1.429    4.286    0.857    0.000    5.714 
#    2.571    2.857    0.000    0.000    0.000    0.000 
#    0.000    0.000    0.000    0.000    0.000    0.000 
#
# Total GULP energy -78190.348142 kJ/mol
# GULP energy per Si atom -5585.024867 kJ/mol
# Density = 2.178529 g / cm^3
# Si number density = 21.834988 Si / 1000 Ang^3
#
#
#
# Elastic Constant Matrix: (Units=GPa)
#
#
# Indices 1 2 3 4 5 6 
#
# 1 111.6190 33.4523 2.8623 0.0000 -12.1829 0.0000
# 2 33.4523 70.1882 13.9920 0.0000 -10.2953 0.0000
# 3 2.8623 13.9920 58.4551 0.0000 -11.0434 0.0000
# 4 0.0000 0.0000 0.0000 18.7495 0.0000 -4.8308
# 5 -12.1829 -10.2953 -11.0434 0.0000 36.8653 0.0000
# 6 0.0000 0.0000 0.0000 -4.8308 0.0000 35.8143
#
#
#
# Elastic Compliance Matrix: (Units=1/GPa)
#
#
# Indices 1 2 3 4 5 6 
#
# 1 0.010686 -0.004954 0.001132 0.000000 0.002487 0.000000
# 2 -0.004954 0.017645 -0.003561 0.000000 0.002224 0.000000
# 3 0.001132 -0.003561 0.018854 0.000000 0.005028 0.000000
# 4 0.000000 0.000000 0.000000 0.055255 0.000000 0.007453
# 5 0.002487 0.002224 0.005028 0.000000 0.030075 0.000000
# 6 0.000000 0.000000 0.000000 0.007453 0.000000 0.028927
#
#
# Mechanical properties :
#
#
# Convention : Reuss Voigt Hill
#
# Bulk Modulus (GPa) = 30.84527 37.87504 34.36016
# Shear Modulus (GPa) = 26.73608 30.94952 28.84280
#
# Velocity S-wave (km/s) = 3.50303 3.76896 3.63842
# Velocity P-wave (km/s) = 5.52438 6.02692 5.78111
#
# Compressibility (1/GPa) = 0.03241988
#
# Stress axis : x y z
#
# Youngs Moduli (GPa) = 93.57842 56.67462 53.03948
#
# Poissons Ratio (x) = 0.28077 -0.06007
# Poissons Ratio (y) = 0.46359 0.18886
# Poissons Ratio (z) = -0.10597 0.20181
#
# Static dielectric constant tensor:
#      x y z
#    x 1.807200 0.000000 -0.002020 
#    y 0.000000 1.866220 0.000000 
#    z -0.002020 0.000000 1.795310 
# 
# From -- ./inp_files/50568.got.cif
#   From: 2010.05.17/outbox.cif.g08.bks.cpg/sg5_26_cif.got.tgz:50568.got - 2010.06.03 18:56:24.
