data_PCOD9126748
_publ_section_title
;
Structure prediction by ZEFSAII (Michael W. Deem and Ramdas Pophale) SiO2 
 PCOD9126748
Probable space group: C 2
;
_chemical_formula_sum "Si O2"
_cell_formula_units_Z 24
_cell_length_a 7.738822
_cell_length_b 12.299731
_cell_length_c 12.623452
_cell_angle_alpha 90.000000
_cell_angle_beta 88.656934
_cell_angle_gamma 90.000000
_cell_volume 1201.238590
_symmetry_space_group_name_H-M "C 2"
_symmetry_group_IT_number 5
_symmetry_cell_setting 'monoclinic'
loop_
_space_group_symop_operation_xyz
x,y,z
-x,y,-z
1/2+x,1/2+y,z
1/2-x,1/2+y,-z
loop_
_atom_site_type_symbol
_atom_site_label
_atom_site_fract_x
_atom_site_fract_y
_atom_site_fract_z
Si Si1 0.000000 0.181610 0.000000
Si Si2 0.183511 0.685252 0.500658
Si Si3 0.703125 0.277996 0.735320
Si Si4 0.449135 0.867642 0.172749
Si Si5 0.000000 0.052042 0.500000
Si Si6 0.866906 0.878704 0.663015
Si Si7 0.855536 0.602157 0.082440
O O1 0.064159 0.264550 0.906615
O O2 0.835854 0.109842 0.966292
O O3 0.229407 0.728423 0.617272
O O4 0.345640 0.621317 0.453774
O O5 0.149333 0.785643 0.424651
O O6 0.000000 0.621901 0.500000
O O7 0.534535 0.353128 0.730581
O O8 0.662079 0.178643 0.814569
O O9 0.865808 0.346862 0.774430
O O10 0.301856 0.873808 0.263659
O O11 0.421632 0.981812 0.112408
O O12 0.093072 0.984630 0.406291
O O13 0.000000 0.647752 0.000000
#
# Coordination Sequence:
#
# PCOD9126748 Si02
#       7
#     2   4   4   4   2   4   4
#     4  10  24  46  64  96 132 160 216 274 318 386
#     4  10  22  43  62  94 136 171 214 265 311 381
#     4  10  22  42  63  95 134 165 214 269 313 381
#     4  11  23  41  68  95 127 171 213 264 328 379
#     4  12  22  38  64  90 128 178 212 254 318 372
#     4  11  23  41  62  98 133 169 217 262 314 381
#     4  11  23  42  67  96 128 168 216 267 327 381
#
# _framework density 19.979379000000002
#
# number of rings (size 3 to 8) (size 9 to 14) (size 15 to 20)
#    0.000    1.333    3.333    3.000    0.000    6.667 
#    3.000    0.000    0.000    0.000    0.000    0.000 
#    0.000    0.000    0.000    0.000    0.000    0.000 
#
# Total GULP energy -66987.130289 kJ/mol
# GULP energy per Si atom -5582.260857 kJ/mol
# Density = 1.993391 g / cm^3
# Si number density = 19.979379 Si / 1000 Ang^3
#
#
#
# Elastic Constant Matrix: (Units=GPa)
#
#
# Indices 1 2 3 4 5 6 
#
# 1 157.8172 65.5779 61.6680 0.0000 4.8349 0.0000
# 2 65.5779 71.9152 23.4691 0.0000 10.1023 0.0000
# 3 61.6680 23.4691 105.4230 0.0000 -4.1964 0.0000
# 4 0.0000 0.0000 0.0000 10.3230 0.0000 21.8527
# 5 4.8349 10.1023 -4.1964 0.0000 46.1939 0.0000
# 6 0.0000 0.0000 0.0000 21.8527 0.0000 -5.5252
#
#
#
# Elastic Compliance Matrix: (Units=1/GPa)
#
#
# Indices 1 2 3 4 5 6 
#
# 1 0.012286 -0.009611 -0.005033 0.000000 0.000359 0.000000
# 2 -0.009611 0.023133 0.000312 0.000000 -0.004025 0.000000
# 3 -0.005033 0.000312 0.012423 0.000000 0.001587 0.000000
# 4 0.000000 0.000000 0.000000 0.010336 0.000000 0.040879
# 5 0.000359 -0.004025 0.001587 0.000000 0.022635 0.000000
# 6 0.000000 0.000000 0.000000 0.040879 0.000000 -0.019311
#
#
# Mechanical properties :
#
#
# Convention : Reuss Voigt Hill
#
# Bulk Modulus (GPa) = 52.14211 70.73173 61.43692
# Shear Modulus (GPa) = 51.78242 22.49437 37.13840
#
# Velocity S-wave (km/s) = 5.09649 3.35905 4.31610
# Velocity P-wave (km/s) = 7.79659 7.10799 7.46024
#
# Compressibility (1/GPa) = 0.01917836
#
# Stress axis : x y z
#
# Youngs Moduli (GPa) = 81.39532 43.22842 80.49423
#
# Poissons Ratio (x) = 0.41547 0.40511
# Poissons Ratio (y) = 0.78230 -0.02512
# Poissons Ratio (z) = 0.40964 -0.01349
#
# Static dielectric constant tensor:
#      x y z
#    x 1.719180 0.000000 -0.006440 
#    y 0.000000 1.715410 0.000000 
#    z -0.006440 0.000000 1.721670 
# 
# From -- ./inp_files/35433.got.cif
#   From: 2010.05.17/outbox.cif.g08.bks.cpg/sg5_18_cif.got.tgz:35433.got - 2010.06.03 18:56:24.
