data_PCOD9126110
_publ_section_title
;
Structure prediction by ZEFSAII (Michael W. Deem and Ramdas Pophale) SiO2 
 PCOD9126110
Probable space group: C 2
;
_chemical_formula_sum "Si O2"
_cell_formula_units_Z 26
_cell_length_a 22.884389
_cell_length_b 11.857107
_cell_length_c 8.993837
_cell_angle_alpha 90.000000
_cell_angle_beta 30.766447
_cell_angle_gamma 90.000000
_cell_volume 1248.367545
_symmetry_space_group_name_H-M "C 2"
_symmetry_group_IT_number 5
_symmetry_cell_setting 'monoclinic'
loop_
_space_group_symop_operation_xyz
x,y,z
-x,y,-z
1/2+x,1/2+y,z
1/2-x,1/2+y,-z
loop_
_atom_site_type_symbol
_atom_site_label
_atom_site_fract_x
_atom_site_fract_y
_atom_site_fract_z
Si Si1 0.980499 0.712620 0.347431
Si Si2 0.256838 0.421680 0.624246
Si Si3 0.610499 0.830460 0.683766
Si Si4 0.408099 0.968273 0.567636
Si Si5 0.739295 0.310984 0.087689
Si Si6 0.000000 0.836005 0.000000
Si Si7 0.739327 0.160260 0.826590
O O1 0.908913 0.597441 0.515044
O O2 0.898380 0.806203 0.599945
O O3 0.007705 0.755839 0.124863
O O4 0.104116 0.681396 0.138683
O O5 0.170464 0.410570 0.675251
O O6 0.228270 0.324090 0.809413
O O7 0.252756 0.536068 0.729597
O O8 0.384009 0.405574 0.280262
O O9 0.566634 0.898418 0.635948
O O10 0.703020 0.742740 0.419917
O O11 0.500000 0.774631 0.000000
O O12 0.500000 0.952802 0.500000
O O13 0.290193 0.918260 0.889210
O O14 0.783861 0.205261 0.890454
#
# Coordination Sequence:
#
# PCOD9126110 Si02
#       7
#     4   4   4   4   4   2   4
#     4  11  21  40  67  94 130 170 235 271 337 398
#     4  11  23  43  66  96 137 173 231 274 342 389
#     4  11  24  40  64 101 139 170 228 281 330 403
#     4  11  23  40  66  97 131 178 228 273 341 398
#     4  10  22  38  62  94 127 167 221 278 321 389
#     4  10  24  40  64 100 132 176 218 294 322 404
#     4  11  23  40  67  95 131 184 220 276 344 392
#
# _framework density 20.827200999999999
#
# number of rings (size 3 to 8) (size 9 to 14) (size 15 to 20)
#    0.000    1.231    1.538    5.077    4.308    0.000 
#    0.000    0.000    0.000   16.615    0.000    0.000 
#    0.000    0.000    0.000    0.000    0.000    0.000 
#
# Total GULP energy -72455.143604 kJ/mol
# GULP energy per Si atom -5573.472585 kJ/mol
# Density = 2.077980 g / cm^3
# Si number density = 20.827201 Si / 1000 Ang^3
#
#
#
# Elastic Constant Matrix: (Units=GPa)
#
#
# Indices 1 2 3 4 5 6 
#
# 1 101.4864 44.7726 34.7143 0.0000 25.4090 0.0000
# 2 44.7726 86.2574 47.3594 0.0000 8.2271 0.0000
# 3 34.7143 47.3594 149.8270 0.0000 14.9040 0.0000
# 4 0.0000 0.0000 0.0000 31.9894 0.0000 2.9703
# 5 25.4090 8.2271 14.9040 0.0000 37.7028 0.0000
# 6 0.0000 0.0000 0.0000 2.9703 0.0000 19.7974
#
#
#
# Elastic Compliance Matrix: (Units=1/GPa)
#
#
# Indices 1 2 3 4 5 6 
#
# 1 0.015152 -0.006763 -0.000524 0.000000 -0.008528 0.000000
# 2 -0.006763 0.017114 -0.004085 0.000000 0.002438 0.000000
# 3 -0.000524 -0.004085 0.008289 0.000000 -0.002032 0.000000
# 4 0.000000 0.000000 0.000000 0.031702 0.000000 -0.004756
# 5 -0.008528 0.002438 -0.002032 0.000000 0.032542 0.000000
# 6 0.000000 0.000000 0.000000 -0.004756 0.000000 0.051225
#
#
# Mechanical properties :
#
#
# Convention : Reuss Voigt Hill
#
# Bulk Modulus (GPa) = 56.15024 65.69594 60.92309
# Shear Modulus (GPa) = 27.06993 31.94623 29.50808
#
# Velocity S-wave (km/s) = 3.60910 3.92071 3.76813
# Velocity P-wave (km/s) = 6.66229 7.21857 6.94600
#
# Compressibility (1/GPa) = 0.01780936
#
# Stress axis : x y z
#
# Youngs Moduli (GPa) = 65.99830 58.43102 120.63735
#
# Poissons Ratio (x) = 0.39519 0.06327
# Poissons Ratio (y) = 0.44637 0.49283
# Poissons Ratio (z) = 0.03461 0.23870
#
# Static dielectric constant tensor:
#      x y z
#    x 1.802060 0.000000 -0.003020 
#    y 0.000000 1.768990 0.000000 
#    z -0.003020 0.000000 1.754660 
# 
# From -- ./inp_files/30915.got.cif
#   From: 2010.05.17/outbox.cif.g08.bks.cpg/sg5_16_cif.got.tgz:30915.got - 2010.06.03 18:56:24.
