data_PCOD9126804
_publ_section_title
;
Structure prediction by ZEFSAII (Michael W. Deem and Ramdas Pophale) SiO2 
 PCOD9126804
Probable space group: C 2
;
_chemical_formula_sum "Si O2"
_cell_formula_units_Z 26
_cell_length_a 11.578487
_cell_length_b 18.964732
_cell_length_c 7.841002
_cell_angle_alpha 90.000000
_cell_angle_beta 136.585635
_cell_angle_gamma 90.000000
_cell_volume 1183.306513
_symmetry_space_group_name_H-M "C 2"
_symmetry_group_IT_number 5
_symmetry_cell_setting 'monoclinic'
loop_
_space_group_symop_operation_xyz
x,y,z
-x,y,-z
1/2+x,1/2+y,z
1/2-x,1/2+y,-z
loop_
_atom_site_type_symbol
_atom_site_label
_atom_site_fract_x
_atom_site_fract_y
_atom_site_fract_z
Si Si1 0.752746 0.314250 0.134179
Si Si2 0.384163 0.628300 0.049363
Si Si3 0.632125 0.467109 0.991552
Si Si4 0.500000 0.414354 0.500000
Si Si5 0.965364 0.710463 0.262894
Si Si6 0.667499 0.825525 0.155062
Si Si7 0.681207 0.714304 0.476564
O O1 0.811234 0.269200 0.357729
O O2 0.751112 0.398907 0.149667
O O3 0.571326 0.282279 0.882788
O O4 0.846640 0.301123 0.056048
O O5 0.315873 0.548351 0.959034
O O6 0.531301 0.657736 0.332332
O O7 0.500000 0.636471 0.000000
O O8 0.210231 0.667678 0.916846
O O9 0.543236 0.456681 0.714697
O O10 0.500000 0.460453 0.000000
O O11 0.335693 0.368209 0.358441
O O12 0.000000 0.724080 0.500000
O O13 0.133265 0.679334 0.355205
O O14 0.665465 0.762086 0.287547
O O15 0.500000 0.870908 0.000000
#
# Coordination Sequence:
#
# PCOD9126804 Si02
#       7
#     4   4   4   2   4   4   4
#     4  11  23  41  69 103 131 174 226 283 334 396
#     4  11  24  43  68  98 135 181 225 274 345 408
#     4  10  22  42  66  94 135 180 220 271 344 407
#     4  10  22  42  66  90 132 176 216 274 340 396
#     4  12  22  40  70  95 128 174 224 273 334 394
#     4  11  22  38  64  98 131 167 216 274 337 389
#     4  12  23  41  68  99 133 169 225 284 330 396
#
# _framework density 21.972328999999998
#
# number of rings (size 3 to 8) (size 9 to 14) (size 15 to 20)
#    0.000    0.923    3.077    5.538    1.077    3.692 
#    0.000    3.077   10.154    0.000    0.000    0.000 
#    0.000    0.000    0.000    0.000    0.000    0.000 
#
# Total GULP energy -72403.672026 kJ/mol
# GULP energy per Si atom -5569.513233 kJ/mol
# Density = 2.192232 g / cm^3
# Si number density = 21.972329 Si / 1000 Ang^3
#
#
#
# Elastic Constant Matrix: (Units=GPa)
#
#
# Indices 1 2 3 4 5 6 
#
# 1 101.8810 24.3705 44.7202 0.0000 2.2547 0.0000
# 2 24.3705 87.6574 22.9676 0.0000 2.4770 0.0000
# 3 44.7202 22.9676 84.8320 0.0000 8.2601 0.0000
# 4 0.0000 0.0000 0.0000 18.7671 0.0000 -2.8347
# 5 2.2547 2.4770 8.2601 0.0000 63.4121 0.0000
# 6 0.0000 0.0000 0.0000 -2.8347 0.0000 36.5905
#
#
#
# Elastic Compliance Matrix: (Units=1/GPa)
#
#
# Indices 1 2 3 4 5 6 
#
# 1 0.013091 -0.001973 -0.006411 0.000000 0.000447 0.000000
# 2 -0.001973 0.012576 -0.002354 0.000000 -0.000114 0.000000
# 3 -0.006411 -0.002354 0.015976 0.000000 -0.001761 0.000000
# 4 0.000000 0.000000 0.000000 0.053916 0.000000 0.004177
# 5 0.000447 -0.000114 -0.001761 0.000000 0.015988 0.000000
# 6 0.000000 0.000000 0.000000 0.004177 0.000000 0.027653
#
#
# Mechanical properties :
#
#
# Convention : Reuss Voigt Hill
#
# Bulk Modulus (GPa) = 49.57948 50.94298 50.26123
# Shear Modulus (GPa) = 29.86892 35.90810 32.88851
#
# Velocity S-wave (km/s) = 3.69099 4.04696 3.87307
# Velocity P-wave (km/s) = 6.38577 6.71361 6.55174
#
# Compressibility (1/GPa) = 0.02016964
#
# Stress axis : x y z
#
# Youngs Moduli (GPa) = 76.38683 79.51348 62.59286
#
# Poissons Ratio (x) = 0.15685 0.40126
# Poissons Ratio (y) = 0.15068 0.14734
# Poissons Ratio (z) = 0.48969 0.18717
#
# Static dielectric constant tensor:
#      x y z
#    x 1.878720 0.000000 0.023940 
#    y 0.000000 1.854460 0.000000 
#    z 0.023940 0.000000 1.909160 
# 
# From -- ./inp_files/22006.got.cif
#   From: 2010.05.17/outbox.cif.g08.bks.cpg/sg5_12_cif.got.tgz:22006.got - 2010.06.03 18:56:24.
