data_PCOD9126694
_publ_section_title
;
Structure prediction by ZEFSAII (Michael W. Deem and Ramdas Pophale) SiO2 
 PCOD9126694
Probable space group: C 2
;
_chemical_formula_sum "Si O2"
_cell_formula_units_Z 32
_cell_length_a 14.887979
_cell_length_b 16.710883
_cell_length_c 11.085853
_cell_angle_alpha 90.000000
_cell_angle_beta 31.833565
_cell_angle_gamma 90.000000
_cell_volume 1454.750494
_symmetry_space_group_name_H-M "C 2"
_symmetry_group_IT_number 5
_symmetry_cell_setting 'monoclinic'
loop_
_space_group_symop_operation_xyz
x,y,z
-x,y,-z
1/2+x,1/2+y,z
1/2-x,1/2+y,-z
loop_
_atom_site_type_symbol
_atom_site_label
_atom_site_fract_x
_atom_site_fract_y
_atom_site_fract_z
Si Si1 0.209906 0.967190 0.144336
Si Si2 0.795109 0.615986 0.214676
Si Si3 0.692587 0.863593 0.752144
Si Si4 0.846332 0.002916 0.444002
Si Si5 0.313934 0.574118 0.233868
Si Si6 0.429148 0.220540 0.442206
Si Si7 0.671984 0.938879 0.231800
Si Si8 0.126042 0.773871 0.972218
O O1 0.217247 0.894175 0.228473
O O2 0.243334 0.047942 0.179131
O O3 0.352290 0.955215 0.881402
O O4 0.026603 0.973785 0.290527
O O5 0.700935 0.588327 0.443327
O O6 0.750957 0.703175 0.215736
O O7 0.000000 0.613034 0.000000
O O8 0.788946 0.789186 0.588611
O O9 0.707998 0.939673 0.647209
O O10 0.500000 0.844647 0.000000
O O11 0.846114 0.010571 0.302795
O O12 0.168444 0.635542 0.441866
O O13 0.253276 0.520824 0.190989
O O14 0.500000 0.613502 0.000000
O O15 0.500000 0.228145 0.500000
O O16 0.548252 0.237958 0.188073
O O17 0.500000 0.924472 0.500000
O O18 0.788612 0.859733 0.105433
O O19 0.000000 0.783865 0.000000
#
# Coordination Sequence:
#
# PCOD9126694 Si02
#       8
#     4   4   4   4   4   4   4   4
#     4  11  23  43  67 101 135 182 233 292 345 431
#     4  10  22  41  70  98 133 181 238 286 352 418
#     4  11  24  42  71  99 136 183 242 289 351 423
#     4  11  22  42  68  99 135 185 228 293 348 428
#     4  12  26  45  69 104 144 185 234 287 368 422
#     4  12  27  47  73 103 146 189 238 298 361 424
#     4  12  28  42  69 103 143 184 233 291 362 423
#     4  11  26  47  71 101 141 188 234 294 361 426
#
# _framework density 21.9969
#
# number of rings (size 3 to 8) (size 9 to 14) (size 15 to 20)
#    0.000    0.750    1.250    7.875    8.750    1.000 
#    0.000    2.500    0.000    0.000    0.000    0.000 
#    0.000    0.000    0.000    0.000    0.000    0.000 
#
# Total GULP energy -89416.495039 kJ/mol
# GULP energy per Si atom -5588.530940 kJ/mol
# Density = 2.194683 g / cm^3
# Si number density = 21.996900 Si / 1000 Ang^3
#
#
#
# Elastic Constant Matrix: (Units=GPa)
#
#
# Indices 1 2 3 4 5 6 
#
# 1 65.2514 -5.1756 4.0064 -0.0072 11.0550 -0.0196
# 2 -5.1756 93.9507 2.2162 -0.0045 -3.4645 -0.0127
# 3 4.0064 2.2162 80.3621 -0.0098 9.4006 -0.0272
# 4 -0.0072 -0.0045 -0.0098 69.3446 0.0077 88.9919
# 5 11.0550 -3.4645 9.4006 0.0077 33.0421 0.0210
# 6 -0.0196 -0.0127 -0.0272 88.9919 0.0210 324.8003
#
#
#
# Elastic Compliance Matrix: (Units=1/GPa)
#
#
# Indices 1 2 3 4 5 6 
#
# 1 0.016295 0.000707 -0.000210 0.000001 -0.005318 0.000001
# 2 0.000707 0.010731 -0.000450 0.000000 0.001017 0.000000
# 3 -0.000210 -0.000450 0.012893 0.000001 -0.003645 0.000001
# 4 0.000001 0.000000 0.000001 0.022241 -0.000002 -0.006094
# 5 -0.005318 0.001017 -0.003645 -0.000002 0.033187 -0.000002
# 6 0.000001 0.000000 0.000001 -0.006094 -0.000002 0.004748
#
#
# Mechanical properties :
#
#
# Convention : Reuss Voigt Hill
#
# Bulk Modulus (GPa) = 24.99220 26.85089 25.92155
# Shear Modulus (GPa) = 44.11496 101.33857 72.72676
#
# Velocity S-wave (km/s) = 4.48315 6.79481 5.75622
# Velocity P-wave (km/s) = 6.17936 8.59026 7.48255
#
# Compressibility (1/GPa) = 0.04001249
#
# Stress axis : x y z
#
# Youngs Moduli (GPa) = 61.36747 93.18872 77.56183
#
# Poissons Ratio (x) = -0.06584 0.01627
# Poissons Ratio (y) = -0.04336 0.03491
# Poissons Ratio (z) = 0.01287 0.04194
#
# Static dielectric constant tensor:
#      x y z
#    x 1.747470 0.000000 0.000300 
#    y 0.000000 1.791180 0.000000 
#    z 0.000300 0.000000 1.824270 
# 
# From -- ./inp_files/43361.got.cif
#   From: 2010.05.17/outbox.cif.g08.bks.cpg/sg5_22_cif.got.tgz:43361.got - 2010.06.03 18:56:24.
