data_PCOD9126616
_publ_section_title
;
Structure prediction by ZEFSAII (Michael W. Deem and Ramdas Pophale) SiO2 
 PCOD9126616
Probable space group: C 2
;
_chemical_formula_sum "Si O2"
_cell_formula_units_Z 20
_cell_length_a 20.708544
_cell_length_b 4.977982
_cell_length_c 7.646093
_cell_angle_alpha 90.000000
_cell_angle_beta 85.711134
_cell_angle_gamma 90.000000
_cell_volume 786.003710
_symmetry_space_group_name_H-M "C 2"
_symmetry_group_IT_number 5
_symmetry_cell_setting 'monoclinic'
loop_
_space_group_symop_operation_xyz
x,y,z
-x,y,-z
1/2+x,1/2+y,z
1/2-x,1/2+y,-z
loop_
_atom_site_type_symbol
_atom_site_label
_atom_site_fract_x
_atom_site_fract_y
_atom_site_fract_z
Si Si1 0.718128 0.388270 0.076901
Si Si2 0.735665 0.543945 0.606078
Si Si3 0.620256 0.300958 0.840379
Si Si4 0.019511 0.898595 0.294374
Si Si5 0.432990 0.892422 0.908144
O O1 0.723184 0.792483 0.475752
O O2 0.727596 0.212835 0.248161
O O3 0.747341 0.175514 0.928482
O O4 0.649936 0.455125 0.001608
O O5 0.668769 0.398694 0.678407
O O6 0.548338 0.382379 0.799879
O O7 0.614946 0.998698 0.924437
O O8 0.060754 0.156256 0.234154
O O9 0.000000 0.889612 0.500000
O O10 0.060772 0.647404 0.221299
O O11 0.500000 0.865307 0.000000
#
# Coordination Sequence:
#
# PCOD9126616 Si02
#       5
#     4   4   4   4   4
#     4  10  22  41  65  93 129 177 225 263 324 409
#     4  11  24  41  65 101 137 172 226 279 327 392
#     4  10  24  44  69  94 139 184 215 274 339 389
#     4  11  24  41  65 100 132 166 224 278 324 391
#     4  10  22  41  65  92 127 175 223 260 324 409
#
# _framework density 25.445170000000001
#
# number of rings (size 3 to 8) (size 9 to 14) (size 15 to 20)
#    0.000    1.600    0.000    4.800    0.000   17.600 
#    0.000    0.000    0.000    2.400    0.000    0.000 
#    0.000    0.000    0.000    0.000    0.000    0.000 
#
# Total GULP energy -55738.914206 kJ/mol
# GULP energy per Si atom -5573.891421 kJ/mol
# Density = 2.538726 g / cm^3
# Si number density = 25.445170 Si / 1000 Ang^3
#
#
#
# Elastic Constant Matrix: (Units=GPa)
#
#
# Indices 1 2 3 4 5 6 
#
# 1 46.3964 -7.6056 11.2531 0.0000 7.4491 0.0000
# 2 -7.6056 197.3319 63.0952 0.0000 -16.1052 0.0000
# 3 11.2531 63.0952 135.7884 0.0000 -17.0095 0.0000
# 4 0.0000 0.0000 0.0000 52.9366 0.0000 -0.6989
# 5 7.4491 -16.1052 -17.0095 0.0000 30.3164 0.0000
# 6 0.0000 0.0000 0.0000 -0.6989 0.0000 0.5387
#
#
#
# Elastic Compliance Matrix: (Units=1/GPa)
#
#
# Indices 1 2 3 4 5 6 
#
# 1 0.023784 0.001473 -0.003538 0.000000 -0.007047 0.000000
# 2 0.001473 0.006129 -0.002804 0.000000 0.001320 0.000000
# 3 -0.003538 -0.002804 0.009555 0.000000 0.004740 0.000000
# 4 0.000000 0.000000 0.000000 0.019220 0.000000 0.024936
# 5 -0.007047 0.001320 0.004740 0.000000 0.038078 0.000000
# 6 0.000000 0.000000 0.000000 0.024936 0.000000 1.888768
#
#
# Mechanical properties :
#
#
# Convention : Reuss Voigt Hill
#
# Bulk Modulus (GPa) = 33.63807 57.00025 45.31916
# Shear Modulus (GPa) = 2.49354 37.60993 20.05174
#
# Velocity S-wave (km/s) = 0.99101 3.84875 2.81025
# Velocity P-wave (km/s) = 3.81549 6.49618 5.32721
#
# Compressibility (1/GPa) = 0.02972822
#
# Stress axis : x y z
#
# Youngs Moduli (GPa) = 42.04439 163.16279 104.66248
#
# Poissons Ratio (x) = -0.24032 0.37031
# Poissons Ratio (y) = -0.06193 0.29352
# Poissons Ratio (z) = 0.14876 0.45759
#
# Static dielectric constant tensor:
#      x y z
#    x 2.073370 0.000000 -0.069880 
#    y 0.000000 2.059370 0.000000 
#    z -0.069880 0.000000 2.110960 
# 
# From -- ./inp_files/10952.got.cif
#   From: 2010.05.17/outbox.cif.g08.bks.cpg/sg5_6_cif.got.tgz:10952.got - 2010.06.03 18:56:24.
