data_PCOD9126102
_publ_section_title
;
Structure prediction by ZEFSAII (Michael W. Deem and Ramdas Pophale) SiO2 
 PCOD9126102
Probable space group: C 2
;
_chemical_formula_sum "Si O2"
_cell_formula_units_Z 26
_cell_length_a 13.469446
_cell_length_b 7.054096
_cell_length_c 12.969566
_cell_angle_alpha 90.000000
_cell_angle_beta 116.380816
_cell_angle_gamma 90.000000
_cell_volume 1103.969238
_symmetry_space_group_name_H-M "C 2"
_symmetry_group_IT_number 5
_symmetry_cell_setting 'monoclinic'
loop_
_space_group_symop_operation_xyz
x,y,z
-x,y,-z
1/2+x,1/2+y,z
1/2-x,1/2+y,-z
loop_
_atom_site_type_symbol
_atom_site_label
_atom_site_fract_x
_atom_site_fract_y
_atom_site_fract_z
Si Si1 0.617577 0.517180 0.891238
Si Si2 0.500000 0.252614 0.000000
Si Si3 0.279959 0.633029 0.656379
Si Si4 0.664309 0.908891 0.900976
Si Si5 0.839503 0.528379 0.604004
Si Si6 0.924372 0.723410 0.286052
Si Si7 0.310488 0.262257 0.782391
O O1 0.567015 0.389022 0.956650
O O2 0.590894 0.734907 0.904374
O O3 0.579567 0.434141 0.763591
O O4 0.748465 0.476587 0.973383
O O5 0.411621 0.154882 0.885337
O O6 0.234497 0.532761 0.532162
O O7 0.170676 0.698025 0.671497
O O8 0.340488 0.472621 0.752659
O O9 0.350022 0.814397 0.651612
O O10 0.720657 0.806036 0.827420
O O11 0.610160 0.091734 0.826711
O O12 0.779708 0.641539 0.669036
O O13 0.954235 0.640342 0.631551
#
# Coordination Sequence:
#
# PCOD9126102 Si02
#       7
#     4   2   4   4   4   4   4
#     4  11  20  40  59  92 133 172 217 275 336 401
#     4  10  22  38  64  92 132 164 214 278 324 404
#     4  11  25  44  67  96 132 179 220 283 344 394
#     4  10  22  38  62  89 133 174 212 276 337 401
#     4  12  23  44  71  93 133 176 226 283 340 399
#     4  11  24  41  66  98 129 176 231 270 340 416
#     4  10  22  43  62  95 132 167 217 276 336 400
#
# _framework density 23.551383000000001
#
# number of rings (size 3 to 8) (size 9 to 14) (size 15 to 20)
#    0.000    1.231    4.615    1.385    2.154    0.000 
#    0.000    1.538    0.000    0.000    0.000    0.000 
#    0.000    0.000    0.000    0.000    0.000    0.000 
#
# Total GULP energy -72595.825728 kJ/mol
# GULP energy per Si atom -5584.294287 kJ/mol
# Density = 2.349778 g / cm^3
# Si number density = 23.551383 Si / 1000 Ang^3
#
#
#
# Elastic Constant Matrix: (Units=GPa)
#
#
# Indices 1 2 3 4 5 6 
#
# 1 53.1264 -3.0233 16.4423 0.0000 -11.2196 0.0000
# 2 -3.0233 95.3942 14.8855 0.0000 -3.3927 0.0000
# 3 16.4423 14.8855 89.3775 0.0000 -2.0547 0.0000
# 4 0.0000 0.0000 0.0000 33.4415 0.0000 -2.3729
# 5 -11.2196 -3.3927 -2.0547 0.0000 34.8950 0.0000
# 6 0.0000 0.0000 0.0000 -2.3729 0.0000 28.8712
#
#
#
# Elastic Compliance Matrix: (Units=1/GPa)
#
#
# Indices 1 2 3 4 5 6 
#
# 1 0.021625 0.001566 -0.004081 0.000000 0.006865 0.000000
# 2 0.001566 0.010907 -0.002072 0.000000 0.001442 0.000000
# 3 -0.004081 -0.002072 0.012266 0.000000 -0.000791 0.000000
# 4 0.000000 0.000000 0.000000 0.030078 0.000000 0.002472
# 5 0.006865 0.001442 -0.000791 0.000000 0.030958 0.000000
# 6 0.000000 0.000000 0.000000 0.002472 0.000000 0.034840
#
#
# Mechanical properties :
#
#
# Convention : Reuss Voigt Hill
#
# Bulk Modulus (GPa) = 28.06996 32.72300 30.39648
# Shear Modulus (GPa) = 30.91713 33.41444 32.16579
#
# Velocity S-wave (km/s) = 3.62712 3.77077 3.69964
# Velocity P-wave (km/s) = 5.43009 5.73435 5.58429
#
# Compressibility (1/GPa) = 0.03562528
#
# Stress axis : x y z
#
# Youngs Moduli (GPa) = 46.24260 91.68431 81.52534
#
# Poissons Ratio (x) = -0.14361 0.33273
# Poissons Ratio (y) = -0.07243 0.16888
# Poissons Ratio (z) = 0.18873 0.18993
#
# Static dielectric constant tensor:
#      x y z
#    x 1.970920 0.000000 0.043960 
#    y 0.000000 1.952370 0.000000 
#    z 0.043960 0.000000 1.874180 
# 
# From -- ./inp_files/55358.got.cif
#   From: 2010.05.17/outbox.cif.g08.bks.cpg/sg5_28_cif.got.tgz:55358.got - 2010.06.03 18:56:24.
