data_PCOD9126676
_publ_section_title
;
Structure prediction by ZEFSAII (Michael W. Deem and Ramdas Pophale) SiO2 
 PCOD9126676
Probable space group: C 2
;
_chemical_formula_sum "Si O2"
_cell_formula_units_Z 28
_cell_length_a 26.523556
_cell_length_b 8.442159
_cell_length_c 8.190202
_cell_angle_alpha 90.000000
_cell_angle_beta 135.665601
_cell_angle_gamma 90.000000
_cell_volume 1281.624070
_symmetry_space_group_name_H-M "C 2"
_symmetry_group_IT_number 5
_symmetry_cell_setting 'monoclinic'
loop_
_space_group_symop_operation_xyz
x,y,z
-x,y,-z
1/2+x,1/2+y,z
1/2-x,1/2+y,-z
loop_
_atom_site_type_symbol
_atom_site_label
_atom_site_fract_x
_atom_site_fract_y
_atom_site_fract_z
Si Si1 0.125648 0.234290 0.343718
Si Si2 0.147181 0.665742 0.697198
Si Si3 0.148988 0.886712 0.396372
Si Si4 0.000000 0.469501 0.000000
Si Si5 0.685373 0.879910 0.145598
Si Si6 0.500000 0.199299 0.500000
Si Si7 0.779357 0.334698 0.133224
Si Si8 0.405440 0.188043 0.013296
O O1 0.059527 0.354387 0.218465
O O2 0.155126 0.281317 0.230472
O O3 0.183112 0.255737 0.623671
O O4 0.105591 0.049766 0.300815
O O5 0.130116 0.760149 0.491973
O O6 0.068217 0.611010 0.576631
O O7 0.201176 0.519390 0.797549
O O8 0.195193 0.788055 0.918206
O O9 0.232738 0.921424 0.620227
O O10 0.139622 0.803538 0.202280
O O11 0.960012 0.584608 0.031273
O O12 0.686951 0.798831 0.969962
O O13 0.644428 0.046769 0.033950
O O14 0.455547 0.283980 0.255463
#
# Coordination Sequence:
#
# PCOD9126676 Si02
#       8
#     4   4   4   2   4   2   4   4
#     4  11  24  43  70  98 143 182 233 294 359 415
#     4  11  24  42  71 103 140 186 241 292 363 414
#     4  11  24  43  69 100 140 181 233 295 353 420
#     4  10  24  42  68  98 128 196 226 294 364 420
#     4  10  22  41  69 105 128 187 232 289 346 418
#     4  12  24  40  68 106 134 188 222 298 346 430
#     4  11  22  44  69 104 140 184 238 299 348 433
#     4  11  22  42  68  98 142 180 240 280 358 432
#
# _framework density 21.847277999999999
#
# number of rings (size 3 to 8) (size 9 to 14) (size 15 to 20)
#    0.000    1.143    1.429    6.000    2.000    2.857 
#    2.571    0.000    0.000    0.857    0.000    0.000 
#    0.000    0.000    0.000    0.000    0.000    0.000 
#
# Total GULP energy -78081.659037 kJ/mol
# GULP energy per Si atom -5577.261360 kJ/mol
# Density = 2.179755 g / cm^3
# Si number density = 21.847278 Si / 1000 Ang^3
#
#
#
# Elastic Constant Matrix: (Units=GPa)
#
#
# Indices 1 2 3 4 5 6 
#
# 1 81.5039 25.6872 32.3746 0.0000 1.2306 0.0000
# 2 25.6872 79.9546 14.3548 0.0000 -6.7317 0.0000
# 3 32.3746 14.3548 136.9939 0.0000 -22.6364 0.0000
# 4 0.0000 0.0000 0.0000 23.1372 0.0000 -9.5414
# 5 1.2306 -6.7317 -22.6364 0.0000 45.3672 0.0000
# 6 0.0000 0.0000 0.0000 -9.5414 0.0000 15.4310
#
#
#
# Elastic Compliance Matrix: (Units=1/GPa)
#
#
# Indices 1 2 3 4 5 6 
#
# 1 0.015142 -0.004462 -0.003584 0.000000 -0.002861 0.000000
# 2 -0.004462 0.014137 -0.000066 0.000000 0.002186 0.000000
# 3 -0.003584 -0.000066 0.008902 0.000000 0.004529 0.000000
# 4 0.000000 0.000000 0.000000 0.058013 0.000000 0.035871
# 5 -0.002861 0.002186 0.004529 0.000000 0.024704 0.000000
# 6 0.000000 0.000000 0.000000 0.035871 0.000000 0.086985
#
#
# Mechanical properties :
#
#
# Convention : Reuss Voigt Hill
#
# Bulk Modulus (GPa) = 45.54220 49.25397 47.39809
# Shear Modulus (GPa) = 21.60524 31.85613 26.73069
#
# Velocity S-wave (km/s) = 3.14812 3.82269 3.50169
# Velocity P-wave (km/s) = 5.83997 6.48672 6.17182
#
# Compressibility (1/GPa) = 0.02195766
#
# Stress axis : x y z
#
# Youngs Moduli (GPa) = 66.03981 70.73874 112.33786
#
# Poissons Ratio (x) = 0.31566 0.40258
# Poissons Ratio (y) = 0.29469 0.00736
# Poissons Ratio (z) = 0.23666 0.00464
#
# Static dielectric constant tensor:
#      x y z
#    x 1.925960 0.000000 -0.065290 
#    y 0.000000 1.774510 0.000000 
#    z -0.065290 0.000000 1.801690 
# 
# From -- ./inp_files/26724.got.cif
#   From: 2010.05.17/outbox.cif.g08.bks.cpg/sg5_14_cif.got.tgz:26724.got - 2010.06.03 18:56:24.
