data_PCOD9126276
_publ_section_title
;
Structure prediction by ZEFSAII (Michael W. Deem and Ramdas Pophale) SiO2 
 PCOD9126276
Probable space group: C 2
;
_chemical_formula_sum "Si O2"
_cell_formula_units_Z 26
_cell_length_a 8.098549
_cell_length_b 19.726407
_cell_length_c 10.520189
_cell_angle_alpha 90.000000
_cell_angle_beta 46.330622
_cell_angle_gamma 90.000000
_cell_volume 1215.679236
_symmetry_space_group_name_H-M "C 2"
_symmetry_group_IT_number 5
_symmetry_cell_setting 'monoclinic'
loop_
_space_group_symop_operation_xyz
x,y,z
-x,y,-z
1/2+x,1/2+y,z
1/2-x,1/2+y,-z
loop_
_atom_site_type_symbol
_atom_site_label
_atom_site_fract_x
_atom_site_fract_y
_atom_site_fract_z
Si Si1 0.867525 0.672840 0.733703
Si Si2 0.483387 0.508166 0.161608
Si Si3 0.894037 0.862098 0.915082
Si Si4 0.144798 0.803478 0.547023
Si Si5 0.034872 0.259448 0.194415
Si Si6 0.737943 0.134132 0.923317
Si Si7 0.000000 0.544741 0.500000
O O1 0.656780 0.712538 0.775514
O O2 0.794016 0.659437 0.915713
O O3 0.955486 0.600602 0.635057
O O4 0.072943 0.725388 0.608607
O O5 0.639905 0.441673 0.094786
O O6 0.228407 0.499953 0.356148
O O7 0.500000 0.521256 0.000000
O O8 0.579366 0.574969 0.177820
O O9 0.069184 0.839798 0.713876
O O10 0.681555 0.810173 0.028965
O O11 0.000000 0.857666 0.000000
O O12 0.403678 0.805238 0.365664
O O13 0.000000 0.827308 0.500000
O O14 0.191251 0.203970 0.181675
O O15 0.500000 0.107627 0.000000
#
# Coordination Sequence:
#
# PCOD9126276 Si02
#       7
#     4   4   4   4   4   4   2
#     4  11  20  39  72 100 121 175 231 280 344 397
#     4  11  24  45  70  94 134 190 230 271 346 417
#     4  11  26  43  62 103 138 179 229 284 350 401
#     4  10  22  39  65 101 125 172 229 278 338 404
#     4  11  21  40  70  94 133 175 229 279 338 411
#     4  12  23  41  64 104 138 172 223 289 341 407
#     4  12  20  42  76  98 124 174 242 278 318 426
#
# _framework density 21.387221
#
# number of rings (size 3 to 8) (size 9 to 14) (size 15 to 20)
#    0.000    0.923    6.923    0.923    2.154    3.077 
#    5.538    2.308    0.000    0.000    0.000    0.000 
#    0.000    0.000    0.000    0.000    0.000    0.000 
#
# Total GULP energy -72488.518300 kJ/mol
# GULP energy per Si atom -5576.039869 kJ/mol
# Density = 2.133854 g / cm^3
# Si number density = 21.387221 Si / 1000 Ang^3
#
#
#
# Elastic Constant Matrix: (Units=GPa)
#
#
# Indices 1 2 3 4 5 6 
#
# 1 27.2737 11.8953 32.5599 0.0000 -0.0299 0.0000
# 2 11.8953 111.4038 28.3623 0.0000 -8.8245 0.0000
# 3 32.5599 28.3623 140.4795 0.0000 -4.9444 0.0000
# 4 0.0000 0.0000 0.0000 15.7662 0.0000 -3.5335
# 5 -0.0299 -8.8245 -4.9444 0.0000 31.9740 0.0000
# 6 0.0000 0.0000 0.0000 -3.5335 0.0000 17.3251
#
#
#
# Elastic Compliance Matrix: (Units=1/GPa)
#
#
# Indices 1 2 3 4 5 6 
#
# 1 0.051584 -0.002782 -0.011482 0.000000 -0.002495 0.000000
# 2 -0.002782 0.009788 -0.001243 0.000000 0.002507 0.000000
# 3 -0.011482 -0.001243 0.010073 0.000000 0.001204 0.000000
# 4 0.000000 0.000000 0.000000 0.066465 0.000000 0.013556
# 5 -0.002495 0.002507 0.001204 0.000000 0.032151 0.000000
# 6 0.000000 0.000000 0.000000 0.013556 0.000000 0.060484
#
#
# Mechanical properties :
#
#
# Convention : Reuss Voigt Hill
#
# Bulk Modulus (GPa) = 24.73394 47.19910 35.96652
# Shear Modulus (GPa) = 18.17935 26.76901 22.47418
#
# Velocity S-wave (km/s) = 2.91866 3.54168 3.24516
# Velocity P-wave (km/s) = 4.79041 6.23229 5.55830
#
# Compressibility (1/GPa) = 0.04043028
#
# Stress axis : x y z
#
# Youngs Moduli (GPa) = 19.38599 102.16077 99.27431
#
# Poissons Ratio (x) = 0.28425 1.13987
# Poissons Ratio (y) = 0.05394 0.12341
# Poissons Ratio (z) = 0.22259 0.12700
#
# Static dielectric constant tensor:
#      x y z
#    x 1.835290 0.000000 -0.032960 
#    y 0.000000 1.781220 0.000000 
#    z -0.032960 0.000000 1.843620 
# 
# From -- ./inp_files/37283.got.cif
#   From: 2010.05.17/outbox.cif.g08.bks.cpg/sg5_19_cif.got.tgz:37283.got - 2010.06.03 18:56:24.
