data_PCOD9126404
_publ_section_title
;
Structure prediction by ZEFSAII (Michael W. Deem and Ramdas Pophale) SiO2 
 PCOD9126404
Probable space group: C 2
;
_chemical_formula_sum "Si O2"
_cell_formula_units_Z 32
_cell_length_a 22.461300
_cell_length_b 8.807736
_cell_length_c 13.872992
_cell_angle_alpha 90.000000
_cell_angle_beta 145.580346
_cell_angle_gamma 90.000000
_cell_volume 1551.350354
_symmetry_space_group_name_H-M "C 2"
_symmetry_group_IT_number 5
_symmetry_cell_setting 'monoclinic'
loop_
_space_group_symop_operation_xyz
x,y,z
-x,y,-z
1/2+x,1/2+y,z
1/2-x,1/2+y,-z
loop_
_atom_site_type_symbol
_atom_site_label
_atom_site_fract_x
_atom_site_fract_y
_atom_site_fract_z
Si Si1 0.915561 0.449840 0.193492
Si Si2 0.821460 0.663509 0.917549
Si Si3 0.012533 0.892464 0.132808
Si Si4 0.739831 0.264719 0.497155
Si Si5 0.375250 0.900147 0.852779
Si Si6 0.386425 0.659696 0.040099
Si Si7 0.847105 0.474339 0.516677
Si Si8 0.187759 0.451458 0.752040
O O1 0.834093 0.555019 0.026838
O O2 0.898918 0.273942 0.145127
O O3 0.902698 0.472748 0.289854
O O4 0.029123 0.490023 0.301600
O O5 0.923171 0.772620 0.044301
O O6 0.826406 0.552538 0.832450
O O7 0.723523 0.776061 0.794925
O O8 0.125251 0.832763 0.317824
O O9 0.984708 0.052251 0.145728
O O10 0.000000 0.910467 0.000000
O O11 0.808052 0.346269 0.671915
O O12 0.807939 0.306746 0.493953
O O13 0.717570 0.096156 0.506680
O O14 0.500000 0.925187 0.000000
O O15 0.369324 0.768836 0.925264
O O16 0.287085 0.550282 0.919898
O O17 0.832087 0.501424 0.383590
#
# Coordination Sequence:
#
# PCOD9126404 Si02
#       8
#     4   4   4   4   4   4   4   4
#     4  11  23  44  67  92 130 171 223 272 322 392
#     4  10  22  40  64  98 125 169 223 259 336 392
#     4  11  23  39  64  95 140 173 213 271 331 402
#     4  12  26  42  65  97 137 173 218 275 341 395
#     4  11  23  39  64  95 140 173 213 271 331 402
#     4  10  22  40  64  98 125 169 223 259 336 392
#     4  12  27  42  63  99 126 177 216 271 341 395
#     4  11  23  44  67  92 130 171 223 272 322 392
#
# _framework density 20.627191
#
# number of rings (size 3 to 8) (size 9 to 14) (size 15 to 20)
#    0.000    1.000    2.500    4.875    7.000    0.000 
#    0.000    0.000    0.000    0.000    0.000    0.000 
#    0.000    0.000    0.000    0.000    0.000    0.000 
#
# Total GULP energy -89408.613518 kJ/mol
# GULP energy per Si atom -5588.038345 kJ/mol
# Density = 2.058024 g / cm^3
# Si number density = 20.627191 Si / 1000 Ang^3
#
#
#
# Elastic Constant Matrix: (Units=GPa)
#
#
# Indices 1 2 3 4 5 6 
#
# 1 93.7043 25.5005 2.4116 0.0000 -9.8450 0.0000
# 2 25.5005 99.2650 5.1957 0.0000 -3.5432 0.0000
# 3 2.4116 5.1957 52.1080 0.0000 -7.5473 0.0000
# 4 0.0000 0.0000 0.0000 14.6009 0.0000 0.3884
# 5 -9.8450 -3.5432 -7.5473 0.0000 23.8971 0.0000
# 6 0.0000 0.0000 0.0000 0.3884 0.0000 19.8843
#
#
#
# Elastic Compliance Matrix: (Units=1/GPa)
#
#
# Indices 1 2 3 4 5 6 
#
# 1 0.011942 -0.002924 0.000407 0.000000 0.004615 0.000000
# 2 -0.002924 0.010878 -0.000933 0.000000 0.000113 0.000000
# 3 0.000407 -0.000933 0.020193 0.000000 0.006407 0.000000
# 4 0.000000 0.000000 0.000000 0.068525 0.000000 -0.001338
# 5 0.004615 0.000113 0.006407 0.000000 0.045788 0.000000
# 6 0.000000 0.000000 0.000000 -0.001338 0.000000 0.050317
#
#
# Mechanical properties :
#
#
# Convention : Reuss Voigt Hill
#
# Bulk Modulus (GPa) = 27.69058 34.58808 31.13933
# Shear Modulus (GPa) = 22.06722 25.80776 23.93749
#
# Velocity S-wave (km/s) = 3.27435 3.54100 3.41028
# Velocity P-wave (km/s) = 5.26769 5.78989 5.53495
#
# Compressibility (1/GPa) = 0.03611337
#
# Stress axis : x y z
#
# Youngs Moduli (GPa) = 83.73740 91.92706 49.52197
#
# Poissons Ratio (x) = 0.26883 -0.02017
# Poissons Ratio (y) = 0.24488 0.04620
# Poissons Ratio (z) = -0.03411 0.08576
#
# Static dielectric constant tensor:
#      x y z
#    x 1.744940 0.000000 -0.009200 
#    y 0.000000 1.747500 0.000000 
#    z -0.009200 0.000000 1.759020 
# 
# From -- ./inp_files/57708.got.cif
#   From: 2010.05.17/outbox.cif.g08.bks.cpg/sg5_29_cif.got.tgz:57708.got - 2010.06.03 18:56:24.
