data_PCOD9126773
_publ_section_title
;
Structure prediction by ZEFSAII (Michael W. Deem and Ramdas Pophale) SiO2 
 PCOD9126773
Probable space group: C 2
;
_chemical_formula_sum "Si O2"
_cell_formula_units_Z 32
_cell_length_a 16.348084
_cell_length_b 14.160275
_cell_length_c 10.445831
_cell_angle_alpha 90.000000
_cell_angle_beta 141.651722
_cell_angle_gamma 90.000000
_cell_volume 1500.311310
_symmetry_space_group_name_H-M "C 2"
_symmetry_group_IT_number 5
_symmetry_cell_setting 'monoclinic'
loop_
_space_group_symop_operation_xyz
x,y,z
-x,y,-z
1/2+x,1/2+y,z
1/2-x,1/2+y,-z
loop_
_atom_site_type_symbol
_atom_site_label
_atom_site_fract_x
_atom_site_fract_y
_atom_site_fract_z
Si Si1 0.725086 0.955780 0.523064
Si Si2 0.848169 0.309575 0.784545
Si Si3 0.366841 0.175990 0.165267
Si Si4 0.694480 0.847670 0.982377
Si Si5 0.918911 0.297070 0.533193
Si Si6 0.344649 0.147882 0.438396
Si Si7 0.906744 0.079134 0.569332
Si Si8 0.808126 0.037777 0.165857
O O1 0.673027 0.895578 0.338220
O O2 0.701644 0.872305 0.601988
O O3 0.649248 0.045076 0.490379
O O4 0.851743 0.012868 0.617212
O O5 0.774404 0.212711 0.659432
O O6 0.784526 0.338228 0.840429
O O7 0.000000 0.290375 0.000000
O O8 0.336566 0.140657 0.273755
O O9 0.519938 0.199749 0.357738
O O10 0.273039 0.262532 0.017238
O O11 0.323632 0.099061 0.010003
O O12 0.539964 0.838896 0.766302
O O13 0.766770 0.943720 0.041580
O O14 0.875839 0.191930 0.523534
O O15 0.000000 0.288348 0.500000
O O16 0.851434 0.035831 0.367371
O O17 0.065473 0.078195 0.753994
#
# Coordination Sequence:
#
# PCOD9126773 Si02
#       8
#     4   4   4   4   4   4   4   4
#     4  12  25  39  66  99 136 176 230 286 340 420
#     4  11  23  43  66  98 133 183 229 282 348 419
#     4  10  22  42  64  99 128 179 224 294 340 415
#     4  11  22  39  71  95 132 179 234 283 346 424
#     4  12  24  44  71 101 142 185 232 291 360 423
#     4  10  25  40  65  96 137 170 227 285 349 412
#     4  11  24  45  68 105 135 186 233 293 353 421
#     4  11  22  42  73  97 134 178 239 288 349 425
#
# _framework density 21.328906
#
# number of rings (size 3 to 8) (size 9 to 14) (size 15 to 20)
#    0.000    1.000    5.000    1.500    5.250    1.000 
#    0.000    0.000    0.000    0.000    0.000    0.000 
#    0.000    0.000    0.000    0.000    0.000    0.000 
#
# Total GULP energy -89079.517783 kJ/mol
# GULP energy per Si atom -5567.469861 kJ/mol
# Density = 2.128036 g / cm^3
# Si number density = 21.328906 Si / 1000 Ang^3
#
#
#
# Elastic Constant Matrix: (Units=GPa)
#
#
# Indices 1 2 3 4 5 6 
#
# 1 65.4052 22.8037 -6.6974 0.0000 6.7639 0.0000
# 2 22.8037 119.4534 22.6683 0.0000 16.4025 0.0000
# 3 -6.6974 22.6683 60.1067 0.0000 7.2988 0.0000
# 4 0.0000 0.0000 0.0000 27.6812 0.0000 0.1121
# 5 6.7639 16.4025 7.2988 0.0000 24.3786 0.0000
# 6 0.0000 0.0000 0.0000 0.1121 0.0000 26.1353
#
#
#
# Elastic Compliance Matrix: (Units=1/GPa)
#
#
# Indices 1 2 3 4 5 6 
#
# 1 0.017253 -0.003506 0.003673 0.000000 -0.003527 0.000000
# 2 -0.003506 0.010424 -0.003724 0.000000 -0.004926 0.000000
# 3 0.003673 -0.003724 0.018960 0.000000 -0.004190 0.000000
# 4 0.000000 0.000000 0.000000 0.036126 0.000000 -0.000155
# 5 -0.003527 -0.004926 -0.004190 0.000000 0.046567 0.000000
# 6 0.000000 0.000000 0.000000 -0.000155 0.000000 0.038263
#
#
# Mechanical properties :
#
#
# Convention : Reuss Voigt Hill
#
# Bulk Modulus (GPa) = 25.30226 35.83495 30.56860
# Shear Modulus (GPa) = 26.61274 29.38507 27.99890
#
# Velocity S-wave (km/s) = 3.53616 3.71578 3.62708
# Velocity P-wave (km/s) = 5.34427 5.93691 5.64837
#
# Compressibility (1/GPa) = 0.03952216
#
# Stress axis : x y z
#
# Youngs Moduli (GPa) = 57.96217 95.93423 52.74399
#
# Poissons Ratio (x) = 0.33636 -0.19373
# Poissons Ratio (y) = 0.20323 0.19640
# Poissons Ratio (z) = -0.21290 0.35723
#
# Static dielectric constant tensor:
#      x y z
#    x 1.986580 0.000000 0.023080 
#    y 0.000000 1.868830 0.000000 
#    z 0.023080 0.000000 1.758170 
# 
# From -- ./inp_files/44976.got.cif
#   From: 2010.05.17/outbox.cif.g08.bks.cpg/sg5_23_cif.got.tgz:44976.got - 2010.06.03 18:56:24.
