data_PCOD9126131
_publ_section_title
;
Structure prediction by ZEFSAII (Michael W. Deem and Ramdas Pophale) SiO2 
 PCOD9126131
Probable space group: C 2
;
_chemical_formula_sum "Si O2"
_cell_formula_units_Z 26
_cell_length_a 11.913658
_cell_length_b 9.003853
_cell_length_c 23.141078
_cell_angle_alpha 90.000000
_cell_angle_beta 28.893696
_cell_angle_gamma 90.000000
_cell_volume 1199.420603
_symmetry_space_group_name_H-M "C 2"
_symmetry_group_IT_number 5
_symmetry_cell_setting 'monoclinic'
loop_
_space_group_symop_operation_xyz
x,y,z
-x,y,-z
1/2+x,1/2+y,z
1/2-x,1/2+y,-z
loop_
_atom_site_type_symbol
_atom_site_label
_atom_site_fract_x
_atom_site_fract_y
_atom_site_fract_z
Si Si1 0.693181 0.778680 0.369523
Si Si2 0.286415 0.557235 0.926593
Si Si3 0.624767 0.290217 0.253532
Si Si4 0.684134 0.996091 0.277348
Si Si5 0.267386 0.848820 0.866694
Si Si6 0.000000 0.295884 0.000000
Si Si7 0.423334 0.036670 0.183847
O O1 0.500000 0.719169 0.500000
O O2 0.596264 0.909629 0.373137
O O3 0.791068 0.656541 0.281540
O O4 0.909413 0.832674 0.310916
O O5 0.542949 0.528737 0.834021
O O6 0.291323 0.674816 0.872233
O O7 0.170452 0.404067 0.958645
O O8 0.107787 0.612057 0.056716
O O9 0.745974 0.429073 0.229685
O O10 0.561189 0.154403 0.323721
O O11 0.826442 0.216835 0.121675
O O12 0.664785 0.895232 0.228610
O O13 0.427473 0.934348 0.840369
O O14 0.000000 0.887535 0.000000
#
# Coordination Sequence:
#
# PCOD9126131 Si02
#       7
#     4   4   4   4   4   2   4
#     4  12  29  50  69  96 138 192 238 280 339 410
#     4  11  22  38  66 109 142 174 214 282 355 413
#     4  11  25  44  69 103 135 176 230 285 344 405
#     4  12  25  41  70 101 138 178 231 285 343 408
#     4  12  22  37  67 108 143 175 218 277 355 419
#     4  10  22  38  64 102 152 168 210 282 350 416
#     4  11  25  43  70 102 142 181 226 288 342 408
#
# _framework density 21.677130999999999
#
# number of rings (size 3 to 8) (size 9 to 14) (size 15 to 20)
#    0.000    0.615    6.923    0.923    5.385    1.231 
#    0.000    0.769    0.000    0.000    0.000    0.000 
#    0.000    0.000    0.000    0.000    0.000    0.000 
#
# Total GULP energy -72772.013933 kJ/mol
# GULP energy per Si atom -5597.847226 kJ/mol
# Density = 2.162779 g / cm^3
# Si number density = 21.677131 Si / 1000 Ang^3
#
#
#
# Elastic Constant Matrix: (Units=GPa)
#
#
# Indices 1 2 3 4 5 6 
#
# 1 117.5141 24.3814 3.8545 0.0000 -0.8159 -0.0001
# 2 24.3814 66.7236 0.4117 0.0000 11.2358 0.0000
# 3 3.8545 0.4117 46.8565 -0.0005 14.3227 0.0000
# 4 0.0000 0.0000 -0.0005 18.0452 0.0000 2.2403
# 5 -0.8159 11.2358 14.3227 0.0000 20.6656 0.0001
# 6 -0.0001 0.0000 0.0000 2.2403 0.0001 38.3375
#
#
#
# Elastic Compliance Matrix: (Units=1/GPa)
#
#
# Indices 1 2 3 4 5 6 
#
# 1 0.009454 -0.004109 -0.001952 0.000000 0.003961 0.000000
# 2 -0.004109 0.018695 0.004226 0.000000 -0.013255 0.000000
# 3 -0.001952 0.004226 0.028156 0.000001 -0.021889 0.000000
# 4 0.000000 0.000000 0.000001 0.055821 -0.000001 -0.003262
# 5 0.003961 -0.013255 -0.021889 -0.000001 0.070923 0.000000
# 6 0.000000 0.000000 0.000000 -0.003262 0.000000 0.026275
#
#
# Mechanical properties :
#
#
# Convention : Reuss Voigt Hill
#
# Bulk Modulus (GPa) = 18.99970 32.04328 25.52149
# Shear Modulus (GPa) = 21.68820 28.90609 25.29715
#
# Velocity S-wave (km/s) = 3.16652 3.65565 3.41984
# Velocity P-wave (km/s) = 4.70670 5.71249 5.23381
#
# Compressibility (1/GPa) = 0.05263242
#
# Stress axis : x y z
#
# Youngs Moduli (GPa) = 105.77817 53.49082 35.51643
#
# Poissons Ratio (x) = 0.21981 0.06934
# Poissons Ratio (y) = 0.43468 -0.15008
# Poissons Ratio (z) = 0.20650 -0.22603
#
# Static dielectric constant tensor:
#      x y z
#    x 1.810970 0.000000 0.031880 
#    y 0.000000 1.810380 0.000000 
#    z 0.031880 0.000000 1.766730 
# 
# From -- ./inp_files/52184.got.cif
#   From: 2010.05.17/outbox.cif.g08.bks.cpg/sg5_27_cif.got.tgz:52184.got - 2010.06.03 18:56:24.
