data_PCOD9126666
_publ_section_title
;
Structure prediction by ZEFSAII (Michael W. Deem and Ramdas Pophale) SiO2 
 PCOD9126666
Probable space group: C 2
;
_chemical_formula_sum "Si O2"
_cell_formula_units_Z 16
_cell_length_a 18.425967
_cell_length_b 5.058752
_cell_length_c 9.074306
_cell_angle_alpha 90.000000
_cell_angle_beta 46.619734
_cell_angle_gamma 90.000000
_cell_volume 614.764464
_symmetry_space_group_name_H-M "C 2"
_symmetry_group_IT_number 5
_symmetry_cell_setting 'monoclinic'
loop_
_space_group_symop_operation_xyz
x,y,z
-x,y,-z
1/2+x,1/2+y,z
1/2-x,1/2+y,-z
loop_
_atom_site_type_symbol
_atom_site_label
_atom_site_fract_x
_atom_site_fract_y
_atom_site_fract_z
Si Si1 0.349212 0.846230 0.136635
Si Si2 0.816509 0.726852 0.946027
Si Si3 0.882107 0.702199 0.554287
Si Si4 0.456717 0.706399 0.289570
O O1 0.238152 0.731239 0.300182
O O2 0.399193 0.813464 0.225230
O O3 0.426584 0.709957 0.914758
O O4 0.343829 0.142574 0.074088
O O5 0.897836 0.773212 0.704842
O O6 0.761757 0.460173 0.964154
O O7 0.924410 0.414746 0.458791
O O8 0.923579 0.917984 0.383280
#
# Coordination Sequence:
#
# PCOD9126666 Si02
#       4
#     4   4   4   4
#     4  10  24  44  66  97 135 169 219 276 324 390
#     4  10  22  41  68  96 132 177 216 269 334 387
#     4  11  23  43  65  95 132 173 218 268 327 391
#     4  11  25  41  69  98 127 175 221 267 331 390
#
# _framework density 26.026230000000002
#
# number of rings (size 3 to 8) (size 9 to 14) (size 15 to 20)
#    0.000    1.500    0.000    4.500    0.000   15.000 
#    0.000    7.500    0.000    0.000    0.000    0.000 
#    0.000    0.000    0.000    0.000    0.000    0.000 
#
# Total GULP energy -44823.128338 kJ/mol
# GULP energy per Si atom -5602.891042 kJ/mol
# Density = 2.596699 g / cm^3
# Si number density = 26.026230 Si / 1000 Ang^3
#
#
#
# Elastic Constant Matrix: (Units=GPa)
#
#
# Indices 1 2 3 4 5 6 
#
# 1 133.8507 3.1429 26.9891 0.0004 -7.0796 -0.0012
# 2 3.1429 93.7339 13.2035 -0.0004 -18.7959 -0.0010
# 3 26.9891 13.2035 132.0190 -0.0001 -27.7251 -0.0003
# 4 0.0004 -0.0004 -0.0001 53.2410 0.0000 7.1716
# 5 -7.0796 -18.7959 -27.7251 0.0000 56.5060 0.0000
# 6 -0.0012 -0.0010 -0.0003 7.1716 0.0000 31.3852
#
#
#
# Elastic Compliance Matrix: (Units=1/GPa)
#
#
# Indices 1 2 3 4 5 6 
#
# 1 0.007795 0.000000 -0.001548 0.000000 0.000217 0.000000
# 2 0.000000 0.011448 -0.000385 0.000000 0.003619 0.000000
# 3 -0.001548 -0.000385 0.008765 0.000000 0.003979 0.000000
# 4 0.000000 0.000000 0.000000 0.019379 0.000000 -0.004428
# 5 0.000217 0.003619 0.003979 0.000000 0.020881 0.000000
# 6 0.000000 0.000000 0.000000 -0.004428 0.000000 0.032874
#
#
# Mechanical properties :
#
#
# Convention : Reuss Voigt Hill
#
# Bulk Modulus (GPa) = 41.41981 49.58608 45.50294
# Shear Modulus (GPa) = 44.22638 49.31098 46.76868
#
# Velocity S-wave (km/s) = 4.12673 4.35750 4.24368
# Velocity P-wave (km/s) = 6.21737 6.66414 6.44463
#
# Compressibility (1/GPa) = 0.02414304
#
# Stress axis : x y z
#
# Youngs Moduli (GPa) = 128.29391 87.34784 114.08795
#
# Poissons Ratio (x) = -0.00002 0.17660
# Poissons Ratio (y) = -0.00003 0.04392
# Poissons Ratio (z) = 0.19858 0.03362
#
# Static dielectric constant tensor:
#      x y z
#    x 2.109880 0.000000 -0.002530 
#    y 0.000000 2.036250 0.000000 
#    z -0.002530 0.000000 2.094970 
# 
# From -- ./inp_files/28238.got.cif
#   From: 2010.05.17/outbox.cif.g08.bks.cpg/sg5_15_cif.got.tgz:28238.got - 2010.06.03 18:56:24.
