data_PCOD9126872
_publ_section_title
;
Structure prediction by ZEFSAII (Michael W. Deem and Ramdas Pophale) SiO2 
 PCOD9126872
Probable space group: C 2
;
_chemical_formula_sum "Si O2"
_cell_formula_units_Z 22
_cell_length_a 5.274277
_cell_length_b 24.469261
_cell_length_c 7.497459
_cell_angle_alpha 90.000000
_cell_angle_beta 108.836430
_cell_angle_gamma 90.000000
_cell_volume 915.783650
_symmetry_space_group_name_H-M "C 2"
_symmetry_group_IT_number 5
_symmetry_cell_setting 'monoclinic'
loop_
_space_group_symop_operation_xyz
x,y,z
-x,y,-z
1/2+x,1/2+y,z
1/2-x,1/2+y,-z
loop_
_atom_site_type_symbol
_atom_site_label
_atom_site_fract_x
_atom_site_fract_y
_atom_site_fract_z
Si Si1 0.389220 0.313410 0.275622
Si Si2 0.235439 0.111074 0.202996
Si Si3 0.605401 0.873597 0.725304
Si Si4 0.692272 0.995425 0.871611
Si Si5 0.500000 0.188330 0.000000
Si Si6 0.539737 0.715884 0.304743
O O1 0.500000 0.321587 0.500000
O O2 0.626827 0.336553 0.207241
O O3 0.127477 0.350650 0.202209
O O4 0.269818 0.251959 0.259919
O O5 0.129403 0.152426 0.328309
O O6 0.329046 0.049585 0.256508
O O7 0.457034 0.146721 0.154110
O O8 0.000000 0.107789 0.000000
O O9 0.500000 0.868566 0.500000
O O10 0.639928 0.937329 0.771029
O O11 0.500000 0.003064 0.000000
O O12 0.000000 0.992698 0.000000
O O13 0.231598 0.219559 0.874663
O O14 0.500000 0.735287 0.500000
#
# Coordination Sequence:
#
# PCOD9126872 Si02
#       6
#     4   4   4   4   2   4
#     4  10  22  42  68  94 134 180 226 285 347 403
#     4   9  21  41  64  97 140 183 224 291 354 410
#     4  10  22  43  67  96 131 178 229 287 343 407
#     4  11  22  43  70  96 137 182 225 285 355 410
#     4  10  22  44  64 102 146 180 230 288 356 410
#     4  11  24  42  72 102 137 194 234 285 352 430
#
# _framework density 24.023145
#
# number of rings (size 3 to 8) (size 9 to 14) (size 15 to 20)
#    0.000    1.818    0.909    2.727    5.091    0.000 
#    4.909    3.636    0.000    0.000    0.000    0.000 
#    0.000    0.000    0.000    0.000    0.000    0.000 
#
# Total GULP energy -61465.641141 kJ/mol
# GULP energy per Si atom -5587.785558 kJ/mol
# Density = 2.396847 g / cm^3
# Si number density = 24.023145 Si / 1000 Ang^3
#
#
#
# Elastic Constant Matrix: (Units=GPa)
#
#
# Indices 1 2 3 4 5 6 
#
# 1 164.4891 71.1907 24.5449 0.0000 23.0398 0.0000
# 2 71.1907 235.4179 28.0451 0.0000 5.8809 0.0000
# 3 24.5449 28.0451 99.7361 0.0000 11.9087 0.0000
# 4 0.0000 0.0000 0.0000 34.1332 0.0000 7.8730
# 5 23.0398 5.8809 11.9087 0.0000 14.2135 0.0000
# 6 0.0000 0.0000 0.0000 7.8730 0.0000 69.3534
#
#
#
# Elastic Compliance Matrix: (Units=1/GPa)
#
#
# Indices 1 2 3 4 5 6 
#
# 1 0.009024 -0.002397 0.000090 0.000000 -0.013712 0.000000
# 2 -0.002397 0.005041 -0.001158 0.000000 0.002770 0.000000
# 3 0.000090 -0.001158 0.011434 0.000000 -0.009247 0.000000
# 4 0.000000 0.000000 0.000000 0.030085 0.000000 -0.003415
# 5 -0.013712 0.002770 -0.009247 0.000000 0.099184 0.000000
# 6 0.000000 0.000000 0.000000 -0.003415 0.000000 0.014807
#
#
# Mechanical properties :
#
#
# Convention : Reuss Voigt Hill
#
# Bulk Modulus (GPa) = 53.85235 83.02274 68.43755
# Shear Modulus (GPa) = 27.36804 48.59751 37.98277
#
# Velocity S-wave (km/s) = 3.37892 4.50260 3.98061
# Velocity P-wave (km/s) = 6.13908 7.85275 7.04819
#
# Compressibility (1/GPa) = 0.01856929
#
# Stress axis : x y z
#
# Youngs Moduli (GPa) = 110.81567 198.35524 87.45768
#
# Poissons Ratio (x) = 0.47548 -0.00791
# Poissons Ratio (y) = 0.26564 0.10132
# Poissons Ratio (z) = -0.01003 0.22979
#
# Static dielectric constant tensor:
#      x y z
#    x 1.925750 0.000000 0.072620 
#    y 0.000000 1.948500 0.000000 
#    z 0.072620 0.000000 1.722550 
# 
# From -- ./inp_files/12784.got.cif
#   From: 2010.05.17/outbox.cif.g08.bks.cpg/sg5_7_cif.got.tgz:12784.got - 2010.06.03 18:56:24.
