data_PCOD9126762
_publ_section_title
;
Structure prediction by ZEFSAII (Michael W. Deem and Ramdas Pophale) SiO2 
 PCOD9126762
Probable space group: C 2
;
_chemical_formula_sum "Si O2"
_cell_formula_units_Z 20
_cell_length_a 23.992476
_cell_length_b 7.644016
_cell_length_c 8.897379
_cell_angle_alpha 90.000000
_cell_angle_beta 152.418963
_cell_angle_gamma 90.000000
_cell_volume 755.513582
_symmetry_space_group_name_H-M "C 2"
_symmetry_group_IT_number 5
_symmetry_cell_setting 'monoclinic'
loop_
_space_group_symop_operation_xyz
x,y,z
-x,y,-z
1/2+x,1/2+y,z
1/2-x,1/2+y,-z
loop_
_atom_site_type_symbol
_atom_site_label
_atom_site_fract_x
_atom_site_fract_y
_atom_site_fract_z
Si Si1 0.619389 0.921870 0.865447
Si Si2 0.222703 0.223110 0.750970
Si Si3 0.990814 0.009837 0.157026
Si Si4 0.883947 0.645607 0.878672
Si Si5 0.757659 0.602431 0.271584
O O1 0.500000 0.862252 0.500000
O O2 0.589914 0.967729 0.969800
O O3 0.727220 0.782845 0.115033
O O4 0.664484 0.112540 0.916815
O O5 0.103922 0.111422 0.496246
O O6 0.216684 0.428565 0.762888
O O7 0.258231 0.207983 0.657353
O O8 0.977335 0.799477 0.139987
O O9 0.000000 0.040985 0.000000
O O10 0.869481 0.072067 0.946841
O O11 0.143817 0.620028 0.361521
#
# Coordination Sequence:
#
# PCOD9126762 Si02
#       5
#     4   4   4   4   4
#     4  10  22  42  64  88 134 174 209 274 342 374
#     4   9  21  37  60  87 127 169 220 257 328 389
#     4  11  19  36  63  95 131 169 215 275 325 382
#     4   9  20  38  63  93 132 163 215 275 316 390
#     4  11  20  40  64  96 130 170 223 272 323 398
#
# _framework density 26.472058000000001
#
# number of rings (size 3 to 8) (size 9 to 14) (size 15 to 20)
#    1.200    0.800    2.000    3.600    0.000    0.800 
#    7.200    2.000    0.000    0.000    0.000    0.000 
#    0.000    0.000    0.000    0.000    0.000    0.000 
#
# Total GULP energy -55912.949721 kJ/mol
# GULP energy per Si atom -5591.294972 kJ/mol
# Density = 2.641181 g / cm^3
# Si number density = 26.472058 Si / 1000 Ang^3
#
#
#
# Elastic Constant Matrix: (Units=GPa)
#
#
# Indices 1 2 3 4 5 6 
#
# 1 75.5591 43.2581 26.7508 0.0000 5.9976 0.0000
# 2 43.2581 197.9687 68.0999 0.0000 -11.1489 0.0000
# 3 26.7508 68.0999 125.8971 0.0000 -2.2417 0.0000
# 4 0.0000 0.0000 0.0000 41.1717 0.0000 12.8500
# 5 5.9976 -11.1489 -2.2417 0.0000 44.8418 0.0000
# 6 0.0000 0.0000 0.0000 12.8500 0.0000 54.5979
#
#
#
# Elastic Compliance Matrix: (Units=1/GPa)
#
#
# Indices 1 2 3 4 5 6 
#
# 1 0.015825 -0.003009 -0.001787 0.000000 -0.002954 0.000000
# 2 -0.003009 0.006864 -0.003039 0.000000 0.001957 0.000000
# 3 -0.001787 -0.003039 0.009966 0.000000 -0.000018 0.000000
# 4 0.000000 0.000000 0.000000 0.026214 0.000000 -0.006170
# 5 -0.002954 0.001957 -0.000018 0.000000 0.023181 0.000000
# 6 0.000000 0.000000 0.000000 -0.006170 0.000000 0.019768
#
#
# Mechanical properties :
#
#
# Convention : Reuss Voigt Hill
#
# Bulk Modulus (GPa) = 58.87719 75.07140 66.97429
# Shear Modulus (GPa) = 40.60048 45.54335 43.07192
#
# Velocity S-wave (km/s) = 3.92051 4.15231 4.03807
# Velocity P-wave (km/s) = 6.54090 7.17002 6.86267
#
# Compressibility (1/GPa) = 0.01698451
#
# Stress axis : x y z
#
# Youngs Moduli (GPa) = 63.19180 145.67807 100.33960
#
# Poissons Ratio (x) = 0.43841 0.17933
# Poissons Ratio (y) = 0.19017 0.30491
# Poissons Ratio (z) = 0.11294 0.44269
#
# Static dielectric constant tensor:
#      x y z
#    x 2.160870 0.000000 0.032410 
#    y 0.000000 2.097980 0.000000 
#    z 0.032410 0.000000 2.003300 
# 
# From -- ./inp_files/48368.got.cif
#   From: 2010.05.17/outbox.cif.g08.bks.cpg/sg5_25_cif.got.tgz:48368.got - 2010.06.03 18:56:24.
