data_PCOD9126143
_publ_section_title
;
Structure prediction by ZEFSAII (Michael W. Deem and Ramdas Pophale) SiO2 
 PCOD9126143
Probable space group: C 2
;
_chemical_formula_sum "Si O2"
_cell_formula_units_Z 24
_cell_length_a 17.365157
_cell_length_b 7.444157
_cell_length_c 7.906341
_cell_angle_alpha 90.000000
_cell_angle_beta 88.957370
_cell_angle_gamma 90.000000
_cell_volume 1021.875223
_symmetry_space_group_name_H-M "C 2"
_symmetry_group_IT_number 5
_symmetry_cell_setting 'monoclinic'
loop_
_space_group_symop_operation_xyz
x,y,z
-x,y,-z
1/2+x,1/2+y,z
1/2-x,1/2+y,-z
loop_
_atom_site_type_symbol
_atom_site_label
_atom_site_fract_x
_atom_site_fract_y
_atom_site_fract_z
Si Si1 0.689504 0.001790 0.028330
Si Si2 0.000000 0.479427 0.500000
Si Si3 0.351891 0.845628 0.632514
Si Si4 0.343561 0.403277 0.860040
Si Si5 0.200284 0.986506 0.520293
Si Si6 0.500000 0.395373 0.000000
Si Si7 0.110036 0.688584 0.737761
O O1 0.661668 0.188771 0.111253
O O2 0.668028 0.847429 0.165136
O O3 0.652553 0.031195 0.843239
O O4 0.780056 0.984591 0.989277
O O5 0.056789 0.370084 0.378068
O O6 0.059925 0.600069 0.595917
O O7 0.290190 0.992107 0.565262
O O8 0.333460 0.686121 0.499504
O O9 0.317348 0.426595 0.669747
O O10 0.428653 0.479797 0.897724
O O11 0.162827 0.845648 0.654137
O O12 0.451863 0.280392 0.136238
#
# Coordination Sequence:
#
# PCOD9126143 Si02
#       7
#     4   2   4   4   4   2   4
#     4  11  23  43  69 101 139 186 235 286 353 427
#     4  12  24  42  70 104 138 184 238 300 356 414
#     4  12  26  44  69 102 142 188 239 294 351 422
#     4  11  22  40  67  97 135 183 234 289 348 419
#     4  12  25  46  71 101 141 193 242 286 351 432
#     4  10  22  38  64  98 132 172 222 282 346 406
#     4  11  23  44  71  99 138 187 234 289 356 423
#
# _framework density 23.486234
#
# number of rings (size 3 to 8) (size 9 to 14) (size 15 to 20)
#    0.000    0.667    0.000   11.000    0.000    2.000 
#    0.000    6.667    0.000    2.000    0.000    0.000 
#    0.000    0.000    0.000    0.000    0.000    0.000 
#
# Total GULP energy -66930.049052 kJ/mol
# GULP energy per Si atom -5577.504088 kJ/mol
# Density = 2.343278 g / cm^3
# Si number density = 23.486234 Si / 1000 Ang^3
#
#
#
# Elastic Constant Matrix: (Units=GPa)
#
#
# Indices 1 2 3 4 5 6 
#
# 1 200.8744 32.5656 63.0099 0.0000 -5.8158 0.0000
# 2 32.5656 47.7588 9.9333 0.0000 0.7667 0.0000
# 3 63.0099 9.9333 123.4101 0.0000 6.8562 0.0000
# 4 0.0000 0.0000 0.0000 622.9888 0.0000 59.7811
# 5 -5.8158 0.7667 6.8562 0.0000 49.0210 0.0000
# 6 0.0000 0.0000 0.0000 59.7811 0.0000 41.7012
#
#
#
# Elastic Compliance Matrix: (Units=1/GPa)
#
#
# Indices 1 2 3 4 5 6 
#
# 1 0.006632 -0.003889 -0.003145 0.000000 0.001288 0.000000
# 2 -0.003889 0.023576 0.000135 0.000000 -0.000849 0.000000
# 3 -0.003145 0.000135 0.009795 0.000000 -0.001745 0.000000
# 4 0.000000 0.000000 0.000000 0.001861 0.000000 -0.002668
# 5 0.001288 -0.000849 -0.001745 0.000000 0.020810 0.000000
# 6 0.000000 0.000000 0.000000 -0.002668 0.000000 0.027805
#
#
# Mechanical properties :
#
#
# Convention : Reuss Voigt Hill
#
# Bulk Modulus (GPa) = 38.15957 64.78452 51.47204
# Shear Modulus (GPa) = 44.24318 160.51119 102.37718
#
# Velocity S-wave (km/s) = 4.34498 8.27593 6.60946
# Velocity P-wave (km/s) = 6.43853 10.90712 8.95600
#
# Compressibility (1/GPa) = 0.02620575
#
# Stress axis : x y z
#
# Youngs Moduli (GPa) = 150.77303 42.41610 102.09477
#
# Poissons Ratio (x) = 0.16496 0.32107
# Poissons Ratio (y) = 0.58637 -0.01380
# Poissons Ratio (z) = 0.47416 -0.00574
#
# Static dielectric constant tensor:
#      x y z
#    x 1.867470 0.000000 -0.026180 
#    y 0.000000 2.037730 0.000000 
#    z -0.026180 0.000000 2.009600 
# 
# From -- ./inp_files/22925.got.cif
#   From: 2010.05.17/outbox.cif.g08.bks.cpg/sg5_12_cif.got.tgz:22925.got - 2010.06.03 18:56:24.
