data_PCOD9126038
_publ_section_title
;
Structure prediction by ZEFSAII (Michael W. Deem and Ramdas Pophale) SiO2 
 PCOD9126038
Probable space group: C 2
;
_chemical_formula_sum "Si O2"
_cell_formula_units_Z 28
_cell_length_a 23.778313
_cell_length_b 5.026065
_cell_length_c 11.167480
_cell_angle_alpha 90.000000
_cell_angle_beta 72.235964
_cell_angle_gamma 90.000000
_cell_volume 1271.006363
_symmetry_space_group_name_H-M "C 2"
_symmetry_group_IT_number 5
_symmetry_cell_setting 'monoclinic'
loop_
_space_group_symop_operation_xyz
x,y,z
-x,y,-z
1/2+x,1/2+y,z
1/2-x,1/2+y,-z
loop_
_atom_site_type_symbol
_atom_site_label
_atom_site_fract_x
_atom_site_fract_y
_atom_site_fract_z
Si Si1 0.434027 0.178390 0.992924
Si Si2 0.190809 0.060157 0.150111
Si Si3 0.441225 0.756034 0.366530
Si Si4 0.737436 0.556244 0.846943
Si Si5 0.569556 0.254925 0.483874
Si Si6 0.884654 0.183459 0.149670
Si Si7 0.423299 0.904851 0.743755
O O1 0.429753 0.085328 0.858716
O O2 0.500000 0.137324 0.000000
O O3 0.414513 0.476297 0.037379
O O4 0.391734 0.978069 0.092369
O O5 0.234407 0.269177 0.185324
O O6 0.125661 0.177150 0.208627
O O7 0.210603 0.772751 0.182589
O O8 0.206955 0.069159 0.998507
O O9 0.416392 0.550533 0.481513
O O10 0.419682 0.668046 0.250820
O O11 0.512727 0.770719 0.322133
O O12 0.420916 0.053048 0.411960
O O13 0.684138 0.616840 0.792557
O O14 0.500000 0.260791 0.500000
O O15 0.593866 0.102701 0.352830
#
# Coordination Sequence:
#
# PCOD9126038 Si02
#       7
#     4   4   4   4   4   4   4
#     4  12  25  38  60 102 136 170 207 262 341 403
#     4  10  22  37  63  89 131 164 213 260 317 382
#     4  11  24  42  63  93 129 172 213 263 321 388
#     4  10  22  40  57  93 129 171 207 256 320 390
#     4  10  23  41  61  91 127 169 218 260 317 379
#     4  12  24  41  64  91 138 173 210 260 335 401
#     4  11  24  42  68  97 133 169 216 275 323 388
#
# _framework density 22.029789000000001
#
# number of rings (size 3 to 8) (size 9 to 14) (size 15 to 20)
#    0.000    1.143    2.857    3.429    6.000    4.571 
#    0.000    0.000    0.000    3.429    0.000    0.000 
#    0.000    0.000    0.000    0.000    0.000    0.000 
#
# Total GULP energy -78348.843610 kJ/mol
# GULP energy per Si atom -5596.345972 kJ/mol
# Density = 2.197965 g / cm^3
# Si number density = 22.029789 Si / 1000 Ang^3
#
#
#
# Elastic Constant Matrix: (Units=GPa)
#
#
# Indices 1 2 3 4 5 6 
#
# 1 80.3549 -0.1290 23.0620 0.0000 -5.1541 0.0000
# 2 -0.1290 74.3843 18.6136 0.0000 0.1047 0.0000
# 3 23.0620 18.6136 79.3115 0.0000 4.4326 0.0000
# 4 0.0000 0.0000 0.0000 23.7723 0.0000 -3.4340
# 5 -5.1541 0.1047 4.4326 0.0000 13.1999 0.0000
# 6 0.0000 0.0000 0.0000 -3.4340 0.0000 30.1883
#
#
#
# Elastic Compliance Matrix: (Units=1/GPa)
#
#
# Indices 1 2 3 4 5 6 
#
# 1 0.014300 0.001228 -0.004849 0.000000 0.007202 0.000000
# 2 0.001228 0.014402 -0.003829 0.000000 0.001651 0.000000
# 3 -0.004849 -0.003829 0.015309 0.000000 -0.007004 0.000000
# 4 0.000000 0.000000 0.000000 0.042769 0.000000 0.004865
# 5 0.007202 0.001651 -0.007004 0.000000 0.080909 0.000000
# 6 0.000000 0.000000 0.000000 0.004865 0.000000 0.033679
#
#
# Mechanical properties :
#
#
# Convention : Reuss Voigt Hill
#
# Bulk Modulus (GPa) = 34.35215 35.23821 34.79518
# Shear Modulus (GPa) = 22.12674 26.26572 24.19623
#
# Velocity S-wave (km/s) = 3.17267 3.45669 3.31772
# Velocity P-wave (km/s) = 5.38966 5.65350 5.52315
#
# Compressibility (1/GPa) = 0.02911026
#
# Stress axis : x y z
#
# Youngs Moduli (GPa) = 69.92813 69.43615 65.32273
#
# Poissons Ratio (x) = -0.08527 0.31675
# Poissons Ratio (y) = -0.08587 0.25014
# Poissons Ratio (z) = 0.33908 0.26589
#
# Static dielectric constant tensor:
#      x y z
#    x 1.808200 0.000000 -0.024010 
#    y 0.000000 1.800430 0.000000 
#    z -0.024010 0.000000 1.826820 
# 
# From -- ./inp_files/46793.got.cif
#   From: 2010.05.17/outbox.cif.g08.bks.cpg/sg5_24_cif.got.tgz:46793.got - 2010.06.03 18:56:24.
