data_PCOD9126579
_publ_section_title
;
Structure prediction by ZEFSAII (Michael W. Deem and Ramdas Pophale) SiO2 
 PCOD9126579
Probable space group: C 2
;
_chemical_formula_sum "Si O2"
_cell_formula_units_Z 28
_cell_length_a 15.921106
_cell_length_b 19.281505
_cell_length_c 10.133073
_cell_angle_alpha 90.000000
_cell_angle_beta 153.358798
_cell_angle_gamma 90.000000
_cell_volume 1394.835025
_symmetry_space_group_name_H-M "C 2"
_symmetry_group_IT_number 5
_symmetry_cell_setting 'monoclinic'
loop_
_space_group_symop_operation_xyz
x,y,z
-x,y,-z
1/2+x,1/2+y,z
1/2-x,1/2+y,-z
loop_
_atom_site_type_symbol
_atom_site_label
_atom_site_fract_x
_atom_site_fract_y
_atom_site_fract_z
Si Si1 0.401594 0.774170 0.215814
Si Si2 0.452826 0.298620 0.132674
Si Si3 0.302919 0.432427 0.760620
Si Si4 0.631112 0.854375 0.308334
Si Si5 0.850507 0.568697 0.393388
Si Si6 0.512535 0.668683 0.872945
Si Si7 0.923665 0.643597 0.759804
O O1 0.500000 0.771442 0.500000
O O2 0.521443 0.817153 0.275949
O O3 0.395324 0.703131 0.126148
O O4 0.190364 0.799713 0.946062
O O5 0.670750 0.318991 0.454372
O O6 0.467849 0.217957 0.107234
O O7 0.359406 0.357838 0.905478
O O8 0.196934 0.423313 0.474172
O O9 0.185021 0.486963 0.677381
O O10 0.500000 0.465654 0.000000
O O11 0.500000 0.863876 0.000000
O O12 0.933358 0.592647 0.649783
O O13 0.000000 0.595542 0.500000
O O14 0.649713 0.605536 0.097286
O O15 0.297351 0.657774 0.534507
O O16 0.500000 0.707645 0.000000
O O17 0.000000 0.611266 0.000000
#
# Coordination Sequence:
#
# PCOD9126579 Si02
#       7
#     4   4   4   4   4   4   4
#     4  12  22  36  66  99 130 172 218 271 333 394
#     4  11  23  40  68  97 134 175 224 271 338 403
#     4  10  22  44  67  90 130 180 223 264 338 412
#     4  11  24  41  62  97 131 175 214 281 326 400
#     4  11  25  42  67  97 131 176 228 277 334 406
#     4  10  22  41  63  95 134 174 218 279 337 395
#     4  11  21  40  66  96 129 173 222 278 336 397
#
# _framework density 20.074058999999998
#
# number of rings (size 3 to 8) (size 9 to 14) (size 15 to 20)
#    0.000    1.143    2.857    4.714    4.000    1.143 
#    0.000    0.000    0.000    0.000    0.000    0.000 
#    0.000    0.000    0.000    0.000    0.000    0.000 
#
# Total GULP energy -77936.042357 kJ/mol
# GULP energy per Si atom -5566.860168 kJ/mol
# Density = 2.002837 g / cm^3
# Si number density = 20.074059 Si / 1000 Ang^3
#
#
#
# Elastic Constant Matrix: (Units=GPa)
#
#
# Indices 1 2 3 4 5 6 
#
# 1 148.8613 26.3911 73.0343 0.0000 8.8221 0.0000
# 2 26.3911 60.1332 33.3282 0.0000 -4.7179 0.0000
# 3 73.0343 33.3282 147.2617 0.0000 -16.1308 0.0000
# 4 0.0000 0.0000 0.0000 -13.1805 0.0000 3.9234
# 5 8.8221 -4.7179 -16.1308 0.0000 38.4744 0.0000
# 6 0.0000 0.0000 0.0000 3.9234 0.0000 27.3225
#
#
#
# Elastic Compliance Matrix: (Units=1/GPa)
#
#
# Indices 1 2 3 4 5 6 
#
# 1 0.009719 -0.001914 -0.004881 0.000000 -0.004510 0.000000
# 2 -0.001914 0.019403 -0.003284 0.000000 0.001441 0.000000
# 3 -0.004881 -0.003284 0.010516 0.000000 0.005125 0.000000
# 4 0.000000 0.000000 0.000000 -0.072760 0.000000 0.010448
# 5 -0.004510 0.001441 0.005125 0.000000 0.029351 0.000000
# 6 0.000000 0.000000 0.000000 0.010448 0.000000 0.035100
#
#
# Mechanical properties :
#
#
# Convention : Reuss Voigt Hill
#
# Bulk Modulus (GPa) = 51.33514 69.08482 60.20998
# Shear Modulus (GPa) = 86.23611 25.42346 55.82978
#
# Velocity S-wave (km/s) = 6.56142 3.56263 5.27942
# Velocity P-wave (km/s) = 9.11216 7.17027 8.19891
#
# Compressibility (1/GPa) = 0.01947983
#
# Stress axis : x y z
#
# Youngs Moduli (GPa) = 102.89226 51.53823 95.09325
#
# Poissons Ratio (x) = 0.09865 0.46414
# Poissons Ratio (y) = 0.19694 0.31230
# Poissons Ratio (z) = 0.50220 0.16926
#
# Static dielectric constant tensor:
#      x y z
#    x 1.710740 0.000000 -0.009680 
#    y 0.000000 1.813210 0.000000 
#    z -0.009680 0.000000 1.745130 
# 
# From -- ./inp_files/25485.got.cif
#   From: 2010.05.17/outbox.cif.g08.bks.cpg/sg5_13_cif.got.tgz:25485.got - 2010.06.03 18:56:24.
