data_PCOD9126478
_publ_section_title
;
Structure prediction by ZEFSAII (Michael W. Deem and Ramdas Pophale) SiO2 
 PCOD9126478
Probable space group: C 2
;
_chemical_formula_sum "Si O2"
_cell_formula_units_Z 26
_cell_length_a 9.823437
_cell_length_b 14.045488
_cell_length_c 16.455680
_cell_angle_alpha 90.000000
_cell_angle_beta 146.331434
_cell_angle_gamma 90.000000
_cell_volume 1258.722173
_symmetry_space_group_name_H-M "C 2"
_symmetry_group_IT_number 5
_symmetry_cell_setting 'monoclinic'
loop_
_space_group_symop_operation_xyz
x,y,z
-x,y,-z
1/2+x,1/2+y,z
1/2-x,1/2+y,-z
loop_
_atom_site_type_symbol
_atom_site_label
_atom_site_fract_x
_atom_site_fract_y
_atom_site_fract_z
Si Si1 0.633951 0.227170 0.894746
Si Si2 0.529802 0.564074 0.259566
Si Si3 0.531564 0.865243 0.154136
Si Si4 0.730499 0.766847 0.405004
Si Si5 0.155870 0.029130 0.004454
Si Si6 0.000000 0.643725 0.000000
Si Si7 0.429599 0.359566 0.658860
O O1 0.706703 0.124048 0.896487
O O2 0.533576 0.206209 0.935491
O O3 0.462345 0.288855 0.751288
O O4 0.880855 0.287024 0.029775
O O5 0.654298 0.656905 0.359536
O O6 0.636337 0.465706 0.345704
O O7 0.524751 0.559805 0.158814
O O8 0.240022 0.579576 0.132855
O O9 0.559156 0.827379 0.259905
O O10 0.800766 0.872571 0.248962
O O11 0.361427 0.958203 0.072058
O O12 0.000000 0.773657 0.500000
O O13 0.751281 0.811745 0.504347
O O14 0.000000 0.985456 0.000000
#
# Coordination Sequence:
#
# PCOD9126478 Si02
#       7
#     4   4   4   4   4   2   4
#     4  11  22  37  65  94 127 166 218 264 314 385
#     4  11  22  43  64  95 128 169 210 276 318 372
#     4  11  21  40  64  91 129 171 214 263 309 386
#     4  10  24  43  63  88 134 174 208 256 323 391
#     4  11  23  36  65 101 125 161 217 276 315 366
#     4  10  22  40  68  96 130 160 212 290 320 352
#     4  11  23  40  65  93 124 181 215 247 328 390
#
# _framework density 20.655868000000002
#
# number of rings (size 3 to 8) (size 9 to 14) (size 15 to 20)
#    0.000    1.231    4.615    3.231    3.231    1.231 
#    0.000    2.308    0.000    0.000    0.000    0.000 
#    0.000    0.000    0.000    0.000    0.000    0.000 
#
# Total GULP energy -72624.373783 kJ/mol
# GULP energy per Si atom -5586.490291 kJ/mol
# Density = 2.060885 g / cm^3
# Si number density = 20.655868 Si / 1000 Ang^3
#
#
#
# Elastic Constant Matrix: (Units=GPa)
#
#
# Indices 1 2 3 4 5 6 
#
# 1 62.1612 8.8574 11.0514 0.0003 -18.4075 0.0001
# 2 8.8574 137.0249 42.5537 0.0000 -22.5287 0.0000
# 3 11.0514 42.5537 89.5456 0.0003 -36.0054 0.0001
# 4 0.0003 0.0000 0.0003 38.5465 0.0002 1.8078
# 5 -18.4075 -22.5287 -36.0054 0.0002 29.0334 0.0000
# 6 0.0001 0.0000 0.0001 1.8078 0.0000 18.1551
#
#
#
# Elastic Compliance Matrix: (Units=1/GPa)
#
#
# Indices 1 2 3 4 5 6 
#
# 1 0.021106 0.000293 0.005441 0.000000 0.020357 0.000000
# 2 0.000293 0.008716 -0.002761 0.000000 0.003525 0.000000
# 3 0.005441 -0.002761 0.024601 0.000000 0.031816 0.000000
# 4 0.000000 0.000000 0.000000 0.026064 -0.000001 -0.002595
# 5 0.020357 0.003525 0.031816 -0.000001 0.089541 0.000000
# 6 0.000000 0.000000 0.000000 -0.002595 0.000000 0.055339
#
#
# Mechanical properties :
#
#
# Convention : Reuss Voigt Hill
#
# Bulk Modulus (GPa) = 16.56465 45.96185 31.26325
# Shear Modulus (GPa) = 20.87302 32.23164 26.55233
#
# Velocity S-wave (km/s) = 3.18231 3.95449 3.58922
# Velocity P-wave (km/s) = 4.64107 6.56888 5.68725
#
# Compressibility (1/GPa) = 0.06036951
#
# Stress axis : x y z
#
# Youngs Moduli (GPa) = 47.37941 114.73225 40.64931
#
# Poissons Ratio (x) = -0.03359 -0.22118
# Poissons Ratio (y) = -0.01387 0.11222
# Poissons Ratio (z) = -0.25780 0.31673
#
# Static dielectric constant tensor:
#      x y z
#    x 1.783830 0.000000 -0.007740 
#    y 0.000000 1.734870 0.000000 
#    z -0.007740 0.000000 1.729460 
# 
# From -- ./inp_files/60602.got.cif
#   From: 2010.05.17/outbox.cif.g08.bks.cpg/sg5_31_cif.got.tgz:60602.got - 2010.06.03 18:56:24.
