data_PCOD9126810
_publ_section_title
;
Structure prediction by ZEFSAII (Michael W. Deem and Ramdas Pophale) SiO2 
 PCOD9126810
Probable space group: C 2
;
_chemical_formula_sum "Si O2"
_cell_formula_units_Z 26
_cell_length_a 19.686925
_cell_length_b 12.209719
_cell_length_c 12.089840
_cell_angle_alpha 90.000000
_cell_angle_beta 22.345662
_cell_angle_gamma 90.000000
_cell_volume 1104.863604
_symmetry_space_group_name_H-M "C 2"
_symmetry_group_IT_number 5
_symmetry_cell_setting 'monoclinic'
loop_
_space_group_symop_operation_xyz
x,y,z
-x,y,-z
1/2+x,1/2+y,z
1/2-x,1/2+y,-z
loop_
_atom_site_type_symbol
_atom_site_label
_atom_site_fract_x
_atom_site_fract_y
_atom_site_fract_z
Si Si1 0.441326 0.563650 0.756008
Si Si2 0.852900 0.457262 0.408508
Si Si3 0.500000 0.812899 0.000000
Si Si4 0.073427 0.615048 0.186425
Si Si5 0.819320 0.103236 0.178677
Si Si6 0.407848 0.327782 0.746998
Si Si7 0.005501 0.304867 0.619870
O O1 0.499042 0.444241 0.630821
O O2 0.545128 0.674630 0.568051
O O3 0.250293 0.580546 0.983067
O O4 0.416051 0.560493 0.924993
O O5 0.688367 0.535673 0.693090
O O6 0.024440 0.540272 0.155684
O O7 0.871098 0.372087 0.483257
O O8 0.873288 0.387754 0.267209
O O9 0.617897 0.727276 0.893987
O O10 0.080408 0.746136 0.166092
O O11 0.892239 0.596371 0.528977
O O12 0.500000 0.280353 0.500000
O O13 0.197434 0.329835 0.036656
O O14 0.000000 0.338025 0.500000
#
# Coordination Sequence:
#
# PCOD9126810 Si02
#       7
#     4   4   2   4   4   4   4
#     4  11  19  37  63 104 137 165 221 283 361 417
#     4  10  23  42  67  92 131 184 228 284 331 418
#     4  12  24  48  66  94 132 196 250 262 344 406
#     4   9  21  37  64  94 126 174 208 284 358 393
#     4  10  22  42  66  94 129 185 225 277 345 409
#     4  11  21  33  59 101 137 171 214 276 356 426
#     4  11  21  37  63  97 137 175 217 280 357 408
#
# _framework density 23.532316000000002
#
# number of rings (size 3 to 8) (size 9 to 14) (size 15 to 20)
#    0.923    0.615    3.077    3.692    0.000    0.000 
#    2.769    4.615    0.000    0.000    0.000    0.000 
#    0.000    0.000    0.000    0.000    0.000    0.000 
#
# Total GULP energy -72482.755288 kJ/mol
# GULP energy per Si atom -5575.596561 kJ/mol
# Density = 2.347876 g / cm^3
# Si number density = 23.532316 Si / 1000 Ang^3
#
#
#
# Elastic Constant Matrix: (Units=GPa)
#
#
# Indices 1 2 3 4 5 6 
#
# 1 42.7995 9.4369 12.6966 -0.0003 13.9242 0.0002
# 2 9.4369 144.9916 -8.6487 -0.0003 11.5383 0.0002
# 3 12.6966 -8.6487 54.7116 -0.0004 19.3127 0.0004
# 4 -0.0003 -0.0003 -0.0004 21.2199 0.0003 19.7198
# 5 13.9242 11.5383 19.3127 0.0003 33.1116 -0.0002
# 6 0.0002 0.0002 0.0004 19.7198 -0.0002 31.2610
#
#
#
# Elastic Compliance Matrix: (Units=1/GPa)
#
#
# Indices 1 2 3 4 5 6 
#
# 1 0.027641 -0.001265 -0.003359 0.000001 -0.009224 -0.000001
# 2 -0.001265 0.007437 0.002765 0.000001 -0.003672 -0.000001
# 3 -0.003359 0.002765 0.024349 0.000002 -0.013753 -0.000002
# 4 0.000001 0.000001 0.000002 0.113890 -0.000003 -0.071843
# 5 -0.009224 -0.003672 -0.013753 -0.000003 0.043381 0.000003
# 6 -0.000001 -0.000001 -0.000002 -0.071843 0.000003 0.077308
#
#
# Mechanical properties :
#
#
# Convention : Reuss Voigt Hill
#
# Bulk Modulus (GPa) = 17.95022 29.94136 23.94579
# Shear Modulus (GPa) = 15.80811 32.38634 24.09722
#
# Velocity S-wave (km/s) = 2.59465 3.71381 3.20348
# Velocity P-wave (km/s) = 4.07685 5.58041 4.88680
#
# Compressibility (1/GPa) = 0.05570962
#
# Stress axis : x y z
#
# Youngs Moduli (GPa) = 36.17819 134.47185 41.06945
#
# Poissons Ratio (x) = 0.17015 0.13793
# Poissons Ratio (y) = 0.04578 -0.11358
# Poissons Ratio (z) = 0.12151 -0.37188
#
# Static dielectric constant tensor:
#      x y z
#    x 1.929710 0.000000 -0.061630 
#    y 0.000000 1.968200 0.000000 
#    z -0.061630 0.000000 1.893800 
# 
# From -- ./inp_files/46315.got.cif
#   From: 2010.05.17/outbox.cif.g08.bks.cpg/sg5_24_cif.got.tgz:46315.got - 2010.06.03 18:56:24.
