data_PCOD9126183
_publ_section_title
;
Structure prediction by ZEFSAII (Michael W. Deem and Ramdas Pophale) SiO2 
 PCOD9126183
Probable space group: C 2
;
_chemical_formula_sum "Si O2"
_cell_formula_units_Z 30
_cell_length_a 13.846368
_cell_length_b 4.913829
_cell_length_c 16.799299
_cell_angle_alpha 90.000000
_cell_angle_beta 105.230658
_cell_angle_gamma 90.000000
_cell_volume 1102.855469
_symmetry_space_group_name_H-M "C 2"
_symmetry_group_IT_number 5
_symmetry_cell_setting 'monoclinic'
loop_
_space_group_symop_operation_xyz
x,y,z
-x,y,-z
1/2+x,1/2+y,z
1/2-x,1/2+y,-z
loop_
_atom_site_type_symbol
_atom_site_label
_atom_site_fract_x
_atom_site_fract_y
_atom_site_fract_z
Si Si1 0.000000 0.178771 0.000000
Si Si2 0.333187 0.144874 0.973371
Si Si3 0.507315 0.151128 0.251138
Si Si4 0.314293 0.510482 0.420896
Si Si5 0.123298 0.500795 0.462960
Si Si6 0.978849 0.133860 0.341780
Si Si7 0.790048 0.799197 0.143223
Si Si8 0.101890 0.983367 0.141846
O O1 0.904958 0.394579 0.979477
O O2 0.000338 0.136313 0.897910
O O3 0.248312 0.102039 0.887360
O O4 0.400019 0.392760 0.954467
O O5 0.295978 0.181627 0.053836
O O6 0.533769 0.350265 0.332199
O O7 0.397363 0.257245 0.203403
O O8 0.582718 0.239903 0.197950
O O9 0.493476 0.838381 0.271169
O O10 0.195831 0.459491 0.400918
O O11 0.372696 0.288602 0.489261
O O12 0.370010 0.542133 0.349376
O O13 0.321247 0.804340 0.462527
O O14 0.976243 0.332881 0.580503
O O15 0.702981 0.649935 0.175103
#
# Coordination Sequence:
#
# PCOD9126183 Si02
#       8
#     2   4   4   4   4   4   4   4
#     4  10  22  38  68  94 124 160 244 326 366 420
#     4  11  22  42  69  95 123 171 257 321 368 415
#     4  12  30  44  65 100 154 196 235 283 368 457
#     4  10  22  44  78 111 141 179 235 298 339 405
#     4  10  22  44  78 111 141 177 238 295 345 402
#     4  12  27  45  70 108 150 197 228 282 357 446
#     4  11  25  41  69  97 129 185 248 317 372 427
#     4  11  25  42  65  95 131 188 238 312 371 436
#
# _framework density 27.202114999999999
#
# number of rings (size 3 to 8) (size 9 to 14) (size 15 to 20)
#    0.000    1.067    1.333    4.000    9.333    3.200 
#    0.000    0.000    0.000    0.000    0.000    0.000 
#    0.000    0.000    0.000    0.000    0.000    0.000 
#
# Total GULP energy -83707.521533 kJ/mol
# GULP energy per Si atom -5580.501436 kJ/mol
# Density = 2.714020 g / cm^3
# Si number density = 27.202115 Si / 1000 Ang^3
#
#
#
# Elastic Constant Matrix: (Units=GPa)
#
#
# Indices 1 2 3 4 5 6 
#
# 1 107.7990 7.6371 19.4348 0.0000 -18.5414 0.0000
# 2 7.6371 132.7298 18.2429 0.0000 -17.6395 0.0000
# 3 19.4348 18.2429 79.3977 0.0000 -30.6742 0.0000
# 4 0.0000 0.0000 0.0000 43.3716 0.0000 -7.0106
# 5 -18.5414 -17.6395 -30.6742 0.0000 50.3694 0.0000
# 6 0.0000 0.0000 0.0000 -7.0106 0.0000 21.4565
#
#
#
# Elastic Compliance Matrix: (Units=1/GPa)
#
#
# Indices 1 2 3 4 5 6 
#
# 1 0.010012 -0.000011 -0.001341 0.000000 0.002865 0.000000
# 2 -0.000011 0.007960 -0.000982 0.000000 0.002186 0.000000
# 3 -0.001341 -0.000982 0.016771 0.000000 0.009376 0.000000
# 4 0.000000 0.000000 0.000000 0.024342 0.000000 0.007953
# 5 0.002865 0.002186 0.009376 0.000000 0.027383 0.000000
# 6 0.000000 0.000000 0.000000 0.007953 0.000000 0.049205
#
#
# Mechanical properties :
#
#
# Convention : Reuss Voigt Hill
#
# Bulk Modulus (GPa) = 33.25091 45.61733 39.43412
# Shear Modulus (GPa) = 33.25223 41.34695 37.29959
#
# Velocity S-wave (km/s) = 3.50010 3.90294 3.70699
# Velocity P-wave (km/s) = 5.34644 6.09235 5.73154
#
# Compressibility (1/GPa) = 0.03007437
#
# Stress axis : x y z
#
# Youngs Moduli (GPa) = 99.88136 125.62567 59.62709
#
# Poissons Ratio (x) = 0.00138 0.07999
# Poissons Ratio (y) = 0.00110 0.05855
# Poissons Ratio (z) = 0.13398 0.12335
#
# Static dielectric constant tensor:
#      x y z
#    x 2.320960 0.000000 -0.032830 
#    y 0.000000 2.289590 0.000000 
#    z -0.032830 0.000000 2.351030 
# 
# From -- ./inp_files/65551.got.cif
#   From: 2010.05.17/outbox.cif.g08.bks.cpg/sg5_33_cif.got.tgz:65551.got - 2010.06.03 18:56:24.
