data_PCOD9126892
_publ_section_title
;
Structure prediction by ZEFSAII (Michael W. Deem and Ramdas Pophale) SiO2 
 PCOD9126892
Probable space group: C 2
;
_chemical_formula_sum "Si O2"
_cell_formula_units_Z 24
_cell_length_a 12.273370
_cell_length_b 9.000811
_cell_length_c 14.543374
_cell_angle_alpha 90.000000
_cell_angle_beta 145.633064
_cell_angle_gamma 90.000000
_cell_volume 906.916862
_symmetry_space_group_name_H-M "C 2"
_symmetry_group_IT_number 5
_symmetry_cell_setting 'monoclinic'
loop_
_space_group_symop_operation_xyz
x,y,z
-x,y,-z
1/2+x,1/2+y,z
1/2-x,1/2+y,-z
loop_
_atom_site_type_symbol
_atom_site_label
_atom_site_fract_x
_atom_site_fract_y
_atom_site_fract_z
Si Si1 0.192642 0.797530 0.776760
Si Si2 0.000000 0.422683 0.500000
Si Si3 0.113665 0.237789 0.291896
Si Si4 0.930081 0.555046 0.632546
Si Si5 0.698351 0.204717 0.254822
Si Si6 0.768053 0.608719 0.918990
Si Si7 0.500000 0.468341 0.500000
O O1 0.311307 0.755744 0.763731
O O2 0.011533 0.873156 0.598757
O O3 0.088984 0.680285 0.771951
O O4 0.283566 0.935395 0.898019
O O5 0.042774 0.512511 0.618499
O O6 0.798969 0.337430 0.377967
O O7 0.078275 0.401602 0.314115
O O8 0.913221 0.146389 0.144647
O O9 0.242631 0.138012 0.454748
O O10 0.777733 0.200597 0.206519
O O11 0.476124 0.170509 0.091756
O O12 0.813209 0.068757 0.378553
#
# Coordination Sequence:
#
# PCOD9126892 Si02
#       7
#     4   2   4   4   4   4   2
#     4  11  22  44  70 102 145 179 238 306 352 426
#     4  11  19  42  72 106 146 192 240 302 352 424
#     4  12  24  40  72 108 142 188 242 293 365 433
#     4  12  24  41  71 111 146 185 246 301 355 432
#     4   9  20  38  71 104 136 191 234 292 365 414
#     4  10  22  42  69 100 146 186 234 297 366 427
#     4   9  17  38  72  92 134 184 224 288 354 412
#
# _framework density 26.463287000000001
#
# number of rings (size 3 to 8) (size 9 to 14) (size 15 to 20)
#    0.000    1.333    5.000    1.000    2.333    1.333 
#    0.000    5.000   18.333    0.000    0.000    0.000 
#    0.000    0.000    0.000    0.000    0.000    0.000 
#
# Total GULP energy -66855.613207 kJ/mol
# GULP energy per Si atom -5571.301101 kJ/mol
# Density = 2.640306 g / cm^3
# Si number density = 26.463287 Si / 1000 Ang^3
#
#
#
# Elastic Constant Matrix: (Units=GPa)
#
#
# Indices 1 2 3 4 5 6 
#
# 1 43.2937 29.2754 17.1675 0.0000 6.8334 -0.0003
# 2 29.2754 110.1775 40.0999 0.0000 17.0456 -0.0002
# 3 17.1675 40.0999 127.2163 0.0003 35.3672 -0.0003
# 4 0.0000 0.0000 0.0003 111.9343 0.0001 -83.2887
# 5 6.8334 17.0456 35.3672 0.0001 40.4197 -0.0001
# 6 -0.0003 -0.0002 -0.0003 -83.2887 -0.0001 112.2731
#
#
#
# Elastic Compliance Matrix: (Units=1/GPa)
#
#
# Indices 1 2 3 4 5 6 
#
# 1 0.028469 -0.006930 -0.001496 0.000000 -0.000582 0.000000
# 2 -0.006930 0.012060 -0.002350 0.000000 -0.001858 0.000000
# 3 -0.001496 -0.002350 0.011176 0.000000 -0.008535 0.000000
# 4 0.000000 0.000000 0.000000 0.019941 0.000000 0.014793
# 5 -0.000582 -0.001858 -0.008535 0.000000 0.033091 0.000000
# 6 0.000000 0.000000 0.000000 0.014793 0.000000 0.019881
#
#
# Mechanical properties :
#
#
# Convention : Reuss Voigt Hill
#
# Bulk Modulus (GPa) = 33.16256 50.41924 41.79090
# Shear Modulus (GPa) = 32.00589 65.86839 48.93714
#
# Velocity S-wave (km/s) = 3.48148 4.99445 4.30495
# Velocity P-wave (km/s) = 5.35907 7.23555 6.36682
#
# Compressibility (1/GPa) = 0.03015449
#
# Stress axis : x y z
#
# Youngs Moduli (GPa) = 35.12566 82.91585 89.47765
#
# Poissons Ratio (x) = 0.57463 0.13382
# Poissons Ratio (y) = 0.24343 0.21024
# Poissons Ratio (z) = 0.05253 0.19483
#
# Static dielectric constant tensor:
#      x y z
#    x 2.456250 0.000000 0.043210 
#    y 0.000000 2.181980 0.000000 
#    z 0.043210 0.000000 1.977180 
# 
# From -- ./inp_files/26581.got.cif
#   From: 2010.05.17/outbox.cif.g08.bks.cpg/sg5_14_cif.got.tgz:26581.got - 2010.06.03 18:56:24.
