data_PCOD9126920
_publ_section_title
;
Structure prediction by ZEFSAII (Michael W. Deem and Ramdas Pophale) SiO2 
 PCOD9126920
Probable space group: C 2
;
_chemical_formula_sum "Si O2"
_cell_formula_units_Z 28
_cell_length_a 9.441115
_cell_length_b 10.313647
_cell_length_c 22.109082
_cell_angle_alpha 90.000000
_cell_angle_beta 40.648282
_cell_angle_gamma 90.000000
_cell_volume 1402.371967
_symmetry_space_group_name_H-M "C 2"
_symmetry_group_IT_number 5
_symmetry_cell_setting 'monoclinic'
loop_
_space_group_symop_operation_xyz
x,y,z
-x,y,-z
1/2+x,1/2+y,z
1/2-x,1/2+y,-z
loop_
_atom_site_type_symbol
_atom_site_label
_atom_site_fract_x
_atom_site_fract_y
_atom_site_fract_z
Si Si1 0.000000 0.280870 0.000000
Si Si2 0.981040 0.980553 0.437239
Si Si3 0.021651 0.673649 0.129475
Si Si4 0.021902 0.511690 0.424455
Si Si5 0.500000 0.274072 0.000000
Si Si6 0.034367 0.380455 0.121543
Si Si7 0.861506 0.742649 0.696169
Si Si8 0.735776 0.240668 0.674985
O O1 0.002881 0.365309 0.059853
O O2 0.773399 0.201868 0.066425
O O3 0.726396 0.003845 0.514306
O O4 0.000000 0.937140 0.500000
O O5 0.111649 0.114231 0.382449
O O6 0.058406 0.866753 0.368036
O O7 0.970396 0.524722 0.159872
O O8 0.861952 0.752587 0.225547
O O9 0.988593 0.699479 0.068453
O O10 0.141228 0.615756 0.344203
O O11 0.135303 0.371298 0.383965
O O12 0.000000 0.557978 0.500000
O O13 0.719522 0.355976 0.937582
O O14 0.876101 0.275609 0.202222
O O15 0.031730 0.725071 0.695771
#
# Coordination Sequence:
#
# PCOD9126920 Si02
#       8
#     2   4   4   4   2   4   4   4
#     4  10  22  42  70  96 130 182 214 274 346 404
#     4  12  24  45  72  95 138 180 226 282 344 396
#     4  11  23  44  69  98 138 174 222 280 339 400
#     4  12  26  45  70 101 140 180 228 281 341 401
#     4  10  26  42  66 106 134 170 226 280 334 410
#     4  11  23  44  68 100 135 174 227 272 343 401
#     4  12  25  44  70 102 136 181 228 282 337 406
#     4  12  25  45  69 102 139 177 228 289 331 403
#
# _framework density 19.966170999999999
#
# number of rings (size 3 to 8) (size 9 to 14) (size 15 to 20)
#    0.000    0.571    5.714    2.571    0.000    4.571 
#   10.286    0.000    0.000    0.000    0.000    0.000 
#    0.000    0.000    0.000    0.000    0.000    0.000 
#
# Total GULP energy -78220.680923 kJ/mol
# GULP energy per Si atom -5587.191494 kJ/mol
# Density = 1.992073 g / cm^3
# Si number density = 19.966171 Si / 1000 Ang^3
#
#
#
# Elastic Constant Matrix: (Units=GPa)
#
#
# Indices 1 2 3 4 5 6 
#
# 1 113.5729 3.5213 26.9070 0.0000 8.1317 0.0000
# 2 3.5213 71.1613 8.3796 0.0000 3.0033 0.0000
# 3 26.9070 8.3796 94.8886 -0.0002 6.6811 0.0000
# 4 0.0000 0.0000 -0.0002 59.4097 0.0000 2.2338
# 5 8.1317 3.0033 6.6811 0.0000 29.2243 0.0000
# 6 0.0000 0.0000 0.0000 2.2338 0.0000 16.0689
#
#
#
# Elastic Compliance Matrix: (Units=1/GPa)
#
#
# Indices 1 2 3 4 5 6 
#
# 1 0.009562 -0.000085 -0.002558 0.000000 -0.002067 0.000000
# 2 -0.000085 0.014242 -0.001151 0.000000 -0.001177 0.000000
# 3 -0.002558 -0.001151 0.011492 0.000000 -0.001797 0.000000
# 4 0.000000 0.000000 0.000000 0.016921 0.000000 -0.002352
# 5 -0.002067 -0.001177 -0.001797 0.000000 0.035325 0.000000
# 6 0.000000 0.000000 0.000000 -0.002352 0.000000 0.062559
#
#
# Mechanical properties :
#
#
# Convention : Reuss Voigt Hill
#
# Bulk Modulus (GPa) = 36.09030 39.69316 37.89173
# Shear Modulus (GPa) = 29.95371 36.99492 33.47431
#
# Velocity S-wave (km/s) = 3.87747 4.30918 4.09901
# Velocity P-wave (km/s) = 6.17749 6.68446 6.43597
#
# Compressibility (1/GPa) = 0.02770828
#
# Stress axis : x y z
#
# Youngs Moduli (GPa) = 104.58468 70.21509 87.01481
#
# Poissons Ratio (x) = 0.00594 0.22261
# Poissons Ratio (y) = 0.00885 0.10014
# Poissons Ratio (z) = 0.26756 0.08081
#
# Static dielectric constant tensor:
#      x y z
#    x 1.648080 0.000000 0.013520 
#    y 0.000000 1.679090 0.000000 
#    z 0.013520 0.000000 1.694580 
# 
# From -- ./inp_files/50139.got.cif
#   From: 2010.05.17/outbox.cif.g08.bks.cpg/sg5_26_cif.got.tgz:50139.got - 2010.06.03 18:56:24.
