data_PCOD9126332
_publ_section_title
;
Structure prediction by ZEFSAII (Michael W. Deem and Ramdas Pophale) SiO2 
 PCOD9126332
Probable space group: C 2
;
_chemical_formula_sum "Si O2"
_cell_formula_units_Z 26
_cell_length_a 12.489431
_cell_length_b 22.073409
_cell_length_c 6.397986
_cell_angle_alpha 90.000000
_cell_angle_beta 48.990970
_cell_angle_gamma 90.000000
_cell_volume 1330.992790
_symmetry_space_group_name_H-M "C 2"
_symmetry_group_IT_number 5
_symmetry_cell_setting 'monoclinic'
loop_
_space_group_symop_operation_xyz
x,y,z
-x,y,-z
1/2+x,1/2+y,z
1/2-x,1/2+y,-z
loop_
_atom_site_type_symbol
_atom_site_label
_atom_site_fract_x
_atom_site_fract_y
_atom_site_fract_z
Si Si1 0.232912 0.872160 0.005597
Si Si2 0.500000 0.063568 0.500000
Si Si3 0.849043 0.606508 0.305422
Si Si4 0.134486 0.486203 0.956914
Si Si5 0.000000 0.840709 0.000000
Si Si6 0.872118 0.770296 0.548386
Si Si7 0.000000 0.294376 0.500000
Si Si8 0.118688 0.199903 0.691073
O O1 0.372679 0.838337 0.738070
O O2 0.268158 0.932809 0.085923
O O3 0.119227 0.879441 0.965707
O O4 0.162460 0.825998 0.257391
O O5 0.390080 0.100407 0.496920
O O6 0.579337 0.021211 0.232198
O O7 0.810213 0.540205 0.263234
O O8 0.717915 0.651531 0.443999
O O9 0.000000 0.624162 0.000000
O O10 0.000000 0.459903 0.000000
O O11 0.922915 0.796669 0.263055
O O12 0.731212 0.733263 0.695235
O O13 0.000000 0.735750 0.500000
O O14 0.053025 0.249696 0.617465
O O15 0.000000 0.173762 0.000000
#
# Coordination Sequence:
#
# PCOD9126332 Si02
#       8
#     4   2   4   4   2   4   2   4
#     4  11  22  39  65  95 131 162 216 269 326 391
#     4   8  17  40  64  96 110 169 226 254 322 372
#     4   9  22  40  65  94 125 172 225 263 315 384
#     4   9  20  37  65  95 125 161 218 278 313 378
#     4  10  22  40  60  90 126 170 214 256 322 392
#     4  10  23  39  60  93 125 168 212 260 327 397
#     4  12  25  38  62 102 132 169 202 272 338 378
#     4  12  25  41  63  98 135 167 216 269 330 387
#
# _framework density 19.534289999999999
#
# number of rings (size 3 to 8) (size 9 to 14) (size 15 to 20)
#    0.000    2.154    3.077    0.462    4.308    4.923 
#    0.000    0.000   22.000    0.000    0.000    0.000 
#    0.000    0.000    0.000    0.000    0.000    0.000 
#
# Total GULP energy -72510.399133 kJ/mol
# GULP energy per Si atom -5577.723010 kJ/mol
# Density = 1.948983 g / cm^3
# Si number density = 19.534290 Si / 1000 Ang^3
#
#
#
# Elastic Constant Matrix: (Units=GPa)
#
#
# Indices 1 2 3 4 5 6 
#
# 1 145.1214 59.4540 37.2304 0.0000 1.1918 0.0000
# 2 59.4540 85.5091 19.3572 0.0000 -6.8753 0.0000
# 3 37.2304 19.3572 90.5169 0.0000 -5.9442 0.0000
# 4 0.0000 0.0000 0.0000 14.3857 0.0000 2.3216
# 5 1.1918 -6.8753 -5.9442 0.0000 34.7621 0.0000
# 6 0.0000 0.0000 0.0000 2.3216 0.0000 7.6574
#
#
#
# Elastic Compliance Matrix: (Units=1/GPa)
#
#
# Indices 1 2 3 4 5 6 
#
# 1 0.010449 -0.006764 -0.002996 0.000000 -0.002208 0.000000
# 2 -0.006764 0.016808 -0.000585 0.000000 0.003456 0.000000
# 3 -0.002996 -0.000585 0.012545 0.000000 0.002132 0.000000
# 4 0.000000 0.000000 0.000000 0.073090 0.000000 -0.022159
# 5 -0.002208 0.003456 0.002132 0.000000 0.029891 0.000000
# 6 0.000000 0.000000 0.000000 -0.022159 0.000000 0.137310
#
#
# Mechanical properties :
#
#
# Convention : Reuss Voigt Hill
#
# Bulk Modulus (GPa) = 52.32658 61.47005 56.89831
# Shear Modulus (GPa) = 16.27843 25.03475 20.65659
#
# Velocity S-wave (km/s) = 2.88987 3.58380 3.25538
# Velocity P-wave (km/s) = 6.16282 6.97574 6.58184
#
# Compressibility (1/GPa) = 0.01911075
#
# Stress axis : x y z
#
# Youngs Moduli (GPa) = 95.70469 59.49465 79.71183
#
# Poissons Ratio (x) = 0.40244 0.23883
# Poissons Ratio (y) = 0.64738 0.04665
# Poissons Ratio (z) = 0.28675 0.03482
#
# Static dielectric constant tensor:
#      x y z
#    x 1.721300 0.000000 -0.002240 
#    y 0.000000 1.688840 0.000000 
#    z -0.002240 0.000000 1.721220 
# 
# From -- ./inp_files/5598.got.cif
#   From: 2010.05.17/outbox.cif.g08.bks.cpg/sg5_3_cif.got.tgz:5598.got - 2010.06.03 18:56:24.
