data_PCOD9126057
_publ_section_title
;
Structure prediction by ZEFSAII (Michael W. Deem and Ramdas Pophale) SiO2 
 PCOD9126057
Probable space group: C 2
;
_chemical_formula_sum "Si O2"
_cell_formula_units_Z 24
_cell_length_a 25.116896
_cell_length_b 8.106618
_cell_length_c 18.337783
_cell_angle_alpha 90.000000
_cell_angle_beta 19.681663
_cell_angle_gamma 90.000000
_cell_volume 1257.525393
_symmetry_space_group_name_H-M "C 2"
_symmetry_group_IT_number 5
_symmetry_cell_setting 'monoclinic'
loop_
_space_group_symop_operation_xyz
x,y,z
-x,y,-z
1/2+x,1/2+y,z
1/2-x,1/2+y,-z
loop_
_atom_site_type_symbol
_atom_site_label
_atom_site_fract_x
_atom_site_fract_y
_atom_site_fract_z
Si Si1 0.699813 0.452730 0.648623
Si Si2 0.300439 0.698487 0.806749
Si Si3 0.566615 0.216049 0.699421
Si Si4 0.000000 0.198919 0.000000
Si Si5 0.122852 0.262001 0.452722
Si Si6 0.321033 0.373812 0.596455
Si Si7 0.000000 0.889802 0.500000
O O1 0.614780 0.318258 0.708640
O O2 0.832775 0.548076 0.430661
O O3 0.791359 0.375266 0.599550
O O4 0.571792 0.581944 0.844686
O O5 0.431855 0.773678 0.691950
O O6 0.314342 0.789643 0.710559
O O7 0.366288 0.514677 0.703953
O O8 0.121130 0.694108 0.062474
O O9 0.622484 0.311022 0.554611
O O10 0.856156 0.314072 0.161200
O O11 0.161720 0.071127 0.421694
O O12 0.427608 0.298903 0.524316
#
# Coordination Sequence:
#
# PCOD9126057 Si02
#       7
#     4   4   4   2   4   4   2
#     4  11  23  37  55  83 115 148 185 227 275 327
#     4   8  18  35  58  81 107 143 184 224 273 326
#     4  11  22  36  54  84 115 141 183 235 274 316
#     4  10  22  38  56  82 112 150 188 218 272 340
#     4   9  19  38  59  79 108 150 185 219 274 335
#     4   9  20  38  57  81 110 143 184 227 273 328
#     4   8  18  38  58  78 106 146 182 216 274 338
#
# _framework density 19.085101999999999
#
# number of rings (size 3 to 8) (size 9 to 14) (size 15 to 20)
#    0.000    3.000    0.000    2.000    0.000   11.333 
#    0.000   13.333    0.000    0.000    0.000    0.000 
#    0.000    0.000    0.000    0.000    0.000    0.000 
#
# Total GULP energy -66916.066876 kJ/mol
# GULP energy per Si atom -5576.338906 kJ/mol
# Density = 1.904166 g / cm^3
# Si number density = 19.085102 Si / 1000 Ang^3
#
#
#
# Elastic Constant Matrix: (Units=GPa)
#
#
# Indices 1 2 3 4 5 6 
#
# 1 96.2769 18.5080 36.9648 0.0001 -24.9574 0.0000
# 2 18.5080 46.3153 35.3060 -0.0001 -12.8737 0.0000
# 3 36.9648 35.3060 160.7736 -0.0001 -22.8086 -0.0001
# 4 0.0001 -0.0001 -0.0001 10.3103 0.0000 -0.1039
# 5 -24.9574 -12.8737 -22.8086 0.0000 19.6731 0.0000
# 6 0.0000 0.0000 -0.0001 -0.1039 0.0000 20.3344
#
#
#
# Elastic Compliance Matrix: (Units=1/GPa)
#
#
# Indices 1 2 3 4 5 6 
#
# 1 0.015598 -0.000429 -0.000867 0.000000 0.018501 0.000000
# 2 -0.000429 0.028748 -0.004336 0.000000 0.013240 0.000000
# 3 -0.000867 -0.004336 0.008154 0.000000 0.005516 0.000000
# 4 0.000000 0.000000 0.000000 0.096996 0.000000 0.000496
# 5 0.018501 0.013240 0.005516 0.000000 0.089361 0.000000
# 6 0.000000 0.000000 0.000000 0.000496 0.000000 0.049180
#
#
# Mechanical properties :
#
#
# Convention : Reuss Voigt Hill
#
# Bulk Modulus (GPa) = 24.25112 53.88036 39.06574
# Shear Modulus (GPa) = 15.97198 24.23604 20.10401
#
# Velocity S-wave (km/s) = 2.89603 3.56742 3.24911
# Velocity P-wave (km/s) = 4.89051 6.72767 5.88127
#
# Compressibility (1/GPa) = 0.04123521
#
# Stress axis : x y z
#
# Youngs Moduli (GPa) = 64.10961 34.78459 122.63822
#
# Poissons Ratio (x) = 0.01494 0.10636
# Poissons Ratio (y) = 0.02753 0.53176
# Poissons Ratio (z) = 0.05560 0.15083
#
# Static dielectric constant tensor:
#      x y z
#    x 1.686650 0.000000 -0.007620 
#    y 0.000000 1.680590 0.000000 
#    z -0.007620 0.000000 1.649810 
# 
# From -- ./inp_files/61415.got.cif
#   From: 2010.05.17/outbox.cif.g08.bks.cpg/sg5_31_cif.got.tgz:61415.got - 2010.06.03 18:56:24.
