data_PCOD9126937
_publ_section_title
;
Structure prediction by ZEFSAII (Michael W. Deem and Ramdas Pophale) SiO2 
 PCOD9126937
Probable space group: C 2
;
_chemical_formula_sum "Si O2"
_cell_formula_units_Z 24
_cell_length_a 8.640675
_cell_length_b 18.445099
_cell_length_c 5.930130
_cell_angle_alpha 90.000000
_cell_angle_beta 98.291897
_cell_angle_gamma 90.000000
_cell_volume 935.252651
_symmetry_space_group_name_H-M "C 2"
_symmetry_group_IT_number 5
_symmetry_cell_setting 'monoclinic'
loop_
_space_group_symop_operation_xyz
x,y,z
-x,y,-z
1/2+x,1/2+y,z
1/2-x,1/2+y,-z
loop_
_atom_site_type_symbol
_atom_site_label
_atom_site_fract_x
_atom_site_fract_y
_atom_site_fract_z
Si Si1 0.500000 0.613340 0.000000
Si Si2 0.806180 0.443001 0.649847
Si Si3 0.500000 0.065877 0.500000
Si Si4 0.009319 0.809156 0.251300
Si Si5 0.000000 0.034238 0.500000
Si Si6 0.846062 0.667367 0.128712
Si Si7 0.351981 0.791331 0.379550
Si Si8 0.500000 0.865905 0.000000
O O1 0.510681 0.573149 0.251992
O O2 0.669425 0.653101 0.012919
O O3 0.928692 0.508369 0.656222
O O4 0.649313 0.482634 0.556989
O O5 0.832662 0.370133 0.504875
O O6 0.848537 0.412970 0.902295
O O7 0.376176 0.116324 0.350570
O O8 0.175924 0.766649 0.300350
O O9 0.000000 0.843605 0.500000
O O10 0.871499 0.750284 0.210969
O O11 0.000000 0.846845 0.000000
O O12 0.000000 0.653060 0.000000
O O13 0.500000 0.744464 0.500000
O O14 0.428750 0.814631 0.167018
#
# Coordination Sequence:
#
# PCOD9126937 Si02
#       8
#     2   4   2   4   2   4   4   2
#     4  12  28  48  73 110 152 195 256 310 374 458
#     4  11  24  40  69 110 149 195 242 305 382 454
#     4  12  20  44  71 104 151 190 246 294 386 452
#     4  11  27  50  72 108 140 197 258 314 379 434
#     4  12  28  42  69 116 149 196 244 306 376 468
#     4  11  26  49  75 105 152 202 257 314 380 452
#     4  10  24  45  72 107 147 198 254 316 380 448
#     4  10  22  42  71 110 148 201 248 308 386 454
#
# _framework density 25.661514
#
# number of rings (size 3 to 8) (size 9 to 14) (size 15 to 20)
#    0.000    1.000    5.000    1.000   11.667    0.000 
#    6.000    0.000    0.000    0.000    0.000    0.000 
#    0.000    0.000    0.000    0.000    0.000    0.000 
#
# Total GULP energy -66835.441957 kJ/mol
# GULP energy per Si atom -5569.620163 kJ/mol
# Density = 2.560311 g / cm^3
# Si number density = 25.661514 Si / 1000 Ang^3
#
#
#
# Elastic Constant Matrix: (Units=GPa)
#
#
# Indices 1 2 3 4 5 6 
#
# 1 151.3130 18.1983 52.5689 0.0000 34.1827 0.0000
# 2 18.1983 80.3480 38.8896 0.0000 7.7193 0.0000
# 3 52.5689 38.8896 171.3230 0.0000 8.5931 0.0000
# 4 0.0000 0.0000 0.0000 -23.7762 0.0000 1.7665
# 5 34.1827 7.7193 8.5931 0.0000 55.7940 0.0000
# 6 0.0000 0.0000 0.0000 1.7665 0.0000 42.2677
#
#
#
# Elastic Compliance Matrix: (Units=1/GPa)
#
#
# Indices 1 2 3 4 5 6 
#
# 1 0.008541 -0.000359 -0.002297 0.000000 -0.004829 0.000000
# 2 -0.000359 0.014116 -0.003031 0.000000 -0.001266 0.000000
# 3 -0.002297 -0.003031 0.007194 0.000000 0.000719 0.000000
# 4 0.000000 0.000000 0.000000 -0.041929 0.000000 0.001752
# 5 -0.004829 -0.001266 0.000719 0.000000 0.020946 0.000000
# 6 0.000000 0.000000 0.000000 0.001752 0.000000 0.023586
#
#
# Mechanical properties :
#
#
# Convention : Reuss Voigt Hill
#
# Bulk Modulus (GPa) = 54.11987 69.14419 61.63203
# Shear Modulus (GPa) = 100.02940 34.41225 67.22082
#
# Velocity S-wave (km/s) = 6.25020 3.66595 5.12368
# Velocity P-wave (km/s) = 8.55700 6.70239 7.68584
#
# Compressibility (1/GPa) = 0.01847750
#
# Stress axis : x y z
#
# Youngs Moduli (GPa) = 117.08263 70.84353 139.01153
#
# Poissons Ratio (x) = 0.02541 0.31932
# Poissons Ratio (y) = 0.04200 0.42129
# Poissons Ratio (z) = 0.26895 0.21470
#
# Static dielectric constant tensor:
#      x y z
#    x 2.090990 0.000000 0.013500 
#    y 0.000000 1.964970 0.000000 
#    z 0.013500 0.000000 2.224040 
# 
# From -- ./inp_files/3481.got.cif
#   From: 2010.05.17/outbox.cif.g08.bks.cpg/sg5_2_cif.got.tgz:3481.got - 2010.06.03 18:56:24.
