data_PCOD9126608
_publ_section_title
;
Structure prediction by ZEFSAII (Michael W. Deem and Ramdas Pophale) SiO2 
 PCOD9126608
Probable space group: C 2
;
_chemical_formula_sum "Si O2"
_cell_formula_units_Z 30
_cell_length_a 17.493186
_cell_length_b 9.157222
_cell_length_c 27.875245
_cell_angle_alpha 90.000000
_cell_angle_beta 160.514759
_cell_angle_gamma 90.000000
_cell_volume 1489.465892
_symmetry_space_group_name_H-M "C 2"
_symmetry_group_IT_number 5
_symmetry_cell_setting 'monoclinic'
loop_
_space_group_symop_operation_xyz
x,y,z
-x,y,-z
1/2+x,1/2+y,z
1/2-x,1/2+y,-z
loop_
_atom_site_type_symbol
_atom_site_label
_atom_site_fract_x
_atom_site_fract_y
_atom_site_fract_z
Si Si1 0.154364 0.224150 0.878752
Si Si2 0.528867 0.856714 0.429153
Si Si3 0.266684 0.410941 0.472281
Si Si4 0.935456 0.514487 0.114538
Si Si5 0.747809 0.121853 0.376385
Si Si6 0.642149 0.161044 0.539307
Si Si7 0.792370 0.083741 0.256487
Si Si8 0.000000 0.690909 0.000000
O O1 0.137691 0.368486 0.901688
O O2 0.909769 0.166491 0.713735
O O3 0.325215 0.262318 0.935193
O O4 0.262097 0.097339 0.976426
O O5 0.591272 0.889746 0.411140
O O6 0.718844 0.761757 0.570080
O O7 0.319860 0.742061 0.298912
O O8 0.525509 0.006126 0.456855
O O9 0.191080 0.487831 0.378249
O O10 0.368307 0.258398 0.514626
O O11 0.460129 0.519182 0.605953
O O12 0.042310 0.624474 0.217299
O O13 0.154788 0.480111 0.210835
O O14 0.000000 0.101743 0.500000
O O15 0.500000 0.224475 0.500000
O O16 0.662562 0.098656 0.130440
#
# Coordination Sequence:
#
# PCOD9126608 Si02
#       8
#     4   4   4   4   4   4   4   2
#     4  11  25  42  67  95 126 176 210 266 325 373
#     4  11  23  35  62  95 126 160 217 258 317 369
#     4  11  20  38  61  91 124 162 215 259 320 366
#     4  11  23  42  66  90 128 168 222 256 319 395
#     4  11  20  40  66  87 122 172 215 259 321 379
#     4  12  24  38  64  97 131 160 213 274 313 372
#     4  10  22  41  65  88 125 178 210 258 320 388
#     4  10  22  44  68  88 132 168 218 254 322 398
#
# _framework density 20.141449000000001
#
# number of rings (size 3 to 8) (size 9 to 14) (size 15 to 20)
#    0.000    1.067    4.000    4.800    1.867    1.067 
#    0.000    0.000    0.000    0.800    0.000    0.000 
#    0.000    0.000    0.000    0.000    0.000    0.000 
#
# Total GULP energy -83601.722069 kJ/mol
# GULP energy per Si atom -5573.448138 kJ/mol
# Density = 2.009561 g / cm^3
# Si number density = 20.141449 Si / 1000 Ang^3
#
#
#
# Elastic Constant Matrix: (Units=GPa)
#
#
# Indices 1 2 3 4 5 6 
#
# 1 127.7057 21.5274 21.8981 0.0000 12.1669 -0.0035
# 2 21.5274 52.7132 7.5637 0.0140 -5.3139 -0.0042
# 3 21.8981 7.5637 82.8900 0.0460 -12.7265 -0.0341
# 4 0.0000 0.0140 0.0460 9.4476 -0.0179 6.7947
# 5 12.1669 -5.3139 -12.7265 -0.0179 40.5462 0.0063
# 6 -0.0035 -0.0042 -0.0341 6.7947 0.0063 33.4108
#
#
#
# Elastic Compliance Matrix: (Units=1/GPa)
#
#
# Indices 1 2 3 4 5 6 
#
# 1 0.009349 -0.003843 -0.002760 0.000014 -0.004176 -0.000004
# 2 -0.003843 0.020968 -0.000314 -0.000027 0.003803 0.000007
# 3 -0.002760 -0.000314 0.013598 -0.000076 0.005055 0.000028
# 4 0.000014 -0.000027 -0.000076 0.123981 0.000027 -0.025214
# 5 -0.004176 0.003803 0.005055 0.000027 0.028001 -0.000006
# 6 -0.000004 0.000007 0.000028 -0.025214 -0.000006 0.035058
#
#
# Mechanical properties :
#
#
# Convention : Reuss Voigt Hill
#
# Bulk Modulus (GPa) = 33.24374 40.58747 36.91561
# Shear Modulus (GPa) = 19.62177 30.83557 25.22867
#
# Velocity S-wave (km/s) = 3.12460 3.91698 3.54301
# Velocity P-wave (km/s) = 5.43677 6.37589 5.92497
#
# Compressibility (1/GPa) = 0.03008085
#
# Stress axis : x y z
#
# Youngs Moduli (GPa) = 106.95777 47.69065 73.53848
#
# Poissons Ratio (x) = 0.18328 0.20300
# Poissons Ratio (y) = 0.41104 0.02311
# Poissons Ratio (z) = 0.29525 0.01499
#
# Static dielectric constant tensor:
#      x y z
#    x 1.750020 0.000010 0.003100 
#    y 0.000010 1.751350 -0.000010 
#    z 0.003100 -0.000010 1.729710 
# 
# From -- ./inp_files/72133.got.cif
#   From: 2010.05.17/outbox.cif.g08.bks.cpg/sg5_37_cif.got.tgz:72133.got - 2010.06.03 18:56:24.
