data_PCOD9126636
_publ_section_title
;
Structure prediction by ZEFSAII (Michael W. Deem and Ramdas Pophale) SiO2 
 PCOD9126636
Probable space group: C 2
;
_chemical_formula_sum "Si O2"
_cell_formula_units_Z 24
_cell_length_a 23.376026
_cell_length_b 7.606271
_cell_length_c 13.247135
_cell_angle_alpha 90.000000
_cell_angle_beta 149.933866
_cell_angle_gamma 90.000000
_cell_volume 1180.053077
_symmetry_space_group_name_H-M "C 2"
_symmetry_group_IT_number 5
_symmetry_cell_setting 'monoclinic'
loop_
_space_group_symop_operation_xyz
x,y,z
-x,y,-z
1/2+x,1/2+y,z
1/2-x,1/2+y,-z
loop_
_atom_site_type_symbol
_atom_site_label
_atom_site_fract_x
_atom_site_fract_y
_atom_site_fract_z
Si Si1 0.775488 0.353990 0.788961
Si Si2 0.448302 0.548884 0.526967
Si Si3 0.678082 0.150383 0.452655
Si Si4 0.646597 0.741425 0.438043
Si Si5 0.062304 0.694725 0.987704
Si Si6 0.922334 0.045645 0.079929
O O1 0.650541 0.405419 0.637930
O O2 0.752627 0.265252 0.644168
O O3 0.859510 0.524344 0.913666
O O4 0.832173 0.202294 0.941375
O O5 0.500000 0.603126 0.500000
O O6 0.380455 0.696397 0.487588
O O7 0.545802 0.493824 0.756438
O O8 0.660789 0.946876 0.448848
O O9 0.500000 0.177080 0.000000
O O10 0.548810 0.217613 0.253935
O O11 0.759550 0.663098 0.560203
O O12 0.539776 0.642196 0.220267
O O13 0.118382 0.884902 0.052531
#
# Coordination Sequence:
#
# PCOD9126636 Si02
#       6
#     4   4   4   4   4   4
#     4  12  26  43  71 100 137 186 221 284 350 406
#     4  10  23  50  68  94 138 179 236 290 335 406
#     4  12  22  43  68 106 149 175 224 281 353 417
#     4  10  22  41  67 101 141 180 223 281 340 414
#     4  12  24  41  66 103 143 177 225 282 339 419
#     4  10  25  42  64 102 129 180 234 271 342 410
#
# _framework density 20.338069999999998
#
# number of rings (size 3 to 8) (size 9 to 14) (size 15 to 20)
#    1.000    0.000    3.333    4.000    7.000    0.000 
#    3.000    0.833    0.000    0.000    0.000    0.000 
#    0.000    0.000    0.000    0.000    0.000    0.000 
#
# Total GULP energy -66875.013906 kJ/mol
# GULP energy per Si atom -5572.917826 kJ/mol
# Density = 2.029178 g / cm^3
# Si number density = 20.338070 Si / 1000 Ang^3
#
#
#
# Elastic Constant Matrix: (Units=GPa)
#
#
# Indices 1 2 3 4 5 6 
#
# 1 111.0578 33.5537 15.5868 0.0000 -8.5470 0.0000
# 2 33.5537 121.6962 22.8226 0.0000 5.7735 0.0000
# 3 15.5868 22.8226 84.3222 0.0000 8.2653 0.0000
# 4 0.0000 0.0000 0.0000 33.5908 0.0000 7.4647
# 5 -8.5470 5.7735 8.2653 0.0000 15.4584 0.0000
# 6 0.0000 0.0000 0.0000 7.4647 0.0000 10.8233
#
#
#
# Elastic Compliance Matrix: (Units=1/GPa)
#
#
# Indices 1 2 3 4 5 6 
#
# 1 0.010817 -0.002997 -0.001989 0.000000 0.008163 0.000000
# 2 -0.002997 0.009551 -0.001603 0.000000 -0.004367 0.000000
# 3 -0.001989 -0.001603 0.013413 0.000000 -0.007672 0.000000
# 4 0.000000 0.000000 0.000000 0.035159 0.000000 -0.024249
# 5 0.008163 -0.004367 -0.007672 0.000000 0.074936 0.000000
# 6 0.000000 0.000000 0.000000 -0.024249 0.000000 0.109117
#
#
# Mechanical properties :
#
#
# Convention : Reuss Voigt Hill
#
# Bulk Modulus (GPa) = 48.53391 51.22249 49.87820
# Shear Modulus (GPa) = 18.31243 28.31539 23.31391
#
# Velocity S-wave (km/s) = 3.00392 3.73532 3.38941
# Velocity P-wave (km/s) = 5.99557 6.62145 6.31627
#
# Compressibility (1/GPa) = 0.02060415
#
# Stress axis : x y z
#
# Youngs Moduli (GPa) = 92.44652 104.69806 74.55559
#
# Poissons Ratio (x) = 0.31376 0.14826
# Poissons Ratio (y) = 0.27704 0.11952
# Poissons Ratio (z) = 0.18384 0.16785
#
# Static dielectric constant tensor:
#      x y z
#    x 1.671460 0.000000 0.003980 
#    y 0.000000 1.777340 0.000000 
#    z 0.003980 0.000000 1.856570 
# 
# From -- ./inp_files/47335.got.cif
#   From: 2010.05.17/outbox.cif.g08.bks.cpg/sg5_24_cif.got.tgz:47335.got - 2010.06.03 18:56:24.
