data_PCOD9126957
_publ_section_title
;
Structure prediction by ZEFSAII (Michael W. Deem and Ramdas Pophale) SiO2 
 PCOD9126957
Probable space group: C 2
;
_chemical_formula_sum "Si O2"
_cell_formula_units_Z 18
_cell_length_a 12.844864
_cell_length_b 8.134396
_cell_length_c 8.197514
_cell_angle_alpha 90.000000
_cell_angle_beta 95.313426
_cell_angle_gamma 90.000000
_cell_volume 852.838535
_symmetry_space_group_name_H-M "C 2"
_symmetry_group_IT_number 5
_symmetry_cell_setting 'monoclinic'
loop_
_space_group_symop_operation_xyz
x,y,z
-x,y,-z
1/2+x,1/2+y,z
1/2-x,1/2+y,-z
loop_
_atom_site_type_symbol
_atom_site_label
_atom_site_fract_x
_atom_site_fract_y
_atom_site_fract_z
Si Si1 0.500000 0.662750 0.500000
Si Si2 0.846961 0.433774 0.567150
Si Si3 0.994597 0.633185 0.822234
Si Si4 0.276092 0.173305 0.277751
Si Si5 0.433121 0.502209 0.830881
O O1 0.399852 0.783536 0.476229
O O2 0.482388 0.562053 0.664774
O O3 0.938934 0.518873 0.683194
O O4 0.763185 0.352384 0.675301
O O5 0.795688 0.564693 0.441737
O O6 0.931175 0.804177 0.825058
O O7 0.112988 0.677152 0.793205
O O8 0.000000 0.551157 0.000000
O O9 0.180956 0.083814 0.172265
O O10 0.500000 0.548610 0.000000
#
# Coordination Sequence:
#
# PCOD9126957 Si02
#       5
#     2   4   4   4   4
#     4  10  22  42  72  94 136 180 214 288 334 386
#     4  11  23  42  69 101 132 175 229 273 333 412
#     4  11  25  45  67 100 139 174 221 286 334 403
#     4  11  24  43  67 100 130 181 221 273 346 393
#     4  10  25  46  65 101 137 176 229 280 331 407
#
# _framework density 21.105986999999999
#
# number of rings (size 3 to 8) (size 9 to 14) (size 15 to 20)
#    0.000    1.333    2.222    1.333    9.333    7.111 
#    8.000    0.000    0.000    0.000    0.000    0.000 
#    0.000    0.000    0.000    0.000    0.000    0.000 
#
# Total GULP energy -50318.040392 kJ/mol
# GULP energy per Si atom -5590.893377 kJ/mol
# Density = 2.105795 g / cm^3
# Si number density = 21.105987 Si / 1000 Ang^3
#
#
#
# Elastic Constant Matrix: (Units=GPa)
#
#
# Indices 1 2 3 4 5 6 
#
# 1 68.0279 -8.2569 9.3651 0.0000 -6.7341 0.0000
# 2 -8.2569 35.3165 18.0861 0.0000 -0.0079 0.0000
# 3 9.3651 18.0861 86.2113 0.0000 18.1140 0.0000
# 4 0.0000 0.0000 0.0000 17.0348 0.0000 -6.6163
# 5 -6.7341 -0.0079 18.1140 0.0000 26.6431 0.0000
# 6 0.0000 0.0000 0.0000 -6.6163 0.0000 15.4780
#
#
#
# Elastic Compliance Matrix: (Units=1/GPa)
#
#
# Indices 1 2 3 4 5 6 
#
# 1 0.016868 0.006375 -0.004744 0.000000 0.007490 0.000000
# 2 0.006375 0.034785 -0.009719 0.000000 0.008229 0.000000
# 3 -0.004744 -0.009719 0.016807 0.000000 -0.012629 0.000000
# 4 0.000000 0.000000 0.000000 0.070390 0.000000 0.030089
# 5 0.007490 0.008229 -0.012629 0.000000 0.048015 0.000000
# 6 0.000000 0.000000 0.000000 0.030089 0.000000 0.077470
#
#
# Mechanical properties :
#
#
# Convention : Reuss Voigt Hill
#
# Bulk Modulus (GPa) = 19.12625 25.32716 22.22671
# Shear Modulus (GPa) = 16.78200 23.18861 19.98530
#
# Velocity S-wave (km/s) = 2.82286 3.31822 3.08052
# Velocity P-wave (km/s) = 4.43919 5.16787 4.81733
#
# Compressibility (1/GPa) = 0.05228416
#
# Stress axis : x y z
#
# Youngs Moduli (GPa) = 59.28366 28.74818 59.49895
#
# Poissons Ratio (x) = -0.18326 0.28223
# Poissons Ratio (y) = -0.37791 0.57827
# Poissons Ratio (z) = 0.28121 0.27940
#
# Static dielectric constant tensor:
#      x y z
#    x 1.772150 0.000000 -0.036460 
#    y 0.000000 1.761650 0.000000 
#    z -0.036460 0.000000 1.747030 
# 
# From -- ./inp_files/18010.got.cif
#   From: 2010.05.17/outbox.cif.g08.bks.cpg/sg5_10_cif.got.tgz:18010.got - 2010.06.03 18:56:24.
