data_PCOD9126898
_publ_section_title
;
Structure prediction by ZEFSAII (Michael W. Deem and Ramdas Pophale) SiO2 
 PCOD9126898
Probable space group: C 2
;
_chemical_formula_sum "Si O2"
_cell_formula_units_Z 28
_cell_length_a 20.209099
_cell_length_b 7.085896
_cell_length_c 11.791741
_cell_angle_alpha 90.000000
_cell_angle_beta 52.055360
_cell_angle_gamma 90.000000
_cell_volume 1331.616963
_symmetry_space_group_name_H-M "C 2"
_symmetry_group_IT_number 5
_symmetry_cell_setting 'monoclinic'
loop_
_space_group_symop_operation_xyz
x,y,z
-x,y,-z
1/2+x,1/2+y,z
1/2-x,1/2+y,-z
loop_
_atom_site_type_symbol
_atom_site_label
_atom_site_fract_x
_atom_site_fract_y
_atom_site_fract_z
Si Si1 0.208692 0.569730 0.294043
Si Si2 0.723191 0.169614 0.696901
Si Si3 0.930837 0.419801 0.732379
Si Si4 0.052184 0.677414 0.737723
Si Si5 0.161204 0.364196 0.930950
Si Si6 0.000000 0.104225 0.500000
Si Si7 0.131347 0.913577 0.500428
Si Si8 0.500000 0.978564 0.000000
O O1 0.251847 0.383030 0.300045
O O2 0.130771 0.509226 0.296774
O O3 0.276083 0.690147 0.151159
O O4 0.175781 0.715211 0.424599
O O5 0.641796 0.143188 0.704102
O O6 0.707679 0.049790 0.829527
O O7 0.799794 0.070710 0.551347
O O8 0.009794 0.551327 0.684274
O O9 0.972381 0.236287 0.632884
O O10 0.874808 0.380383 0.903862
O O11 0.065673 0.881511 0.670473
O O12 0.992479 0.623209 0.903752
O O13 0.080932 0.347894 0.930970
O O14 0.078768 0.977496 0.448130
#
# Coordination Sequence:
#
# PCOD9126898 Si02
#       8
#     4   4   4   4   4   2   4   2
#     4  11  23  42  66  96 130 172 216 273 329 390
#     4  10  23  44  65  97 132 165 221 274 325 396
#     4  11  23  42  69  93 132 174 218 271 329 390
#     4  10  22  42  69  92 131 174 213 272 329 383
#     4   9  22  42  68  92 129 167 215 269 329 389
#     4  12  24  44  62 100 134 174 224 272 322 400
#     4  11  24  40  66  94 132 172 216 267 327 394
#     4   8  18  46  62  96 132 160 214 278 312 400
#
# _framework density 21.027068
#
# number of rings (size 3 to 8) (size 9 to 14) (size 15 to 20)
#    0.000    1.714    1.429    1.714    4.000    0.000 
#   15.429    0.714    0.000    0.000    0.000    0.000 
#    0.000    0.000    0.000    0.000    0.000    0.000 
#
# Total GULP energy -78029.581276 kJ/mol
# GULP energy per Si atom -5573.541520 kJ/mol
# Density = 2.097921 g / cm^3
# Si number density = 21.027068 Si / 1000 Ang^3
#
#
#
# Elastic Constant Matrix: (Units=GPa)
#
#
# Indices 1 2 3 4 5 6 
#
# 1 89.7071 36.8106 8.5612 0.0000 -9.0997 0.0000
# 2 36.8106 99.6488 28.5773 0.0000 -12.9152 0.0000
# 3 8.5612 28.5773 69.4946 0.0000 2.9450 0.0000
# 4 0.0000 0.0000 0.0000 22.6700 0.0000 0.5431
# 5 -9.0997 -12.9152 2.9450 0.0000 26.0765 0.0000
# 6 0.0000 0.0000 0.0000 0.5431 0.0000 13.5617
#
#
#
# Elastic Compliance Matrix: (Units=1/GPa)
#
#
# Indices 1 2 3 4 5 6 
#
# 1 0.013275 -0.004657 0.000182 0.000000 0.002305 0.000000
# 2 -0.004657 0.014101 -0.005478 0.000000 0.005978 0.000000
# 3 0.000182 -0.005478 0.016813 0.000000 -0.004549 0.000000
# 4 0.000000 0.000000 0.000000 0.044154 0.000000 -0.001768
# 5 0.002305 0.005978 -0.004549 0.000000 0.042627 0.000000
# 6 0.000000 0.000000 0.000000 -0.001768 0.000000 0.073808
#
#
# Mechanical properties :
#
#
# Convention : Reuss Voigt Hill
#
# Bulk Modulus (GPa) = 41.18261 45.19430 43.18846
# Shear Modulus (GPa) = 21.47960 24.78840 23.13400
#
# Velocity S-wave (km/s) = 3.19959 3.43721 3.32053
# Velocity P-wave (km/s) = 5.76870 6.10677 5.94014
#
# Compressibility (1/GPa) = 0.02428209
#
# Stress axis : x y z
#
# Youngs Moduli (GPa) = 75.33002 70.91452 59.47879
#
# Poissons Ratio (x) = 0.33027 -0.01083
# Poissons Ratio (y) = 0.35083 0.32585
# Poissons Ratio (z) = -0.01372 0.38849
#
# Static dielectric constant tensor:
#      x y z
#    x 1.775760 0.000000 0.004150 
#    y 0.000000 1.740100 0.000000 
#    z 0.004150 0.000000 1.855850 
# 
# From -- ./inp_files/45616.got.cif
#   From: 2010.05.17/outbox.cif.g08.bks.cpg/sg5_23_cif.got.tgz:45616.got - 2010.06.03 18:56:24.
