data_PCOD9126921
_publ_section_title
;
Structure prediction by ZEFSAII (Michael W. Deem and Ramdas Pophale) SiO2 
 PCOD9126921
Probable space group: C 2
;
_chemical_formula_sum "Si O2"
_cell_formula_units_Z 28
_cell_length_a 10.552828
_cell_length_b 9.911721
_cell_length_c 16.498047
_cell_angle_alpha 90.000000
_cell_angle_beta 51.601184
_cell_angle_gamma 90.000000
_cell_volume 1352.395755
_symmetry_space_group_name_H-M "C 2"
_symmetry_group_IT_number 5
_symmetry_cell_setting 'monoclinic'
loop_
_space_group_symop_operation_xyz
x,y,z
-x,y,-z
1/2+x,1/2+y,z
1/2-x,1/2+y,-z
loop_
_atom_site_type_symbol
_atom_site_label
_atom_site_fract_x
_atom_site_fract_y
_atom_site_fract_z
Si Si1 0.905743 0.018010 0.613071
Si Si2 0.170077 0.050036 0.174762
Si Si3 0.545474 0.774984 0.800992
Si Si4 0.000000 0.692524 0.000000
Si Si5 0.000000 0.263587 0.000000
Si Si6 0.467554 0.036444 0.278787
Si Si7 0.855015 0.755934 0.892936
Si Si8 0.579258 0.210567 0.384264
O O1 0.891042 0.075789 0.709152
O O2 0.723441 0.014789 0.652627
O O3 0.000000 0.083103 0.500000
O O4 0.977945 0.867354 0.599805
O O5 0.059547 0.141975 0.162446
O O6 0.353268 0.100148 0.090833
O O7 0.146780 0.896279 0.155308
O O8 0.535282 0.829971 0.897379
O O9 0.727265 0.731514 0.703238
O O10 0.471019 0.888735 0.771613
O O11 0.085141 0.775471 0.038851
O O12 0.174137 0.197101 0.949826
O O13 0.524550 0.147105 0.191886
O O14 0.522396 0.103231 0.340489
O O15 0.500000 0.164825 0.500000
#
# Coordination Sequence:
#
# PCOD9126921 Si02
#       8
#     4   4   4   2   2   4   4   4
#     4  10  22  42  70  96 131 176 222 275 338 397
#     4  12  25  44  64 102 136 174 222 285 335 397
#     4  11  26  40  68 100 137 169 226 278 337 396
#     4  12  27  43  68 104 139 177 228 282 339 403
#     4  12  23  45  68  98 135 187 216 278 339 411
#     4  11  22  44  67  96 127 179 221 270 333 406
#     4  12  25  43  70  94 137 181 226 269 339 409
#     4  10  22  44  69  95 130 178 223 271 336 405
#
# _framework density 20.703997999999999
#
# number of rings (size 3 to 8) (size 9 to 14) (size 15 to 20)
#    0.000    0.857    5.714    1.286    4.000    1.714 
#    0.000    0.714    0.000    0.000    0.000    0.000 
#    0.000    0.000    0.000    0.000    0.000    0.000 
#
# Total GULP energy -77990.669686 kJ/mol
# GULP energy per Si atom -5570.762120 kJ/mol
# Density = 2.065687 g / cm^3
# Si number density = 20.703998 Si / 1000 Ang^3
#
#
#
# Elastic Constant Matrix: (Units=GPa)
#
#
# Indices 1 2 3 4 5 6 
#
# 1 93.2907 29.6122 39.0316 0.0000 14.1982 0.0000
# 2 29.6122 73.9373 25.4861 0.0000 6.7666 0.0000
# 3 39.0316 25.4861 142.1298 0.0000 19.3800 0.0000
# 4 0.0000 0.0000 0.0000 13.4138 0.0000 2.0371
# 5 14.1982 6.7666 19.3800 0.0000 35.5127 0.0000
# 6 0.0000 0.0000 0.0000 2.0371 0.0000 39.6130
#
#
#
# Elastic Compliance Matrix: (Units=1/GPa)
#
#
# Indices 1 2 3 4 5 6 
#
# 1 0.013635 -0.004291 -0.002532 0.000000 -0.003252 0.000000
# 2 -0.004291 0.015835 -0.001603 0.000000 -0.000427 0.000000
# 3 -0.002532 -0.001603 0.008469 0.000000 -0.003304 0.000000
# 4 0.000000 0.000000 0.000000 0.075137 0.000000 -0.003864
# 5 -0.003252 -0.000427 -0.003304 0.000000 0.031344 0.000000
# 6 0.000000 0.000000 0.000000 -0.003864 0.000000 0.025443
#
#
# Mechanical properties :
#
#
# Convention : Reuss Voigt Hill
#
# Bulk Modulus (GPa) = 47.41855 55.29085 51.35470
# Shear Modulus (GPa) = 25.80736 32.05643 28.93190
#
# Velocity S-wave (km/s) = 3.53440 3.93914 3.74225
# Velocity P-wave (km/s) = 6.29355 6.88858 6.59777
#
# Compressibility (1/GPa) = 0.02108879
#
# Stress axis : x y z
#
# Youngs Moduli (GPa) = 73.33895 63.15122 118.07723
#
# Poissons Ratio (x) = 0.27096 0.29893
# Poissons Ratio (y) = 0.31467 0.18927
# Poissons Ratio (z) = 0.18567 0.10123
#
# Static dielectric constant tensor:
#      x y z
#    x 1.714410 0.000000 0.019530 
#    y 0.000000 1.721550 0.000000 
#    z 0.019530 0.000000 1.833630 
# 
# From -- ./inp_files/50444.got.cif
#   From: 2010.05.17/outbox.cif.g08.bks.cpg/sg5_26_cif.got.tgz:50444.got - 2010.06.03 18:56:24.
