data_PCOD9126258
_publ_section_title
;
Structure prediction by ZEFSAII (Michael W. Deem and Ramdas Pophale) SiO2 
 PCOD9126258
Probable space group: C 2
;
_chemical_formula_sum "Si O2"
_cell_formula_units_Z 32
_cell_length_a 15.293031
_cell_length_b 8.486440
_cell_length_c 23.705696
_cell_angle_alpha 90.000000
_cell_angle_beta 148.816734
_cell_angle_gamma 90.000000
_cell_volume 1592.996125
_symmetry_space_group_name_H-M "C 2"
_symmetry_group_IT_number 5
_symmetry_cell_setting 'monoclinic'
loop_
_space_group_symop_operation_xyz
x,y,z
-x,y,-z
1/2+x,1/2+y,z
1/2-x,1/2+y,-z
loop_
_atom_site_type_symbol
_atom_site_label
_atom_site_fract_x
_atom_site_fract_y
_atom_site_fract_z
Si Si1 0.705542 0.948650 0.690764
Si Si2 0.229412 0.819710 0.698046
Si Si3 0.496003 0.638928 0.431888
Si Si4 0.644939 0.216741 0.765831
Si Si5 0.824688 0.505800 0.555839
Si Si6 0.372826 0.440686 0.667066
Si Si7 0.318326 0.432233 0.879413
Si Si8 0.029530 0.294520 0.270052
O O1 0.580194 0.801274 0.635139
O O2 0.813774 0.948244 0.808389
O O3 0.668883 0.135257 0.652227
O O4 0.794099 0.888549 0.682553
O O5 0.252982 0.804889 0.778092
O O6 0.385413 0.851355 0.741968
O O7 0.103349 0.969906 0.625497
O O8 0.500000 0.671112 0.500000
O O9 0.675328 0.606723 0.501953
O O10 0.502302 0.100557 0.657372
O O11 0.523750 0.328807 0.732643
O O12 0.768454 0.109688 0.870313
O O13 0.759412 0.461953 0.457613
O O14 0.852769 0.363588 0.615097
O O15 0.453017 0.609838 0.720649
O O16 0.161900 0.336923 0.819528
O O17 0.500000 0.379817 0.000000
#
# Coordination Sequence:
#
# PCOD9126258 Si02
#       8
#     4   4   4   4   4   4   4   4
#     4  10  25  41  62  90 128 166 215 263 314 370
#     4  10  22  41  59  87 130 169 210 259 304 361
#     4  12  22  36  61  93 136 177 216 240 299 376
#     4  10  22  39  63  91 130 167 210 260 309 375
#     4  11  21  36  56  92 132 179 208 241 301 377
#     4  11  21  37  60  93 132 163 206 249 314 379
#     4  10  23  47  70  87 115 160 214 278 338 375
#     4  10  22  40  62  88 127 165 212 260 312 373
#
# _framework density 20.087933
#
# number of rings (size 3 to 8) (size 9 to 14) (size 15 to 20)
#    0.000    1.500    2.500    2.250    1.750    5.500 
#    0.000    4.375    0.000    0.000    0.000    0.000 
#    0.000    0.000    0.000    0.000    0.000    0.000 
#
# Total GULP energy -89074.404688 kJ/mol
# GULP energy per Si atom -5567.150293 kJ/mol
# Density = 2.004221 g / cm^3
# Si number density = 20.087933 Si / 1000 Ang^3
#
#
#
# Elastic Constant Matrix: (Units=GPa)
#
#
# Indices 1 2 3 4 5 6 
#
# 1 123.3841 19.8800 29.7690 0.0000 15.3462 0.0000
# 2 19.8800 75.3532 23.6011 0.0000 6.4991 0.0000
# 3 29.7690 23.6011 68.0836 0.0001 14.7340 -0.0001
# 4 0.0000 0.0000 0.0001 6.5645 0.0000 -3.9035
# 5 15.3462 6.4991 14.7340 0.0000 21.4376 0.0000
# 6 0.0000 0.0000 -0.0001 -3.9035 0.0000 26.2484
#
#
#
# Elastic Compliance Matrix: (Units=1/GPa)
#
#
# Indices 1 2 3 4 5 6 
#
# 1 0.009538 -0.001263 -0.002746 0.000000 -0.004557 0.000000
# 2 -0.001263 0.015078 -0.004559 0.000000 -0.000533 0.000000
# 3 -0.002746 -0.004559 0.019670 0.000000 -0.010171 0.000000
# 4 0.000000 0.000000 0.000000 0.167114 0.000000 0.024852
# 5 -0.004557 -0.000533 -0.010171 0.000000 0.057062 0.000000
# 6 0.000000 0.000000 0.000000 0.024852 0.000000 0.041793
#
#
# Mechanical properties :
#
#
# Convention : Reuss Voigt Hill
#
# Bulk Modulus (GPa) = 36.83356 45.92457 41.37906
# Shear Modulus (GPa) = 14.86145 23.75482 19.30814
#
# Velocity S-wave (km/s) = 2.72291 3.44254 3.10366
# Velocity P-wave (km/s) = 5.31617 6.22197 5.78682
#
# Compressibility (1/GPa) = 0.02714915
#
# Stress axis : x y z
#
# Youngs Moduli (GPa) = 104.84737 66.32179 50.83847
#
# Poissons Ratio (x) = 0.08377 0.13961
# Poissons Ratio (y) = 0.13243 0.23178
# Poissons Ratio (z) = 0.28793 0.30236
#
# Static dielectric constant tensor:
#      x y z
#    x 1.786870 0.000000 -0.002490 
#    y 0.000000 1.815940 0.000000 
#    z -0.002490 0.000000 1.704320 
# 
# From -- ./inp_files/54175.got.cif
#   From: 2010.05.17/outbox.cif.g08.bks.cpg/sg5_28_cif.got.tgz:54175.got - 2010.06.03 18:56:24.
