data_PCOD9126182
_publ_section_title
;
Structure prediction by ZEFSAII (Michael W. Deem and Ramdas Pophale) SiO2 
 PCOD9126182
Probable space group: C 2
;
_chemical_formula_sum "Si O2"
_cell_formula_units_Z 28
_cell_length_a 14.774424
_cell_length_b 10.010647
_cell_length_c 13.841321
_cell_angle_alpha 90.000000
_cell_angle_beta 44.771893
_cell_angle_gamma 90.000000
_cell_volume 1441.781091
_symmetry_space_group_name_H-M "C 2"
_symmetry_group_IT_number 5
_symmetry_cell_setting 'monoclinic'
loop_
_space_group_symop_operation_xyz
x,y,z
-x,y,-z
1/2+x,1/2+y,z
1/2-x,1/2+y,-z
loop_
_atom_site_type_symbol
_atom_site_label
_atom_site_fract_x
_atom_site_fract_y
_atom_site_fract_z
Si Si1 0.488597 0.114790 0.246401
Si Si2 0.615265 0.329153 0.279539
Si Si3 0.160574 0.897610 0.451655
Si Si4 0.326579 0.753426 0.839673
Si Si5 0.723715 0.989529 0.987591
Si Si6 0.108405 0.358366 0.584601
Si Si7 0.757816 0.196220 0.673892
O O1 0.584675 0.203376 0.236395
O O2 0.383639 0.197697 0.266553
O O3 0.422912 0.013885 0.372468
O O4 0.574250 0.030748 0.105927
O O5 0.649387 0.306364 0.364943
O O6 0.476813 0.403384 0.391209
O O7 0.726225 0.413701 0.144818
O O8 0.271055 0.838037 0.435247
O O9 0.192333 0.047223 0.390980
O O10 0.302914 0.627063 0.926987
O O11 0.477821 0.781565 0.711034
O O12 0.265619 0.719496 0.781947
O O13 0.262663 0.885243 0.934791
O O14 0.154643 0.306290 0.446073
#
# Coordination Sequence:
#
# PCOD9126182 Si02
#       7
#     4   4   4   4   4   4   4
#     4  10  23  41  64  95 130 167 214 268 323 387
#     4  11  20  41  65  89 128 165 209 262 321 380
#     4  10  22  38  68  94 118 173 213 259 327 384
#     4  11  23  40  68  91 129 171 213 267 320 391
#     4  11  22  42  64  91 128 170 213 260 321 383
#     4  10  22  41  62  97 126 161 219 273 316 380
#     4  11  21  42  65  95 124 167 217 265 323 381
#
# _framework density 19.420423
#
# number of rings (size 3 to 8) (size 9 to 14) (size 15 to 20)
#    0.000    1.429    4.286    1.286    2.000    0.571 
#   12.857    0.000    3.143    0.000    0.000    0.000 
#    0.000    0.000    0.000    0.000    0.000    0.000 
#
# Total GULP energy -78071.656669 kJ/mol
# GULP energy per Si atom -5576.546905 kJ/mol
# Density = 1.937622 g / cm^3
# Si number density = 19.420423 Si / 1000 Ang^3
#
#
#
# Elastic Constant Matrix: (Units=GPa)
#
#
# Indices 1 2 3 4 5 6 
#
# 1 52.7871 28.2713 26.1855 0.0000 10.2333 0.0000
# 2 28.2713 67.5463 41.5265 0.0000 7.8143 0.0000
# 3 26.1855 41.5265 112.3028 0.0000 8.9620 0.0000
# 4 0.0000 0.0000 0.0000 36.3173 0.0000 -1.8155
# 5 10.2333 7.8143 8.9620 0.0000 15.4886 0.0000
# 6 0.0000 0.0000 0.0000 -1.8155 0.0000 23.7537
#
#
#
# Elastic Compliance Matrix: (Units=1/GPa)
#
#
# Indices 1 2 3 4 5 6 
#
# 1 0.026964 -0.008546 -0.002149 0.000000 -0.012260 0.000000
# 2 -0.008546 0.022386 -0.006117 0.000000 -0.002108 0.000000
# 3 -0.002149 -0.006117 0.011855 0.000000 -0.002354 0.000000
# 4 0.000000 0.000000 0.000000 0.027641 0.000000 0.002113
# 5 -0.012260 -0.002108 -0.002354 0.000000 0.075089 0.000000
# 6 0.000000 0.000000 0.000000 0.002113 0.000000 0.042260
#
#
# Mechanical properties :
#
#
# Convention : Reuss Voigt Hill
#
# Bulk Modulus (GPa) = 36.25599 47.17808 41.71704
# Shear Modulus (GPa) = 20.07933 24.22213 22.15073
#
# Velocity S-wave (km/s) = 3.21896 3.53547 3.38093
# Velocity P-wave (km/s) = 5.70308 6.40405 6.06371
#
# Compressibility (1/GPa) = 0.02758165
#
# Stress axis : x y z
#
# Youngs Moduli (GPa) = 37.08695 44.67053 84.35159
#
# Poissons Ratio (x) = 0.38177 0.18123
# Poissons Ratio (y) = 0.31696 0.51596
# Poissons Ratio (z) = 0.07968 0.27324
#
# Static dielectric constant tensor:
#      x y z
#    x 1.662030 0.000000 -0.022930 
#    y 0.000000 1.705620 0.000000 
#    z -0.022930 0.000000 1.686640 
# 
# From -- ./inp_files/42428.got.cif
#   From: 2010.05.17/outbox.cif.g08.bks.cpg/sg5_22_cif.got.tgz:42428.got - 2010.06.03 18:56:24.
