data_PCOD9126508
_publ_section_title
;
Structure prediction by ZEFSAII (Michael W. Deem and Ramdas Pophale) SiO2 
 PCOD9126508
Probable space group: C 2
;
_chemical_formula_sum "Si O2"
_cell_formula_units_Z 22
_cell_length_a 30.784078
_cell_length_b 5.052747
_cell_length_c 5.139550
_cell_angle_alpha 90.000000
_cell_angle_beta 82.353259
_cell_angle_gamma 90.000000
_cell_volume 792.317926
_symmetry_space_group_name_H-M "C 2"
_symmetry_group_IT_number 5
_symmetry_cell_setting 'monoclinic'
loop_
_space_group_symop_operation_xyz
x,y,z
-x,y,-z
1/2+x,1/2+y,z
1/2-x,1/2+y,-z
loop_
_atom_site_type_symbol
_atom_site_label
_atom_site_fract_x
_atom_site_fract_y
_atom_site_fract_z
Si Si1 0.500000 0.965390 0.000000
Si Si2 0.668207 0.478351 0.772172
Si Si3 0.064032 0.181416 0.262881
Si Si4 0.420360 0.328864 0.247709
Si Si5 0.758520 0.576389 0.844205
Si Si6 0.152258 0.335760 0.293986
O O1 0.517359 0.798680 0.229193
O O2 0.458348 0.127664 0.137833
O O3 0.631256 0.252702 0.752803
O O4 0.720533 0.436758 0.702327
O O5 0.656384 0.684799 0.559633
O O6 0.662908 0.620827 0.057075
O O7 0.101102 0.402135 0.297133
O O8 0.068501 0.964757 0.485529
O O9 0.075882 0.052628 0.976993
O O10 0.809688 0.552007 0.741045
O O11 0.745896 0.878872 0.903021
#
# Coordination Sequence:
#
# PCOD9126508 Si02
#       6
#     2   4   4   4   4   4
#     4  12  26  42  80 104 136 206 246 302 384 438
#     4   9  20  41  65  96 138 182 228 293 358 428
#     4  10  24  45  67 102 145 182 242 306 362 439
#     4  10  24  45  67 102 145 182 242 306 362 439
#     4  10  22  40  70 104 142 192 240 294 364 440
#     4   9  20  41  65  96 138 182 228 293 358 428
#
# _framework density 27.766628000000001
#
# number of rings (size 3 to 8) (size 9 to 14) (size 15 to 20)
#    0.000    2.182    0.000    0.545    2.545   11.636 
#    0.000    0.000    0.000    0.000    0.000    0.000 
#    0.000    0.000    0.000    0.000    0.000    0.000 
#
# Total GULP energy -61576.023276 kJ/mol
# GULP energy per Si atom -5597.820298 kJ/mol
# Density = 2.770343 g / cm^3
# Si number density = 27.766628 Si / 1000 Ang^3
#
#
#
# Elastic Constant Matrix: (Units=GPa)
#
#
# Indices 1 2 3 4 5 6 
#
# 1 199.6059 37.5108 51.2071 0.0000 43.8399 0.0000
# 2 37.5108 81.0167 48.7595 0.0000 9.1014 0.0000
# 3 51.2071 48.7595 160.1842 0.0000 6.2289 0.0000
# 4 0.0000 0.0000 0.0000 11.5518 0.0000 3.6131
# 5 43.8399 9.1014 6.2289 0.0000 50.2605 0.0000
# 6 0.0000 0.0000 0.0000 3.6131 0.0000 42.0162
#
#
#
# Elastic Compliance Matrix: (Units=1/GPa)
#
#
# Indices 1 2 3 4 5 6 
#
# 1 0.006928 -0.001691 -0.001484 0.000000 -0.005553 0.000000
# 2 -0.001691 0.015765 -0.004225 0.000000 -0.000857 0.000000
# 3 -0.001484 -0.004225 0.007962 0.000000 0.001073 0.000000
# 4 0.000000 0.000000 0.000000 0.088959 0.000000 -0.007650
# 5 -0.005553 -0.000857 0.001073 0.000000 0.024762 0.000000
# 6 0.000000 0.000000 0.000000 -0.007650 0.000000 0.024458
#
#
# Mechanical properties :
#
#
# Convention : Reuss Voigt Hill
#
# Bulk Modulus (GPa) = 63.07207 79.52908 71.30058
# Shear Modulus (GPa) = 26.46651 40.98766 33.72709
#
# Velocity S-wave (km/s) = 3.09071 3.84624 3.48898
# Velocity P-wave (km/s) = 5.95827 6.95908 6.47803
#
# Compressibility (1/GPa) = 0.01585488
#
# Stress axis : x y z
#
# Youngs Moduli (GPa) = 144.34390 63.43198 125.60253
#
# Poissons Ratio (x) = 0.10724 0.18641
# Poissons Ratio (y) = 0.24403 0.53068
# Poissons Ratio (z) = 0.21423 0.26800
#
# Static dielectric constant tensor:
#      x y z
#    x 2.378490 0.000000 -0.089230 
#    y 0.000000 2.156050 0.000000 
#    z -0.089230 0.000000 2.168020 
# 
# From -- ./inp_files/11029.got.cif
#   From: 2010.05.17/outbox.cif.g08.bks.cpg/sg5_6_cif.got.tgz:11029.got - 2010.06.03 18:56:24.
