data_PCOD9126577
_publ_section_title
;
Structure prediction by ZEFSAII (Michael W. Deem and Ramdas Pophale) SiO2 
 PCOD9126577
Probable space group: C 2
;
_chemical_formula_sum "Si O2"
_cell_formula_units_Z 32
_cell_length_a 25.885239
_cell_length_b 8.341012
_cell_length_c 11.936320
_cell_angle_alpha 90.000000
_cell_angle_beta 151.958962
_cell_angle_gamma 90.000000
_cell_volume 1211.532833
_symmetry_space_group_name_H-M "C 2"
_symmetry_group_IT_number 5
_symmetry_cell_setting 'monoclinic'
loop_
_space_group_symop_operation_xyz
x,y,z
-x,y,-z
1/2+x,1/2+y,z
1/2-x,1/2+y,-z
loop_
_atom_site_type_symbol
_atom_site_label
_atom_site_fract_x
_atom_site_fract_y
_atom_site_fract_z
Si Si1 0.651128 0.653700 0.080800
Si Si2 0.675250 0.933535 0.290349
Si Si3 0.341422 0.757864 0.136359
Si Si4 0.756886 0.655218 0.748845
Si Si5 0.854874 0.937125 0.299914
Si Si6 0.643557 0.949657 0.624871
Si Si7 0.946672 0.557520 0.751496
Si Si8 0.482009 0.356191 0.188684
O O1 0.609394 0.753996 0.893494
O O2 0.558430 0.526354 0.935837
O O3 0.690891 0.763475 0.259622
O O4 0.749996 0.555464 0.208270
O O5 0.653156 0.963858 0.378820
O O6 0.753583 0.072132 0.391759
O O7 0.557651 0.987800 0.013629
O O8 0.372899 0.585884 0.250875
O O9 0.374920 0.902595 0.282876
O O10 0.207926 0.788615 0.878310
O O11 0.869732 0.751890 0.982393
O O12 0.739215 0.507293 0.798170
O O13 0.663001 0.777465 0.604168
O O14 0.954538 0.888066 0.572399
O O15 0.551422 0.035818 0.377918
O O16 0.945031 0.750454 0.757605
#
# Coordination Sequence:
#
# PCOD9126577 Si02
#       8
#     4   4   4   4   4   4   4   4
#     4  11  22  42  67 103 135 178 233 290 334 431
#     4  10  22  42  69  95 135 166 234 297 340 420
#     4  11  22  39  65  98 143 180 222 281 348 421
#     4   9  21  42  64  97 136 175 233 287 345 419
#     4  11  22  42  67  97 144 189 222 286 355 414
#     4  10  22  41  63  94 137 177 222 276 352 420
#     4  10  23  45  66  93 132 184 225 287 364 404
#     4  10  24  43  66  95 139 187 234 287 353 422
#
# _framework density 26.412821999999998
#
# number of rings (size 3 to 8) (size 9 to 14) (size 15 to 20)
#    0.000    1.750    2.500    0.750    3.500    1.500 
#    0.000    7.500    0.000    0.000    0.000    0.000 
#    0.000    0.000    0.000    0.000    0.000    0.000 
#
# Total GULP energy -89336.121774 kJ/mol
# GULP energy per Si atom -5583.507611 kJ/mol
# Density = 2.635271 g / cm^3
# Si number density = 26.412822 Si / 1000 Ang^3
#
#
#
# Elastic Constant Matrix: (Units=GPa)
#
#
# Indices 1 2 3 4 5 6 
#
# 1 79.3814 46.6685 6.8756 0.0000 -13.7519 0.0000
# 2 46.6685 144.0732 29.9991 0.0000 -3.1127 0.0000
# 3 6.8756 29.9991 83.4639 0.0000 -8.3826 0.0000
# 4 0.0000 0.0000 0.0000 32.0417 0.0000 -9.9871
# 5 -13.7519 -3.1127 -8.3826 0.0000 35.8421 0.0000
# 6 0.0000 0.0000 0.0000 -9.9871 0.0000 24.1658
#
#
#
# Elastic Compliance Matrix: (Units=1/GPa)
#
#
# Indices 1 2 3 4 5 6 
#
# 1 0.016860 -0.005586 0.001249 0.000000 0.006276 0.000000
# 2 -0.005586 0.009353 -0.003108 0.000000 -0.002058 0.000000
# 3 0.001249 -0.003108 0.013330 0.000000 0.003327 0.000000
# 4 0.000000 0.000000 0.000000 0.035824 0.000000 0.014805
# 5 0.006276 -0.002058 0.003327 0.000000 0.030907 0.000000
# 6 0.000000 0.000000 0.000000 0.014805 0.000000 0.047499
#
#
# Mechanical properties :
#
#
# Convention : Reuss Voigt Hill
#
# Bulk Modulus (GPa) = 40.56301 52.66719 46.61510
# Shear Modulus (GPa) = 28.26744 33.30160 30.78452
#
# Velocity S-wave (km/s) = 3.27497 3.55464 3.41767
# Velocity P-wave (km/s) = 5.44896 6.06882 5.76723
#
# Compressibility (1/GPa) = 0.02465300
#
# Stress axis : x y z
#
# Youngs Moduli (GPa) = 59.31026 106.91650 75.02073
#
# Poissons Ratio (x) = 0.59724 -0.09371
# Poissons Ratio (y) = 0.33131 0.23318
# Poissons Ratio (z) = -0.07409 0.33233
#
# Static dielectric constant tensor:
#      x y z
#    x 2.175260 0.000000 -0.018750 
#    y 0.000000 2.156310 0.000000 
#    z -0.018750 0.000000 2.156920 
# 
# From -- ./inp_files/48412.got.cif
#   From: 2010.05.17/outbox.cif.g08.bks.cpg/sg5_25_cif.got.tgz:48412.got - 2010.06.03 18:56:24.
