data_PCOD9126847
_publ_section_title
;
Structure prediction by ZEFSAII (Michael W. Deem and Ramdas Pophale) SiO2 
 PCOD9126847
Probable space group: C 2
;
_chemical_formula_sum "Si O2"
_cell_formula_units_Z 28
_cell_length_a 15.425959
_cell_length_b 7.183564
_cell_length_c 14.934757
_cell_angle_alpha 90.000000
_cell_angle_beta 129.457153
_cell_angle_gamma 90.000000
_cell_volume 1277.802913
_symmetry_space_group_name_H-M "C 2"
_symmetry_group_IT_number 5
_symmetry_cell_setting 'monoclinic'
loop_
_space_group_symop_operation_xyz
x,y,z
-x,y,-z
1/2+x,1/2+y,z
1/2-x,1/2+y,-z
loop_
_atom_site_type_symbol
_atom_site_label
_atom_site_fract_x
_atom_site_fract_y
_atom_site_fract_z
Si Si1 0.831753 0.227480 0.168429
Si Si2 0.500000 0.015401 0.000000
Si Si3 0.273150 0.843623 0.932714
Si Si4 0.181033 0.647217 0.236809
Si Si5 0.755316 0.968182 0.598528
Si Si6 0.193381 0.760651 0.703690
Si Si7 0.081119 0.239309 0.394300
Si Si8 0.500000 0.492656 0.500000
O O1 0.755879 0.242332 0.207372
O O2 0.958596 0.282384 0.274665
O O3 0.817401 0.007413 0.139466
O O4 0.785150 0.308808 0.045282
O O5 0.443678 0.135685 0.884638
O O6 0.396943 0.902682 0.977185
O O7 0.227382 0.701736 0.826963
O O8 0.223728 0.432648 0.271828
O O9 0.195107 0.774933 0.331730
O O10 0.701956 0.089115 0.642938
O O11 0.853271 0.095197 0.624404
O O12 0.659762 0.915899 0.464347
O O13 0.074329 0.860633 0.611580
O O14 0.067115 0.131141 0.479477
#
# Coordination Sequence:
#
# PCOD9126847 Si02
#       8
#     4   2   4   4   4   4   4   2
#     4  10  23  42  68  96 140 173 228 279 340 397
#     4   8  20  40  66  92 132 186 212 276 340 388
#     4  10  22  42  67  99 136 175 224 281 337 409
#     4  10  22  46  66  95 140 181 222 287 329 414
#     4  12  27  43  70 101 138 178 235 272 357 393
#     4  10  23  44  68  96 133 179 223 283 335 403
#     4  12  25  44  69 102 132 185 221 292 328 423
#     4  12  20  50  70  88 138 170 232 282 342 394
#
# _framework density 21.912610999999998
#
# number of rings (size 3 to 8) (size 9 to 14) (size 15 to 20)
#    0.000    1.714    4.286    0.857    6.000    4.000 
#    0.000    0.000    0.000    0.000    0.000    0.000 
#    0.000    0.000    0.000    0.000    0.000    0.000 
#
# Total GULP energy -78137.552995 kJ/mol
# GULP energy per Si atom -5581.253785 kJ/mol
# Density = 2.186274 g / cm^3
# Si number density = 21.912611 Si / 1000 Ang^3
#
#
#
# Elastic Constant Matrix: (Units=GPa)
#
#
# Indices 1 2 3 4 5 6 
#
# 1 24.0579 -11.1641 12.1955 0.0000 -4.4628 0.0000
# 2 -11.1641 44.6847 13.3931 0.0000 -7.4310 0.0000
# 3 12.1955 13.3931 133.4888 0.0000 11.5788 0.0000
# 4 0.0000 0.0000 0.0000 43.5140 0.0000 -18.5693
# 5 -4.4628 -7.4310 11.5788 0.0000 38.9037 0.0000
# 6 0.0000 0.0000 0.0000 -18.5693 0.0000 16.0602
#
#
#
# Elastic Compliance Matrix: (Units=1/GPa)
#
#
# Indices 1 2 3 4 5 6 
#
# 1 0.056672 0.018674 -0.008134 0.000000 0.012489 0.000000
# 2 0.018674 0.030312 -0.005579 0.000000 0.009593 0.000000
# 3 -0.008134 -0.005579 0.009205 0.000000 -0.004739 0.000000
# 4 0.000000 0.000000 0.000000 0.045365 0.000000 0.052452
# 5 0.012489 0.009593 -0.004739 0.000000 0.030380 0.000000
# 6 0.000000 0.000000 0.000000 0.052452 0.000000 0.122913
#
#
# Mechanical properties :
#
#
# Convention : Reuss Voigt Hill
#
# Bulk Modulus (GPa) = 9.42416 25.67559 17.54987
# Shear Modulus (GPa) = 15.61054 32.21603 23.91329
#
# Velocity S-wave (km/s) = 2.67198 3.83849 3.30707
# Velocity P-wave (km/s) = 3.71879 5.60250 4.75486
#
# Compressibility (1/GPa) = 0.10611030
#
# Stress axis : x y z
#
# Youngs Moduli (GPa) = 17.64527 32.99014 108.63388
#
# Poissons Ratio (x) = -0.61606 0.88368
# Poissons Ratio (y) = -0.32951 0.60611
# Poissons Ratio (z) = 0.14353 0.18406
#
# Static dielectric constant tensor:
#      x y z
#    x 1.821380 0.000000 -0.036390 
#    y 0.000000 1.830650 0.000000 
#    z -0.036390 0.000000 1.865590 
# 
# From -- ./inp_files/54239.got.cif
#   From: 2010.05.17/outbox.cif.g08.bks.cpg/sg5_28_cif.got.tgz:54239.got - 2010.06.03 18:56:24.
