data_PCOD9126187
_publ_section_title
;
Structure prediction by ZEFSAII (Michael W. Deem and Ramdas Pophale) SiO2 
 PCOD9126187
Probable space group: C 2
;
_chemical_formula_sum "Si O2"
_cell_formula_units_Z 28
_cell_length_a 8.786000
_cell_length_b 10.988182
_cell_length_c 16.712283
_cell_angle_alpha 90.000000
_cell_angle_beta 122.229803
_cell_angle_gamma 90.000000
_cell_volume 1364.834517
_symmetry_space_group_name_H-M "C 2"
_symmetry_group_IT_number 5
_symmetry_cell_setting 'monoclinic'
loop_
_space_group_symop_operation_xyz
x,y,z
-x,y,-z
1/2+x,1/2+y,z
1/2-x,1/2+y,-z
loop_
_atom_site_type_symbol
_atom_site_label
_atom_site_fract_x
_atom_site_fract_y
_atom_site_fract_z
Si Si1 0.204337 0.697640 0.824462
Si Si2 0.041178 0.713663 0.104436
Si Si3 0.676110 0.958156 0.103195
Si Si4 0.500000 0.139332 0.500000
Si Si5 0.658881 0.202107 0.380803
Si Si6 0.667878 0.466839 0.377969
Si Si7 0.942663 0.975731 0.831109
Si Si8 0.500000 0.532129 0.500000
O O1 0.285604 0.833987 0.835822
O O2 0.333361 0.587238 0.837238
O O3 0.144346 0.694311 0.899728
O O4 0.013531 0.683069 0.724505
O O5 0.149280 0.586299 0.142279
O O6 0.123866 0.840253 0.161896
O O7 0.000000 0.731555 0.000000
O O8 0.845746 0.976453 0.091572
O O9 0.500000 0.939112 0.000000
O O10 0.573747 0.209668 0.445069
O O11 0.332851 0.058413 0.425861
O O12 0.744199 0.332090 0.387774
O O13 0.818444 0.105506 0.425765
O O14 0.559985 0.489799 0.266150
O O15 0.559071 0.473924 0.430974
#
# Coordination Sequence:
#
# PCOD9126187 Si02
#       8
#     4   4   4   2   4   4   4   2
#     4  11  24  42  71 100 131 173 224 278 328 398
#     4  10  24  45  67  95 133 174 220 277 335 397
#     4  10  24  45  67  95 133 174 220 277 335 397
#     4  10  22  38  68  96 134 170 218 274 326 390
#     4  11  21  42  64  97 131 172 220 270 328 390
#     4  11  21  42  64  97 131 172 220 270 328 390
#     4  11  24  42  71 100 131 173 224 278 328 398
#     4  10  26  38  68  96 134 178 218 270 326 390
#
# _framework density 20.515308000000001
#
# number of rings (size 3 to 8) (size 9 to 14) (size 15 to 20)
#    0.000    1.429    4.286    0.857    2.000   10.857 
#    0.000    0.000    0.000    0.000    0.000    0.000 
#    0.000    0.000    0.000    0.000    0.000    0.000 
#
# Total GULP energy -78013.965926 kJ/mol
# GULP energy per Si atom -5572.426138 kJ/mol
# Density = 2.046861 g / cm^3
# Si number density = 20.515308 Si / 1000 Ang^3
#
#
#
# Elastic Constant Matrix: (Units=GPa)
#
#
# Indices 1 2 3 4 5 6 
#
# 1 74.5793 69.6355 39.3796 0.0000 3.0284 0.0000
# 2 69.6355 177.4856 37.6787 0.0000 7.2290 0.0000
# 3 39.3796 37.6787 109.2361 0.0000 2.9665 0.0000
# 4 0.0000 0.0000 0.0000 22.2895 0.0000 9.1701
# 5 3.0284 7.2290 2.9665 0.0000 40.6127 0.0000
# 6 0.0000 0.0000 0.0000 9.1701 0.0000 1.1058
#
#
#
# Elastic Compliance Matrix: (Units=1/GPa)
#
#
# Indices 1 2 3 4 5 6 
#
# 1 0.024224 -0.008258 -0.005887 0.000000 0.000094 0.000000
# 2 -0.008258 0.008930 -0.000077 0.000000 -0.000968 0.000000
# 3 -0.005887 -0.000077 0.011313 0.000000 -0.000374 0.000000
# 4 0.000000 0.000000 0.000000 -0.018603 0.000000 0.154267
# 5 0.000094 -0.000968 -0.000374 0.000000 0.024815 0.000000
# 6 0.000000 0.000000 0.000000 0.154267 0.000000 -0.374971
#
#
# Mechanical properties :
#
#
# Convention : Reuss Voigt Hill
#
# Bulk Modulus (GPa) = 62.40791 72.74318 67.57554
# Shear Modulus (GPa) = -17.21135 27.10876 4.94870
#
# Velocity S-wave (km/s) = -2.89961 3.63904 1.55481
# Velocity P-wave (km/s) = 4.39043 7.29327 6.01946
#
# Compressibility (1/GPa) = 0.01602361
#
# Stress axis : x y z
#
# Youngs Moduli (GPa) = 41.28163 111.98116 88.39139
#
# Poissons Ratio (x) = 0.92476 0.52034
# Poissons Ratio (y) = 0.34091 0.00679
# Poissons Ratio (z) = 0.24301 0.00861
#
# Static dielectric constant tensor:
#      x y z
#    x 1.702370 0.000000 -0.003470 
#    y 0.000000 1.759120 0.000000 
#    z -0.003470 0.000000 1.792970 
# 
# From -- ./inp_files/50573.got.cif
#   From: 2010.05.17/outbox.cif.g08.bks.cpg/sg5_26_cif.got.tgz:50573.got - 2010.06.03 18:56:24.
