data_PCOD9126277
_publ_section_title
;
Structure prediction by ZEFSAII (Michael W. Deem and Ramdas Pophale) SiO2 
 PCOD9126277
Probable space group: C 2
;
_chemical_formula_sum "Si O2"
_cell_formula_units_Z 28
_cell_length_a 12.114532
_cell_length_b 16.047888
_cell_length_c 7.116172
_cell_angle_alpha 90.000000
_cell_angle_beta 60.189540
_cell_angle_gamma 90.000000
_cell_volume 1200.405295
_symmetry_space_group_name_H-M "C 2"
_symmetry_group_IT_number 5
_symmetry_cell_setting 'monoclinic'
loop_
_space_group_symop_operation_xyz
x,y,z
-x,y,-z
1/2+x,1/2+y,z
1/2-x,1/2+y,-z
loop_
_atom_site_type_symbol
_atom_site_label
_atom_site_fract_x
_atom_site_fract_y
_atom_site_fract_z
Si Si1 0.380438 0.200510 0.739051
Si Si2 0.614598 0.532286 0.048551
Si Si3 0.130692 0.196898 0.275921
Si Si4 0.989060 0.353888 0.737637
Si Si5 0.513576 0.363319 0.210305
Si Si6 0.102284 0.522487 0.242501
Si Si7 0.753079 0.774404 0.530066
O O1 0.500000 0.201298 0.500000
O O2 0.390532 0.287003 0.837498
O O3 0.398271 0.116012 0.839411
O O4 0.268059 0.206268 0.682338
O O5 0.645350 0.612707 0.148240
O O6 0.569031 0.453687 0.214635
O O7 0.500000 0.550751 0.000000
O O8 0.748488 0.508278 0.832961
O O9 0.230606 0.226760 0.350454
O O10 0.000000 0.184893 0.500000
O O11 0.103235 0.275107 0.161313
O O12 0.129774 0.329461 0.679432
O O13 0.000000 0.360545 0.500000
O O14 0.937875 0.442812 0.844763
O O15 0.377809 0.333593 0.409252
O O16 0.500000 0.370768 0.000000
O O17 0.000000 0.526375 0.500000
#
# Coordination Sequence:
#
# PCOD9126277 Si02
#       7
#     4   4   4   4   4   4   4
#     4   9  20  40  63  93 124 173 217 267 334 396
#     4  11  26  38  65 102 133 176 226 275 334 387
#     4   9  21  40  63  96 128 169 220 276 330 389
#     4   8  18  35  63  88 119 168 213 263 322 389
#     4  10  23  38  61  97 132 170 216 276 328 392
#     4  10  22  39  65  90 132 171 223 269 326 399
#     4   9  19  40  69  89 126 175 218 267 344 382
#
# _framework density 23.325457
#
# number of rings (size 3 to 8) (size 9 to 14) (size 15 to 20)
#    0.000    2.857    0.000    0.000   18.000    1.714 
#    0.000    7.143    0.000    0.000    0.000    0.000 
#    0.000    0.000    0.000    0.000    0.000    0.000 
#
# Total GULP energy -78016.054956 kJ/mol
# GULP energy per Si atom -5572.575354 kJ/mol
# Density = 2.327237 g / cm^3
# Si number density = 23.325457 Si / 1000 Ang^3
#
#
#
# Elastic Constant Matrix: (Units=GPa)
#
#
# Indices 1 2 3 4 5 6 
#
# 1 105.6212 61.8531 33.6716 0.0000 -27.0896 0.0000
# 2 61.8531 239.7288 29.6573 0.0000 1.6188 0.0000
# 3 33.6716 29.6573 76.0378 0.0000 -18.5628 0.0000
# 4 0.0000 0.0000 0.0000 7.9054 0.0000 8.4468
# 5 -27.0896 1.6188 -18.5628 0.0000 30.6376 0.0000
# 6 0.0000 0.0000 0.0000 8.4468 0.0000 9.6015
#
#
#
# Elastic Compliance Matrix: (Units=1/GPa)
#
#
# Indices 1 2 3 4 5 6 
#
# 1 0.015729 -0.003851 -0.002369 0.000000 0.012676 0.000000
# 2 -0.003851 0.005384 -0.001520 0.000000 -0.004611 0.000000
# 3 -0.002369 -0.001520 0.016784 0.000000 0.008155 0.000000
# 4 0.000000 0.000000 0.000000 2.108323 0.000000 -1.854787
# 5 0.012676 -0.004611 0.008155 0.000000 0.049032 0.000000
# 6 0.000000 0.000000 0.000000 -1.854787 0.000000 1.735891
#
#
# Mechanical properties :
#
#
# Convention : Reuss Voigt Hill
#
# Bulk Modulus (GPa) = 44.60793 74.63909 59.62351
# Shear Modulus (GPa) = 1.26451 29.37595 15.32023
#
# Velocity S-wave (km/s) = 0.73708 3.55264 2.56560
# Velocity P-wave (km/s) = 4.45983 6.99263 5.86459
#
# Compressibility (1/GPa) = 0.02241754
#
# Stress axis : x y z
#
# Youngs Moduli (GPa) = 63.57614 185.72982 59.58003
#
# Poissons Ratio (x) = 0.71522 0.14113
# Poissons Ratio (y) = 0.24482 0.09058
# Poissons Ratio (z) = 0.15060 0.28236
#
# Static dielectric constant tensor:
#      x y z
#    x 2.203580 0.000000 -0.000920 
#    y 0.000000 1.957380 0.000000 
#    z -0.000920 0.000000 1.928270 
# 
# From -- ./inp_files/20564.got.cif
#   From: 2010.05.17/outbox.cif.g08.bks.cpg/sg5_11_cif.got.tgz:20564.got - 2010.06.03 18:56:24.
