data_PCOD9126849
_publ_section_title
;
Structure prediction by ZEFSAII (Michael W. Deem and Ramdas Pophale) SiO2 
 PCOD9126849
Probable space group: C 2
;
_chemical_formula_sum "Si O2"
_cell_formula_units_Z 18
_cell_length_a 10.923776
_cell_length_b 8.320956
_cell_length_c 9.767427
_cell_angle_alpha 90.000000
_cell_angle_beta 122.008029
_cell_angle_gamma 90.000000
_cell_volume 752.850312
_symmetry_space_group_name_H-M "C 2"
_symmetry_group_IT_number 5
_symmetry_cell_setting 'monoclinic'
loop_
_space_group_symop_operation_xyz
x,y,z
-x,y,-z
1/2+x,1/2+y,z
1/2-x,1/2+y,-z
loop_
_atom_site_type_symbol
_atom_site_label
_atom_site_fract_x
_atom_site_fract_y
_atom_site_fract_z
Si Si1 0.808963 0.335920 0.673652
Si Si2 0.240537 0.254968 0.904613
Si Si3 0.500000 0.010862 0.000000
Si Si4 0.397180 0.443612 0.228131
Si Si5 0.719038 0.453258 0.341439
O O1 0.666196 0.419704 0.657754
O O2 0.819902 0.392901 0.523962
O O3 0.942724 0.403184 0.841013
O O4 0.784799 0.145660 0.668007
O O5 0.371968 0.131520 0.960250
O O6 0.238453 0.379365 0.778749
O O7 0.109241 0.130604 0.818955
O O8 0.282745 0.344826 0.067865
O O9 0.558426 0.389914 0.287559
#
# Coordination Sequence:
#
# PCOD9126849 Si02
#       5
#     4   4   2   4   4
#     4  11  26  43  70  98 137 177 231 268 344 391
#     4  11  23  42  72  99 137 174 230 270 343 393
#     4  10  22  42  68 100 130 180 218 276 328 410
#     4  11  24  42  70 100 134 179 224 276 330 411
#     4  12  25  47  67  99 140 179 217 292 325 397
#
# _framework density 23.909136
#
# number of rings (size 3 to 8) (size 9 to 14) (size 15 to 20)
#    0.000    0.889    2.222    4.667    9.333    0.000 
#    0.000    0.000    0.000    0.000    0.000    0.000 
#    0.000    0.000    0.000    0.000    0.000    0.000 
#
# Total GULP energy -50399.396152 kJ/mol
# GULP energy per Si atom -5599.932906 kJ/mol
# Density = 2.385472 g / cm^3
# Si number density = 23.909136 Si / 1000 Ang^3
#
#
#
# Elastic Constant Matrix: (Units=GPa)
#
#
# Indices 1 2 3 4 5 6 
#
# 1 23.0127 -21.4512 -6.6847 0.0000 5.1866 0.0000
# 2 -21.4512 148.2943 33.6994 0.0000 -2.0408 0.0000
# 3 -6.6847 33.6994 128.8365 0.0000 -0.8236 0.0000
# 4 0.0000 0.0000 0.0000 44.8051 0.0000 -12.3558
# 5 5.1866 -2.0408 -0.8236 0.0000 32.7064 0.0000
# 6 0.0000 0.0000 0.0000 -12.3558 0.0000 39.8282
#
#
#
# Elastic Compliance Matrix: (Units=1/GPa)
#
#
# Indices 1 2 3 4 5 6 
#
# 1 0.052214 0.007273 0.000757 0.000000 -0.007807 0.000000
# 2 0.007273 0.008188 -0.001769 0.000000 -0.000687 0.000000
# 3 0.000757 -0.001769 0.008264 0.000000 -0.000022 0.000000
# 4 0.000000 0.000000 0.000000 0.024407 0.000000 0.007572
# 5 -0.007807 -0.000687 -0.000022 0.000000 0.031770 0.000000
# 6 0.000000 0.000000 0.000000 0.007572 0.000000 0.027457
#
#
# Mechanical properties :
#
#
# Convention : Reuss Voigt Hill
#
# Bulk Modulus (GPa) = 12.31710 34.58559 23.45135
# Shear Modulus (GPa) = 29.96917 43.10661 36.53789
#
# Velocity S-wave (km/s) = 3.54427 4.25070 3.91346
# Velocity P-wave (km/s) = 4.68102 6.21194 5.50000
#
# Compressibility (1/GPa) = 0.08118792
#
# Stress axis : x y z
#
# Youngs Moduli (GPa) = 19.15213 122.13066 121.01362
#
# Poissons Ratio (x) = -0.88831 -0.09157
# Poissons Ratio (y) = -0.13930 0.21404
# Poissons Ratio (z) = -0.01449 0.21601
#
# Static dielectric constant tensor:
#      x y z
#    x 1.987670 0.000000 0.069660 
#    y 0.000000 1.858370 0.000000 
#    z 0.069660 0.000000 1.891290 
# 
# From -- ./inp_files/18142.got.cif
#   From: 2010.05.17/outbox.cif.g08.bks.cpg/sg5_10_cif.got.tgz:18142.got - 2010.06.03 18:56:24.
