data_PCOD9126028
_publ_section_title
;
Structure prediction by ZEFSAII (Michael W. Deem and Ramdas Pophale) SiO2 
 PCOD9126028
Probable space group: C 2
;
_chemical_formula_sum "Si O2"
_cell_formula_units_Z 30
_cell_length_a 29.378499
_cell_length_b 11.685737
_cell_length_c 8.578215
_cell_angle_alpha 90.000000
_cell_angle_beta 151.648405
_cell_angle_gamma 90.000000
_cell_volume 1398.515648
_symmetry_space_group_name_H-M "C 2"
_symmetry_group_IT_number 5
_symmetry_cell_setting 'monoclinic'
loop_
_space_group_symop_operation_xyz
x,y,z
-x,y,-z
1/2+x,1/2+y,z
1/2-x,1/2+y,-z
loop_
_atom_site_type_symbol
_atom_site_label
_atom_site_fract_x
_atom_site_fract_y
_atom_site_fract_z
Si Si1 0.173196 0.683390 0.008165
Si Si2 0.187863 0.030903 0.107351
Si Si3 0.354415 0.994221 0.840850
Si Si4 0.770926 0.376353 0.122998
Si Si5 0.000000 0.740404 0.000000
Si Si6 0.071655 0.557962 0.417347
Si Si7 0.279972 0.798693 0.796990
Si Si8 0.402291 0.352232 0.975327
O O1 0.200084 0.586442 0.213478
O O2 0.254530 0.763409 0.178337
O O3 0.104460 0.767152 0.898919
O O4 0.119352 0.618113 0.708902
O O5 0.190370 0.166598 0.107595
O O6 0.285648 0.985675 0.485314
O O7 0.194332 0.969279 0.958820
O O8 0.106682 0.976493 0.974338
O O9 0.360013 0.878381 0.957263
O O10 0.460080 0.036433 0.116303
O O11 0.872909 0.440098 0.443650
O O12 0.757439 0.343245 0.902319
O O13 0.079837 0.649618 0.301024
O O14 0.015145 0.818889 0.894965
O O15 0.189670 0.821401 0.410824
#
# Coordination Sequence:
#
# PCOD9126028 Si02
#       8
#     4   4   4   4   2   4   4   4
#     4  11  21  39  58  92 127 163 202 261 319 375
#     4  10  22  42  60  90 130 167 208 257 325 387
#     4  11  22  39  67  92 122 172 210 265 318 378
#     4  11  23  34  62  92 125 157 210 258 311 380
#     4  12  22  38  66  94 132 160 216 274 310 374
#     4  12  23  39  64 101 127 160 221 266 313 374
#     4  11  21  38  62  88 127 166 208 262 320 378
#     4  10  22  37  62  89 122 168 211 260 320 382
#
# _framework density 21.451315000000001
#
# number of rings (size 3 to 8) (size 9 to 14) (size 15 to 20)
#    0.000    1.067    4.000    3.600    0.000    0.000 
#    0.000    0.000    5.867    4.800    0.000    0.000 
#    0.000    0.000    0.000    0.000    0.000    0.000 
#
# Total GULP energy -83755.925601 kJ/mol
# GULP energy per Si atom -5583.728373 kJ/mol
# Density = 2.140249 g / cm^3
# Si number density = 21.451315 Si / 1000 Ang^3
#
#
#
# Elastic Constant Matrix: (Units=GPa)
#
#
# Indices 1 2 3 4 5 6 
#
# 1 142.2686 75.0029 26.2236 0.0000 -12.6724 0.0000
# 2 75.0029 151.0229 14.5113 0.0000 -1.6117 0.0000
# 3 26.2236 14.5113 36.6382 0.0000 -6.0425 0.0000
# 4 0.0000 0.0000 0.0000 26.5850 0.0000 0.6140
# 5 -12.6724 -1.6117 -6.0425 0.0000 30.7333 0.0000
# 6 0.0000 0.0000 0.0000 0.6140 0.0000 49.7836
#
#
#
# Elastic Compliance Matrix: (Units=1/GPa)
#
#
# Indices 1 2 3 4 5 6 
#
# 1 0.010844 -0.004840 -0.005321 0.000000 0.003171 0.000000
# 2 -0.004840 0.009045 -0.000381 0.000000 -0.001596 0.000000
# 3 -0.005321 -0.000381 0.031924 0.000000 0.004062 0.000000
# 4 0.000000 0.000000 0.000000 0.037626 0.000000 -0.000464
# 5 0.003171 -0.001596 0.004062 0.000000 0.034561 0.000000
# 6 0.000000 0.000000 0.000000 -0.000464 0.000000 0.020093
#
#
# Mechanical properties :
#
#
# Convention : Reuss Voigt Hill
#
# Bulk Modulus (GPa) = 32.54507 62.37837 47.46172
# Shear Modulus (GPa) = 28.50293 35.69984 32.10139
#
# Velocity S-wave (km/s) = 3.64912 4.08392 3.87263
# Velocity P-wave (km/s) = 5.74102 7.16799 6.49382
#
# Compressibility (1/GPa) = 0.03072662
#
# Stress axis : x y z
#
# Youngs Moduli (GPa) = 92.21581 110.55831 31.32464
#
# Poissons Ratio (x) = 0.53514 0.16669
# Poissons Ratio (y) = 0.44636 0.01194
# Poissons Ratio (z) = 0.49072 0.04215
#
# Static dielectric constant tensor:
#      x y z
#    x 1.845530 0.000000 0.023920 
#    y 0.000000 1.802240 0.000000 
#    z 0.023920 0.000000 1.812170 
# 
# From -- ./inp_files/27382.got.cif
#   From: 2010.05.17/outbox.cif.g08.bks.cpg/sg5_14_cif.got.tgz:27382.got - 2010.06.03 18:56:24.
