data_PCOD9126274
_publ_section_title
;
Structure prediction by ZEFSAII (Michael W. Deem and Ramdas Pophale) SiO2 
 PCOD9126274
Probable space group: C 2
;
_chemical_formula_sum "Si O2"
_cell_formula_units_Z 30
_cell_length_a 25.326023
_cell_length_b 5.052877
_cell_length_c 22.614994
_cell_angle_alpha 90.000000
_cell_angle_beta 153.786862
_cell_angle_gamma 90.000000
_cell_volume 1278.324136
_symmetry_space_group_name_H-M "C 2"
_symmetry_group_IT_number 5
_symmetry_cell_setting 'monoclinic'
loop_
_space_group_symop_operation_xyz
x,y,z
-x,y,-z
1/2+x,1/2+y,z
1/2-x,1/2+y,-z
loop_
_atom_site_type_symbol
_atom_site_label
_atom_site_fract_x
_atom_site_fract_y
_atom_site_fract_z
Si Si1 0.268498 0.845250 0.477715
Si Si2 0.614366 0.605191 0.508985
Si Si3 0.674112 0.706863 0.287473
Si Si4 0.435547 0.830201 0.094146
Si Si5 0.291146 0.325103 0.911145
Si Si6 0.771058 0.493126 0.280109
Si Si7 0.000000 0.867293 0.500000
Si Si8 0.322591 0.952391 0.091931
O O1 0.221936 0.588199 0.466402
O O2 0.381389 0.759708 0.549274
O O3 0.177800 0.964692 0.337433
O O4 0.697878 0.352007 0.578858
O O5 0.684818 0.780797 0.627805
O O6 0.504253 0.520873 0.440792
O O7 0.563252 0.881546 0.194832
O O8 0.665347 0.634327 0.209841
O O9 0.433463 0.878447 0.162374
O O10 0.390289 0.537329 0.032581
O O11 0.338523 0.033530 0.971261
O O12 0.266347 0.367680 0.818294
O O13 0.177826 0.392183 0.839250
O O14 0.881348 0.690331 0.380007
O O15 0.219527 0.751394 0.963165
#
# Coordination Sequence:
#
# PCOD9126274 Si02
#       8
#     4   4   4   4   4   4   2   4
#     4  11  22  42  70  96 132 177 226 281 341 405
#     4  10  22  43  68  93 139 177 223 287 348 404
#     4  10  23  41  65  96 141 180 217 276 344 407
#     4  10  22  39  64  96 130 178 213 265 342 390
#     4  10  22  39  66  93 131 168 227 273 316 403
#     4  10  23  41  64  98 132 179 226 284 336 402
#     4  10  22  44  70  92 134 184 228 276 372 398
#     4   8  16  36  59  81 118 162 202 258 315 365
#
# _framework density 23.468226000000001
#
# number of rings (size 3 to 8) (size 9 to 14) (size 15 to 20)
#    0.000    2.133    1.333    0.400    7.467    0.533 
#    0.000    6.667    2.933    0.000    0.000    0.000 
#    0.000    0.000    0.000    0.000    0.000    0.000 
#
# Total GULP energy -83727.801429 kJ/mol
# GULP energy per Si atom -5581.853429 kJ/mol
# Density = 2.341481 g / cm^3
# Si number density = 23.468226 Si / 1000 Ang^3
#
#
#
# Elastic Constant Matrix: (Units=GPa)
#
#
# Indices 1 2 3 4 5 6 
#
# 1 229.3813 50.4697 54.7288 0.0004 -21.8499 0.0005
# 2 50.4697 104.2406 9.6689 0.0005 -2.5502 0.0009
# 3 54.7288 9.6689 33.2902 0.0000 -10.7897 0.0000
# 4 0.0004 0.0005 0.0000 7.6082 0.0005 -11.1019
# 5 -21.8499 -2.5502 -10.7897 0.0005 34.4365 0.0004
# 6 0.0005 0.0009 0.0000 -11.1019 0.0004 50.5250
#
#
#
# Elastic Compliance Matrix: (Units=1/GPa)
#
#
# Indices 1 2 3 4 5 6 
#
# 1 0.007873 -0.002690 -0.011806 0.000000 0.001097 0.000000
# 2 -0.002690 0.010779 0.001110 -0.000001 -0.000561 0.000000
# 3 -0.011806 0.001110 0.052005 0.000000 0.008886 0.000000
# 4 0.000000 -0.000001 0.000000 0.193468 -0.000004 0.042511
# 5 0.001097 -0.000561 0.008886 -0.000004 0.032477 -0.000001
# 6 0.000000 0.000000 0.000000 0.042511 -0.000001 0.029133
#
#
# Mechanical properties :
#
#
# Convention : Reuss Voigt Hill
#
# Bulk Modulus (GPa) = 22.78698 66.29411 44.54054
# Shear Modulus (GPa) = 13.61896 35.31693 24.46794
#
# Velocity S-wave (km/s) = 2.41159 3.88349 3.23243
# Velocity P-wave (km/s) = 4.18152 6.95834 5.74036
#
# Compressibility (1/GPa) = 0.04388471
#
# Stress axis : x y z
#
# Youngs Moduli (GPa) = 127.02195 92.77422 19.22884
#
# Poissons Ratio (x) = 0.24954 0.22701
# Poissons Ratio (y) = 0.34166 -0.02134
# Poissons Ratio (z) = 1.49960 -0.10294
#
# Static dielectric constant tensor:
#      x y z
#    x 1.963730 0.000000 0.010050 
#    y 0.000000 1.948140 0.000000 
#    z 0.010050 0.000000 1.872540 
# 
# From -- ./inp_files/67259.got.cif
#   From: 2010.05.17/outbox.cif.g08.bks.cpg/sg5_34_cif.got.tgz:67259.got - 2010.06.03 18:56:24.
