data_PCOD9126752
_publ_section_title
;
Structure prediction by ZEFSAII (Michael W. Deem and Ramdas Pophale) SiO2 
 PCOD9126752
Probable space group: C 2
;
_chemical_formula_sum "Si O2"
_cell_formula_units_Z 28
_cell_length_a 32.617147
_cell_length_b 5.664518
_cell_length_c 8.708215
_cell_angle_alpha 90.000000
_cell_angle_beta 125.595469
_cell_angle_gamma 90.000000
_cell_volume 1308.299058
_symmetry_space_group_name_H-M "C 2"
_symmetry_group_IT_number 5
_symmetry_cell_setting 'monoclinic'
loop_
_space_group_symop_operation_xyz
x,y,z
-x,y,-z
1/2+x,1/2+y,z
1/2-x,1/2+y,-z
loop_
_atom_site_type_symbol
_atom_site_label
_atom_site_fract_x
_atom_site_fract_y
_atom_site_fract_z
Si Si1 0.989867 0.896230 0.659590
Si Si2 0.974313 0.394630 0.111684
Si Si3 0.715180 0.089072 0.156110
Si Si4 0.189479 0.318741 0.525539
Si Si5 0.367021 0.098197 0.817736
Si Si6 0.781949 0.724220 0.187447
Si Si7 0.878785 0.937263 0.548260
O O1 0.930816 0.911488 0.574276
O O2 0.000000 0.897316 0.500000
O O3 0.007565 0.639937 0.765553
O O4 0.014214 0.139565 0.783661
O O5 0.915008 0.442535 0.962020
O O6 0.000000 0.386950 0.000000
O O7 0.760669 0.164794 0.367515
O O8 0.660628 0.184909 0.089065
O O9 0.730027 0.817300 0.149775
O O10 0.723800 0.198238 0.005074
O O11 0.180417 0.449257 0.347664
O O12 0.199705 0.491776 0.687274
O O13 0.134991 0.199616 0.430470
O O14 0.378758 0.279193 0.704430
O O15 0.829872 0.887870 0.335551
#
# Coordination Sequence:
#
# PCOD9126752 Si02
#       7
#     4   4   4   4   4   4   4
#     4  12  28  49  79 110 153 192 248 311 380 443
#     4  12  26  51  77 110 149 194 250 312 371 444
#     4  11  23  41  66  97 140 181 236 282 353 426
#     4  10  23  42  66  93 139 175 231 288 356 422
#     4  11  26  41  70 102 134 185 240 292 358 434
#     4  10  22  42  63  98 133 186 223 289 349 429
#     4  10  24  45  69 100 137 186 229 299 361 432
#
# _framework density 21.401834000000001
#
# number of rings (size 3 to 8) (size 9 to 14) (size 15 to 20)
#    0.000    1.143    2.857    1.714   12.000    1.143 
#    0.000    0.000    0.000    0.000    0.000    0.000 
#    0.000    0.000    0.000    0.000    0.000    0.000 
#
# Total GULP energy -77973.627881 kJ/mol
# GULP energy per Si atom -5569.544849 kJ/mol
# Density = 2.135312 g / cm^3
# Si number density = 21.401834 Si / 1000 Ang^3
#
#
#
# Elastic Constant Matrix: (Units=GPa)
#
#
# Indices 1 2 3 4 5 6 
#
# 1 157.3214 26.2778 34.6231 0.0000 -2.2955 0.0000
# 2 26.2778 88.1577 38.1564 0.0000 -10.4656 0.0000
# 3 34.6231 38.1564 72.0607 0.0000 3.3428 0.0000
# 4 0.0000 0.0000 0.0000 29.5653 0.0000 -7.8453
# 5 -2.2955 -10.4656 3.3428 0.0000 29.8667 0.0000
# 6 0.0000 0.0000 0.0000 -7.8453 0.0000 17.3518
#
#
#
# Elastic Compliance Matrix: (Units=1/GPa)
#
#
# Indices 1 2 3 4 5 6 
#
# 1 0.007167 -0.000722 -0.003091 0.000000 0.000644 0.000000
# 2 -0.000722 0.015967 -0.008408 0.000000 0.006481 0.000000
# 3 -0.003091 -0.008408 0.020067 0.000000 -0.005430 0.000000
# 4 0.000000 0.000000 0.000000 0.038435 0.000000 0.017377
# 5 0.000644 0.006481 -0.005430 0.000000 0.036410 0.000000
# 6 0.000000 0.000000 0.000000 0.017377 0.000000 0.065488
#
#
# Mechanical properties :
#
#
# Convention : Reuss Voigt Hill
#
# Bulk Modulus (GPa) = 53.31164 57.29494 55.30329
# Shear Modulus (GPa) = 23.33960 29.92226 26.63093
#
# Velocity S-wave (km/s) = 3.30592 3.74320 3.53133
# Velocity P-wave (km/s) = 6.28777 6.74620 6.52101
#
# Compressibility (1/GPa) = 0.01875763
#
# Stress axis : x y z
#
# Youngs Moduli (GPa) = 139.53513 62.62837 49.83425
#
# Poissons Ratio (x) = 0.04521 0.15404
# Poissons Ratio (y) = 0.10074 0.41903
# Poissons Ratio (z) = 0.43130 0.52661
#
# Static dielectric constant tensor:
#      x y z
#    x 2.095240 0.000000 -0.214160 
#    y 0.000000 1.991370 0.000000 
#    z -0.214160 0.000000 1.885490 
# 
# From -- ./inp_files/32332.got.cif
#   From: 2010.05.17/outbox.cif.g08.bks.cpg/sg5_17_cif.got.tgz:32332.got - 2010.06.03 18:56:24.
