data_PCOD9126123
_publ_section_title
;
Structure prediction by ZEFSAII (Michael W. Deem and Ramdas Pophale) SiO2 
 PCOD9126123
Probable space group: C 2
;
_chemical_formula_sum "Si O2"
_cell_formula_units_Z 32
_cell_length_a 24.392669
_cell_length_b 7.977585
_cell_length_c 12.554580
_cell_angle_alpha 90.000000
_cell_angle_beta 149.379182
_cell_angle_gamma 90.000000
_cell_volume 1244.379306
_symmetry_space_group_name_H-M "C 2"
_symmetry_group_IT_number 5
_symmetry_cell_setting 'monoclinic'
loop_
_space_group_symop_operation_xyz
x,y,z
-x,y,-z
1/2+x,1/2+y,z
1/2-x,1/2+y,-z
loop_
_atom_site_type_symbol
_atom_site_label
_atom_site_fract_x
_atom_site_fract_y
_atom_site_fract_z
Si Si1 0.882908 0.949290 0.345539
Si Si2 0.649698 0.533074 0.010842
Si Si3 0.162821 0.596852 0.803366
Si Si4 0.805662 0.239345 0.350647
Si Si5 0.376983 0.690577 0.826172
Si Si6 0.772452 0.851552 0.566820
Si Si7 0.489975 0.969255 0.648131
Si Si8 0.055874 0.800546 0.326621
O O1 0.859918 0.795311 0.225901
O O2 0.887217 0.852353 0.467732
O O3 0.000000 0.012861 0.500000
O O4 0.810413 0.103403 0.265090
O O5 0.709738 0.585904 0.003725
O O6 0.733714 0.392006 0.189642
O O7 0.640659 0.689094 0.076643
O O8 0.538770 0.435825 0.833465
O O9 0.111118 0.481806 0.808253
O O10 0.087231 0.537088 0.577368
O O11 0.755522 0.219984 0.384830
O O12 0.930072 0.298195 0.577082
O O13 0.330292 0.845627 0.682721
O O14 0.303950 0.530630 0.668826
O O15 0.500000 0.661543 0.000000
O O16 0.871286 0.810378 0.655091
O O17 0.482116 0.109807 0.725101
#
# Coordination Sequence:
#
# PCOD9126123 Si02
#       8
#     4   4   4   4   4   4   4   4
#     4  11  21  38  62  93 129 175 229 282 346 425
#     4  10  22  38  63  94 125 174 226 284 341 417
#     4   9  17  38  61  84 123 173 220 271 346 405
#     4  10  23  36  62  98 127 174 226 289 358 414
#     4  11  22  42  68  99 136 180 234 281 348 420
#     4  11  22  40  70  96 136 182 226 293 355 412
#     4   9  18  37  60  86 121 174 220 267 345 418
#     4  11  20  40  65  90 129 179 229 277 345 425
#
# _framework density 25.715634000000001
#
# number of rings (size 3 to 8) (size 9 to 14) (size 15 to 20)
#    0.000    1.750    3.750    3.750    3.500    0.000 
#    2.250    1.875   11.000    0.000    0.000    0.000 
#    0.000    0.000    0.000    0.000    0.000    0.000 
#
# Total GULP energy -89326.902390 kJ/mol
# GULP energy per Si atom -5582.931399 kJ/mol
# Density = 2.565710 g / cm^3
# Si number density = 25.715634 Si / 1000 Ang^3
#
#
#
# Elastic Constant Matrix: (Units=GPa)
#
#
# Indices 1 2 3 4 5 6 
#
# 1 165.5655 34.5758 28.3986 0.0000 38.4283 0.0000
# 2 34.5758 46.9070 36.7886 0.0000 17.3015 0.0000
# 3 28.3986 36.7886 82.9060 0.0000 23.4585 0.0000
# 4 0.0000 0.0000 0.0000 38.6613 0.0000 -2.3193
# 5 38.4283 17.3015 23.4585 0.0000 32.4120 0.0000
# 6 0.0000 0.0000 0.0000 -2.3193 0.0000 26.9315
#
#
#
# Elastic Compliance Matrix: (Units=1/GPa)
#
#
# Indices 1 2 3 4 5 6 
#
# 1 0.008824 -0.004252 0.001487 0.000000 -0.009268 0.000000
# 2 -0.004252 0.036844 -0.013524 0.000000 -0.004839 0.000000
# 3 0.001487 -0.013524 0.020133 0.000000 -0.009115 0.000000
# 4 0.000000 0.000000 0.000000 0.026000 0.000000 0.002239
# 5 -0.009268 -0.004839 -0.009115 0.000000 0.051021 0.000000
# 6 0.000000 0.000000 0.000000 0.002239 0.000000 0.037324
#
#
# Mechanical properties :
#
#
# Convention : Reuss Voigt Hill
#
# Bulk Modulus (GPa) = 30.09945 54.98938 42.54442
# Shear Modulus (GPa) = 22.34162 32.64198 27.49180
#
# Velocity S-wave (km/s) = 2.95073 3.56665 3.27321
# Velocity P-wave (km/s) = 4.83107 6.19608 5.55566
#
# Compressibility (1/GPa) = 0.03322319
#
# Stress axis : x y z
#
# Youngs Moduli (GPa) = 113.32719 27.14162 49.67047
#
# Poissons Ratio (x) = 0.11539 -0.07384
# Poissons Ratio (y) = 0.48182 0.67172
# Poissons Ratio (z) = -0.16846 0.36705
#
# Static dielectric constant tensor:
#      x y z
#    x 2.154460 0.000000 -0.064190 
#    y 0.000000 2.072420 0.000000 
#    z -0.064190 0.000000 2.140690 
# 
# From -- ./inp_files/57704.got.cif
#   From: 2010.05.17/outbox.cif.g08.bks.cpg/sg5_29_cif.got.tgz:57704.got - 2010.06.03 18:56:24.
