data_PCOD9126915
_publ_section_title
;
Structure prediction by ZEFSAII (Michael W. Deem and Ramdas Pophale) SiO2 
 PCOD9126915
Probable space group: C 2
;
_chemical_formula_sum "Si O2"
_cell_formula_units_Z 20
_cell_length_a 13.595694
_cell_length_b 5.091247
_cell_length_c 20.702570
_cell_angle_alpha 90.000000
_cell_angle_beta 151.056742
_cell_angle_gamma 90.000000
_cell_volume 693.496409
_symmetry_space_group_name_H-M "C 2"
_symmetry_group_IT_number 5
_symmetry_cell_setting 'monoclinic'
loop_
_space_group_symop_operation_xyz
x,y,z
-x,y,-z
1/2+x,1/2+y,z
1/2-x,1/2+y,-z
loop_
_atom_site_type_symbol
_atom_site_label
_atom_site_fract_x
_atom_site_fract_y
_atom_site_fract_z
Si Si1 0.500000 0.295290 0.000000
Si Si2 0.519425 0.599109 0.185290
Si Si3 0.671099 0.102794 0.876095
Si Si4 0.806121 0.253743 0.567347
Si Si5 0.000000 0.849960 0.500000
Si Si6 0.281843 0.702173 0.265157
O O1 0.687638 0.492936 0.098669
O O2 0.573992 0.128500 0.105048
O O3 0.494373 0.880556 0.203635
O O4 0.711938 0.477408 0.258160
O O5 0.444935 0.375080 0.192186
O O6 0.337072 0.611125 0.028387
O O7 0.704705 0.062924 0.455233
O O8 0.665660 0.198765 0.549893
O O9 0.038932 0.190950 0.683833
O O10 0.873643 0.027348 0.376035
#
# Coordination Sequence:
#
# PCOD9126915 Si02
#       6
#     2   4   4   4   2   4
#     4  10  22  42  70 110 150 184 248 304 366 448
#     4   9  19  37  62  90 131 180 226 276 352 417
#     4   9  19  37  60  92 133 180 221 281 347 420
#     4  10  24  48  76 110 146 195 254 307 367 443
#     4  10  24  48  76 104 152 196 252 306 374 436
#     4  10  23  45  73 110 146 194 246 306 369 445
#
# _framework density 28.839372000000001
#
# number of rings (size 3 to 8) (size 9 to 14) (size 15 to 20)
#    0.000    2.400    0.000    0.000    2.800    7.200 
#   14.400    6.000    0.000    0.000    0.000    0.000 
#    0.000    0.000    0.000    0.000    0.000    0.000 
#
# Total GULP energy -55898.071162 kJ/mol
# GULP energy per Si atom -5589.807116 kJ/mol
# Density = 2.877373 g / cm^3
# Si number density = 28.839372 Si / 1000 Ang^3
#
#
#
# Elastic Constant Matrix: (Units=GPa)
#
#
# Indices 1 2 3 4 5 6 
#
# 1 243.1652 55.5627 87.7751 -0.0003 23.7834 0.0005
# 2 55.5627 126.9381 36.7564 -0.0018 2.4377 0.0059
# 3 87.7751 36.7564 85.9212 0.0007 9.4433 0.0006
# 4 -0.0003 -0.0018 0.0007 30.4668 -0.0003 -2.2784
# 5 23.7834 2.4377 9.4433 -0.0003 63.0309 0.0000
# 6 0.0005 0.0059 0.0006 -2.2784 0.0000 48.2783
#
#
#
# Elastic Compliance Matrix: (Units=1/GPa)
#
#
# Indices 1 2 3 4 5 6 
#
# 1 0.006792 -0.001123 -0.006285 0.000000 -0.001578 0.000000
# 2 -0.001123 0.009181 -0.002835 0.000001 0.000493 -0.000001
# 3 -0.006285 -0.002835 0.019317 -0.000001 -0.000413 0.000000
# 4 0.000000 0.000001 -0.000001 0.032939 0.000000 0.001555
# 5 -0.001578 0.000493 -0.000413 0.000000 0.016503 0.000000
# 6 0.000000 -0.000001 0.000000 0.001555 0.000000 0.020787
#
#
# Mechanical properties :
#
#
# Convention : Reuss Voigt Hill
#
# Bulk Modulus (GPa) = 67.54376 90.69035 79.11706
# Shear Modulus (GPa) = 38.18615 46.75056 42.46836
#
# Velocity S-wave (km/s) = 3.64276 4.03062 3.84159
# Velocity P-wave (km/s) = 6.41596 7.29220 6.86806
#
# Compressibility (1/GPa) = 0.01480522
#
# Stress axis : x y z
#
# Youngs Moduli (GPa) = 147.23440 108.92484 51.76817
#
# Poissons Ratio (x) = 0.12230 0.32535
# Poissons Ratio (y) = 0.16532 0.14674
# Poissons Ratio (z) = 0.92532 0.30876
#
# Static dielectric constant tensor:
#      x y z
#    x 2.388070 0.000000 -0.185580 
#    y 0.000000 2.239210 0.000000 
#    z -0.185580 0.000000 2.380290 
# 
# From -- ./inp_files/68488.got.cif
#   From: 2010.05.17/outbox.cif.g08.bks.cpg/sg5_35_cif.got.tgz:68488.got - 2010.06.03 18:56:24.
