data_PCOD9126769
_publ_section_title
;
Structure prediction by ZEFSAII (Michael W. Deem and Ramdas Pophale) SiO2 
 PCOD9126769
Probable space group: C 2
;
_chemical_formula_sum "Si O2"
_cell_formula_units_Z 26
_cell_length_a 7.177107
_cell_length_b 12.381525
_cell_length_c 20.588305
_cell_angle_alpha 90.000000
_cell_angle_beta 142.761239
_cell_angle_gamma 90.000000
_cell_volume 1107.129595
_symmetry_space_group_name_H-M "C 2"
_symmetry_group_IT_number 5
_symmetry_cell_setting 'monoclinic'
loop_
_space_group_symop_operation_xyz
x,y,z
-x,y,-z
1/2+x,1/2+y,z
1/2-x,1/2+y,-z
loop_
_atom_site_type_symbol
_atom_site_label
_atom_site_fract_x
_atom_site_fract_y
_atom_site_fract_z
Si Si1 0.500000 0.428571 0.000000
Si Si2 0.878152 0.508998 0.290356
Si Si3 0.362393 0.259498 0.309732
Si Si4 0.366723 0.697043 0.280448
Si Si5 0.866614 0.854917 0.102650
Si Si6 0.795825 0.342583 0.534617
Si Si7 0.367462 0.972061 0.780741
O O1 0.469854 0.358714 0.056103
O O2 0.810820 0.496188 0.094698
O O3 0.907963 0.637834 0.298753
O O4 0.538145 0.458961 0.182762
O O5 0.018818 0.450579 0.393302
O O6 0.066873 0.471920 0.278528
O O7 0.656353 0.315458 0.425931
O O8 0.240620 0.353095 0.228471
O O9 0.093587 0.242296 0.288549
O O10 0.498582 0.742029 0.384430
O O11 0.362711 0.569427 0.272702
O O12 0.032104 0.750226 0.178561
O O13 0.500000 0.858095 0.000000
O O14 0.500000 0.345241 0.500000
#
# Coordination Sequence:
#
# PCOD9126769 Si02
#       7
#     2   4   4   4   4   4   4
#     4  10  22  44  64  94 136 178 222 280 338 382
#     4  10  22  42  65  97 130 170 221 272 335 395
#     4  11  22  42  67  93 129 178 208 274 337 397
#     4  10  22  42  64  94 131 167 213 277 329 394
#     4  10  22  44  68  99 135 178 229 278 335 404
#     4   9  18  40  68  87 131 170 208 268 336 392
#     4  11  23  43  63  94 133 164 222 280 323 399
#
# _framework density 23.484154
#
# number of rings (size 3 to 8) (size 9 to 14) (size 15 to 20)
#    0.000    1.846    6.154    0.000    5.385    1.231 
#    6.923    0.000    0.000    0.000    0.000    0.000 
#    0.000    0.000    0.000    0.000    0.000    0.000 
#
# Total GULP energy -72647.682547 kJ/mol
# GULP energy per Si atom -5588.283273 kJ/mol
# Density = 2.343070 g / cm^3
# Si number density = 23.484154 Si / 1000 Ang^3
#
#
#
# Elastic Constant Matrix: (Units=GPa)
#
#
# Indices 1 2 3 4 5 6 
#
# 1 55.7988 16.6840 19.6267 0.0001 9.6870 0.0000
# 2 16.6840 179.6010 53.1270 -0.0001 12.5589 0.0000
# 3 19.6267 53.1270 138.0837 0.0006 20.3051 0.0003
# 4 0.0001 -0.0001 0.0006 15.2910 0.0002 6.5290
# 5 9.6870 12.5589 20.3051 0.0002 31.4029 0.0000
# 6 0.0000 0.0000 0.0003 6.5290 0.0000 30.7499
#
#
#
# Elastic Compliance Matrix: (Units=1/GPa)
#
#
# Indices 1 2 3 4 5 6 
#
# 1 0.019616 -0.000991 -0.001741 0.000000 -0.004529 0.000000
# 2 -0.000991 0.006364 -0.002186 0.000000 -0.000826 0.000000
# 3 -0.001741 -0.002186 0.008977 0.000000 -0.004393 0.000000
# 4 0.000000 0.000000 0.000000 0.071918 0.000000 -0.015270
# 5 -0.004529 -0.000826 -0.004393 0.000000 0.036412 0.000000
# 6 0.000000 0.000000 0.000000 -0.015270 0.000000 0.035763
#
#
# Mechanical properties :
#
#
# Convention : Reuss Voigt Hill
#
# Bulk Modulus (GPa) = 39.80672 61.37320 50.58996
# Shear Modulus (GPa) = 25.34727 34.42516 29.88621
#
# Velocity S-wave (km/s) = 3.28889 3.83285 3.57124
# Velocity P-wave (km/s) = 5.60443 6.76596 6.21240
#
# Compressibility (1/GPa) = 0.02512139
#
# Stress axis : x y z
#
# Youngs Moduli (GPa) = 50.97777 157.12327 111.40038
#
# Poissons Ratio (x) = 0.15563 0.19396
# Poissons Ratio (y) = 0.05049 0.24357
# Poissons Ratio (z) = 0.08876 0.34354
#
# Static dielectric constant tensor:
#      x y z
#    x 1.954960 0.000000 0.010380 
#    y 0.000000 1.850540 0.000000 
#    z 0.010380 0.000000 1.905830 
# 
# From -- ./inp_files/67990.got.cif
#   From: 2010.05.17/outbox.cif.g08.bks.cpg/sg5_34_cif.got.tgz:67990.got - 2010.06.03 18:56:24.
