data_PCOD9126476
_publ_section_title
;
Structure prediction by ZEFSAII (Michael W. Deem and Ramdas Pophale) SiO2 
 PCOD9126476
Probable space group: C 2
;
_chemical_formula_sum "Si O2"
_cell_formula_units_Z 24
_cell_length_a 7.716134
_cell_length_b 12.181390
_cell_length_c 16.408185
_cell_angle_alpha 90.000000
_cell_angle_beta 34.889866
_cell_angle_gamma 90.000000
_cell_volume 882.173060
_symmetry_space_group_name_H-M "C 2"
_symmetry_group_IT_number 5
_symmetry_cell_setting 'monoclinic'
loop_
_space_group_symop_operation_xyz
x,y,z
-x,y,-z
1/2+x,1/2+y,z
1/2-x,1/2+y,-z
loop_
_atom_site_type_symbol
_atom_site_label
_atom_site_fract_x
_atom_site_fract_y
_atom_site_fract_z
Si Si1 0.215014 0.199630 0.842684
Si Si2 0.198975 0.117620 0.146829
Si Si3 0.304045 0.362647 0.149333
Si Si4 0.772350 0.154841 0.447612
Si Si5 0.646791 0.021740 0.648162
Si Si6 0.266150 0.838555 0.649689
O O1 0.440604 0.101226 0.783176
O O2 0.465136 0.291140 0.723773
O O3 0.001273 0.156636 0.852987
O O4 0.000000 0.234162 0.000000
O O5 0.327240 0.233031 0.134160
O O6 0.986702 0.083041 0.304240
O O7 0.500000 0.054832 0.000000
O O8 0.366995 0.397230 0.218198
O O9 0.961760 0.404428 0.278584
O O10 0.500000 0.409192 0.000000
O O11 0.500000 0.207379 0.500000
O O12 0.593600 0.079877 0.581120
O O13 0.998996 0.241225 0.406857
O O14 0.000000 0.019171 0.500000
O O15 0.500000 0.897754 0.500000
#
# Coordination Sequence:
#
# PCOD9126476 Si02
#       6
#     4   4   4   4   4   4
#     4  12  21  38  69  96 125 167 213 268 310 378
#     4  10  22  40  68  95 124 164 213 264 318 376
#     4  10  24  44  62  91 133 172 208 258 324 385
#     4  11  19  38  62  90 128 160 212 260 309 372
#     4  12  24  40  61  93 131 168 209 259 322 378
#     4  11  21  41  68  96 127 160 222 262 310 375
#
# _framework density 27.205545000000001
#
# number of rings (size 3 to 8) (size 9 to 14) (size 15 to 20)
#    0.000    1.000    5.000    3.500    0.000    4.667 
#    0.000    0.000    0.000    1.000    0.000    0.000 
#    0.000    0.000    0.000    0.000    0.000    0.000 
#
# Total GULP energy -66906.123935 kJ/mol
# GULP energy per Si atom -5575.510328 kJ/mol
# Density = 2.714362 g / cm^3
# Si number density = 27.205545 Si / 1000 Ang^3
#
#
#
# Elastic Constant Matrix: (Units=GPa)
#
#
# Indices 1 2 3 4 5 6 
#
# 1 109.1712 0.3971 48.6149 -0.0111 -15.2825 0.0005
# 2 0.3971 36.0521 36.6944 -0.0070 1.1973 0.0014
# 3 48.6149 36.6944 253.4518 -0.0282 0.7277 0.0102
# 4 -0.0111 -0.0070 -0.0282 35.7648 0.0134 -4.1168
# 5 -15.2825 1.1973 0.7277 0.0134 54.5189 -0.0017
# 6 0.0005 0.0014 0.0102 -4.1168 -0.0017 1.0175
#
#
#
# Elastic Compliance Matrix: (Units=1/GPa)
#
#
# Indices 1 2 3 4 5 6 
#
# 1 0.010618 0.002189 -0.002362 0.000006 0.002960 0.000045
# 2 0.002189 0.033006 -0.005198 0.000007 -0.000042 0.000036
# 3 -0.002362 -0.005198 0.005153 -0.000005 -0.000617 -0.000065
# 4 0.000006 0.000007 -0.000005 0.052332 -0.000005 0.211728
# 5 0.002960 -0.000042 -0.000617 -0.000005 0.019181 0.000017
# 6 0.000045 0.000036 -0.000065 0.211728 0.000017 1.839384
#
#
# Mechanical properties :
#
#
# Convention : Reuss Voigt Hill
#
# Bulk Modulus (GPa) = 26.29223 63.34311 44.81767
# Shear Modulus (GPa) = 2.52131 39.12484 20.82307
#
# Velocity S-wave (km/s) = 0.96373 3.79637 2.76958
# Velocity P-wave (km/s) = 3.30509 6.52306 5.17078
#
# Compressibility (1/GPa) = 0.03803405
#
# Stress axis : x y z
#
# Youngs Moduli (GPa) = 94.17820 30.29773 194.06283
#
# Poissons Ratio (x) = -0.06632 0.45839
# Poissons Ratio (y) = -0.20615 1.00879
# Poissons Ratio (z) = 0.22246 0.15750
#
# Static dielectric constant tensor:
#      x y z
#    x 2.390940 -0.000020 0.023960 
#    y -0.000020 2.259930 0.000020 
#    z 0.023960 0.000020 2.119700 
# 
# From -- ./inp_files/59679.got.cif
#   From: 2010.05.17/outbox.cif.g08.bks.cpg/sg5_30_cif.got.tgz:59679.got - 2010.06.03 18:56:24.
