data_PCOD9126703
_publ_section_title
;
Structure prediction by ZEFSAII (Michael W. Deem and Ramdas Pophale) SiO2 
 PCOD9126703
Probable space group: C 2
;
_chemical_formula_sum "Si O2"
_cell_formula_units_Z 26
_cell_length_a 10.585797
_cell_length_b 12.693509
_cell_length_c 17.116429
_cell_angle_alpha 90.000000
_cell_angle_beta 146.980969
_cell_angle_gamma 90.000000
_cell_volume 1253.283243
_symmetry_space_group_name_H-M "C 2"
_symmetry_group_IT_number 5
_symmetry_cell_setting 'monoclinic'
loop_
_space_group_symop_operation_xyz
x,y,z
-x,y,-z
1/2+x,1/2+y,z
1/2-x,1/2+y,-z
loop_
_atom_site_type_symbol
_atom_site_label
_atom_site_fract_x
_atom_site_fract_y
_atom_site_fract_z
Si Si1 0.259481 0.884780 0.496521
Si Si2 0.849566 0.199364 0.753595
Si Si3 0.777370 0.095565 0.153268
Si Si4 0.131626 0.228520 0.652383
Si Si5 0.000000 0.536987 0.500000
Si Si6 0.500000 0.739021 0.000000
Si Si7 0.000000 0.871568 0.500000
Si Si8 0.550819 0.359529 0.796841
O O1 0.451218 0.797136 0.609742
O O2 0.145754 0.934989 0.512711
O O3 0.054509 0.829781 0.342019
O O4 0.372645 0.965723 0.496614
O O5 0.684410 0.106733 0.639208
O O6 0.698758 0.300480 0.646099
O O7 0.093006 0.181694 0.834300
O O8 0.889236 0.184828 0.866815
O O9 0.817020 0.128911 0.265060
O O10 0.889670 0.984078 0.182827
O O11 0.500000 0.091687 0.000000
O O12 0.356117 0.305138 0.752034
O O13 0.000000 0.209849 0.500000
O O14 0.701696 0.807169 0.064668
#
# Coordination Sequence:
#
# PCOD9126703 Si02
#       8
#     4   4   4   4   2   2   2   4
#     4  11  19  41  69  98 133 175 226 289 350 409
#     4  11  24  41  67  97 130 179 228 280 347 418
#     4  12  23  42  68  98 136 177 231 281 347 430
#     4  10  22  41  71  99 132 179 232 288 353 413
#     4  11  22  42  76  95 134 174 231 298 346 409
#     4  12  24  44  64  92 140 180 220 278 366 414
#     4  11  22  38  68  99 128 176 231 278 348 421
#     4  11  22  42  66  95 134 183 217 282 348 413
#
# _framework density 20.745509999999999
#
# number of rings (size 3 to 8) (size 9 to 14) (size 15 to 20)
#    0.000    0.923    7.692    0.923    0.000    0.000 
#    1.385    3.077    3.385    0.000    0.000    0.000 
#    0.000    0.000    0.000    0.000    0.000    0.000 
#
# Total GULP energy -72368.813178 kJ/mol
# GULP energy per Si atom -5566.831783 kJ/mol
# Density = 2.069829 g / cm^3
# Si number density = 20.745510 Si / 1000 Ang^3
#
#
#
# Elastic Constant Matrix: (Units=GPa)
#
#
# Indices 1 2 3 4 5 6 
#
# 1 133.7726 25.3783 28.7588 -0.0005 -6.2399 0.0000
# 2 25.3783 60.0904 31.6870 -0.0002 -5.0455 0.0001
# 3 28.7588 31.6870 99.4812 -0.0005 9.1369 0.0000
# 4 -0.0005 -0.0002 -0.0005 -86.5994 -0.0003 25.8830
# 5 -6.2399 -5.0455 9.1369 -0.0003 39.7232 0.0000
# 6 0.0000 0.0001 0.0000 25.8830 0.0000 -27.4019
#
#
#
# Elastic Compliance Matrix: (Units=1/GPa)
#
#
# Indices 1 2 3 4 5 6 
#
# 1 0.008393 -0.002499 -0.001760 0.000000 0.001406 0.000000
# 2 -0.002499 0.021418 -0.006450 0.000000 0.003811 0.000000
# 3 -0.001760 -0.006450 0.012990 0.000000 -0.004084 0.000000
# 4 0.000000 0.000000 0.000000 -0.016090 0.000000 -0.015198
# 5 0.001406 0.003811 -0.004084 0.000000 0.026818 0.000000
# 6 0.000000 0.000000 0.000000 -0.015198 0.000000 -0.050849
#
#
# Mechanical properties :
#
#
# Convention : Reuss Voigt Hill
#
# Bulk Modulus (GPa) = 46.76140 51.66584 49.21362
# Shear Modulus (GPa) = 160.12303 -1.02095 79.55104
#
# Velocity S-wave (km/s) = 8.79500 -0.70228 6.19914
# Velocity P-wave (km/s) = 11.21273 4.92961 8.66102
#
# Compressibility (1/GPa) = 0.02138516
#
# Stress axis : x y z
#
# Youngs Moduli (GPa) = 119.14274 46.68940 76.98057
#
# Poissons Ratio (x) = 0.11667 0.13545
# Poissons Ratio (y) = 0.29773 0.49651
# Poissons Ratio (z) = 0.20964 0.30114
#
# Static dielectric constant tensor:
#      x y z
#    x 1.986620 0.000000 0.025200 
#    y 0.000000 1.776480 0.000000 
#    z 0.025200 0.000000 1.767510 
# 
# From -- ./inp_files/60525.got.cif
#   From: 2010.05.17/outbox.cif.g08.bks.cpg/sg5_31_cif.got.tgz:60525.got - 2010.06.03 18:56:24.
