data_PCOD9126313
_publ_section_title
;
Structure prediction by ZEFSAII (Michael W. Deem and Ramdas Pophale) SiO2 
 PCOD9126313
Probable space group: C 2
;
_chemical_formula_sum "Si O2"
_cell_formula_units_Z 28
_cell_length_a 14.861817
_cell_length_b 5.251922
_cell_length_c 21.686421
_cell_angle_alpha 90.000000
_cell_angle_beta 46.020009
_cell_angle_gamma 90.000000
_cell_volume 1218.031618
_symmetry_space_group_name_H-M "C 2"
_symmetry_group_IT_number 5
_symmetry_cell_setting 'monoclinic'
loop_
_space_group_symop_operation_xyz
x,y,z
-x,y,-z
1/2+x,1/2+y,z
1/2-x,1/2+y,-z
loop_
_atom_site_type_symbol
_atom_site_label
_atom_site_fract_x
_atom_site_fract_y
_atom_site_fract_z
Si Si1 0.000000 0.213480 0.500000
Si Si2 0.761712 0.900024 0.659934
Si Si3 0.520267 0.111500 0.389416
Si Si4 0.663417 0.086390 0.209724
Si Si5 0.717646 0.361079 0.479905
Si Si6 0.190098 0.585822 0.820619
Si Si7 0.000000 0.331619 0.000000
Si Si8 0.265494 0.616333 0.034269
O O1 0.032663 0.396117 0.541974
O O2 0.870077 0.088551 0.583937
O O3 0.839674 0.672806 0.654241
O O4 0.713804 0.802987 0.617283
O O5 0.681396 0.032105 0.751430
O O6 0.538326 0.052121 0.309271
O O7 0.434124 0.350596 0.447649
O O8 0.758825 0.865768 0.187976
O O9 0.710549 0.373115 0.202476
O O10 0.662713 0.066572 0.136546
O O11 0.758829 0.627993 0.485974
O O12 0.068259 0.509622 0.917167
O O13 0.894323 0.171914 0.012136
O O14 0.267926 0.368701 0.989275
#
# Coordination Sequence:
#
# PCOD9126313 Si02
#       8
#     2   4   4   4   4   4   2   4
#     4  12  16  36  72  90 124 162 238 270 324 386
#     4  11  22  39  65  95 121 175 233 269 318 406
#     4  11  22  39  67  91 123 178 224 270 324 399
#     4  10  22  40  67 101 128 166 224 281 332 401
#     4  12  26  40  57  92 141 174 210 272 340 389
#     4  10  22  39  69  99 129 167 225 283 332 404
#     4  10  24  48  72 102 142 186 224 292 358 402
#     4  11  24  45  72 103 139 181 230 286 348 418
#
# _framework density 22.987908999999998
#
# number of rings (size 3 to 8) (size 9 to 14) (size 15 to 20)
#    0.000    1.143    4.286    2.571    0.000    5.143 
#    5.143    0.000    0.000    0.000    0.000    0.000 
#    0.000    0.000    0.000    0.000    0.000    0.000 
#
# Total GULP energy -78113.235542 kJ/mol
# GULP energy per Si atom -5579.516824 kJ/mol
# Density = 2.293559 g / cm^3
# Si number density = 22.987909 Si / 1000 Ang^3
#
#
#
# Elastic Constant Matrix: (Units=GPa)
#
#
# Indices 1 2 3 4 5 6 
#
# 1 45.9767 13.9575 26.7090 -0.0019 8.1780 0.0172
# 2 13.9575 99.2997 36.3750 -0.0103 7.8587 0.0163
# 3 26.7090 36.3750 238.2169 -0.0030 25.9426 -0.0013
# 4 -0.0019 -0.0103 -0.0030 32.5511 -0.0008 13.0213
# 5 8.1780 7.8587 25.9426 -0.0008 32.7538 -0.0011
# 6 0.0172 0.0163 -0.0013 13.0213 -0.0011 27.8895
#
#
#
# Elastic Compliance Matrix: (Units=1/GPa)
#
#
# Indices 1 2 3 4 5 6 
#
# 1 0.024303 -0.002396 -0.001927 0.000007 -0.003967 -0.000017
# 2 -0.002396 0.010962 -0.001296 0.000006 -0.001006 -0.000008
# 3 -0.001927 -0.001296 0.004953 -0.000001 -0.003131 0.000003
# 4 0.000007 0.000006 -0.000001 0.037776 -0.000002 -0.017637
# 5 -0.003967 -0.001006 -0.003131 -0.000002 0.034242 0.000005
# 6 -0.000017 -0.000008 0.000003 -0.017637 0.000005 0.044090
#
#
# Mechanical properties :
#
#
# Convention : Reuss Voigt Hill
#
# Bulk Modulus (GPa) = 34.50737 59.73070 47.11904
# Shear Modulus (GPa) = 28.21304 39.06900 33.64102
#
# Velocity S-wave (km/s) = 3.50708 4.12703 3.82962
# Velocity P-wave (km/s) = 5.60742 6.98210 6.33218
#
# Compressibility (1/GPa) = 0.02897932
#
# Stress axis : x y z
#
# Youngs Moduli (GPa) = 41.14796 91.22820 201.91020
#
# Poissons Ratio (x) = 0.21860 0.38907
# Poissons Ratio (y) = 0.09860 0.26160
# Poissons Ratio (z) = 0.07929 0.11820
#
# Static dielectric constant tensor:
#      x y z
#    x 2.144180 0.000000 0.052630 
#    y 0.000000 1.869550 0.000000 
#    z 0.052630 0.000000 1.896750 
# 
# From -- ./inp_files/61150.got.cif
#   From: 2010.05.17/outbox.cif.g08.bks.cpg/sg5_31_cif.got.tgz:61150.got - 2010.06.03 18:56:24.
