data_PCOD9126883
_publ_section_title
;
Structure prediction by ZEFSAII (Michael W. Deem and Ramdas Pophale) SiO2 
 PCOD9126883
Probable space group: C 2
;
_chemical_formula_sum "Si O2"
_cell_formula_units_Z 30
_cell_length_a 8.979536
_cell_length_b 33.214491
_cell_length_c 5.260480
_cell_angle_alpha 90.000000
_cell_angle_beta 109.194068
_cell_angle_gamma 90.000000
_cell_volume 1481.725102
_symmetry_space_group_name_H-M "C 2"
_symmetry_group_IT_number 5
_symmetry_cell_setting 'monoclinic'
loop_
_space_group_symop_operation_xyz
x,y,z
-x,y,-z
1/2+x,1/2+y,z
1/2-x,1/2+y,-z
loop_
_atom_site_type_symbol
_atom_site_label
_atom_site_fract_x
_atom_site_fract_y
_atom_site_fract_z
Si Si1 0.891683 0.617130 0.687513
Si Si2 0.188241 0.037445 0.609343
Si Si3 0.500000 0.271344 0.500000
Si Si4 0.840517 0.704661 0.756122
Si Si5 0.396832 0.761115 0.194113
Si Si6 0.106774 0.405756 0.813744
Si Si7 0.330128 0.330185 0.022066
Si Si8 0.310514 0.485800 0.887840
O O1 0.772938 0.580140 0.644189
O O2 0.807418 0.660961 0.622379
O O3 0.000000 0.612766 0.500000
O O4 0.000000 0.615942 0.000000
O O5 0.228721 0.011596 0.383238
O O6 0.000000 0.043260 0.500000
O O7 0.229164 0.011840 0.883904
O O8 0.386980 0.240531 0.589338
O O9 0.384357 0.301938 0.287136
O O10 0.710385 0.721357 0.876197
O O11 0.000000 0.699582 0.000000
O O12 0.500000 0.755506 0.500000
O O13 0.500000 0.767776 0.000000
O O14 0.282478 0.798740 0.184015
O O15 0.214406 0.444547 0.821850
O O16 0.000000 0.396653 0.500000
O O17 0.223088 0.369668 0.968759
O O18 0.000000 0.414083 0.000000
O O19 0.500000 0.340626 0.000000
O O20 0.500000 0.478117 0.000000
#
# Coordination Sequence:
#
# PCOD9126883 Si02
#       8
#     4   4   2   4   4   4   4   4
#     4  11  24  39  66  98 134 172 224 283 327 402
#     4  10  22  42  68  98 136 173 222 271 336 405
#     4  12  20  44  74  90 130 182 242 278 320 402
#     4  11  23  43  65  95 132 181 236 275 335 408
#     4  12  25  41  64  95 131 169 219 287 343 391
#     4  12  28  46  67 103 141 169 218 291 341 395
#     4  12  26  43  69  95 126 185 228 270 333 412
#     4  10  22  45  70  96 130 182 223 263 329 421
#
# _framework density 20.246670999999999
#
# number of rings (size 3 to 8) (size 9 to 14) (size 15 to 20)
#    0.000    0.800    3.333    3.600    1.867    3.733 
#    3.600    2.000    0.000    0.000    0.000    0.000 
#    0.000    0.000    0.000    0.000    0.000    0.000 
#
# Total GULP energy -83744.872048 kJ/mol
# GULP energy per Si atom -5582.991470 kJ/mol
# Density = 2.020059 g / cm^3
# Si number density = 20.246671 Si / 1000 Ang^3
#
#
#
# Elastic Constant Matrix: (Units=GPa)
#
#
# Indices 1 2 3 4 5 6 
#
# 1 64.3672 56.1472 28.2311 0.0000 1.1078 0.0000
# 2 56.1472 185.2271 53.0067 0.0000 6.7033 0.0000
# 3 28.2311 53.0067 92.2293 0.0000 -15.8871 0.0000
# 4 0.0000 0.0000 0.0000 19.8920 0.0000 -9.0230
# 5 1.1078 6.7033 -15.8871 0.0000 25.8178 0.0000
# 6 0.0000 0.0000 0.0000 -9.0230 0.0000 40.6153
#
#
#
# Elastic Compliance Matrix: (Units=1/GPa)
#
#
# Indices 1 2 3 4 5 6 
#
# 1 0.022094 -0.005501 -0.003936 0.000000 -0.001942 0.000000
# 2 -0.005501 0.008319 -0.003835 0.000000 -0.004284 0.000000
# 3 -0.003936 -0.003835 0.016166 0.000000 0.011112 0.000000
# 4 0.000000 0.000000 0.000000 0.055905 0.000000 0.012420
# 5 -0.001942 -0.004284 0.011112 0.000000 0.046767 0.000000
# 6 0.000000 0.000000 0.000000 0.012420 0.000000 0.027380
#
#
# Mechanical properties :
#
#
# Convention : Reuss Voigt Hill
#
# Bulk Modulus (GPa) = 49.91366 68.51039 59.21202
# Shear Modulus (GPa) = 23.82634 30.89424 27.36029
#
# Velocity S-wave (km/s) = 3.43418 3.91050 3.68006
# Velocity P-wave (km/s) = 6.35854 7.36890 6.88229
#
# Compressibility (1/GPa) = 0.02003460
#
# Stress axis : x y z
#
# Youngs Moduli (GPa) = 45.26186 120.21124 61.85936
#
# Poissons Ratio (x) = 0.66122 0.24348
# Poissons Ratio (y) = 0.24896 0.23724
# Poissons Ratio (z) = 0.17815 0.46104
#
# Static dielectric constant tensor:
#      x y z
#    x 1.783750 0.000000 0.097710 
#    y 0.000000 1.724340 0.000000 
#    z 0.097710 0.000000 1.877860 
# 
# From -- ./inp_files/3973.got.cif
#   From: 2010.05.17/outbox.cif.g08.bks.cpg/sg5_2_cif.got.tgz:3973.got - 2010.06.03 18:56:24.
