data_PCOD9126019
_publ_section_title
;
Structure prediction by ZEFSAII (Michael W. Deem and Ramdas Pophale) SiO2 
 PCOD9126019
Probable space group: C 2
;
_chemical_formula_sum "Si O2"
_cell_formula_units_Z 28
_cell_length_a 21.856610
_cell_length_b 10.178823
_cell_length_c 11.270541
_cell_angle_alpha 90.000000
_cell_angle_beta 151.207316
_cell_angle_gamma 90.000000
_cell_volume 1207.672780
_symmetry_space_group_name_H-M "C 2"
_symmetry_group_IT_number 5
_symmetry_cell_setting 'monoclinic'
loop_
_space_group_symop_operation_xyz
x,y,z
-x,y,-z
1/2+x,1/2+y,z
1/2-x,1/2+y,-z
loop_
_atom_site_type_symbol
_atom_site_label
_atom_site_fract_x
_atom_site_fract_y
_atom_site_fract_z
Si Si1 0.346408 0.791540 0.553896
Si Si2 0.467331 0.066188 0.811332
Si Si3 0.061727 0.243587 0.726716
Si Si4 0.505843 0.453909 0.381855
Si Si5 0.908596 0.912709 0.960371
Si Si6 0.284304 0.682060 0.686764
Si Si7 0.795457 0.426743 0.874312
O O1 0.390121 0.928895 0.686922
O O2 0.454355 0.758978 0.644382
O O3 0.210475 0.817311 0.264426
O O4 0.334528 0.686676 0.637774
O O5 0.366485 0.159974 0.577069
O O6 0.500000 0.108015 0.000000
O O7 0.594658 0.033913 0.955689
O O8 0.000000 0.290873 0.500000
O O9 0.176939 0.336875 0.962745
O O10 0.078773 0.086542 0.745742
O O11 0.500000 0.380706 0.500000
O O12 0.655960 0.485733 0.626703
O O13 0.465917 0.391668 0.188664
O O14 0.851569 0.060577 0.863899
O O15 0.000000 0.904120 0.000000
O O16 0.310659 0.818537 0.795939
#
# Coordination Sequence:
#
# PCOD9126019 Si02
#       7
#     4   4   4   4   4   4   4
#     4  10  22  38  63  93 129 168 211 270 323 379
#     4  10  22  37  60  97 127 160 212 256 318 389
#     4  10  23  43  65  88 123 178 217 259 324 381
#     4  11  25  44  67  97 129 173 218 269 323 389
#     4  11  23  39  64  99 130 165 222 268 323 393
#     4  11  22  38  66  93 131 168 208 268 329 379
#     4  11  23  44  65  90 132 166 209 268 316 389
#
# _framework density 23.185085999999998
#
# number of rings (size 3 to 8) (size 9 to 14) (size 15 to 20)
#    0.000    1.429    2.857    1.714    8.000    1.714 
#    0.000    0.000    0.000    0.000    0.000    0.000 
#    0.000    0.000    0.000    0.000    0.000    0.000 
#
# Total GULP energy -78298.151587 kJ/mol
# GULP energy per Si atom -5592.725113 kJ/mol
# Density = 2.313232 g / cm^3
# Si number density = 23.185086 Si / 1000 Ang^3
#
#
#
# Elastic Constant Matrix: (Units=GPa)
#
#
# Indices 1 2 3 4 5 6 
#
# 1 85.0014 7.4187 39.0039 0.0000 -31.3141 0.0000
# 2 7.4187 61.2512 13.7311 0.0000 -8.4891 0.0000
# 3 39.0039 13.7311 140.7836 0.0000 -20.5467 0.0000
# 4 0.0000 0.0000 0.0000 20.5640 0.0000 16.6590
# 5 -31.3141 -8.4891 -20.5467 0.0000 38.9676 0.0000
# 6 0.0000 0.0000 0.0000 16.6590 0.0000 4.2180
#
#
#
# Elastic Compliance Matrix: (Units=1/GPa)
#
#
# Indices 1 2 3 4 5 6 
#
# 1 0.017880 0.000306 -0.003117 0.000000 0.012792 0.000000
# 2 0.000306 0.017029 -0.001266 0.000000 0.003288 0.000000
# 3 -0.003117 -0.001266 0.008325 0.000000 0.001609 0.000000
# 4 0.000000 0.000000 0.000000 -0.022109 0.000000 0.087319
# 5 0.012792 0.003288 0.001609 0.000000 0.037507 0.000000
# 6 0.000000 0.000000 0.000000 0.087319 0.000000 -0.107788
#
#
# Mechanical properties :
#
#
# Convention : Reuss Voigt Hill
#
# Bulk Modulus (GPa) = 28.50548 45.26038 36.88293
# Shear Modulus (GPa) = -170.59414 27.87541 -71.35936
#
# Velocity S-wave (km/s) = -8.58714 3.47118 -5.55382
# Velocity P-wave (km/s) = 9.27347 5.96902 5.01837
#
# Compressibility (1/GPa) = 0.03508097
#
# Stress axis : x y z
#
# Youngs Moduli (GPa) = 55.92719 58.72462 120.12192
#
# Poissons Ratio (x) = -0.01796 0.37438
# Poissons Ratio (y) = -0.01711 0.15204
# Poissons Ratio (z) = 0.17431 0.07433
#
# Static dielectric constant tensor:
#      x y z
#    x 1.856800 0.000000 -0.017790 
#    y 0.000000 1.887430 0.000000 
#    z -0.017790 0.000000 1.872740 
# 
# From -- ./inp_files/46437.got.cif
#   From: 2010.05.17/outbox.cif.g08.bks.cpg/sg5_24_cif.got.tgz:46437.got - 2010.06.03 18:56:24.
