data_PCOD9126475
_publ_section_title
;
Structure prediction by ZEFSAII (Michael W. Deem and Ramdas Pophale) SiO2 
 PCOD9126475
Probable space group: C 2
;
_chemical_formula_sum "Si O2"
_cell_formula_units_Z 22
_cell_length_a 5.061024
_cell_length_b 13.209698
_cell_length_c 15.613735
_cell_angle_alpha 90.000000
_cell_angle_beta 103.254257
_cell_angle_gamma 90.000000
_cell_volume 1016.044147
_symmetry_space_group_name_H-M "C 2"
_symmetry_group_IT_number 5
_symmetry_cell_setting 'monoclinic'
loop_
_space_group_symop_operation_xyz
x,y,z
-x,y,-z
1/2+x,1/2+y,z
1/2-x,1/2+y,-z
loop_
_atom_site_type_symbol
_atom_site_label
_atom_site_fract_x
_atom_site_fract_y
_atom_site_fract_z
Si Si1 0.730278 0.720220 0.418333
Si Si2 0.500000 0.544129 0.500000
Si Si3 0.000000 0.396226 0.500000
Si Si4 0.746340 0.833454 0.859090
Si Si5 0.291386 0.242410 0.227203
Si Si6 0.500000 0.187281 0.000000
Si Si7 0.691016 0.566355 0.096852
O O1 0.540586 0.623472 0.424865
O O2 0.538534 0.816475 0.425090
O O3 0.835915 0.723655 0.330030
O O4 0.000000 0.719940 0.500000
O O5 0.750138 0.470089 0.500402
O O6 0.442231 0.825442 0.803249
O O7 0.777566 0.768136 0.949206
O O8 0.949971 0.782859 0.805742
O O9 0.818185 0.949738 0.880789
O O10 0.164101 0.140713 0.175252
O O11 0.532955 0.109906 0.923939
O O12 0.500000 0.584283 0.000000
#
# Coordination Sequence:
#
# PCOD9126475 Si02
#       7
#     4   2   2   4   4   2   4
#     4  11  26  47  75 104 144 190 238 295 356 419
#     4  11  24  45  76 102 134 181 238 293 356 428
#     4  11  24  43  72 104 134 187 234 289 360 418
#     4  11  25  42  67 102 134 184 227 284 340 410
#     4  11  28  44  67 103 143 172 237 285 340 409
#     4  10  22  40  68  94 138 178 232 274 342 412
#     4  11  23  42  70  96 137 183 225 281 348 409
#
# _framework density 21.652601000000001
#
# number of rings (size 3 to 8) (size 9 to 14) (size 15 to 20)
#    0.000    1.091    4.545    0.000    7.636    2.909 
#    0.000    0.000    0.000    0.000    0.000    0.000 
#    0.000    0.000    0.000    0.000    0.000    0.000 
#
# Total GULP energy -61274.561238 kJ/mol
# GULP energy per Si atom -5570.414658 kJ/mol
# Density = 2.160332 g / cm^3
# Si number density = 21.652601 Si / 1000 Ang^3
#
#
#
# Elastic Constant Matrix: (Units=GPa)
#
#
# Indices 1 2 3 4 5 6 
#
# 1 97.9237 20.0832 16.2522 0.0000 -20.5055 0.0000
# 2 20.0832 163.6515 36.8291 0.0000 -28.0786 0.0000
# 3 16.2522 36.8291 128.2272 0.0000 -13.9649 0.0000
# 4 0.0000 0.0000 0.0000 7.5633 0.0000 -7.8029
# 5 -20.5055 -28.0786 -13.9649 0.0000 30.3367 0.0000
# 6 0.0000 0.0000 0.0000 -7.8029 0.0000 28.1424
#
#
#
# Elastic Compliance Matrix: (Units=1/GPa)
#
#
# Indices 1 2 3 4 5 6 
#
# 1 0.011950 0.000021 -0.000673 0.000000 0.007787 0.000000
# 2 0.000021 0.007520 -0.001477 0.000000 0.006295 0.000000
# 3 -0.000673 -0.001477 0.008538 0.000000 0.002108 0.000000
# 4 0.000000 0.000000 0.000000 0.185192 0.000000 0.051347
# 5 0.007787 0.006295 0.002108 0.000000 0.045024 0.000000
# 6 0.000000 0.000000 0.000000 0.051347 0.000000 0.049770
#
#
# Mechanical properties :
#
#
# Convention : Reuss Voigt Hill
#
# Bulk Modulus (GPa) = 42.10381 59.57014 50.83698
# Shear Modulus (GPa) = 15.61680 34.31767 24.96723
#
# Velocity S-wave (km/s) = 2.68851 3.98543 3.39939
# Velocity P-wave (km/s) = 5.39674 6.98210 6.23997
#
# Compressibility (1/GPa) = 0.02375082
#
# Stress axis : x y z
#
# Youngs Moduli (GPa) = 83.68189 132.97107 117.12657
#
# Poissons Ratio (x) = -0.00278 0.07877
# Poissons Ratio (y) = -0.00175 0.17301
# Poissons Ratio (z) = 0.05628 0.19641
#
# Static dielectric constant tensor:
#      x y z
#    x 1.947400 0.000000 -0.014710 
#    y 0.000000 1.776010 0.000000 
#    z -0.014710 0.000000 1.817300 
# 
# From -- ./inp_files/48718.got.cif
#   From: 2010.05.17/outbox.cif.g08.bks.cpg/sg5_25_cif.got.tgz:48718.got - 2010.06.03 18:56:24.
