data_PCOD9126309
_publ_section_title
;
Structure prediction by ZEFSAII (Michael W. Deem and Ramdas Pophale) SiO2 
 PCOD9126309
Probable space group: C 2
;
_chemical_formula_sum "Si O2"
_cell_formula_units_Z 26
_cell_length_a 12.009394
_cell_length_b 10.087432
_cell_length_c 17.561601
_cell_angle_alpha 90.000000
_cell_angle_beta 33.852344
_cell_angle_gamma 90.000000
_cell_volume 1185.123323
_symmetry_space_group_name_H-M "C 2"
_symmetry_group_IT_number 5
_symmetry_cell_setting 'monoclinic'
loop_
_space_group_symop_operation_xyz
x,y,z
-x,y,-z
1/2+x,1/2+y,z
1/2-x,1/2+y,-z
loop_
_atom_site_type_symbol
_atom_site_label
_atom_site_fract_x
_atom_site_fract_y
_atom_site_fract_z
Si Si1 0.174901 0.126030 0.462841
Si Si2 0.109944 0.191940 0.856890
Si Si3 0.926953 0.445657 0.228857
Si Si4 0.334501 0.570606 0.749655
Si Si5 0.449070 0.295294 0.747625
Si Si6 0.886701 0.924528 0.943392
Si Si7 0.500000 0.220090 0.000000
O O1 0.329590 0.244144 0.365596
O O2 0.000000 0.122994 0.500000
O O3 0.037566 0.147090 0.615195
O O4 0.302702 0.990713 0.374208
O O5 0.105423 0.304062 0.793961
O O6 0.332392 0.183272 0.765599
O O7 0.012204 0.060182 0.877977
O O8 0.000000 0.231402 0.000000
O O9 0.834960 0.550218 0.219472
O O10 0.165299 0.456839 0.100810
O O11 0.420407 0.425406 0.713946
O O12 0.200975 0.633442 0.891452
O O13 0.363288 0.348887 0.876468
O O14 0.005302 0.819073 0.926642
#
# Coordination Sequence:
#
# PCOD9126309 Si02
#       7
#     4   4   4   4   4   4   2
#     4  10  22  45  68  94 136 189 229 288 358 424
#     4  11  22  41  63 104 142 180 234 291 347 421
#     4  10  22  39  69  93 135 184 226 280 362 406
#     4  10  24  44  68  96 133 185 236 281 368 429
#     4  11  24  44  67  96 144 184 226 307 351 411
#     4  12  24  39  68 105 139 178 234 297 348 410
#     4  12  26  40  66 104 130 178 240 282 358 432
#
# _framework density 21.938645999999999
#
# number of rings (size 3 to 8) (size 9 to 14) (size 15 to 20)
#    0.000    1.231    2.308    3.692    6.462    1.231 
#    2.769    0.000    0.000    0.000    0.000    0.000 
#    0.000    0.000    0.000    0.000    0.000    0.000 
#
# Total GULP energy -72417.678294 kJ/mol
# GULP energy per Si atom -5570.590638 kJ/mol
# Density = 2.188871 g / cm^3
# Si number density = 21.938646 Si / 1000 Ang^3
#
#
#
# Elastic Constant Matrix: (Units=GPa)
#
#
# Indices 1 2 3 4 5 6 
#
# 1 47.8279 36.1814 12.7162 -0.0001 -23.6989 0.0000
# 2 36.1814 116.3614 51.0572 -0.0001 -20.4651 0.0000
# 3 12.7162 51.0572 126.3948 -0.0007 -26.6924 0.0001
# 4 -0.0001 -0.0001 -0.0007 30.5474 0.0002 -2.4065
# 5 -23.6989 -20.4651 -26.6924 0.0002 31.4565 0.0000
# 6 0.0000 0.0000 0.0001 -2.4065 0.0000 17.4667
#
#
#
# Elastic Compliance Matrix: (Units=1/GPa)
#
#
# Indices 1 2 3 4 5 6 
#
# 1 0.042336 -0.010647 0.006475 0.000000 0.030462 0.000000
# 2 -0.010647 0.013535 -0.005154 0.000000 -0.003590 0.000000
# 3 0.006475 -0.005154 0.011774 0.000000 0.011516 0.000000
# 4 0.000000 0.000000 0.000000 0.033095 0.000000 0.004560
# 5 0.030462 -0.003590 0.011516 0.000000 0.062176 0.000000
# 6 0.000000 0.000000 0.000000 0.004560 0.000000 0.057880
#
#
# Mechanical properties :
#
#
# Convention : Reuss Voigt Hill
#
# Bulk Modulus (GPa) = 20.41176 54.49931 37.45553
# Shear Modulus (GPa) = 19.54802 28.60274 24.07538
#
# Velocity S-wave (km/s) = 2.98825 3.61468 3.31629
# Velocity P-wave (km/s) = 4.60765 6.50514 5.63681
#
# Compressibility (1/GPa) = 0.04899137
#
# Stress axis : x y z
#
# Youngs Moduli (GPa) = 23.62073 73.88324 84.93055
#
# Poissons Ratio (x) = 0.78666 -0.54991
# Poissons Ratio (y) = 0.25150 0.43776
# Poissons Ratio (z) = -0.15294 0.38082
#
# Static dielectric constant tensor:
#      x y z
#    x 1.845460 0.000000 0.067810 
#    y 0.000000 1.806640 0.000000 
#    z 0.067810 0.000000 1.937230 
# 
# From -- ./inp_files/65855.got.cif
#   From: 2010.05.17/outbox.cif.g08.bks.cpg/sg5_33_cif.got.tgz:65855.got - 2010.06.03 18:56:24.
