data_PCOD9126181
_publ_section_title
;
Structure prediction by ZEFSAII (Michael W. Deem and Ramdas Pophale) SiO2 
 PCOD9126181
Probable space group: C 2
;
_chemical_formula_sum "Si O2"
_cell_formula_units_Z 24
_cell_length_a 13.180545
_cell_length_b 6.549955
_cell_length_c 11.874876
_cell_angle_alpha 90.000000
_cell_angle_beta 99.917256
_cell_angle_gamma 90.000000
_cell_volume 1009.862743
_symmetry_space_group_name_H-M "C 2"
_symmetry_group_IT_number 5
_symmetry_cell_setting 'monoclinic'
loop_
_space_group_symop_operation_xyz
x,y,z
-x,y,-z
1/2+x,1/2+y,z
1/2-x,1/2+y,-z
loop_
_atom_site_type_symbol
_atom_site_label
_atom_site_fract_x
_atom_site_fract_y
_atom_site_fract_z
Si Si1 0.876548 0.943890 0.117938
Si Si2 0.238781 0.679293 0.749614
Si Si3 0.615318 0.663350 0.426122
Si Si4 0.585333 0.903085 0.646008
Si Si5 0.159265 0.312876 0.022315
Si Si6 0.500000 0.284844 0.500000
Si Si7 0.000000 0.665186 0.000000
O O1 0.831285 0.877506 0.230070
O O2 0.777904 0.872991 0.022795
O O3 0.972839 0.808336 0.100350
O O4 0.890931 0.174735 0.083420
O O5 0.171688 0.473210 0.750102
O O6 0.329681 0.689641 0.858546
O O7 0.288201 0.679235 0.636681
O O8 0.630771 0.786810 0.545485
O O9 0.515975 0.770927 0.346996
O O10 0.580289 0.436360 0.454266
O O11 0.548327 0.126026 0.596969
O O12 0.095365 0.514660 0.033408
#
# Coordination Sequence:
#
# PCOD9126181 Si02
#       7
#     4   4   4   4   4   2   2
#     4  10  22  43  63  94 128 164 217 263 317 381
#     4  10  22  38  68  94 118 168 212 250 324 374
#     4   9  20  40  60  91 130 160 207 258 307 374
#     4   9  20  40  60  91 130 160 207 258 307 374
#     4  10  22  43  63  94 128 164 217 263 317 381
#     4   8  18  40  60  86 132 164 198 260 312 362
#     4  12  22  44  72  84 138 168 202 284 320 364
#
# _framework density 23.765605000000001
#
# number of rings (size 3 to 8) (size 9 to 14) (size 15 to 20)
#    1.000    1.667    1.667    0.500    4.667    0.000 
#    6.000   10.000    0.000    0.000    0.000    0.000 
#    0.000    0.000    0.000    0.000    0.000    0.000 
#
# Total GULP energy -66946.114885 kJ/mol
# GULP energy per Si atom -5578.842907 kJ/mol
# Density = 2.371151 g / cm^3
# Si number density = 23.765605 Si / 1000 Ang^3
#
#
#
# Elastic Constant Matrix: (Units=GPa)
#
#
# Indices 1 2 3 4 5 6 
#
# 1 75.7409 40.8372 13.7976 0.0000 -24.3339 0.0000
# 2 40.8372 122.1152 30.9660 0.0000 -12.7265 0.0000
# 3 13.7976 30.9660 40.1761 0.0000 -12.8736 0.0000
# 4 0.0000 0.0000 0.0000 23.2740 0.0000 -1.2850
# 5 -24.3339 -12.7265 -12.8736 0.0000 39.1780 0.0000
# 6 0.0000 0.0000 0.0000 -1.2850 0.0000 32.8369
#
#
#
# Elastic Compliance Matrix: (Units=1/GPa)
#
#
# Indices 1 2 3 4 5 6 
#
# 1 0.019478 -0.005685 0.001092 0.000000 0.010610 0.000000
# 2 -0.005685 0.011861 -0.007920 0.000000 -0.002281 0.000000
# 3 0.001092 -0.007920 0.033545 0.000000 0.009128 0.000000
# 4 0.000000 0.000000 0.000000 0.043059 0.000000 0.001685
# 5 0.010610 -0.002281 0.009128 0.000000 0.034373 0.000000
# 6 0.000000 0.000000 0.000000 0.001685 0.000000 0.030520
#
#
# Mechanical properties :
#
#
# Convention : Reuss Voigt Hill
#
# Bulk Modulus (GPa) = 25.08926 45.47044 35.27985
# Shear Modulus (GPa) = 23.68013 29.21987 26.45000
#
# Velocity S-wave (km/s) = 3.16001 3.51023 3.33971
# Velocity P-wave (km/s) = 4.88816 5.96686 5.45424
#
# Compressibility (1/GPa) = 0.03985770
#
# Stress axis : x y z
#
# Youngs Moduli (GPa) = 51.34028 84.31094 29.81086
#
# Poissons Ratio (x) = 0.47930 -0.03256
# Poissons Ratio (y) = 0.29187 0.23611
# Poissons Ratio (z) = -0.05608 0.66777
#
# Static dielectric constant tensor:
#      x y z
#    x 1.949650 0.000000 0.086000 
#    y 0.000000 1.913690 0.000000 
#    z 0.086000 0.000000 2.001520 
# 
# From -- ./inp_files/53680.got.cif
#   From: 2010.05.17/outbox.cif.g08.bks.cpg/sg5_27_cif.got.tgz:53680.got - 2010.06.03 18:56:24.
