data_PCOD9126654
_publ_section_title
;
Structure prediction by ZEFSAII (Michael W. Deem and Ramdas Pophale) SiO2 
 PCOD9126654
Probable space group: C 2
;
_chemical_formula_sum "Si O2"
_cell_formula_units_Z 26
_cell_length_a 7.345524
_cell_length_b 6.973549
_cell_length_c 16.901239
_cell_angle_alpha 90.000000
_cell_angle_beta 88.400611
_cell_angle_gamma 90.000000
_cell_volume 865.418059
_symmetry_space_group_name_H-M "C 2"
_symmetry_group_IT_number 5
_symmetry_cell_setting 'monoclinic'
loop_
_space_group_symop_operation_xyz
x,y,z
-x,y,-z
1/2+x,1/2+y,z
1/2-x,1/2+y,-z
loop_
_atom_site_type_symbol
_atom_site_label
_atom_site_fract_x
_atom_site_fract_y
_atom_site_fract_z
Si Si1 0.750627 0.455840 0.130462
Si Si2 0.322313 0.402071 0.098845
Si Si3 0.019850 0.962851 0.750971
Si Si4 0.000000 0.398234 0.000000
Si Si5 0.578675 0.914380 0.245469
Si Si6 0.980093 0.024701 0.585874
Si Si7 0.565847 0.962200 0.586759
O O1 0.777456 0.679590 0.096737
O O2 0.642127 0.347495 0.210153
O O3 0.924436 0.502540 0.195939
O O4 0.871318 0.315978 0.071377
O O5 0.531944 0.445609 0.091453
O O6 0.285787 0.441422 0.202027
O O7 0.158629 0.491091 0.052670
O O8 0.053291 0.911227 0.660235
O O9 0.957104 0.184497 0.752321
O O10 0.562818 0.990210 0.335357
O O11 0.764442 0.046021 0.600736
O O12 0.000000 0.932499 0.500000
O O13 0.079420 0.229367 0.581660
O O14 0.500000 0.018503 0.500000
#
# Coordination Sequence:
#
# PCOD9126654 Si02
#       7
#     4   4   4   2   4   4   4
#     4  11  21  44  64  90 135 173 224 303 358 444
#     4   9  23  41  64  94 128 173 228 289 361 444
#     4  10  22  41  67  99 131 184 235 284 372 433
#     4  10  24  42  60  98 128 166 236 290 368 452
#     4   9  21  41  61 101 131 175 238 287 354 442
#     4  11  24  44  71 111 146 202 247 312 377 452
#     4  11  23  43  73 104 155 191 251 316 375 450
#
# _framework density 30.043279999999999
#
# number of rings (size 3 to 8) (size 9 to 14) (size 15 to 20)
#    0.923    0.923    1.538    1.846    0.000    4.308 
#    5.538    9.231    0.000    0.000    0.000    0.000 
#    0.000    0.000    0.000    0.000    0.000    0.000 
#
# Total GULP energy -72498.283641 kJ/mol
# GULP energy per Si atom -5576.791049 kJ/mol
# Density = 2.997490 g / cm^3
# Si number density = 30.043280 Si / 1000 Ang^3
#
#
#
# Elastic Constant Matrix: (Units=GPa)
#
#
# Indices 1 2 3 4 5 6 
#
# 1 310.3222 53.5499 104.3543 0.0000 2.1722 0.0000
# 2 53.5499 136.9967 -0.6091 0.0000 9.1859 0.0000
# 3 104.3543 -0.6091 274.9835 0.0000 -0.2072 0.0000
# 4 0.0000 0.0000 0.0000 15.8308 0.0000 10.3388
# 5 2.1722 9.1859 -0.2072 0.0000 57.8254 0.0000
# 6 0.0000 0.0000 0.0000 10.3388 0.0000 39.8305
#
#
#
# Elastic Compliance Matrix: (Units=1/GPa)
#
#
# Indices 1 2 3 4 5 6 
#
# 1 0.004007 -0.001579 -0.001524 0.000000 0.000095 0.000000
# 2 -0.001579 0.008001 0.000616 0.000000 -0.001209 0.000000
# 3 -0.001524 0.000616 0.004216 0.000000 -0.000026 0.000000
# 4 0.000000 0.000000 0.000000 0.076062 0.000000 -0.019744
# 5 0.000095 -0.001209 -0.000026 0.000000 0.017482 0.000000
# 6 0.000000 0.000000 0.000000 -0.019744 0.000000 0.030231
#
#
# Mechanical properties :
#
#
# Convention : Reuss Voigt Hill
#
# Bulk Modulus (GPa) = 88.89388 115.21029 102.05209
# Shear Modulus (GPa) = 33.61948 60.36450 46.99199
#
# Velocity S-wave (km/s) = 3.34883 4.48733 3.95922
# Velocity P-wave (km/s) = 6.67875 8.07958 7.41233
#
# Compressibility (1/GPa) = 0.01124937
#
# Stress axis : x y z
#
# Youngs Moduli (GPa) = 249.57527 124.99035 237.17658
#
# Poissons Ratio (x) = 0.19740 0.36145
# Poissons Ratio (y) = 0.39416 -0.14614
# Poissons Ratio (z) = 0.38035 -0.07701
#
# Static dielectric constant tensor:
#      x y z
#    x 2.326000 0.000000 0.002240 
#    y 0.000000 2.471200 0.000000 
#    z 0.002240 0.000000 3.395230 
# 
# From -- ./inp_files/59358.got.cif
#   From: 2010.05.17/outbox.cif.g08.bks.cpg/sg5_30_cif.got.tgz:59358.got - 2010.06.03 18:56:24.
