data_PCOD9126389
_publ_section_title
;
Structure prediction by ZEFSAII (Michael W. Deem and Ramdas Pophale) SiO2 
 PCOD9126389
Probable space group: C 2
;
_chemical_formula_sum "Si O2"
_cell_formula_units_Z 14
_cell_length_a 18.004470
_cell_length_b 5.418639
_cell_length_c 6.842003
_cell_angle_alpha 90.000000
_cell_angle_beta 131.746865
_cell_angle_gamma 90.000000
_cell_volume 498.020541
_symmetry_space_group_name_H-M "C 2"
_symmetry_group_IT_number 5
_symmetry_cell_setting 'monoclinic'
loop_
_space_group_symop_operation_xyz
x,y,z
-x,y,-z
1/2+x,1/2+y,z
1/2-x,1/2+y,-z
loop_
_atom_site_type_symbol
_atom_site_label
_atom_site_fract_x
_atom_site_fract_y
_atom_site_fract_z
Si Si1 0.000000 0.477670 0.000000
Si Si2 0.159176 0.776410 0.815360
Si Si3 0.612998 0.776320 0.831442
Si Si4 0.195534 0.754381 0.346563
O O1 0.088336 0.655767 0.232422
O O2 0.951683 0.312759 0.087816
O O3 0.267944 0.774200 0.910921
O O4 0.178438 0.775259 0.083669
O O5 0.105183 0.520271 0.686261
O O6 0.103089 0.030702 0.686640
O O7 0.269773 0.524303 0.520885
#
# Coordination Sequence:
#
# PCOD9126389 Si02
#       4
#     2   4   4   4
#     4  10  22  40  64  88 116 154 198 242 288 346
#     4   9  18  35  56  85 117 151 190 237 290 343
#     4   9  18  33  60  85 112 153 193 234 291 343
#     4  11  23  38  61  89 119 154 195 241 290 345
#
# _framework density 28.111293
#
# number of rings (size 3 to 8) (size 9 to 14) (size 15 to 20)
#    0.000    2.286    0.000    3.429    0.000   10.286 
#    0.000    1.429    0.000   17.143    0.000    0.000 
#    0.000    0.000    0.000    0.000    0.000    0.000 
#
# Total GULP energy -39202.261389 kJ/mol
# GULP energy per Si atom -5600.323056 kJ/mol
# Density = 2.804731 g / cm^3
# Si number density = 28.111293 Si / 1000 Ang^3
#
#
#
# Elastic Constant Matrix: (Units=GPa)
#
#
# Indices 1 2 3 4 5 6 
#
# 1 214.0219 47.2008 39.1696 0.0000 22.7530 0.0000
# 2 47.2008 261.4361 29.0090 0.0000 17.7084 0.0000
# 3 39.1696 29.0090 102.5097 0.0000 30.3012 0.0000
# 4 0.0000 0.0000 0.0000 -27.3014 0.0000 -14.5006
# 5 22.7530 17.7084 30.3012 0.0000 71.8657 0.0000
# 6 0.0000 0.0000 0.0000 -14.5006 0.0000 41.2606
#
#
#
# Elastic Compliance Matrix: (Units=1/GPa)
#
#
# Indices 1 2 3 4 5 6 
#
# 1 0.005199 -0.000712 -0.001543 0.000000 -0.000820 0.000000
# 2 -0.000712 0.004067 -0.000742 0.000000 -0.000464 0.000000
# 3 -0.001543 -0.000742 0.011831 0.000000 -0.004317 0.000000
# 4 0.000000 0.000000 0.000000 -0.030867 0.000000 -0.010848
# 5 -0.000820 -0.000464 -0.004317 0.000000 0.016109 0.000000
# 6 0.000000 0.000000 0.000000 -0.010848 0.000000 0.020424
#
#
# Mechanical properties :
#
#
# Convention : Reuss Voigt Hill
#
# Bulk Modulus (GPa) = 66.20698 89.85851 78.03275
# Shear Modulus (GPa) = 132.30759 48.00420 90.15589
#
# Velocity S-wave (km/s) = 6.86788 4.13685 5.66928
# Velocity P-wave (km/s) = 9.30018 7.40626 8.40672
#
# Compressibility (1/GPa) = 0.01510415
#
# Stress axis : x y z
#
# Youngs Moduli (GPa) = 192.34655 245.86324 84.52632
#
# Poissons Ratio (x) = 0.17503 0.13040
# Poissons Ratio (y) = 0.13693 0.06270
# Poissons Ratio (z) = 0.29673 0.18238
#
# Static dielectric constant tensor:
#      x y z
#    x 2.166550 0.000000 -0.025630 
#    y 0.000000 2.285110 0.000000 
#    z -0.025630 0.000000 2.176940 
# 
# From -- ./inp_files/17753.got.cif
#   From: 2010.05.17/outbox.cif.g08.bks.cpg/sg5_9_cif.got.tgz:17753.got - 2010.06.03 18:56:24.
