data_PCOD9126416
_publ_section_title
;
Structure prediction by ZEFSAII (Michael W. Deem and Ramdas Pophale) SiO2 
 PCOD9126416
Probable space group: C 2
;
_chemical_formula_sum "Si O2"
_cell_formula_units_Z 20
_cell_length_a 20.555933
_cell_length_b 6.987736
_cell_length_c 15.361047
_cell_angle_alpha 90.000000
_cell_angle_beta 19.593979
_cell_angle_gamma 90.000000
_cell_volume 739.939378
_symmetry_space_group_name_H-M "C 2"
_symmetry_group_IT_number 5
_symmetry_cell_setting 'monoclinic'
loop_
_space_group_symop_operation_xyz
x,y,z
-x,y,-z
1/2+x,1/2+y,z
1/2-x,1/2+y,-z
loop_
_atom_site_type_symbol
_atom_site_label
_atom_site_fract_x
_atom_site_fract_y
_atom_site_fract_z
Si Si1 0.186536 0.095130 0.155074
Si Si2 0.507452 0.976614 0.623409
Si Si3 0.883675 0.030330 0.061586
Si Si4 0.390698 0.627931 0.393868
Si Si5 0.036798 0.575071 0.051216
O O1 0.284120 0.000493 0.116256
O O2 0.359671 0.101655 0.865846
O O3 0.121577 0.310995 0.258908
O O4 0.001063 0.018675 0.334674
O O5 0.660734 0.070875 0.366810
O O6 0.623063 0.839611 0.546401
O O7 0.000000 0.094581 0.000000
O O8 0.916438 0.801298 0.013996
O O9 0.973416 0.118379 0.861343
O O10 0.178046 0.556839 0.638323
O O11 0.000000 0.506076 0.000000
#
# Coordination Sequence:
#
# PCOD9126416 Si02
#       5
#     4   4   4   4   4
#     4  10  22  40  65  97 137 172 230 285 327 414
#     4  10  22  43  68  98 134 178 228 275 344 397
#     4  11  20  41  72  98 133 187 225 272 350 405
#     4  10  23  38  66 101 130 177 230 273 333 408
#     4  11  21  38  66  97 130 181 224 276 337 403
#
# _framework density 27.029239
#
# number of rings (size 3 to 8) (size 9 to 14) (size 15 to 20)
#    1.200    0.400    4.000    2.400    0.000    5.600 
#    0.000    1.000   22.000    0.000    0.000    0.000 
#    0.000    0.000    0.000    0.000    0.000    0.000 
#
# Total GULP energy -55898.573472 kJ/mol
# GULP energy per Si atom -5589.857347 kJ/mol
# Density = 2.696772 g / cm^3
# Si number density = 27.029239 Si / 1000 Ang^3
#
#
#
# Elastic Constant Matrix: (Units=GPa)
#
#
# Indices 1 2 3 4 5 6 
#
# 1 232.2321 7.5746 58.0429 -0.0006 -22.9915 0.0002
# 2 7.5746 76.0801 9.0906 -0.0008 2.6837 0.0005
# 3 58.0429 9.0906 173.7845 -0.0007 13.5861 0.0007
# 4 -0.0006 -0.0008 -0.0007 31.6382 0.0007 8.7813
# 5 -22.9915 2.6837 13.5861 0.0007 58.0437 -0.0004
# 6 0.0002 0.0005 0.0007 8.7813 -0.0004 3.8788
#
#
#
# Elastic Compliance Matrix: (Units=1/GPa)
#
#
# Indices 1 2 3 4 5 6 
#
# 1 0.005021 -0.000365 -0.001849 0.000000 0.002439 0.000001
# 2 -0.000365 0.013265 -0.000522 0.000002 -0.000636 -0.000006
# 3 -0.001849 -0.000522 0.006575 0.000001 -0.002247 -0.000004
# 4 0.000000 0.000002 0.000001 0.085047 -0.000003 -0.192541
# 5 0.002439 -0.000636 -0.002247 -0.000003 0.018750 0.000008
# 6 0.000001 -0.000006 -0.000004 -0.192541 0.000008 0.693711
#
#
# Mechanical properties :
#
#
# Convention : Reuss Voigt Hill
#
# Bulk Modulus (GPa) = 51.57485 70.16811 60.87148
# Shear Modulus (GPa) = 5.99302 45.87137 25.93220
#
# Velocity S-wave (km/s) = 1.49065 4.12406 3.10080
# Velocity P-wave (km/s) = 4.69950 6.97808 5.94890
#
# Compressibility (1/GPa) = 0.01938930
#
# Stress axis : x y z
#
# Youngs Moduli (GPa) = 199.14687 75.38515 152.09852
#
# Poissons Ratio (x) = 0.02752 0.28118
# Poissons Ratio (y) = 0.07270 0.07944
# Poissons Ratio (z) = 0.36816 0.03937
#
# Static dielectric constant tensor:
#      x y z
#    x 2.157880 0.000000 -0.025810 
#    y 0.000000 2.092080 0.000000 
#    z -0.025810 0.000000 2.070020 
# 
# From -- ./inp_files/56973.got.cif
#   From: 2010.05.17/outbox.cif.g08.bks.cpg/sg5_29_cif.got.tgz:56973.got - 2010.06.03 18:56:24.
