data_PCOD9126972
_publ_section_title
;
Structure prediction by ZEFSAII (Michael W. Deem and Ramdas Pophale) SiO2 
 PCOD9126972
Probable space group: C 2
;
_chemical_formula_sum "Si O2"
_cell_formula_units_Z 24
_cell_length_a 22.483292
_cell_length_b 5.002422
_cell_length_c 8.326904
_cell_angle_alpha 90.000000
_cell_angle_beta 80.102069
_cell_angle_gamma 90.000000
_cell_volume 922.594692
_symmetry_space_group_name_H-M "C 2"
_symmetry_group_IT_number 5
_symmetry_cell_setting 'monoclinic'
loop_
_space_group_symop_operation_xyz
x,y,z
-x,y,-z
1/2+x,1/2+y,z
1/2-x,1/2+y,-z
loop_
_atom_site_type_symbol
_atom_site_label
_atom_site_fract_x
_atom_site_fract_y
_atom_site_fract_z
Si Si1 0.576738 0.907280 0.232466
Si Si2 0.880535 0.076160 0.499306
Si Si3 0.374224 0.960553 0.197827
Si Si4 0.187531 0.749504 0.233445
Si Si5 0.000000 0.768162 0.500000
Si Si6 0.500000 0.879290 0.000000
Si Si7 0.196965 0.969507 0.892165
O O1 0.610184 0.712848 0.334270
O O2 0.537320 0.742222 0.123511
O O3 0.628453 0.123952 0.173680
O O4 0.529170 0.078764 0.354801
O O5 0.871452 0.306056 0.371003
O O6 0.829946 0.865044 0.582725
O O7 0.945288 0.932957 0.444352
O O8 0.443223 0.024292 0.112274
O O9 0.346642 0.725855 0.100092
O O10 0.335307 0.225679 0.186842
O O11 0.240962 0.537512 0.226673
O O12 0.210899 0.933049 0.075246
#
# Coordination Sequence:
#
# PCOD9126972 Si02
#       7
#     4   4   4   4   2   2   4
#     4  11  24  45  76 113 155 220 265 345 407 495
#     4  11  26  48  77 121 165 222 265 346 420 499
#     4  12  29  49  84 123 171 209 280 336 421 490
#     4  11  27  50  85 110 165 213 289 332 427 479
#     4  10  22  42  74 110 166 214 268 324 430 488
#     4  12  24  46  80 122 162 208 280 338 406 506
#     4  12  28  53  81 121 157 225 274 349 398 501
#
# _framework density 26.013589
#
# number of rings (size 3 to 8) (size 9 to 14) (size 15 to 20)
#    0.000    0.667    1.667    4.500   11.667    2.000 
#    3.000    0.000    0.000    0.000    0.000    0.000 
#    0.000    0.000    0.000    0.000    0.000    0.000 
#
# Total GULP energy -67054.135824 kJ/mol
# GULP energy per Si atom -5587.844652 kJ/mol
# Density = 2.595438 g / cm^3
# Si number density = 26.013589 Si / 1000 Ang^3
#
#
#
# Elastic Constant Matrix: (Units=GPa)
#
#
# Indices 1 2 3 4 5 6 
#
# 1 148.5023 49.7650 67.1049 0.0000 -29.0105 0.0000
# 2 49.7650 116.3220 38.6281 0.0000 -17.9772 0.0000
# 3 67.1049 38.6281 109.1576 0.0000 -18.0646 0.0000
# 4 0.0000 0.0000 0.0000 14.3356 0.0000 7.1867
# 5 -29.0105 -17.9772 -18.0646 0.0000 51.4934 0.0000
# 6 0.0000 0.0000 0.0000 7.1867 0.0000 39.0914
#
#
#
# Elastic Compliance Matrix: (Units=1/GPa)
#
#
# Indices 1 2 3 4 5 6 
#
# 1 0.010427 -0.002270 -0.005059 0.000000 0.003307 0.000000
# 2 -0.002270 0.010505 -0.002046 0.000000 0.001671 0.000000
# 3 -0.005059 -0.002046 0.013170 0.000000 0.001056 0.000000
# 4 0.000000 0.000000 0.000000 0.076838 0.000000 -0.014126
# 5 0.003307 0.001671 0.001056 0.000000 0.022237 0.000000
# 6 0.000000 0.000000 0.000000 -0.014126 0.000000 0.028178
#
#
# Mechanical properties :
#
#
# Convention : Reuss Voigt Hill
#
# Bulk Modulus (GPa) = 65.13563 76.10866 70.62214
# Shear Modulus (GPa) = 26.99455 35.54968 31.27211
#
# Velocity S-wave (km/s) = 3.22484 3.70074 3.47096
# Velocity P-wave (km/s) = 6.24176 6.89793 6.57803
#
# Compressibility (1/GPa) = 0.01535258
#
# Stress axis : x y z
#
# Youngs Moduli (GPa) = 95.90731 95.18867 75.93002
#
# Poissons Ratio (x) = 0.21604 0.38416
# Poissons Ratio (y) = 0.21767 0.15534
# Poissons Ratio (z) = 0.48524 0.19474
#
# Static dielectric constant tensor:
#      x y z
#    x 2.282940 0.000000 -0.081400 
#    y 0.000000 2.247440 0.000000 
#    z -0.081400 0.000000 2.196110 
# 
# From -- ./inp_files/30278.got.cif
#   From: 2010.05.17/outbox.cif.g08.bks.cpg/sg5_16_cif.got.tgz:30278.got - 2010.06.03 18:56:24.
