data_PCOD9126076
_publ_section_title
;
Structure prediction by ZEFSAII (Michael W. Deem and Ramdas Pophale) SiO2 
 PCOD9126076
Probable space group: C 2
;
_chemical_formula_sum "Si O2"
_cell_formula_units_Z 28
_cell_length_a 10.941118
_cell_length_b 8.696276
_cell_length_c 17.457227
_cell_angle_alpha 90.000000
_cell_angle_beta 50.432586
_cell_angle_gamma 90.000000
_cell_volume 1280.426339
_symmetry_space_group_name_H-M "C 2"
_symmetry_group_IT_number 5
_symmetry_cell_setting 'monoclinic'
loop_
_space_group_symop_operation_xyz
x,y,z
-x,y,-z
1/2+x,1/2+y,z
1/2-x,1/2+y,-z
loop_
_atom_site_type_symbol
_atom_site_label
_atom_site_fract_x
_atom_site_fract_y
_atom_site_fract_z
Si Si1 0.070472 0.273100 0.890522
Si Si2 0.210072 0.277123 0.586983
Si Si3 0.230904 0.926421 0.600201
Si Si4 0.841624 0.279142 0.709254
Si Si5 0.536159 0.419249 0.898006
Si Si6 0.646669 0.999376 0.736194
Si Si7 0.564591 0.276527 0.214276
O O1 0.044607 0.391999 0.832709
O O2 0.260660 0.265939 0.823646
O O3 0.008446 0.101493 0.898599
O O4 0.000000 0.324016 0.000000
O O5 0.254140 0.342020 0.486637
O O6 0.251330 0.396385 0.637469
O O7 0.018858 0.273027 0.666813
O O8 0.271038 0.105520 0.576169
O O9 0.334371 0.846831 0.625551
O O10 0.050185 0.901927 0.700995
O O11 0.719651 0.382471 0.806162
O O12 0.761047 0.111844 0.737949
O O13 0.437827 0.321972 0.874867
O O14 0.500000 0.379509 0.000000
O O15 0.530228 0.116447 0.738658
#
# Coordination Sequence:
#
# PCOD9126076 Si02
#       7
#     4   4   4   4   4   4   4
#     4  11  23  38  59  87 116 151 193 233 285 342
#     4  12  22  39  62  84 117 151 188 239 284 334
#     4  10  22  39  60  86 114 152 191 230 289 342
#     4  10  22  40  60  84 117 151 191 236 281 339
#     4   9  20  39  60  85 116 153 192 232 285 338
#     4  10  22  38  60  88 113 150 195 232 283 340
#     4  10  22  41  58  82 121 150 187 242 281 333
#
# _framework density 21.867716000000001
#
# number of rings (size 3 to 8) (size 9 to 14) (size 15 to 20)
#    0.000    2.000    0.000    5.571    0.000    5.714 
#    0.000    6.429    0.000    0.000    0.000    0.000 
#    0.000    0.000    0.000    0.000    0.000    0.000 
#
# Total GULP energy -78288.371209 kJ/mol
# GULP energy per Si atom -5592.026515 kJ/mol
# Density = 2.181794 g / cm^3
# Si number density = 21.867716 Si / 1000 Ang^3
#
#
#
# Elastic Constant Matrix: (Units=GPa)
#
#
# Indices 1 2 3 4 5 6 
#
# 1 22.9002 -15.0657 -27.9090 0.0000 -8.3083 0.0000
# 2 -15.0657 108.2268 38.6107 0.0000 24.6864 0.0000
# 3 -27.9090 38.6107 116.4408 0.0000 22.2481 0.0000
# 4 0.0000 0.0000 0.0000 40.6421 0.0000 6.5400
# 5 -8.3083 24.6864 22.2481 0.0000 18.3913 0.0000
# 6 0.0000 0.0000 0.0000 6.5400 0.0000 19.7158
#
#
#
# Elastic Compliance Matrix: (Units=1/GPa)
#
#
# Indices 1 2 3 4 5 6 
#
# 1 0.064428 0.001882 0.012668 0.000000 0.011255 0.000000
# 2 0.001882 0.013526 -0.000946 0.000000 -0.016160 0.000000
# 3 0.012668 -0.000946 0.013789 0.000000 -0.009688 0.000000
# 4 0.000000 0.000000 0.000000 0.025992 0.000000 -0.008622
# 5 0.011255 -0.016160 -0.009688 0.000000 0.092870 0.000000
# 6 0.000000 0.000000 0.000000 -0.008622 0.000000 0.053581
#
#
# Mechanical properties :
#
#
# Convention : Reuss Voigt Hill
#
# Bulk Modulus (GPa) = 8.40692 26.53779 17.47235
# Shear Modulus (GPa) = 18.07485 32.54528 25.31006
#
# Velocity S-wave (km/s) = 2.87810 3.86201 3.40577
# Velocity P-wave (km/s) = 3.85972 5.66116 4.84490
#
# Compressibility (1/GPa) = 0.11894965
#
# Stress axis : x y z
#
# Youngs Moduli (GPa) = 15.52132 73.93406 72.52093
#
# Poissons Ratio (x) = -0.13915 -0.91868
# Poissons Ratio (y) = -0.02921 0.06861
# Poissons Ratio (z) = -0.19662 0.06995
#
# Static dielectric constant tensor:
#      x y z
#    x 1.800930 0.000000 0.001980 
#    y 0.000000 1.796310 0.000000 
#    z 0.001980 0.000000 1.775830 
# 
# From -- ./inp_files/52367.got.cif
#   From: 2010.05.17/outbox.cif.g08.bks.cpg/sg5_27_cif.got.tgz:52367.got - 2010.06.03 18:56:24.
