data_PCOD9126535
_publ_section_title
;
Structure prediction by ZEFSAII (Michael W. Deem and Ramdas Pophale) SiO2 
 PCOD9126535
Probable space group: C 2
;
_chemical_formula_sum "Si O2"
_cell_formula_units_Z 26
_cell_length_a 13.819498
_cell_length_b 8.055715
_cell_length_c 15.230869
_cell_angle_alpha 90.000000
_cell_angle_beta 40.510287
_cell_angle_gamma 90.000000
_cell_volume 1101.429587
_symmetry_space_group_name_H-M "C 2"
_symmetry_group_IT_number 5
_symmetry_cell_setting 'monoclinic'
loop_
_space_group_symop_operation_xyz
x,y,z
-x,y,-z
1/2+x,1/2+y,z
1/2-x,1/2+y,-z
loop_
_atom_site_type_symbol
_atom_site_label
_atom_site_fract_x
_atom_site_fract_y
_atom_site_fract_z
Si Si1 0.500000 0.610390 0.000000
Si Si2 0.463478 0.860053 0.235110
Si Si3 0.500000 0.714385 0.500000
Si Si4 0.000000 0.726651 0.500000
Si Si5 0.038832 0.971144 0.785275
Si Si6 0.224190 0.969939 0.267443
Si Si7 0.155011 0.459345 0.507135
Si Si8 0.273676 0.868417 0.056613
O O1 0.557568 0.500287 0.877524
O O2 0.634397 0.719608 0.955302
O O3 0.473199 0.661664 0.243381
O O4 0.367129 0.894407 0.214952
O O5 0.375185 0.961048 0.369709
O O6 0.627954 0.916624 0.095168
O O7 0.647154 0.613666 0.375385
O O8 0.533510 0.827605 0.559246
O O9 0.906151 0.832326 0.634417
O O10 0.884800 0.621158 0.521850
O O11 0.183049 0.903827 0.635513
O O12 0.895452 0.859800 0.861168
O O13 0.262768 0.006024 0.140779
#
# Coordination Sequence:
#
# PCOD9126535 Si02
#       8
#     2   4   2   2   4   4   4   4
#     4  10  22  50  68 104 142 182 240 290 346 430
#     4  11  24  42  67 100 136 175 235 289 339 426
#     4  10  26  40  64  98 146 172 228 298 346 404
#     4  10  22  40  72  94 132 188 228 292 350 410
#     4  11  24  43  75 100 139 186 233 292 351 422
#     4  11  21  43  69  96 132 187 228 284 345 418
#     4  11  24  43  63 105 136 176 234 291 344 421
#     4  11  22  43  69  99 135 182 230 285 353 411
#
# _framework density 23.605684
#
# number of rings (size 3 to 8) (size 9 to 14) (size 15 to 20)
#    0.000    1.231    4.615    0.923    6.462    4.923 
#    5.538    0.000    0.000    0.000    0.000    0.000 
#    0.000    0.000    0.000    0.000    0.000    0.000 
#
# Total GULP energy -72547.819195 kJ/mol
# GULP energy per Si atom -5580.601477 kJ/mol
# Density = 2.355196 g / cm^3
# Si number density = 23.605684 Si / 1000 Ang^3
#
#
#
# Elastic Constant Matrix: (Units=GPa)
#
#
# Indices 1 2 3 4 5 6 
#
# 1 99.2824 11.1327 42.9792 0.0000 -12.3159 0.0000
# 2 11.1327 40.0945 4.1827 0.0000 -3.0100 0.0000
# 3 42.9792 4.1827 149.1760 0.0000 1.1586 0.0000
# 4 0.0000 0.0000 0.0000 0.1114 0.0000 -5.2007
# 5 -12.3159 -3.0100 1.1586 0.0000 54.7263 0.0000
# 6 0.0000 0.0000 0.0000 -5.2007 0.0000 -8.3382
#
#
#
# Elastic Compliance Matrix: (Units=1/GPa)
#
#
# Indices 1 2 3 4 5 6 
#
# 1 0.012219 -0.002831 -0.003462 0.000000 0.002667 0.000000
# 2 -0.002831 0.025777 0.000087 0.000000 0.000779 0.000000
# 3 -0.003462 0.000087 0.007706 0.000000 -0.000937 0.000000
# 4 0.000000 0.000000 0.000000 0.298042 0.000000 -0.185896
# 5 0.002667 0.000779 -0.000937 0.000000 0.018936 0.000000
# 6 0.000000 0.000000 0.000000 -0.185896 0.000000 -0.003983
#
#
# Mechanical properties :
#
#
# Convention : Reuss Voigt Hill
#
# Bulk Modulus (GPa) = 30.03990 45.01581 37.52785
# Shear Modulus (GPa) = 13.08196 24.65046 18.86621
#
# Velocity S-wave (km/s) = 2.35667 3.23501 2.83012
# Velocity P-wave (km/s) = 4.48983 5.75022 5.15866
#
# Compressibility (1/GPa) = 0.03328906
#
# Stress axis : x y z
#
# Youngs Moduli (GPa) = 81.83778 38.79478 129.77365
#
# Poissons Ratio (x) = 0.10985 0.44926
# Poissons Ratio (y) = 0.23172 -0.01129
# Poissons Ratio (z) = 0.28331 -0.00337
#
# Static dielectric constant tensor:
#      x y z
#    x 2.047260 0.000000 0.331100 
#    y 0.000000 1.938460 0.000000 
#    z 0.331100 0.000000 2.586560 
# 
# From -- ./inp_files/54108.got.cif
#   From: 2010.05.17/outbox.cif.g08.bks.cpg/sg5_28_cif.got.tgz:54108.got - 2010.06.03 18:56:24.
