data_PCOD9126229
_publ_section_title
;
Structure prediction by ZEFSAII (Michael W. Deem and Ramdas Pophale) SiO2 
 PCOD9126229
Probable space group: C 2
;
_chemical_formula_sum "Si O2"
_cell_formula_units_Z 26
_cell_length_a 17.847268
_cell_length_b 6.418534
_cell_length_c 13.407931
_cell_angle_alpha 90.000000
_cell_angle_beta 59.563429
_cell_angle_gamma 90.000000
_cell_volume 1324.257956
_symmetry_space_group_name_H-M "C 2"
_symmetry_group_IT_number 5
_symmetry_cell_setting 'monoclinic'
loop_
_space_group_symop_operation_xyz
x,y,z
-x,y,-z
1/2+x,1/2+y,z
1/2-x,1/2+y,-z
loop_
_atom_site_type_symbol
_atom_site_label
_atom_site_fract_x
_atom_site_fract_y
_atom_site_fract_z
Si Si1 0.500000 0.691550 0.500000
Si Si2 0.512728 0.355780 0.845776
Si Si3 0.382532 0.720102 0.957560
Si Si4 0.622141 0.133910 0.944390
Si Si5 0.729318 0.918946 0.133707
Si Si6 0.617037 0.072282 0.376535
Si Si7 0.548072 0.312601 0.598200
O O1 0.533326 0.542534 0.565014
O O2 0.578205 0.842552 0.417881
O O3 0.470803 0.586823 0.884284
O O4 0.577212 0.269570 0.887342
O O5 0.557159 0.320792 0.709782
O O6 0.427702 0.214064 0.922806
O O7 0.350524 0.851763 0.882923
O O8 0.302443 0.562363 0.032341
O O9 0.389628 0.886598 0.042995
O O10 0.721332 0.203438 0.875676
O O11 0.699515 0.043213 0.251646
O O12 0.618641 0.191761 0.481857
O O13 0.542495 0.195714 0.366069
#
# Coordination Sequence:
#
# PCOD9126229 Si02
#       7
#     2   4   4   4   4   4   4
#     4   8  16  32  52  86 106 154 196 250 308 334
#     4  10  22  39  60  85 122 159 206 248 309 374
#     4  11  22  37  63  93 121 163 197 257 316 362
#     4  10  23  38  57  89 124 156 199 255 308 368
#     4  11  21  36  60  91 122 156 205 253 307 364
#     4   9  19  32  54  86 119 150 202 251 296 359
#     4   9  18  33  56  83 115 156 202 248 295 361
#
# _framework density 19.633637
#
# number of rings (size 3 to 8) (size 9 to 14) (size 15 to 20)
#    0.000    2.462    1.538    1.846    2.154    8.615 
#    0.000    0.000    6.769    0.000    0.000    0.000 
#    0.000    0.000    0.000    0.000    0.000    0.000 
#
# Total GULP energy -72393.129078 kJ/mol
# GULP energy per Si atom -5568.702237 kJ/mol
# Density = 1.958895 g / cm^3
# Si number density = 19.633637 Si / 1000 Ang^3
#
#
#
# Elastic Constant Matrix: (Units=GPa)
#
#
# Indices 1 2 3 4 5 6 
#
# 1 73.6156 38.5640 32.8635 0.0000 13.3893 0.0002
# 2 38.5640 109.9979 27.0497 0.0001 11.6817 0.0007
# 3 32.8635 27.0497 110.2429 0.0000 22.0520 0.0000
# 4 0.0000 0.0001 0.0000 7.5053 0.0000 -1.1179
# 5 13.3893 11.6817 22.0520 0.0000 24.0440 0.0000
# 6 0.0002 0.0007 0.0000 -1.1179 0.0000 21.5977
#
#
#
# Elastic Compliance Matrix: (Units=1/GPa)
#
#
# Indices 1 2 3 4 5 6 
#
# 1 0.018678 -0.005219 -0.003324 0.000000 -0.004817 0.000000
# 2 -0.005219 0.011325 -0.000862 0.000000 -0.001805 0.000000
# 3 -0.003324 -0.000862 0.012025 0.000000 -0.008760 0.000000
# 4 0.000000 0.000000 0.000000 0.134274 0.000000 0.006950
# 5 -0.004817 -0.001805 -0.008760 0.000000 0.053184 0.000000
# 6 0.000000 0.000000 0.000000 0.006950 0.000000 0.046661
#
#
# Mechanical properties :
#
#
# Convention : Reuss Voigt Hill
#
# Bulk Modulus (GPa) = 43.06937 54.53456 48.80197
# Shear Modulus (GPa) = 16.51822 23.65467 20.08645
#
# Velocity S-wave (km/s) = 2.90370 3.47479 3.20201
# Velocity P-wave (km/s) = 5.76421 6.62837 6.21134
#
# Compressibility (1/GPa) = 0.02321836
#
# Stress axis : x y z
#
# Youngs Moduli (GPa) = 53.53823 88.30371 83.15813
#
# Poissons Ratio (x) = 0.46090 0.27640
# Poissons Ratio (y) = 0.27944 0.07165
# Poissons Ratio (z) = 0.17795 0.07608
#
# Static dielectric constant tensor:
#      x y z
#    x 1.733650 0.000000 0.026400 
#    y 0.000000 1.753790 0.000000 
#    z 0.026400 0.000000 1.724980 
# 
# From -- ./inp_files/56500.got.cif
#   From: 2010.05.17/outbox.cif.g08.bks.cpg/sg5_29_cif.got.tgz:56500.got - 2010.06.03 18:56:24.
