data_PCOD9126366
_publ_section_title
;
Structure prediction by ZEFSAII (Michael W. Deem and Ramdas Pophale) SiO2 
 PCOD9126366
Probable space group: C 2
;
_chemical_formula_sum "Si O2"
_cell_formula_units_Z 22
_cell_length_a 7.066341
_cell_length_b 7.543321
_cell_length_c 20.204119
_cell_angle_alpha 90.000000
_cell_angle_beta 122.224959
_cell_angle_gamma 90.000000
_cell_volume 911.060919
_symmetry_space_group_name_H-M "C 2"
_symmetry_group_IT_number 5
_symmetry_cell_setting 'monoclinic'
loop_
_space_group_symop_operation_xyz
x,y,z
-x,y,-z
1/2+x,1/2+y,z
1/2-x,1/2+y,-z
loop_
_atom_site_type_symbol
_atom_site_label
_atom_site_fract_x
_atom_site_fract_y
_atom_site_fract_z
Si Si1 0.500000 0.437371 0.000000
Si Si2 0.048979 0.028425 0.782991
Si Si3 0.582490 0.377366 0.642286
Si Si4 0.352143 0.709448 0.416340
Si Si5 0.616014 0.860602 0.726717
Si Si6 0.263864 0.783857 0.931384
O O1 0.318401 0.575536 0.935134
O O2 0.600805 0.320339 0.961467
O O3 0.792664 0.022626 0.762951
O O4 0.041818 0.959780 0.706703
O O5 0.180337 0.888773 0.852183
O O6 0.169916 0.216555 0.794514
O O7 0.531218 0.520933 0.576204
O O8 0.849797 0.368488 0.686176
O O9 0.406457 0.215790 0.607112
O O10 0.500000 0.803644 0.500000
O O11 0.355347 0.792026 0.343331
O O12 0.500000 0.862404 0.000000
#
# Coordination Sequence:
#
# PCOD9126366 Si02
#       6
#     2   4   4   4   4   4
#     4  10  26  40  66  92 134 160 224 260 338 384
#     4  10  23  38  64  90 126 164 221 257 322 378
#     4  10  22  42  61  93 125 166 214 261 320 381
#     4  10  23  39  61  94 125 166 214 263 317 382
#     4  10  22  40  62  93 124 169 212 264 315 387
#     4  10  26  43  67  98 132 174 216 276 324 392
#
# _framework density 24.147673000000001
#
# number of rings (size 3 to 8) (size 9 to 14) (size 15 to 20)
#    0.545    1.455    0.000    1.091    8.909    1.455 
#    0.000    0.000    0.000    0.000    0.000    0.000 
#    0.000    0.000    0.000    0.000    0.000    0.000 
#
# Total GULP energy -61309.866723 kJ/mol
# GULP energy per Si atom -5573.624248 kJ/mol
# Density = 2.409271 g / cm^3
# Si number density = 24.147673 Si / 1000 Ang^3
#
#
#
# Elastic Constant Matrix: (Units=GPa)
#
#
# Indices 1 2 3 4 5 6 
#
# 1 186.4220 51.3195 37.9950 0.0000 -4.3900 0.0000
# 2 51.3195 43.7415 10.4546 0.0000 -9.2637 0.0000
# 3 37.9950 10.4546 66.2651 0.0000 -0.3474 0.0000
# 4 0.0000 0.0000 0.0000 -2.2505 0.0000 37.7556
# 5 -4.3900 -9.2637 -0.3474 0.0000 32.6237 0.0000
# 6 0.0000 0.0000 0.0000 37.7556 0.0000 -33.0797
#
#
#
# Elastic Compliance Matrix: (Units=1/GPa)
#
#
# Indices 1 2 3 4 5 6 
#
# 1 0.008714 -0.009740 -0.003468 0.000000 -0.001630 0.000000
# 2 -0.009740 0.036208 -0.000081 0.000000 0.008970 0.000000
# 3 -0.003468 -0.000081 0.017091 0.000000 -0.000308 0.000000
# 4 0.000000 0.000000 0.000000 0.024485 0.000000 0.027946
# 5 -0.001630 0.008970 -0.000308 0.000000 0.032977 0.000000
# 6 0.000000 0.000000 0.000000 0.027946 0.000000 0.001666
#
#
# Mechanical properties :
#
#
# Convention : Reuss Voigt Hill
#
# Bulk Modulus (GPa) = 28.22112 55.10743 41.66427
# Shear Modulus (GPa) = 31.34227 12.56933 21.95580
#
# Velocity S-wave (km/s) = 3.60660 2.28396 3.01862
# Velocity P-wave (km/s) = 5.39034 5.46131 5.42594
#
# Compressibility (1/GPa) = 0.03543445
#
# Stress axis : x y z
#
# Youngs Moduli (GPa) = 114.75920 27.61845 58.51143
#
# Poissons Ratio (x) = 0.26900 0.20293
# Poissons Ratio (y) = 1.11773 0.00473
# Poissons Ratio (z) = 0.39802 0.00223
#
# Static dielectric constant tensor:
#      x y z
#    x 1.955920 0.000000 0.101760 
#    y 0.000000 2.054580 0.000000 
#    z 0.101760 0.000000 1.948700 
# 
# From -- ./inp_files/63851.got.cif
#   From: 2010.05.17/outbox.cif.g08.bks.cpg/sg5_32_cif.got.tgz:63851.got - 2010.06.03 18:56:24.
