data_PCOD9126561
_publ_section_title
;
Structure prediction by ZEFSAII (Michael W. Deem and Ramdas Pophale) SiO2 
 PCOD9126561
Probable space group: C 2
;
_chemical_formula_sum "Si O2"
_cell_formula_units_Z 20
_cell_length_a 27.960949
_cell_length_b 5.207070
_cell_length_c 13.564010
_cell_angle_alpha 90.000000
_cell_angle_beta 31.852903
_cell_angle_gamma 90.000000
_cell_volume 1042.206283
_symmetry_space_group_name_H-M "C 2"
_symmetry_group_IT_number 5
_symmetry_cell_setting 'monoclinic'
loop_
_space_group_symop_operation_xyz
x,y,z
-x,y,-z
1/2+x,1/2+y,z
1/2-x,1/2+y,-z
loop_
_atom_site_type_symbol
_atom_site_label
_atom_site_fract_x
_atom_site_fract_y
_atom_site_fract_z
Si Si1 0.896108 0.876860 0.201650
Si Si2 0.840549 0.390236 0.185741
Si Si3 0.365094 0.328035 0.482735
Si Si4 0.536446 0.031753 0.215268
Si Si5 0.992053 0.028630 0.629515
O O1 0.836932 0.637926 0.264640
O O2 0.882024 0.922493 0.341865
O O3 0.877033 0.139903 0.177817
O O4 0.000000 0.801068 0.000000
O O5 0.741742 0.314045 0.318623
O O6 0.907236 0.468148 0.980323
O O7 0.410348 0.503293 0.487544
O O8 0.429588 0.075876 0.377146
O O9 0.546510 0.804130 0.275233
O O10 0.562852 0.302249 0.219033
O O11 0.000000 0.985414 0.500000
#
# Coordination Sequence:
#
# PCOD9126561 Si02
#       5
#     4   4   4   4   4
#     4  12  23  39  62  93 133 171 210 253 319 382
#     4  12  24  39  63  94 133 169 207 263 312 389
#     4  10  25  39  64  95 127 168 220 256 317 389
#     4  10  22  41  62  91 125 164 212 260 324 371
#     4  10  22  43  67  88 123 165 214 268 328 369
#
# _framework density 19.190059999999999
#
# number of rings (size 3 to 8) (size 9 to 14) (size 15 to 20)
#    1.200    0.000    2.000    4.800    5.600    0.000 
#    0.000    2.000    0.000    0.000    0.000    0.000 
#    0.000    0.000    0.000    0.000    0.000    0.000 
#
# Total GULP energy -55758.804628 kJ/mol
# GULP energy per Si atom -5575.880463 kJ/mol
# Density = 1.914638 g / cm^3
# Si number density = 19.190060 Si / 1000 Ang^3
#
#
#
# Elastic Constant Matrix: (Units=GPa)
#
#
# Indices 1 2 3 4 5 6 
#
# 1 54.4698 7.0461 53.1076 0.0008 14.8395 -0.0004
# 2 7.0461 84.6130 39.1622 -0.0005 4.3158 -0.0023
# 3 53.1076 39.1622 61.7526 -0.0003 -2.3221 -0.0015
# 4 0.0008 -0.0005 -0.0003 18.1457 0.0001 8.1018
# 5 14.8395 4.3158 -2.3221 0.0001 28.3478 -0.0002
# 6 -0.0004 -0.0023 -0.0015 8.1018 -0.0002 21.7480
#
#
#
# Elastic Compliance Matrix: (Units=1/GPa)
#
#
# Indices 1 2 3 4 5 6 
#
# 1 -0.059959 -0.030784 0.072668 0.000003 0.042026 0.000000
# 2 -0.030784 0.001262 0.026354 0.000001 0.018081 0.000001
# 3 0.072668 0.026354 -0.064795 -0.000004 -0.047360 0.000001
# 4 0.000003 0.000001 -0.000004 0.066105 -0.000002 -0.024626
# 5 0.042026 0.018081 -0.047360 -0.000002 0.006644 0.000000
# 6 0.000000 0.000001 0.000001 -0.024626 0.000000 0.055155
#
#
# Mechanical properties :
#
#
# Convention : Reuss Voigt Hill
#
# Bulk Modulus (GPa) = 77.01989 44.38524 60.70257
# Shear Modulus (GPa) = -39.14338 20.41629 -9.36355
#
# Velocity S-wave (km/s) = -4.52129 3.26529 -2.21133
# Velocity P-wave (km/s) = 3.60089 6.11520 5.01807
#
# Compressibility (1/GPa) = 0.01298366
#
# Stress axis : x y z
#
# Youngs Moduli (GPa) = -16.67807 792.25910 -15.43330
#
# Poissons Ratio (x) = 24.38892 1.12150
# Poissons Ratio (y) = -0.51342 0.40673
# Poissons Ratio (z) = 1.21196 -20.87907
#
# Static dielectric constant tensor:
#      x y z
#    x 1.660300 0.000000 -0.026010 
#    y 0.000000 1.694050 0.000000 
#    z -0.026010 0.000000 1.665790 
# 
# From -- ./inp_files/46883.got.cif
#   From: 2010.05.17/outbox.cif.g08.bks.cpg/sg5_24_cif.got.tgz:46883.got - 2010.06.03 18:56:24.
