data_PCOD9126671
_publ_section_title
;
Structure prediction by ZEFSAII (Michael W. Deem and Ramdas Pophale) SiO2 
 PCOD9126671
Probable space group: C 2
;
_chemical_formula_sum "Si O2"
_cell_formula_units_Z 26
_cell_length_a 8.504242
_cell_length_b 20.151893
_cell_length_c 10.717261
_cell_angle_alpha 90.000000
_cell_angle_beta 138.068486
_cell_angle_gamma 90.000000
_cell_volume 1227.351428
_symmetry_space_group_name_H-M "C 2"
_symmetry_group_IT_number 5
_symmetry_cell_setting 'monoclinic'
loop_
_space_group_symop_operation_xyz
x,y,z
-x,y,-z
1/2+x,1/2+y,z
1/2-x,1/2+y,-z
loop_
_atom_site_type_symbol
_atom_site_label
_atom_site_fract_x
_atom_site_fract_y
_atom_site_fract_z
Si Si1 0.713085 0.659790 0.450698
Si Si2 0.244036 0.845621 0.216655
Si Si3 0.792112 0.691330 0.776535
Si Si4 0.000000 0.458110 0.000000
Si Si5 0.490844 0.393113 0.675892
Si Si6 0.000000 0.546576 0.500000
Si Si7 0.500000 0.272095 0.500000
Si Si8 0.559614 0.957722 0.308527
O O1 0.838500 0.670314 0.660368
O O2 0.438553 0.653515 0.314211
O O3 0.786751 0.723066 0.410040
O O4 0.798046 0.595141 0.428865
O O5 0.290083 0.768591 0.270812
O O6 0.181941 0.880745 0.309722
O O7 0.437161 0.885200 0.250951
O O8 0.000000 0.847821 0.000000
O O9 0.000000 0.683792 0.000000
O O10 0.750298 0.419286 0.860625
O O11 0.977212 0.489658 0.849014
O O12 0.532272 0.322665 0.633180
O O13 0.332236 0.443243 0.499976
O O14 0.944172 0.501689 0.348031
#
# Coordination Sequence:
#
# PCOD9126671 Si02
#       8
#     4   4   4   2   4   2   2   4
#     4  10  23  44  64  92 131 174 224 269 317 376
#     4  11  21  38  71 103 134 168 209 264 337 411
#     4  10  22  41  69 100 130 165 211 272 336 397
#     4  12  26  40  62 106 138 166 210 280 328 396
#     4  12  22  38  63 100 134 171 209 261 340 398
#     4  11  26  48  70  86 124 187 234 272 308 389
#     4  11  20  38  64  96 136 173 206 268 330 395
#     4  12  24  44  67  94 134 175 222 267 332 387
#
# _framework density 21.183827000000001
#
# number of rings (size 3 to 8) (size 9 to 14) (size 15 to 20)
#    0.000    0.923    6.154    0.923    2.154    0.000 
#    6.923    5.385    0.000    0.000    0.000    0.000 
#    0.000    0.000    0.000    0.000    0.000    0.000 
#
# Total GULP energy -72561.383653 kJ/mol
# GULP energy per Si atom -5581.644896 kJ/mol
# Density = 2.113561 g / cm^3
# Si number density = 21.183827 Si / 1000 Ang^3
#
#
#
# Elastic Constant Matrix: (Units=GPa)
#
#
# Indices 1 2 3 4 5 6 
#
# 1 123.3946 31.1528 32.1842 0.0000 -19.6418 0.0000
# 2 31.1528 63.6458 23.2405 0.0000 -10.6629 0.0000
# 3 32.1842 23.2405 114.3253 0.0000 -9.7966 0.0000
# 4 0.0000 0.0000 0.0000 -7.5422 0.0000 33.8705
# 5 -19.6418 -10.6629 -9.7966 0.0000 45.3345 0.0000
# 6 0.0000 0.0000 0.0000 33.8705 0.0000 -155.6663
#
#
#
# Elastic Compliance Matrix: (Units=1/GPa)
#
#
# Indices 1 2 3 4 5 6 
#
# 1 0.010001 -0.003726 -0.001795 0.000000 0.003069 0.000000
# 2 -0.003726 0.018861 -0.002591 0.000000 0.002262 0.000000
# 3 -0.001795 -0.002591 0.009843 0.000000 0.000740 0.000000
# 4 0.000000 0.000000 0.000000 -5.795468 0.000000 -1.261000
# 5 0.003069 0.002262 0.000740 0.000000 0.024080 0.000000
# 6 0.000000 0.000000 0.000000 -1.261000 0.000000 -0.280797
#
#
# Mechanical properties :
#
#
# Convention : Reuss Voigt Hill
#
# Bulk Modulus (GPa) = 44.48382 52.72452 48.60417
# Shear Modulus (GPa) = -0.83476 -9.25558 -5.04517
#
# Velocity S-wave (km/s) = -0.62842 -2.09252 -1.54492
# Velocity P-wave (km/s) = 4.52968 4.37091 4.45100
#
# Compressibility (1/GPa) = 0.02248008
#
# Stress axis : x y z
#
# Youngs Moduli (GPa) = 99.98549 53.01998 101.60003
#
# Poissons Ratio (x) = 0.19754 0.18239
# Poissons Ratio (y) = 0.37252 0.26329
# Poissons Ratio (z) = 0.17949 0.13740
#
# Static dielectric constant tensor:
#      x y z
#    x 1.821940 0.000000 -0.039910 
#    y 0.000000 1.793790 0.000000 
#    z -0.039910 0.000000 1.807060 
# 
# From -- ./inp_files/37424.got.cif
#   From: 2010.05.17/outbox.cif.g08.bks.cpg/sg5_19_cif.got.tgz:37424.got - 2010.06.03 18:56:24.
