data_PCOD9126350
_publ_section_title
;
Structure prediction by ZEFSAII (Michael W. Deem and Ramdas Pophale) SiO2 
 PCOD9126350
Probable space group: C 2
;
_chemical_formula_sum "Si O2"
_cell_formula_units_Z 30
_cell_length_a 10.045075
_cell_length_b 9.550964
_cell_length_c 14.849177
_cell_angle_alpha 90.000000
_cell_angle_beta 119.991206
_cell_angle_gamma 90.000000
_cell_volume 1233.877047
_symmetry_space_group_name_H-M "C 2"
_symmetry_group_IT_number 5
_symmetry_cell_setting 'monoclinic'
loop_
_space_group_symop_operation_xyz
x,y,z
-x,y,-z
1/2+x,1/2+y,z
1/2-x,1/2+y,-z
loop_
_atom_site_type_symbol
_atom_site_label
_atom_site_fract_x
_atom_site_fract_y
_atom_site_fract_z
Si Si1 0.000000 0.802351 0.500000
Si Si2 0.341398 0.321538 0.000436
Si Si3 0.016600 0.138088 0.366097
Si Si4 0.593362 0.905567 0.771352
Si Si5 0.699140 0.075839 0.277589
Si Si6 0.170497 0.517956 0.059641
Si Si7 0.741273 0.303101 0.433664
Si Si8 0.286648 0.067706 0.344467
O O1 0.879373 0.859575 0.533376
O O2 0.887990 0.699782 0.404476
O O3 0.195146 0.363121 0.890014
O O4 0.335597 0.153248 0.008510
O O5 0.500000 0.353073 0.000000
O O6 0.305696 0.412093 0.077398
O O7 0.142484 0.196212 0.478094
O O8 0.109106 0.086965 0.310394
O O9 0.925881 0.274333 0.300737
O O10 0.878809 0.042024 0.355983
O O11 0.423157 0.959733 0.735266
O O12 0.682563 0.023962 0.746238
O O13 0.687766 0.081402 0.165608
O O14 0.665100 0.213436 0.326767
O O15 0.000000 0.450408 0.000000
O O16 0.827284 0.437237 0.423381
#
# Coordination Sequence:
#
# PCOD9126350 Si02
#       8
#     2   4   4   4   4   4   4   4
#     4  10  22  40  62 100 134 184 238 288 340 406
#     4  11  26  46  77 104 142 182 245 301 374 435
#     4  11  26  42  68 102 141 189 241 287 347 421
#     4  12  24  46  70 100 141 186 232 300 355 428
#     4  12  24  45  73 100 144 187 235 291 361 423
#     4  11  24  49  74 107 139 187 234 303 370 437
#     4  11  23  43  70  99 145 192 239 291 347 415
#     4  11  23  42  67  95 138 184 233 287 349 409
#
# _framework density 24.313606
#
# number of rings (size 3 to 8) (size 9 to 14) (size 15 to 20)
#    0.000    0.800    5.333    1.200    3.733    2.667 
#    2.400    0.000    0.000    0.000    0.000    0.000 
#    0.000    0.000    0.000    0.000    0.000    0.000 
#
# Total GULP energy -83877.987734 kJ/mol
# GULP energy per Si atom -5591.865849 kJ/mol
# Density = 2.425827 g / cm^3
# Si number density = 24.313606 Si / 1000 Ang^3
#
#
#
# Elastic Constant Matrix: (Units=GPa)
#
#
# Indices 1 2 3 4 5 6 
#
# 1 161.4547 26.0255 4.8967 0.0000 4.5962 0.0000
# 2 26.0255 45.6254 -1.4972 0.0000 -4.0781 0.0000
# 3 4.8967 -1.4972 51.2316 0.0000 -7.6809 0.0000
# 4 0.0000 0.0000 0.0000 -10.5093 0.0000 15.5724
# 5 4.5962 -4.0781 -7.6809 0.0000 37.0556 0.0000
# 6 0.0000 0.0000 0.0000 15.5724 0.0000 45.7128
#
#
#
# Elastic Compliance Matrix: (Units=1/GPa)
#
#
# Indices 1 2 3 4 5 6 
#
# 1 0.006932 -0.004124 -0.001012 0.000000 -0.001523 0.000000
# 2 -0.004124 0.024643 0.001649 0.000000 0.003565 0.000000
# 3 -0.001012 0.001649 0.020342 0.000000 0.004523 0.000000
# 4 0.000000 0.000000 0.000000 -0.063234 0.000000 0.021541
# 5 -0.001523 0.003565 0.004523 0.000000 0.028505 0.000000
# 6 0.000000 0.000000 0.000000 0.021541 0.000000 0.014538
#
#
# Mechanical properties :
#
#
# Convention : Reuss Voigt Hill
#
# Bulk Modulus (GPa) = 22.24967 35.24019 28.74493
# Shear Modulus (GPa) = 93.14389 29.71090 61.42740
#
# Velocity S-wave (km/s) = 6.19617 3.49949 5.03185
# Velocity P-wave (km/s) = 7.76924 5.55464 6.75333
#
# Compressibility (1/GPa) = 0.04494449
#
# Stress axis : x y z
#
# Youngs Moduli (GPa) = 144.24901 40.58005 49.15879
#
# Poissons Ratio (x) = 0.16734 0.04972
# Poissons Ratio (y) = 0.59485 -0.08105
# Poissons Ratio (z) = 0.14591 -0.06691
#
# Static dielectric constant tensor:
#      x y z
#    x 1.994030 0.000000 0.005730 
#    y 0.000000 2.000440 0.000000 
#    z 0.005730 0.000000 1.977010 
# 
# From -- ./inp_files/50541.got.cif
#   From: 2010.05.17/outbox.cif.g08.bks.cpg/sg5_26_cif.got.tgz:50541.got - 2010.06.03 18:56:24.
