data_PCOD9126936
_publ_section_title
;
Structure prediction by ZEFSAII (Michael W. Deem and Ramdas Pophale) SiO2 
 PCOD9126936
Probable space group: C 2
;
_chemical_formula_sum "Si O2"
_cell_formula_units_Z 16
_cell_length_a 9.765858
_cell_length_b 5.105402
_cell_length_c 19.236306
_cell_angle_alpha 90.000000
_cell_angle_beta 139.598167
_cell_angle_gamma 90.000000
_cell_volume 621.632494
_symmetry_space_group_name_H-M "C 2"
_symmetry_group_IT_number 5
_symmetry_cell_setting 'monoclinic'
loop_
_space_group_symop_operation_xyz
x,y,z
-x,y,-z
1/2+x,1/2+y,z
1/2-x,1/2+y,-z
loop_
_atom_site_type_symbol
_atom_site_label
_atom_site_fract_x
_atom_site_fract_y
_atom_site_fract_z
Si Si1 0.886668 0.444550 0.068275
Si Si2 0.345480 0.631443 0.729443
Si Si3 0.681843 0.694557 0.431725
Si Si4 0.157151 0.881448 0.770557
O O1 0.969111 0.330759 0.174124
O O2 0.112715 0.476116 0.116815
O O3 0.750519 0.705910 0.015676
O O4 0.237727 0.726111 0.616814
O O5 0.204564 0.625915 0.743360
O O6 0.474485 0.375912 0.756640
O O7 0.796506 0.455923 0.515677
O O8 0.446741 0.580765 0.325876
#
# Coordination Sequence:
#
# PCOD9126936 Si02
#       4
#     4   4   4   4
#     4  10  22  42  71 104 143 200 242 312 388 442
#     4   8  20  44  66 106 148 188 258 314 364 478
#     4  10  22  42  71 104 143 200 242 312 388 442
#     4   8  20  44  66 106 148 188 258 314 364 478
#
# _framework density 25.738681
#
# number of rings (size 3 to 8) (size 9 to 14) (size 15 to 20)
#    3.000    0.000    0.000    0.000    0.000    6.000 
#    0.000    5.000    0.000    0.000    0.000    0.000 
#    0.000    0.000    0.000    0.000    0.000    0.000 
#
# Total GULP energy -44578.440174 kJ/mol
# GULP energy per Si atom -5572.305022 kJ/mol
# Density = 2.568010 g / cm^3
# Si number density = 25.738681 Si / 1000 Ang^3
#
#
#
# Elastic Constant Matrix: (Units=GPa)
#
#
# Indices 1 2 3 4 5 6 
#
# 1 106.9302 39.3334 6.1047 -0.0001 0.7519 0.0001
# 2 39.3334 116.8810 40.4898 0.0000 -0.1166 0.0002
# 3 6.1047 40.4898 168.3217 0.0000 -7.0713 0.0000
# 4 -0.0001 0.0000 0.0000 43.0023 0.0000 -1.0907
# 5 0.7519 -0.1166 -7.0713 0.0000 47.5708 0.0000
# 6 0.0001 0.0002 0.0000 -1.0907 0.0000 32.4133
#
#
#
# Elastic Compliance Matrix: (Units=1/GPa)
#
#
# Indices 1 2 3 4 5 6 
#
# 1 0.010716 -0.003785 0.000518 0.000000 -0.000102 0.000000
# 2 -0.003785 0.010675 -0.002442 0.000000 -0.000277 0.000000
# 3 0.000518 -0.002442 0.006550 0.000000 0.000959 0.000000
# 4 0.000000 0.000000 0.000000 0.023274 0.000000 0.000783
# 5 -0.000102 -0.000277 0.000959 0.000000 0.021165 0.000000
# 6 0.000000 0.000000 0.000000 0.000783 0.000000 0.030878
#
#
# Mechanical properties :
#
#
# Convention : Reuss Voigt Hill
#
# Bulk Modulus (GPa) = 60.52991 62.66539 61.59765
# Shear Modulus (GPa) = 41.60244 45.01094 43.30669
#
# Velocity S-wave (km/s) = 4.02473 4.18636 4.10634
# Velocity P-wave (km/s) = 6.72057 6.91138 6.81664
#
# Compressibility (1/GPa) = 0.01652076
#
# Stress axis : x y z
#
# Youngs Moduli (GPa) = 93.32262 93.67322 152.67086
#
# Poissons Ratio (x) = 0.35460 -0.07904
# Poissons Ratio (y) = 0.35327 0.37287
# Poissons Ratio (z) = -0.04831 0.22878
#
# Static dielectric constant tensor:
#      x y z
#    x 2.156180 0.000000 0.010200 
#    y 0.000000 1.927040 0.000000 
#    z 0.010200 0.000000 2.057230 
# 
# From -- ./inp_files/46866.got.cif
#   From: 2010.05.17/outbox.cif.g08.bks.cpg/sg5_24_cif.got.tgz:46866.got - 2010.06.03 18:56:24.
