data_PCOD9126509
_publ_section_title
;
Structure prediction by ZEFSAII (Michael W. Deem and Ramdas Pophale) SiO2 
 PCOD9126509
Probable space group: C 2
;
_chemical_formula_sum "Si O2"
_cell_formula_units_Z 22
_cell_length_a 8.700385
_cell_length_b 12.188723
_cell_length_c 8.048360
_cell_angle_alpha 90.000000
_cell_angle_beta 99.648535
_cell_angle_gamma 90.000000
_cell_volume 841.427802
_symmetry_space_group_name_H-M "C 2"
_symmetry_group_IT_number 5
_symmetry_cell_setting 'monoclinic'
loop_
_space_group_symop_operation_xyz
x,y,z
-x,y,-z
1/2+x,1/2+y,z
1/2-x,1/2+y,-z
loop_
_atom_site_type_symbol
_atom_site_label
_atom_site_fract_x
_atom_site_fract_y
_atom_site_fract_z
Si Si1 0.500000 0.369130 0.500000
Si Si2 0.084199 0.269031 0.693356
Si Si3 0.813607 0.578571 0.676247
Si Si4 0.271058 0.834777 0.772760
Si Si5 0.384469 0.144975 0.128392
Si Si6 0.210243 0.985978 0.304120
O O1 0.661494 0.314280 0.588170
O O2 0.545693 0.438760 0.342058
O O3 0.197368 0.166643 0.734208
O O4 0.180689 0.381537 0.711321
O O5 0.000000 0.258907 0.500000
O O6 0.939357 0.279296 0.789844
O O7 0.803729 0.463737 0.774198
O O8 0.763274 0.548322 0.481157
O O9 0.986103 0.628223 0.704295
O O10 0.176845 0.769112 0.895162
O O11 0.242020 0.066590 0.155764
O O12 0.500000 0.116828 0.000000
#
# Coordination Sequence:
#
# PCOD9126509 Si02
#       6
#     2   4   4   4   4   4
#     4  10  22  40  70 112 136 174 238 296 350 400
#     4  12  21  42  71 107 142 172 234 296 358 409
#     4  11  25  45  73 104 139 186 236 297 350 414
#     4  11  25  43  67 107 138 181 237 296 345 423
#     4  12  27  49  69 100 150 192 233 290 355 425
#     4  11  23  43  74 107 142 182 234 300 351 417
#
# _framework density 26.146032999999999
#
# number of rings (size 3 to 8) (size 9 to 14) (size 15 to 20)
#    0.000    0.727    5.455    2.727   12.727    0.000 
#    6.545    0.909    0.000    0.000    0.000    0.000 
#    0.000    0.000    0.000    0.000    0.000    0.000 
#
# Total GULP energy -61530.426888 kJ/mol
# GULP energy per Si atom -5593.675172 kJ/mol
# Density = 2.608652 g / cm^3
# Si number density = 26.146033 Si / 1000 Ang^3
#
#
#
# Elastic Constant Matrix: (Units=GPa)
#
#
# Indices 1 2 3 4 5 6 
#
# 1 152.7583 74.1283 9.8091 0.0000 -35.9159 0.0000
# 2 74.1283 184.4574 22.1371 0.0000 -26.3000 0.0000
# 3 9.8091 22.1371 68.0633 0.0000 -31.9286 0.0000
# 4 0.0000 0.0000 0.0000 15.8311 0.0000 -13.0145
# 5 -35.9159 -26.3000 -31.9286 0.0000 34.1463 0.0000
# 6 0.0000 0.0000 0.0000 -13.0145 0.0000 56.0864
#
#
#
# Elastic Compliance Matrix: (Units=1/GPa)
#
#
# Indices 1 2 3 4 5 6 
#
# 1 0.011379 -0.003117 0.006880 0.000000 0.016002 0.000000
# 2 -0.003117 0.006950 -0.001493 0.000000 0.000678 0.000000
# 3 0.006880 -0.001493 0.030358 0.000000 0.034473 0.000000
# 4 0.000000 0.000000 0.000000 0.078057 0.000000 0.018113
# 5 0.016002 0.000678 0.034473 0.000000 0.078873 0.000000
# 6 0.000000 0.000000 0.000000 0.018113 0.000000 0.022033
#
#
# Mechanical properties :
#
#
# Convention : Reuss Voigt Hill
#
# Bulk Modulus (GPa) = 18.78749 68.60310 43.69530
# Shear Modulus (GPa) = 20.75960 41.15971 30.95965
#
# Velocity S-wave (km/s) = 2.82083 3.97195 3.44482
# Velocity P-wave (km/s) = 4.22027 6.87972 5.70707
#
# Compressibility (1/GPa) = 0.05322691
#
# Stress axis : x y z
#
# Youngs Moduli (GPa) = 87.87762 143.88684 32.94064
#
# Poissons Ratio (x) = 0.44854 -0.22664
# Poissons Ratio (y) = 0.27394 0.04918
# Poissons Ratio (z) = -0.60463 0.21484
#
# Static dielectric constant tensor:
#      x y z
#    x 2.008740 0.000000 0.021290 
#    y 0.000000 2.062490 0.000000 
#    z 0.021290 0.000000 2.236380 
# 
# From -- ./inp_files/15018.got.cif
#   From: 2010.05.17/outbox.cif.g08.bks.cpg/sg5_8_cif.got.tgz:15018.got - 2010.06.03 18:56:24.
