data_PCOD9126724
_publ_section_title
;
Structure prediction by ZEFSAII (Michael W. Deem and Ramdas Pophale) SiO2 
 PCOD9126724
Probable space group: C 2
;
_chemical_formula_sum "Si O2"
_cell_formula_units_Z 28
_cell_length_a 14.394512
_cell_length_b 5.021941
_cell_length_c 19.147990
_cell_angle_alpha 90.000000
_cell_angle_beta 82.623346
_cell_angle_gamma 90.000000
_cell_volume 1372.721307
_symmetry_space_group_name_H-M "C 2"
_symmetry_group_IT_number 5
_symmetry_cell_setting 'monoclinic'
loop_
_space_group_symop_operation_xyz
x,y,z
-x,y,-z
1/2+x,1/2+y,z
1/2-x,1/2+y,-z
loop_
_atom_site_type_symbol
_atom_site_label
_atom_site_fract_x
_atom_site_fract_y
_atom_site_fract_z
Si Si1 0.535750 0.270350 0.424693
Si Si2 0.951821 0.729127 0.861736
Si Si3 0.250303 0.154870 0.950269
Si Si4 0.523413 0.051718 0.708644
Si Si5 0.608824 0.548193 0.650505
Si Si6 0.236206 0.825549 0.454916
Si Si7 0.043785 0.225597 0.919606
O O1 0.500000 0.141766 0.500000
O O2 0.461132 0.492999 0.408008
O O3 0.636812 0.386056 0.430427
O O4 0.535375 0.080490 0.357432
O O5 0.844965 0.706658 0.897878
O O6 0.965320 0.644988 0.780401
O O7 0.993760 0.018909 0.872814
O O8 0.014288 0.521287 0.900256
O O9 0.155232 0.188033 0.915091
O O10 0.253779 0.866054 0.985783
O O11 0.562099 0.756064 0.707806
O O12 0.109191 0.760862 0.687460
O O13 0.698467 0.685262 0.608652
O O14 0.224123 0.597226 0.515762
O O15 0.000000 0.170674 0.000000
#
# Coordination Sequence:
#
# PCOD9126724 Si02
#       7
#     4   4   4   4   4   4   4
#     4  10  22  42  66  91 127 169 218 273 323 382
#     4  12  24  45  64  97 143 168 221 275 322 397
#     4  12  23  40  69 102 130 167 221 270 317 388
#     4  10  24  44  64  89 137 177 209 273 340 378
#     4  10  22  42  60  92 126 166 222 258 335 387
#     4  12  23  38  67  99 122 161 219 282 334 385
#     4  12  23  41  72  98 129 177 216 267 331 384
#
# _framework density 20.397441000000001
#
# number of rings (size 3 to 8) (size 9 to 14) (size 15 to 20)
#    0.857    0.000    4.286    3.857    2.000    0.571 
#    5.143    0.000    0.000    0.000    0.000    0.000 
#    0.000    0.000    0.000    0.000    0.000    0.000 
#
# Total GULP energy -78163.733672 kJ/mol
# GULP energy per Si atom -5583.123834 kJ/mol
# Density = 2.035102 g / cm^3
# Si number density = 20.397441 Si / 1000 Ang^3
#
#
#
# Elastic Constant Matrix: (Units=GPa)
#
#
# Indices 1 2 3 4 5 6 
#
# 1 96.8390 -17.1666 21.3554 0.0000 -9.3568 0.0000
# 2 -17.1666 60.2018 -6.6961 0.0000 3.1923 0.0000
# 3 21.3554 -6.6961 90.8259 0.0000 -16.9314 0.0000
# 4 0.0000 0.0000 0.0000 29.2620 0.0000 -5.7111
# 5 -9.3568 3.1923 -16.9314 0.0000 20.6237 0.0000
# 6 0.0000 0.0000 0.0000 -5.7111 0.0000 8.0018
#
#
#
# Elastic Compliance Matrix: (Units=1/GPa)
#
#
# Indices 1 2 3 4 5 6 
#
# 1 0.011576 0.002918 -0.001903 0.000000 0.003238 0.000000
# 2 0.002918 0.017544 0.000411 0.000000 -0.001055 0.000000
# 3 -0.001903 0.000411 0.013360 0.000000 0.010041 0.000000
# 4 0.000000 0.000000 0.000000 0.039705 0.000000 0.028339
# 5 0.003238 -0.001055 0.010041 0.000000 0.058363 0.000000
# 6 0.000000 0.000000 0.000000 0.028339 0.000000 0.145198
#
#
# Mechanical properties :
#
#
# Convention : Reuss Voigt Hill
#
# Bulk Modulus (GPa) = 22.06009 26.98355 24.52182
# Shear Modulus (GPa) = 16.77816 28.26909 22.52363
#
# Velocity S-wave (km/s) = 2.87115 3.72682 3.32661
# Velocity P-wave (km/s) = 4.67225 5.63707 5.17718
#
# Compressibility (1/GPa) = 0.04533074
#
# Stress axis : x y z
#
# Youngs Moduli (GPa) = 86.38444 56.99831 74.85261
#
# Poissons Ratio (x) = -0.16630 0.14245
# Poissons Ratio (y) = -0.25203 -0.03075
# Poissons Ratio (z) = 0.16440 -0.02342
#
# Static dielectric constant tensor:
#      x y z
#    x 1.706500 0.000000 -0.009250 
#    y 0.000000 1.709280 0.000000 
#    z -0.009250 0.000000 1.738600 
# 
# From -- ./inp_files/64883.got.cif
#   From: 2010.05.17/outbox.cif.g08.bks.cpg/sg5_33_cif.got.tgz:64883.got - 2010.06.03 18:56:24.
