data_PCOD9126801
_publ_section_title
;
Structure prediction by ZEFSAII (Michael W. Deem and Ramdas Pophale) SiO2 
 PCOD9126801
Probable space group: C 2
;
_chemical_formula_sum "Si O2"
_cell_formula_units_Z 26
_cell_length_a 18.599288
_cell_length_b 5.113731
_cell_length_c 21.971921
_cell_angle_alpha 90.000000
_cell_angle_beta 152.581944
_cell_angle_gamma 90.000000
_cell_volume 962.304619
_symmetry_space_group_name_H-M "C 2"
_symmetry_group_IT_number 5
_symmetry_cell_setting 'monoclinic'
loop_
_space_group_symop_operation_xyz
x,y,z
-x,y,-z
1/2+x,1/2+y,z
1/2-x,1/2+y,-z
loop_
_atom_site_type_symbol
_atom_site_label
_atom_site_fract_x
_atom_site_fract_y
_atom_site_fract_z
Si Si1 0.506548 0.654860 0.695027
Si Si2 0.210472 0.818603 0.402762
Si Si3 0.743177 0.131227 0.674412
Si Si4 0.500000 0.229287 0.000000
Si Si5 0.397204 0.523337 0.035887
Si Si6 0.925959 0.649414 0.171360
Si Si7 0.805344 0.109736 0.287603
O O1 0.329872 0.733879 0.543143
O O2 0.469826 0.390836 0.706853
O O3 0.590729 0.600639 0.695260
O O4 0.575743 0.871102 0.790703
O O5 0.284422 0.034438 0.415563
O O6 0.126432 0.594453 0.302683
O O7 0.685250 0.891250 0.673705
O O8 0.930504 0.136779 0.822064
O O9 0.662606 0.386043 0.639842
O O10 0.597511 0.409961 0.027755
O O11 0.372388 0.068688 0.867794
O O12 0.390103 0.285561 0.078762
O O13 0.255226 0.720479 0.938227
#
# Coordination Sequence:
#
# PCOD9126801 Si02
#       7
#     4   4   4   2   4   4   4
#     4  12  26  47  76 111 149 205 262 317 388 467
#     4  11  27  46  77 107 153 201 260 326 382 472
#     4  10  27  48  73 110 151 201 248 320 391 457
#     4  10  22  42  66 112 148 196 244 320 378 464
#     4  10  24  42  75 107 158 197 253 322 391 466
#     4  11  25  46  69 115 150 203 257 316 396 461
#     4  11  26  47  75 110 152 198 254 314 389 460
#
# _framework density 27.018469
#
# number of rings (size 3 to 8) (size 9 to 14) (size 15 to 20)
#    0.000    1.231    3.077    0.000   12.923    4.308 
#    0.000    1.538    0.000    0.000    0.000    0.000 
#    0.000    0.000    0.000    0.000    0.000    0.000 
#
# Total GULP energy -72632.151843 kJ/mol
# GULP energy per Si atom -5587.088603 kJ/mol
# Density = 2.695697 g / cm^3
# Si number density = 27.018469 Si / 1000 Ang^3
#
#
#
# Elastic Constant Matrix: (Units=GPa)
#
#
# Indices 1 2 3 4 5 6 
#
# 1 191.7922 71.8197 21.4570 -0.0026 11.6260 -0.0026
# 2 71.8197 123.7288 42.3844 0.0026 8.3351 0.0037
# 3 21.4570 42.3844 126.1309 -0.0028 -11.6223 -0.0012
# 4 -0.0026 0.0026 -0.0028 26.7210 -0.0008 -16.4617
# 5 11.6260 8.3351 -11.6223 -0.0008 34.4601 0.0002
# 6 -0.0026 0.0037 -0.0012 -16.4617 0.0002 52.5197
#
#
#
# Elastic Compliance Matrix: (Units=1/GPa)
#
#
# Indices 1 2 3 4 5 6 
#
# 1 0.006723 -0.003818 0.000016 0.000002 -0.001339 0.000001
# 2 -0.003818 0.011692 -0.003531 -0.000003 -0.002731 -0.000002
# 3 0.000016 -0.003531 0.009485 0.000002 0.004048 0.000001
# 4 0.000002 -0.000003 0.000002 0.046379 0.000002 0.014537
# 5 -0.001339 -0.002731 0.004048 0.000002 0.031497 0.000001
# 6 0.000001 -0.000002 0.000001 0.014537 0.000001 0.023597
#
#
# Mechanical properties :
#
#
# Convention : Reuss Voigt Hill
#
# Bulk Modulus (GPa) = 75.56267 79.21933 77.39100
# Shear Modulus (GPa) = 33.68142 43.13958 38.41050
#
# Velocity S-wave (km/s) = 3.53456 4.00017 3.77455
# Velocity P-wave (km/s) = 6.68470 7.12174 6.90668
#
# Compressibility (1/GPa) = 0.01323405
#
# Stress axis : x y z
#
# Youngs Moduli (GPa) = 148.74394 85.53084 105.42823
#
# Poissons Ratio (x) = 0.32652 -0.00166
# Poissons Ratio (y) = 0.56784 0.37227
# Poissons Ratio (z) = -0.00234 0.30201
#
# Static dielectric constant tensor:
#      x y z
#    x 2.171160 0.000000 0.134020 
#    y 0.000000 2.153910 0.000000 
#    z 0.134020 0.000000 2.148320 
# 
# From -- ./inp_files/69025.got.cif
#   From: 2010.05.17/outbox.cif.g08.bks.cpg/sg5_35_cif.got.tgz:69025.got - 2010.06.03 18:56:24.
