data_PCOD9126463
_publ_section_title
;
Structure prediction by ZEFSAII (Michael W. Deem and Ramdas Pophale) SiO2 
 PCOD9126463
Probable space group: C 2
;
_chemical_formula_sum "Si O2"
_cell_formula_units_Z 30
_cell_length_a 8.782301
_cell_length_b 23.199368
_cell_length_c 8.872638
_cell_angle_alpha 90.000000
_cell_angle_beta 53.673647
_cell_angle_gamma 90.000000
_cell_volume 1456.420650
_symmetry_space_group_name_H-M "C 2"
_symmetry_group_IT_number 5
_symmetry_cell_setting 'monoclinic'
loop_
_space_group_symop_operation_xyz
x,y,z
-x,y,-z
1/2+x,1/2+y,z
1/2-x,1/2+y,-z
loop_
_atom_site_type_symbol
_atom_site_label
_atom_site_fract_x
_atom_site_fract_y
_atom_site_fract_z
Si Si1 0.626835 0.534670 0.776996
Si Si2 0.216369 0.366656 0.538607
Si Si3 0.000000 0.462358 0.500000
Si Si4 0.781266 0.336395 0.123195
Si Si5 0.538424 0.423451 0.155235
Si Si6 0.786627 0.658530 0.691113
Si Si7 0.151625 0.238558 0.527351
Si Si8 0.939762 0.724726 0.862264
O O1 0.828007 0.500879 0.664590
O O2 0.500500 0.487804 0.759107
O O3 0.684987 0.599418 0.704255
O O4 0.500000 0.541948 0.000000
O O5 0.280263 0.354426 0.671631
O O6 0.390943 0.380988 0.325290
O O7 0.116848 0.306358 0.560717
O O8 0.079373 0.420281 0.584222
O O9 0.740916 0.395137 0.056828
O O10 0.672578 0.283838 0.106976
O O11 0.000000 0.322319 0.000000
O O12 0.500000 0.424412 0.000000
O O13 0.666641 0.708917 0.681199
O O14 0.819881 0.674528 0.847532
O O15 0.000000 0.656656 0.500000
O O16 0.360368 0.230855 0.338701
O O17 0.000000 0.213112 0.500000
O O18 0.000000 0.716214 0.000000
#
# Coordination Sequence:
#
# PCOD9126463 Si02
#       8
#     4   4   2   4   4   4   4   4
#     4  10  22  41  73  91 131 179 231 281 337 401
#     4  11  22  38  66  90 137 173 211 271 344 402
#     4  10  22  40  68 102 128 178 228 266 352 400
#     4  12  26  37  62 101 142 177 222 281 346 419
#     4  10  23  42  66  96 131 174 226 275 337 410
#     4  10  22  45  67  92 133 179 231 282 343 413
#     4  11  23  39  67  98 133 177 225 274 347 419
#     4  11  25  41  64  97 139 177 229 291 342 404
#
# _framework density 20.598447
#
# number of rings (size 3 to 8) (size 9 to 14) (size 15 to 20)
#    0.000    1.333    4.000    0.800    7.467    1.600 
#    0.000    2.667    5.867    0.000    0.000    0.000 
#    0.000    0.000    0.000    0.000    0.000    0.000 
#
# Total GULP energy -83575.332341 kJ/mol
# GULP energy per Si atom -5571.688823 kJ/mol
# Density = 2.055156 g / cm^3
# Si number density = 20.598447 Si / 1000 Ang^3
#
#
#
# Elastic Constant Matrix: (Units=GPa)
#
#
# Indices 1 2 3 4 5 6 
#
# 1 102.2959 35.1166 21.7318 0.0000 11.1646 0.0000
# 2 35.1166 121.5728 16.2082 0.0000 6.0169 0.0000
# 3 21.7318 16.2082 71.8888 0.0000 7.9187 0.0000
# 4 0.0000 0.0000 0.0000 9.0933 0.0000 12.1408
# 5 11.1646 6.0169 7.9187 0.0000 44.5162 0.0000
# 6 0.0000 0.0000 0.0000 12.1408 0.0000 -4.0077
#
#
#
# Elastic Compliance Matrix: (Units=1/GPa)
#
#
# Indices 1 2 3 4 5 6 
#
# 1 0.011544 -0.002885 -0.002615 0.000000 -0.002040 0.000000
# 2 -0.002885 0.009231 -0.001174 0.000000 -0.000315 0.000000
# 3 -0.002615 -0.001174 0.015173 0.000000 -0.001885 0.000000
# 4 0.000000 0.000000 0.000000 0.021800 0.000000 0.066039
# 5 -0.002040 -0.000315 -0.001885 0.000000 0.023353 0.000000
# 6 0.000000 0.000000 0.000000 0.066039 0.000000 -0.049463
#
#
# Mechanical properties :
#
#
# Convention : Reuss Voigt Hill
#
# Bulk Modulus (GPa) = 44.24711 49.09672 46.67192
# Shear Modulus (GPa) = 95.20299 24.76711 59.98505
#
# Velocity S-wave (km/s) = 6.80580 3.47129 5.40226
# Velocity P-wave (km/s) = 9.12611 6.32087 7.84982
#
# Compressibility (1/GPa) = 0.02260035
#
# Stress axis : x y z
#
# Youngs Moduli (GPa) = 86.62488 108.33029 65.90600
#
# Poissons Ratio (x) = 0.31253 0.17231
# Poissons Ratio (y) = 0.24991 0.07740
# Poissons Ratio (z) = 0.22648 0.12722
#
# Static dielectric constant tensor:
#      x y z
#    x 1.832960 0.000000 0.044120 
#    y 0.000000 1.767640 0.000000 
#    z 0.044120 0.000000 1.830340 
# 
# From -- ./inp_files/17313.got.cif
#   From: 2010.05.17/outbox.cif.g08.bks.cpg/sg5_9_cif.got.tgz:17313.got - 2010.06.03 18:56:24.
