data_PCOD9126141
_publ_section_title
;
Structure prediction by ZEFSAII (Michael W. Deem and Ramdas Pophale) SiO2 
 PCOD9126141
Probable space group: C 2
;
_chemical_formula_sum "Si O2"
_cell_formula_units_Z 28
_cell_length_a 25.403579
_cell_length_b 9.261217
_cell_length_c 6.042785
_cell_angle_alpha 90.000000
_cell_angle_beta 53.879425
_cell_angle_gamma 90.000000
_cell_volume 1148.397571
_symmetry_space_group_name_H-M "C 2"
_symmetry_group_IT_number 5
_symmetry_cell_setting 'monoclinic'
loop_
_space_group_symop_operation_xyz
x,y,z
-x,y,-z
1/2+x,1/2+y,z
1/2-x,1/2+y,-z
loop_
_atom_site_type_symbol
_atom_site_label
_atom_site_fract_x
_atom_site_fract_y
_atom_site_fract_z
Si Si1 0.000000 0.711630 0.000000
Si Si2 0.538991 0.958316 0.195120
Si Si3 0.458792 0.457686 0.809755
Si Si4 0.647694 0.107204 0.210343
Si Si5 0.780618 0.110805 0.606961
Si Si6 0.846580 0.931619 0.783910
Si Si7 0.000000 0.213610 0.000000
Si Si8 0.216420 0.431046 0.377436
O O1 0.004081 0.592597 0.792905
O O2 0.951104 0.829911 0.009987
O O3 0.500000 0.893549 0.500000
O O4 0.603433 0.028872 0.138138
O O5 0.548568 0.834019 0.987965
O O6 0.500000 0.399916 0.500000
O O7 0.390070 0.499395 0.871152
O O8 0.498658 0.593980 0.806677
O O9 0.657167 0.012806 0.406980
O O10 0.627047 0.270065 0.320781
O O11 0.719199 0.121263 0.925032
O O12 0.800431 0.272377 0.496715
O O13 0.839390 0.028520 0.584130
O O14 0.750816 0.024329 0.478741
O O15 0.773348 0.914287 0.054096
#
# Coordination Sequence:
#
# PCOD9126141 Si02
#       8
#     2   4   4   4   4   4   2   4
#     4  10  22  38  64  98 120 164 212 256 302 386
#     4  11  23  44  65  93 131 168 209 264 318 374
#     4  11  23  44  65  93 131 168 209 264 318 374
#     4  10  22  41  64  90 126 158 206 261 307 374
#     4  10  22  41  63  93 123 162 206 253 314 372
#     4  10  22  41  64  90 126 158 206 261 307 374
#     4  10  26  42  60  90 132 168 224 248 310 382
#     4  10  22  41  63  93 123 162 206 253 314 372
#
# _framework density 24.381799999999998
#
# number of rings (size 3 to 8) (size 9 to 14) (size 15 to 20)
#    0.000    1.714    1.429    1.714    2.000    5.714 
#    5.143    0.000    0.000    0.000    0.000    0.000 
#    0.000    0.000    0.000    0.000    0.000    0.000 
#
# Total GULP energy -78068.529152 kJ/mol
# GULP energy per Si atom -5576.323511 kJ/mol
# Density = 2.432631 g / cm^3
# Si number density = 24.381800 Si / 1000 Ang^3
#
#
#
# Elastic Constant Matrix: (Units=GPa)
#
#
# Indices 1 2 3 4 5 6 
#
# 1 149.1867 72.5965 34.3291 0.0000 38.3878 0.0000
# 2 72.5965 194.2840 51.0589 0.0000 44.5611 0.0000
# 3 34.3291 51.0589 37.7629 0.0000 20.2639 0.0000
# 4 0.0000 0.0000 0.0000 26.2113 0.0000 17.1287
# 5 38.3878 44.5611 20.2639 0.0000 50.1918 0.0000
# 6 0.0000 0.0000 0.0000 17.1287 0.0000 44.1285
#
#
#
# Elastic Compliance Matrix: (Units=1/GPa)
#
#
# Indices 1 2 3 4 5 6 
#
# 1 0.009501 -0.001409 -0.004473 0.000000 -0.004210 0.000000
# 2 -0.001409 0.008701 -0.008830 0.000000 -0.003082 0.000000
# 3 -0.004473 -0.008830 0.046522 0.000000 -0.007522 0.000000
# 4 0.000000 0.000000 0.000000 0.051118 0.000000 -0.019842
# 5 -0.004210 -0.003082 -0.007522 0.000000 0.028917 0.000000
# 6 0.000000 0.000000 0.000000 -0.019842 0.000000 0.030363
#
#
# Mechanical properties :
#
#
# Convention : Reuss Voigt Hill
#
# Bulk Modulus (GPa) = 28.32768 77.46693 52.89731
# Shear Modulus (GPa) = 23.11473 38.98959 31.05216
#
# Velocity S-wave (km/s) = 3.08235 4.00325 3.57260
# Velocity P-wave (km/s) = 4.93067 7.29448 6.22579
#
# Compressibility (1/GPa) = 0.03530116
#
# Stress axis : x y z
#
# Youngs Moduli (GPa) = 105.24950 114.92775 21.49512
#
# Poissons Ratio (x) = 0.16195 0.09615
# Poissons Ratio (y) = 0.14832 0.18979
# Poissons Ratio (z) = 0.47077 1.01476
#
# Static dielectric constant tensor:
#      x y z
#    x 1.946430 0.000000 -0.055060 
#    y 0.000000 1.934390 0.000000 
#    z -0.055060 0.000000 1.986410 
# 
# From -- ./inp_files/11139.got.cif
#   From: 2010.05.17/outbox.cif.g08.bks.cpg/sg5_6_cif.got.tgz:11139.got - 2010.06.03 18:56:24.
