data_PCOD9126912
_publ_section_title
;
Structure prediction by ZEFSAII (Michael W. Deem and Ramdas Pophale) SiO2 
 PCOD9126912
Probable space group: C 2
;
_chemical_formula_sum "Si O2"
_cell_formula_units_Z 32
_cell_length_a 13.527430
_cell_length_b 7.476200
_cell_length_c 23.035333
_cell_angle_alpha 90.000000
_cell_angle_beta 148.070978
_cell_angle_gamma 90.000000
_cell_volume 1232.078089
_symmetry_space_group_name_H-M "C 2"
_symmetry_group_IT_number 5
_symmetry_cell_setting 'monoclinic'
loop_
_space_group_symop_operation_xyz
x,y,z
-x,y,-z
1/2+x,1/2+y,z
1/2-x,1/2+y,-z
loop_
_atom_site_type_symbol
_atom_site_label
_atom_site_fract_x
_atom_site_fract_y
_atom_site_fract_z
Si Si1 0.710524 0.892830 0.104637
Si Si2 0.812226 0.052715 0.035544
Si Si3 0.621968 0.208514 0.298682
Si Si4 0.388805 0.702804 0.252217
Si Si5 0.480572 0.874156 0.178457
Si Si6 0.997826 0.672943 0.567540
Si Si7 0.296062 0.460942 0.760521
Si Si8 0.694849 0.796003 0.491634
O O1 0.908323 0.782574 0.204057
O O2 0.711061 0.011563 0.045634
O O3 0.747449 0.038432 0.174272
O O4 0.500000 0.809830 0.000000
O O5 0.922095 0.239627 0.097382
O O6 0.987416 0.922531 0.120306
O O7 0.688411 0.016190 0.918562
O O8 0.729045 0.349353 0.311219
O O9 0.724585 0.202485 0.411161
O O10 0.635117 0.020034 0.271452
O O11 0.473112 0.747122 0.231260
O O12 0.294177 0.885246 0.226552
O O13 0.546423 0.684967 0.379362
O O14 0.870648 0.816063 0.536215
O O15 0.901123 0.481975 0.536847
O O16 0.000000 0.694944 0.500000
O O17 0.204845 0.651184 0.698443
#
# Coordination Sequence:
#
# PCOD9126912 Si02
#       8
#     4   4   4   4   4   4   4   4
#     4  10  23  41  66  97 135 187 227 291 372 441
#     4  10  23  43  66  95 138 182 235 297 355 441
#     4  11  22  43  67  99 143 185 241 305 357 445
#     4  10  24  41  71 102 136 185 234 301 367 447
#     4  11  24  44  65  98 132 187 230 293 361 427
#     4  11  23  44  72 100 144 196 237 309 369 436
#     4  10  22  42  70 101 135 188 238 289 379 432
#     4  11  23  45  71 105 143 186 249 305 369 445
#
# _framework density 25.972380999999999
#
# number of rings (size 3 to 8) (size 9 to 14) (size 15 to 20)
#    0.000    1.500    1.250    3.750    8.750    0.000 
#    9.000    3.125    0.000    0.000    0.000    0.000 
#    0.000    0.000    0.000    0.000    0.000    0.000 
#
# Total GULP energy -89267.811809 kJ/mol
# GULP energy per Si atom -5579.238238 kJ/mol
# Density = 2.591327 g / cm^3
# Si number density = 25.972381 Si / 1000 Ang^3
#
#
#
# Elastic Constant Matrix: (Units=GPa)
#
#
# Indices 1 2 3 4 5 6 
#
# 1 58.3429 -0.7943 3.4314 0.0000 -7.1375 0.0000
# 2 -0.7943 54.0017 14.7339 0.0000 -16.8041 0.0000
# 3 3.4314 14.7339 115.8203 0.0000 -23.2293 0.0000
# 4 0.0000 0.0000 0.0000 29.2135 0.0000 0.0448
# 5 -7.1375 -16.8041 -23.2293 0.0000 36.2116 0.0000
# 6 0.0000 0.0000 0.0000 0.0448 0.0000 23.0674
#
#
#
# Elastic Compliance Matrix: (Units=1/GPa)
#
#
# Indices 1 2 3 4 5 6 
#
# 1 0.017679 0.001559 0.000140 0.000000 0.004298 0.000000
# 2 0.001559 0.021854 -0.000839 0.000000 0.009911 0.000000
# 3 0.000140 -0.000839 0.009943 0.000000 0.006017 0.000000
# 4 0.000000 0.000000 0.000000 0.034231 0.000000 -0.000066
# 5 0.004298 0.009911 0.006017 0.000000 0.036921 0.000000
# 6 0.000000 0.000000 0.000000 -0.000066 0.000000 0.043351
#
#
# Mechanical properties :
#
#
# Convention : Reuss Voigt Hill
#
# Bulk Modulus (GPa) = 19.53237 29.21187 24.37212
# Shear Modulus (GPa) = 27.88247 31.75142 29.81694
#
# Velocity S-wave (km/s) = 3.28005 3.50023 3.39193
# Velocity P-wave (km/s) = 4.67779 5.25425 4.97438
#
# Compressibility (1/GPa) = 0.05119705
#
# Stress axis : x y z
#
# Youngs Moduli (GPa) = 56.56477 45.75893 100.56935
#
# Poissons Ratio (x) = -0.07135 -0.01407
# Poissons Ratio (y) = -0.08820 0.08433
# Poissons Ratio (z) = -0.00791 0.03837
#
# Static dielectric constant tensor:
#      x y z
#    x 2.124040 0.000000 0.069040 
#    y 0.000000 2.188330 0.000000 
#    z 0.069040 0.000000 2.142250 
# 
# From -- ./inp_files/68753.got.cif
#   From: 2010.05.17/outbox.cif.g08.bks.cpg/sg5_35_cif.got.tgz:68753.got - 2010.06.03 18:56:24.
