data_PCOD9126369
_publ_section_title
;
Structure prediction by ZEFSAII (Michael W. Deem and Ramdas Pophale) SiO2 
 PCOD9126369
Probable space group: C 2
;
_chemical_formula_sum "Si O2"
_cell_formula_units_Z 26
_cell_length_a 11.198538
_cell_length_b 7.886961
_cell_length_c 12.974147
_cell_angle_alpha 90.000000
_cell_angle_beta 97.891047
_cell_angle_gamma 90.000000
_cell_volume 1135.057535
_symmetry_space_group_name_H-M "C 2"
_symmetry_group_IT_number 5
_symmetry_cell_setting 'monoclinic'
loop_
_space_group_symop_operation_xyz
x,y,z
-x,y,-z
1/2+x,1/2+y,z
1/2-x,1/2+y,-z
loop_
_atom_site_type_symbol
_atom_site_label
_atom_site_fract_x
_atom_site_fract_y
_atom_site_fract_z
Si Si1 0.125445 0.686870 0.462438
Si Si2 0.634053 0.582083 0.212126
Si Si3 0.606011 0.592410 0.437492
Si Si4 0.654195 0.282225 0.856353
Si Si5 0.392167 0.211884 0.768045
Si Si6 0.500000 0.705138 0.000000
Si Si7 0.671167 0.011155 0.038336
O O1 0.255691 0.651369 0.528263
O O2 0.134887 0.627902 0.344418
O O3 0.000000 0.622934 0.500000
O O4 0.111601 0.889892 0.454105
O O5 0.574446 0.623731 0.314354
O O6 0.741906 0.714130 0.206441
O O7 0.681071 0.387074 0.222235
O O8 0.547901 0.602537 0.103433
O O9 0.500000 0.659696 0.500000
O O10 0.528969 0.280306 0.783510
O O11 0.694746 0.456841 0.914028
O O12 0.652985 0.148049 0.949002
O O13 0.381704 0.085517 0.862137
O O14 0.608000 0.839228 0.992125
#
# Coordination Sequence:
#
# PCOD9126369 Si02
#       7
#     4   4   4   4   4   2   4
#     4  10  23  44  70  98 131 175 226 280 343 396
#     4  10  24  41  63  95 131 172 218 273 333 396
#     4  10  23  46  67  99 133 173 227 282 337 403
#     4  11  23  40  61  92 131 173 215 273 325 401
#     4  11  23  41  65  94 132 173 220 277 331 402
#     4  10  22  40  62  94 132 172 214 270 328 396
#     4  11  23  39  62  94 131 170 222 263 333 399
#
# _framework density 22.906327000000001
#
# number of rings (size 3 to 8) (size 9 to 14) (size 15 to 20)
#    0.000    1.538    1.538    1.846    6.462    6.769 
#    5.538    0.000    0.000    0.000    0.000    0.000 
#    0.000    0.000    0.000    0.000    0.000    0.000 
#
# Total GULP energy -72635.294257 kJ/mol
# GULP energy per Si atom -5587.330327 kJ/mol
# Density = 2.285419 g / cm^3
# Si number density = 22.906327 Si / 1000 Ang^3
#
#
#
# Elastic Constant Matrix: (Units=GPa)
#
#
# Indices 1 2 3 4 5 6 
#
# 1 97.7419 4.3244 36.4385 0.0000 4.3871 0.0000
# 2 4.3244 36.3811 23.7992 0.0000 -8.8106 0.0000
# 3 36.4385 23.7992 160.7745 0.0000 -12.3784 0.0000
# 4 0.0000 0.0000 0.0000 21.6366 0.0000 3.2074
# 5 4.3871 -8.8106 -12.3784 0.0000 29.7459 0.0000
# 6 0.0000 0.0000 0.0000 3.2074 0.0000 33.2493
#
#
#
# Elastic Compliance Matrix: (Units=1/GPa)
#
#
# Indices 1 2 3 4 5 6 
#
# 1 0.011406 -0.000247 -0.002773 0.000000 -0.002909 0.000000
# 2 -0.000247 0.032091 -0.004091 0.000000 0.007839 0.000000
# 3 -0.002773 -0.004091 0.007637 0.000000 0.002375 0.000000
# 4 0.000000 0.000000 0.000000 0.046888 0.000000 -0.004523
# 5 -0.002909 0.007839 0.002375 0.000000 0.037357 0.000000
# 6 0.000000 0.000000 0.000000 -0.004523 0.000000 0.030512
#
#
# Mechanical properties :
#
#
# Convention : Reuss Voigt Hill
#
# Bulk Modulus (GPa) = 27.09043 47.11353 37.10198
# Shear Modulus (GPa) = 25.98535 32.28206 29.13370
#
# Velocity S-wave (km/s) = 3.37177 3.75815 3.57019
# Velocity P-wave (km/s) = 5.19718 6.28046 5.76432
#
# Compressibility (1/GPa) = 0.03691340
#
# Stress axis : x y z
#
# Youngs Moduli (GPa) = 87.67200 31.16173 130.94628
#
# Poissons Ratio (x) = 0.00768 0.36306
# Poissons Ratio (y) = 0.02162 0.53569
# Poissons Ratio (z) = 0.24308 0.12748
#
# Static dielectric constant tensor:
#      x y z
#    x 1.942410 0.000000 -0.016480 
#    y 0.000000 1.857240 0.000000 
#    z -0.016480 0.000000 1.844040 
# 
# From -- ./inp_files/38375.got.cif
#   From: 2010.05.17/outbox.cif.g08.bks.cpg/sg5_20_cif.got.tgz:38375.got - 2010.06.03 18:56:24.
