data_PCOD9126207
_publ_section_title
;
Structure prediction by ZEFSAII (Michael W. Deem and Ramdas Pophale) SiO2 
 PCOD9126207
Probable space group: C 2
;
_chemical_formula_sum "Si O2"
_cell_formula_units_Z 18
_cell_length_a 9.839409
_cell_length_b 12.243047
_cell_length_c 9.024553
_cell_angle_alpha 90.000000
_cell_angle_beta 131.219431
_cell_angle_gamma 90.000000
_cell_volume 817.735102
_symmetry_space_group_name_H-M "C 2"
_symmetry_group_IT_number 5
_symmetry_cell_setting 'monoclinic'
loop_
_space_group_symop_operation_xyz
x,y,z
-x,y,-z
1/2+x,1/2+y,z
1/2-x,1/2+y,-z
loop_
_atom_site_type_symbol
_atom_site_label
_atom_site_fract_x
_atom_site_fract_y
_atom_site_fract_z
Si Si1 0.591756 0.251060 0.261256
Si Si2 0.486224 0.034075 0.658251
Si Si3 0.500000 0.813614 0.000000
Si Si4 0.279158 0.818319 0.109836
Si Si5 0.193676 0.903034 0.582028
O O1 0.501701 0.133268 0.218828
O O2 0.739096 0.257828 0.236695
O O3 0.672491 0.291414 0.473910
O O4 0.422696 0.329361 0.101062
O O5 0.500000 0.072514 0.500000
O O6 0.623209 0.933754 0.786188
O O7 0.285807 0.986718 0.537001
O O8 0.594084 0.759747 0.923085
O O9 0.336442 0.884538 0.815566
O O10 0.000000 0.937281 0.500000
#
# Coordination Sequence:
#
# PCOD9126207 Si02
#       5
#     4   4   2   4   4
#     4  11  23  45  74 102 149 192 246 298 368 430
#     4  11  24  45  75 105 147 199 244 298 371 435
#     4  10  22  38  72  98 140 188 234 290 372 406
#     4  10  23  45  70 107 146 189 240 310 350 438
#     4  11  22  45  69 103 149 190 239 309 350 439
#
# _framework density 22.012018999999999
#
# number of rings (size 3 to 8) (size 9 to 14) (size 15 to 20)
#    0.000    1.333    4.444    0.667    0.000    7.111 
#    8.000    2.222    0.000    0.000    0.000    0.000 
#    0.000    0.000    0.000    0.000    0.000    0.000 
#
# Total GULP energy -50198.213496 kJ/mol
# GULP energy per Si atom -5577.579277 kJ/mol
# Density = 2.196192 g / cm^3
# Si number density = 22.012019 Si / 1000 Ang^3
#
#
#
# Elastic Constant Matrix: (Units=GPa)
#
#
# Indices 1 2 3 4 5 6 
#
# 1 221.3681 52.6018 43.4826 0.0000 -13.2462 0.0000
# 2 52.6018 68.3200 21.3258 0.0000 -12.2574 0.0000
# 3 43.4826 21.3258 85.3636 0.0000 6.0833 0.0000
# 4 0.0000 0.0000 0.0000 9.1485 0.0000 -2.0994
# 5 -13.2462 -12.2574 6.0833 0.0000 39.5465 0.0000
# 6 0.0000 0.0000 0.0000 -2.0994 0.0000 34.2765
#
#
#
# Elastic Compliance Matrix: (Units=1/GPa)
#
#
# Indices 1 2 3 4 5 6 
#
# 1 0.005878 -0.003638 -0.002169 0.000000 0.001175 0.000000
# 2 -0.003638 0.019451 -0.003386 0.000000 0.005331 0.000000
# 3 -0.002169 -0.003386 0.013945 0.000000 -0.003921 0.000000
# 4 0.000000 0.000000 0.000000 0.110866 0.000000 0.006790
# 5 0.001175 0.005331 -0.003921 0.000000 0.027936 0.000000
# 6 0.000000 0.000000 0.000000 0.006790 0.000000 0.029590
#
#
# Mechanical properties :
#
#
# Convention : Reuss Voigt Hill
#
# Bulk Modulus (GPa) = 47.87456 67.76358 57.81907
# Shear Modulus (GPa) = 21.45770 33.77038 27.61404
#
# Velocity S-wave (km/s) = 3.12559 3.92111 3.54573
# Velocity P-wave (km/s) = 5.90104 7.16601 6.56407
#
# Compressibility (1/GPa) = 0.02088792
#
# Stress axis : x y z
#
# Youngs Moduli (GPa) = 170.12016 51.40999 71.71060
#
# Poissons Ratio (x) = 0.18703 0.15555
# Poissons Ratio (y) = 0.61888 0.24283
# Poissons Ratio (z) = 0.36902 0.17409
#
# Static dielectric constant tensor:
#      x y z
#    x 1.842550 0.000000 -0.047290 
#    y 0.000000 1.849960 0.000000 
#    z -0.047290 0.000000 1.867620 
# 
# From -- ./inp_files/14209.got.cif
#   From: 2010.05.17/outbox.cif.g08.bks.cpg/sg5_8_cif.got.tgz:14209.got - 2010.06.03 18:56:24.
