data_PCOD9126959
_publ_section_title
;
Structure prediction by ZEFSAII (Michael W. Deem and Ramdas Pophale) SiO2 
 PCOD9126959
Probable space group: C 2
;
_chemical_formula_sum "Si O2"
_cell_formula_units_Z 20
_cell_length_a 10.300472
_cell_length_b 14.974893
_cell_length_c 8.545211
_cell_angle_alpha 90.000000
_cell_angle_beta 50.024147
_cell_angle_gamma 90.000000
_cell_volume 1010.069196
_symmetry_space_group_name_H-M "C 2"
_symmetry_group_IT_number 5
_symmetry_cell_setting 'monoclinic'
loop_
_space_group_symop_operation_xyz
x,y,z
-x,y,-z
1/2+x,1/2+y,z
1/2-x,1/2+y,-z
loop_
_atom_site_type_symbol
_atom_site_label
_atom_site_fract_x
_atom_site_fract_y
_atom_site_fract_z
Si Si1 0.220256 0.241130 0.106727
Si Si2 0.000000 0.301246 0.000000
Si Si3 0.057487 0.905397 0.129947
Si Si4 0.700901 0.039467 0.870463
Si Si5 0.228661 0.421556 0.591117
Si Si6 0.500000 0.861139 0.500000
O O1 0.091122 0.244179 0.061904
O O2 0.268160 0.141188 0.109811
O O3 0.134762 0.295514 0.315123
O O4 0.372804 0.305363 0.940359
O O5 0.856336 0.358224 0.208000
O O6 0.902550 0.897796 0.370824
O O7 0.202849 0.972717 0.083250
O O8 0.000000 0.934755 0.000000
O O9 0.768807 0.013785 0.646653
O O10 0.500000 0.025115 0.000000
O O11 0.087775 0.420517 0.564715
#
# Coordination Sequence:
#
# PCOD9126959 Si02
#       6
#     4   2   4   4   4   2
#     4  11  24  44  70 105 141 190 236 296 351 424
#     4  10  22  46  72 100 148 190 228 290 364 426
#     4  12  25  45  74 102 145 191 241 291 357 425
#     4  12  26  44  71 104 144 187 243 297 351 419
#     4  11  22  44  76 101 141 191 233 291 355 426
#     4  10  22  42  72  98 144 192 228 290 360 424
#
# _framework density 19.800623999999999
#
# number of rings (size 3 to 8) (size 9 to 14) (size 15 to 20)
#    0.000    0.800    5.000    2.400    4.200    0.000 
#    0.000    0.000    4.400    0.000    0.000    0.000 
#    0.000    0.000    0.000    0.000    0.000    0.000 
#
# Total GULP energy -55789.545585 kJ/mol
# GULP energy per Si atom -5578.954558 kJ/mol
# Density = 1.975556 g / cm^3
# Si number density = 19.800624 Si / 1000 Ang^3
#
#
#
# Elastic Constant Matrix: (Units=GPa)
#
#
# Indices 1 2 3 4 5 6 
#
# 1 150.0123 83.2321 43.1889 0.0000 19.0698 0.0000
# 2 83.2321 154.0630 56.5340 0.0000 5.6553 0.0000
# 3 43.1889 56.5340 147.4501 0.0000 -11.6441 0.0000
# 4 0.0000 0.0000 0.0000 14.6093 0.0000 4.6320
# 5 19.0698 5.6553 -11.6441 0.0000 41.5544 0.0000
# 6 0.0000 0.0000 0.0000 4.6320 0.0000 30.1408
#
#
#
# Elastic Compliance Matrix: (Units=1/GPa)
#
#
# Indices 1 2 3 4 5 6 
#
# 1 0.010395 -0.004888 -0.001528 0.000000 -0.004533 0.000000
# 2 -0.004888 0.009999 -0.002385 0.000000 0.000214 0.000000
# 3 -0.001528 -0.002385 0.008411 0.000000 0.003383 0.000000
# 4 0.000000 0.000000 0.000000 0.071956 0.000000 -0.011058
# 5 -0.004533 0.000214 0.003383 0.000000 0.027064 0.000000
# 6 0.000000 0.000000 0.000000 -0.011058 0.000000 0.034877
#
#
# Mechanical properties :
#
#
# Convention : Reuss Voigt Hill
#
# Bulk Modulus (GPa) = 89.27464 90.82617 90.05041
# Shear Modulus (GPa) = 27.16813 35.16558 31.16686
#
# Velocity S-wave (km/s) = 3.70818 4.21881 3.97171
# Velocity P-wave (km/s) = 7.96987 8.34872 8.16149
#
# Compressibility (1/GPa) = 0.01120139
#
# Stress axis : x y z
#
# Youngs Moduli (GPa) = 96.20274 100.00834 118.88901
#
# Poissons Ratio (x) = 0.48889 0.18171
# Poissons Ratio (y) = 0.47028 0.28355
# Poissons Ratio (z) = 0.14703 0.23852
#
# Static dielectric constant tensor:
#      x y z
#    x 1.760450 0.000000 -0.035870 
#    y 0.000000 1.679880 0.000000 
#    z -0.035870 0.000000 1.770590 
# 
# From -- ./inp_files/19937.got.cif
#   From: 2010.05.17/outbox.cif.g08.bks.cpg/sg5_10_cif.got.tgz:19937.got - 2010.06.03 18:56:24.
