data_PCOD9126792
_publ_section_title
;
Structure prediction by ZEFSAII (Michael W. Deem and Ramdas Pophale) SiO2 
 PCOD9126792
Probable space group: C 2
;
_chemical_formula_sum "Si O2"
_cell_formula_units_Z 18
_cell_length_a 14.281675
_cell_length_b 12.102995
_cell_length_c 7.097226
_cell_angle_alpha 90.000000
_cell_angle_beta 35.631782
_cell_angle_gamma 90.000000
_cell_volume 714.680059
_symmetry_space_group_name_H-M "C 2"
_symmetry_group_IT_number 5
_symmetry_cell_setting 'monoclinic'
loop_
_space_group_symop_operation_xyz
x,y,z
-x,y,-z
1/2+x,1/2+y,z
1/2-x,1/2+y,-z
loop_
_atom_site_type_symbol
_atom_site_label
_atom_site_fract_x
_atom_site_fract_y
_atom_site_fract_z
Si Si1 0.000000 0.651011 0.000000
Si Si2 0.811482 0.770735 0.825805
Si Si3 0.275767 0.799473 0.591886
Si Si4 0.252699 0.472622 0.646924
Si Si5 0.034159 0.123549 0.222339
O O1 0.133102 0.738289 0.708650
O O2 0.124318 0.569100 0.904280
O O3 0.758793 0.879112 0.795359
O O4 0.000000 0.755426 0.500000
O O5 0.769128 0.795137 0.114545
O O6 0.717282 0.660718 0.910353
O O7 0.299995 0.918128 0.462962
O O8 0.435166 0.728120 0.308851
O O9 0.432710 0.519652 0.316457
O O10 0.000000 0.114971 0.500000
#
# Coordination Sequence:
#
# PCOD9126792 Si02
#       5
#     2   4   4   4   4
#     4  10  22  42  66 100 134 162 214 274 316 380
#     4  11  23  43  67  95 132 171 216 267 318 381
#     4  10  22  44  67  96 134 167 213 270 319 381
#     4  11  22  43  71  95 129 174 214 262 326 383
#     4   9  21  42  68  98 131 169 216 267 319 382
#
# _framework density 25.186098000000001
#
# number of rings (size 3 to 8) (size 9 to 14) (size 15 to 20)
#    0.000    1.778    0.000    3.333    0.000    0.000 
#    0.000   46.667    0.000   10.667    0.000    0.000 
#    0.000    0.000    0.000    0.000    0.000    0.000 
#
# Total GULP energy -50300.831287 kJ/mol
# GULP energy per Si atom -5588.981254 kJ/mol
# Density = 2.512877 g / cm^3
# Si number density = 25.186098 Si / 1000 Ang^3
#
#
#
# Elastic Constant Matrix: (Units=GPa)
#
#
# Indices 1 2 3 4 5 6 
#
# 1 81.4539 22.7891 30.8764 0.0000 3.8143 0.0000
# 2 22.7891 92.5932 6.3788 0.0000 5.6965 0.0000
# 3 30.8764 6.3788 84.2438 0.0000 6.0792 0.0000
# 4 0.0000 0.0000 0.0000 -71.8314 0.0000 60.8209
# 5 3.8143 5.6965 6.0792 0.0000 48.3846 0.0000
# 6 0.0000 0.0000 0.0000 60.8209 0.0000 -13.6715
#
#
#
# Elastic Compliance Matrix: (Units=1/GPa)
#
#
# Indices 1 2 3 4 5 6 
#
# 1 0.015246 -0.003377 -0.005322 0.000000 -0.000136 0.000000
# 2 -0.003377 0.011673 0.000438 0.000000 -0.001163 0.000000
# 3 -0.005322 0.000438 0.013887 0.000000 -0.001377 0.000000
# 4 0.000000 0.000000 0.000000 0.005032 0.000000 0.022384
# 5 -0.000136 -0.001163 -0.001377 0.000000 0.020988 0.000000
# 6 0.000000 0.000000 0.000000 0.022384 0.000000 0.026436
#
#
# Mechanical properties :
#
#
# Convention : Reuss Voigt Hill
#
# Bulk Modulus (GPa) = 41.18245 42.04215 41.61230
# Shear Modulus (GPa) = 42.41649 5.79278 24.10464
#
# Velocity S-wave (km/s) = 4.10826 1.51822 3.09700
# Velocity P-wave (km/s) = 6.23622 4.44996 5.41722
#
# Compressibility (1/GPa) = 0.02428219
#
# Stress axis : x y z
#
# Youngs Moduli (GPa) = 65.59280 85.67123 72.00893
#
# Poissons Ratio (x) = 0.28933 0.38325
# Poissons Ratio (y) = 0.22152 -0.03153
# Poissons Ratio (z) = 0.34910 -0.03752
#
# Static dielectric constant tensor:
#      x y z
#    x 2.089560 0.000000 -0.005460 
#    y 0.000000 1.955260 0.000000 
#    z -0.005460 0.000000 1.976480 
# 
# From -- ./inp_files/27163.got.cif
#   From: 2010.05.17/outbox.cif.g08.bks.cpg/sg5_14_cif.got.tgz:27163.got - 2010.06.03 18:56:24.
