data_PCOD9126996
_publ_section_title
;
Structure prediction by ZEFSAII (Michael W. Deem and Ramdas Pophale) SiO2 
 PCOD9126996
Probable space group: C 2
;
_chemical_formula_sum "Si O2"
_cell_formula_units_Z 18
_cell_length_a 7.479806
_cell_length_b 8.049052
_cell_length_c 11.473093
_cell_angle_alpha 90.000000
_cell_angle_beta 97.537089
_cell_angle_gamma 90.000000
_cell_volume 684.773654
_symmetry_space_group_name_H-M "C 2"
_symmetry_group_IT_number 5
_symmetry_cell_setting 'monoclinic'
loop_
_space_group_symop_operation_xyz
x,y,z
-x,y,-z
1/2+x,1/2+y,z
1/2-x,1/2+y,-z
loop_
_atom_site_type_symbol
_atom_site_label
_atom_site_fract_x
_atom_site_fract_y
_atom_site_fract_z
Si Si1 0.167422 0.406420 0.957912
Si Si2 0.267720 0.407124 0.227007
Si Si3 0.423072 0.195602 0.814072
Si Si4 0.625839 0.728910 0.409902
Si Si5 0.500000 0.397073 0.500000
O O1 0.306384 0.309110 0.890456
O O2 0.068583 0.564538 0.886849
O O3 0.263601 0.449607 0.088218
O O4 0.000000 0.302244 0.000000
O O5 0.451817 0.310527 0.251340
O O6 0.216389 0.586371 0.273571
O O7 0.114003 0.293105 0.275007
O O8 0.500000 0.808379 0.500000
O O9 0.583944 0.535416 0.417784
O O10 0.828339 0.784555 0.456767
#
# Coordination Sequence:
#
# PCOD9126996 Si02
#       5
#     4   4   4   4   2
#     4  10  22  43  63  97 135 169 212 266 316 390
#     4  11  23  42  69  96 128 178 212 264 331 387
#     4  11  26  41  65  98 135 167 216 263 319 392
#     4  10  27  46  71  98 136 172 229 277 336 393
#     4  10  26  46  70  94 138 170 220 294 326 386
#
# _framework density 26.286058000000001
#
# number of rings (size 3 to 8) (size 9 to 14) (size 15 to 20)
#    0.667    0.889    0.000    4.667    4.667   12.444 
#    4.000    0.000    0.000    0.000    0.000    0.000 
#    0.000    0.000    0.000    0.000    0.000    0.000 
#
# Total GULP energy -50143.476766 kJ/mol
# GULP energy per Si atom -5571.497418 kJ/mol
# Density = 2.622623 g / cm^3
# Si number density = 26.286058 Si / 1000 Ang^3
#
#
#
# Elastic Constant Matrix: (Units=GPa)
#
#
# Indices 1 2 3 4 5 6 
#
# 1 187.6882 98.9539 76.4900 0.0000 -44.3950 0.0000
# 2 98.9539 153.7969 69.9983 0.0000 -15.6199 0.0000
# 3 76.4900 69.9983 119.0498 0.0000 -34.6808 0.0000
# 4 0.0000 0.0000 0.0000 26.7451 0.0000 1.8213
# 5 -44.3950 -15.6199 -34.6808 0.0000 51.7150 0.0000
# 6 0.0000 0.0000 0.0000 1.8213 0.0000 63.8392
#
#
#
# Elastic Compliance Matrix: (Units=1/GPa)
#
#
# Indices 1 2 3 4 5 6 
#
# 1 0.010173 -0.005129 -0.001774 0.000000 0.005994 0.000000
# 2 -0.005129 0.011507 -0.004649 0.000000 -0.004045 0.000000
# 3 -0.001774 -0.004649 0.014193 0.000000 0.006591 0.000000
# 4 0.000000 0.000000 0.000000 0.037463 0.000000 -0.001069
# 5 0.005994 -0.004045 0.006591 0.000000 0.027681 0.000000
# 6 0.000000 0.000000 0.000000 -0.001069 0.000000 0.015695
#
#
# Mechanical properties :
#
#
# Convention : Reuss Voigt Hill
#
# Bulk Modulus (GPa) = 78.31465 105.71330 92.01397
# Shear Modulus (GPa) = 34.70471 42.79939 38.75205
#
# Velocity S-wave (km/s) = 3.63749 4.03949 3.84375
# Velocity P-wave (km/s) = 6.89200 7.87785 7.40136
#
# Compressibility (1/GPa) = 0.01276900
#
# Stress axis : x y z
#
# Youngs Moduli (GPa) = 98.29854 86.90195 70.45583
#
# Poissons Ratio (x) = 0.44573 0.12501
# Poissons Ratio (y) = 0.50418 0.32754
# Poissons Ratio (z) = 0.17441 0.40400
#
# Static dielectric constant tensor:
#      x y z
#    x 2.143000 0.000000 0.181030 
#    y 0.000000 2.115910 0.000000 
#    z 0.181030 0.000000 2.292410 
# 
# From -- ./inp_files/34554.got.cif
#   From: 2010.05.17/outbox.cif.g08.bks.cpg/sg5_18_cif.got.tgz:34554.got - 2010.06.03 18:56:24.
