data_PCOD9126032
_publ_section_title
;
Structure prediction by ZEFSAII (Michael W. Deem and Ramdas Pophale) SiO2 
 PCOD9126032
Probable space group: C 2
;
_chemical_formula_sum "Si O2"
_cell_formula_units_Z 30
_cell_length_a 29.708300
_cell_length_b 5.237415
_cell_length_c 28.501909
_cell_angle_alpha 90.000000
_cell_angle_beta 162.170364
_cell_angle_gamma 90.000000
_cell_volume 1357.864854
_symmetry_space_group_name_H-M "C 2"
_symmetry_group_IT_number 5
_symmetry_cell_setting 'monoclinic'
loop_
_space_group_symop_operation_xyz
x,y,z
-x,y,-z
1/2+x,1/2+y,z
1/2-x,1/2+y,-z
loop_
_atom_site_type_symbol
_atom_site_label
_atom_site_fract_x
_atom_site_fract_y
_atom_site_fract_z
Si Si1 0.070723 0.229140 0.644135
Si Si2 0.551601 0.507480 0.957035
Si Si3 0.567981 0.217863 0.700449
Si Si4 0.000000 0.800797 0.000000
Si Si5 0.293434 0.588170 0.320551
Si Si6 0.250606 0.233337 0.358866
Si Si7 0.766788 0.298432 0.987512
Si Si8 0.527876 0.998433 0.883816
O O1 0.121594 0.493476 0.718069
O O2 0.151890 0.120304 0.678405
O O3 0.903043 0.265807 0.459437
O O4 0.076991 0.001552 0.687743
O O5 0.580034 0.462890 0.039663
O O6 0.374106 0.525464 0.773928
O O7 0.588102 0.270864 0.959849
O O8 0.601106 0.785546 0.990481
O O9 0.392029 0.167958 0.529712
O O10 0.653149 0.218829 0.833785
O O11 0.879560 0.637570 0.853599
O O12 0.306110 0.329025 0.362877
O O13 0.146271 0.451849 0.280010
O O14 0.914083 0.410366 0.108957
O O15 0.705616 0.540679 0.955836
#
# Coordination Sequence:
#
# PCOD9126032 Si02
#       8
#     4   4   4   2   4   4   4   4
#     4  10  24  41  58  95 136 186 220 265 315 385
#     4  10  22  37  62  94 133 172 216 263 310 382
#     4  11  24  42  71  91 131 176 223 268 342 397
#     4  12  20  32  60  92 130 178 220 262 306 358
#     4  10  22  38  59  95 142 179 229 267 302 371
#     4   9  22  42  66  96 131 182 219 273 315 389
#     4  12  27  49  72 101 130 162 215 291 360 424
#     4  10  23  43  66  92 127 168 208 277 333 399
#
# _framework density 22.093508
#
# number of rings (size 3 to 8) (size 9 to 14) (size 15 to 20)
#    0.800    0.800    1.333    2.400    5.600    7.467 
#    0.000    1.333    0.000    0.000    0.000    0.000 
#    0.000    0.000    0.000    0.000    0.000    0.000 
#
# Total GULP energy -83689.638711 kJ/mol
# GULP energy per Si atom -5579.309247 kJ/mol
# Density = 2.204322 g / cm^3
# Si number density = 22.093508 Si / 1000 Ang^3
#
#
#
# Elastic Constant Matrix: (Units=GPa)
#
#
# Indices 1 2 3 4 5 6 
#
# 1 74.8211 21.9488 28.2614 -0.0104 -13.0167 -0.0101
# 2 21.9488 99.7253 20.0180 -0.0411 -10.7494 0.0155
# 3 28.2614 20.0180 93.5833 0.0274 -1.5959 -0.0037
# 4 -0.0104 -0.0411 0.0274 30.7449 -0.0084 -1.8725
# 5 -13.0167 -10.7494 -1.5959 -0.0084 28.5557 -0.0011
# 6 -0.0101 0.0155 -0.0037 -1.8725 -0.0011 37.6626
#
#
#
# Elastic Compliance Matrix: (Units=1/GPa)
#
#
# Indices 1 2 3 4 5 6 
#
# 1 0.016841 -0.002082 -0.004527 0.000009 0.006640 0.000006
# 2 -0.002082 0.011169 -0.001706 0.000016 0.003160 -0.000004
# 3 -0.004527 -0.001706 0.012384 -0.000015 -0.002014 0.000000
# 4 0.000009 0.000016 -0.000015 0.032625 0.000019 0.001622
# 5 0.006640 0.003160 -0.002014 0.000019 0.039123 0.000002
# 6 0.000006 -0.000004 0.000000 0.001622 0.000002 0.026632
#
#
# Mechanical properties :
#
#
# Convention : Reuss Voigt Hill
#
# Bulk Modulus (GPa) = 42.08398 45.39845 43.74122
# Shear Modulus (GPa) = 30.61366 32.58608 31.59987
#
# Velocity S-wave (km/s) = 3.72646 3.84463 3.78601
# Velocity P-wave (km/s) = 6.13227 6.34832 6.24123
#
# Compressibility (1/GPa) = 0.02376201
#
# Stress axis : x y z
#
# Youngs Moduli (GPa) = 59.37813 89.53388 80.75231
#
# Poissons Ratio (x) = 0.18642 0.36559
# Poissons Ratio (y) = 0.12363 0.13780
# Poissons Ratio (z) = 0.26882 0.15278
#
# Static dielectric constant tensor:
#      x y z
#    x 1.870560 -0.000030 0.106630 
#    y -0.000030 1.822100 0.000000 
#    z 0.106630 0.000000 1.882230 
# 
# From -- ./inp_files/71455.got.cif
#   From: 2010.05.17/outbox.cif.g08.bks.cpg/sg5_36_cif.got.tgz:71455.got - 2010.06.03 18:56:24.
