data_PCOD9126084
_publ_section_title
;
Structure prediction by ZEFSAII (Michael W. Deem and Ramdas Pophale) SiO2 
 PCOD9126084
Probable space group: C 2
;
_chemical_formula_sum "Si O2"
_cell_formula_units_Z 30
_cell_length_a 15.693382
_cell_length_b 5.127917
_cell_length_c 18.831031
_cell_angle_alpha 90.000000
_cell_angle_beta 119.447276
_cell_angle_gamma 90.000000
_cell_volume 1319.636353
_symmetry_space_group_name_H-M "C 2"
_symmetry_group_IT_number 5
_symmetry_cell_setting 'monoclinic'
loop_
_space_group_symop_operation_xyz
x,y,z
-x,y,-z
1/2+x,1/2+y,z
1/2-x,1/2+y,-z
loop_
_atom_site_type_symbol
_atom_site_label
_atom_site_fract_x
_atom_site_fract_y
_atom_site_fract_z
Si Si1 0.046072 0.120660 0.157342
Si Si2 0.500000 0.278716 0.000000
Si Si3 0.103678 0.010679 0.790686
Si Si4 0.286081 0.530932 0.422062
Si Si5 0.924603 0.526553 0.312100
Si Si6 0.825399 0.532028 0.876023
Si Si7 0.273319 0.375619 0.728753
Si Si8 0.121117 0.529300 0.474566
O O1 0.107706 0.358314 0.149186
O O2 0.016933 0.947865 0.077078
O O3 0.123448 0.004829 0.247089
O O4 0.947282 0.137313 0.161704
O O5 0.598267 0.107530 0.031745
O O6 0.059724 0.740579 0.742787
O O7 0.084819 0.232953 0.722909
O O8 0.217708 0.937591 0.852386
O O9 0.253508 0.633106 0.331800
O O10 0.189780 0.536461 0.432467
O O11 0.338936 0.259296 0.459107
O O12 0.358570 0.755094 0.480028
O O13 0.818005 0.568350 0.303299
O O14 0.010388 0.552817 0.403944
O O15 0.795317 0.783882 0.817721
#
# Coordination Sequence:
#
# PCOD9126084 Si02
#       8
#     4   2   4   4   4   4   4   4
#     4  11  23  44  73  98 135 190 222 294 354 421
#     4  10  24  46  66 102 140 170 230 278 354 420
#     4  11  25  42  73 102 137 180 240 277 354 416
#     4  10  22  38  60  94 126 178 225 286 346 417
#     4  11  23  44  64 100 136 178 232 299 332 430
#     4  10  23  46  65 102 137 175 231 290 339 434
#     4  10  23  40  68  92 134 176 235 286 352 406
#     4  10  22  38  60  92 134 168 232 285 347 410
#
# _framework density 22.733535
#
# number of rings (size 3 to 8) (size 9 to 14) (size 15 to 20)
#    0.000    1.600    1.333    2.000    7.467    1.600 
#    4.800    1.333    0.000    0.000    0.000    0.000 
#    0.000    0.000    0.000    0.000    0.000    0.000 
#
# Total GULP energy -83716.862349 kJ/mol
# GULP energy per Si atom -5581.124157 kJ/mol
# Density = 2.268179 g / cm^3
# Si number density = 22.733535 Si / 1000 Ang^3
#
#
#
# Elastic Constant Matrix: (Units=GPa)
#
#
# Indices 1 2 3 4 5 6 
#
# 1 95.0713 17.1845 47.0274 -0.0001 19.4871 0.0001
# 2 17.1845 69.2106 7.3778 -0.0002 1.9459 0.0003
# 3 47.0274 7.3778 102.6530 0.0000 24.7849 0.0000
# 4 -0.0001 -0.0002 0.0000 30.9097 0.0000 0.5104
# 5 19.4871 1.9459 24.7849 0.0000 35.7528 0.0000
# 6 0.0001 0.0003 0.0000 0.5104 0.0000 15.4583
#
#
#
# Elastic Compliance Matrix: (Units=1/GPa)
#
#
# Indices 1 2 3 4 5 6 
#
# 1 0.014588 -0.002923 -0.005515 0.000000 -0.003969 0.000000
# 2 -0.002923 0.015146 0.000078 0.000000 0.000715 0.000000
# 3 -0.005515 0.000078 0.013857 0.000000 -0.006605 0.000000
# 4 0.000000 0.000000 0.000000 0.032370 0.000000 -0.001069
# 5 -0.003969 0.000715 -0.006605 0.000000 0.034673 0.000000
# 6 0.000000 0.000000 0.000000 -0.001069 0.000000 0.064726
#
#
# Mechanical properties :
#
#
# Convention : Reuss Voigt Hill
#
# Bulk Modulus (GPa) = 37.21356 45.56826 41.39091
# Shear Modulus (GPa) = 24.87119 29.44719 27.15919
#
# Velocity S-wave (km/s) = 3.31120 3.60296 3.46016
# Velocity P-wave (km/s) = 5.56990 6.11526 5.84894
#
# Compressibility (1/GPa) = 0.02687193
#
# Stress axis : x y z
#
# Youngs Moduli (GPa) = 68.54866 66.02428 72.16580
#
# Poissons Ratio (x) = 0.19297 0.39797
# Poissons Ratio (y) = 0.20035 -0.00562
# Poissons Ratio (z) = 0.37803 -0.00514
#
# Static dielectric constant tensor:
#      x y z
#    x 1.979110 0.000000 0.002250 
#    y 0.000000 1.892670 0.000000 
#    z 0.002250 0.000000 1.823970 
# 
# From -- ./inp_files/61278.got.cif
#   From: 2010.05.17/outbox.cif.g08.bks.cpg/sg5_31_cif.got.tgz:61278.got - 2010.06.03 18:56:24.
