data_PCOD9126357
_publ_section_title
;
Structure prediction by ZEFSAII (Michael W. Deem and Ramdas Pophale) SiO2 
 PCOD9126357
Probable space group: C 2
;
_chemical_formula_sum "Si O2"
_cell_formula_units_Z 28
_cell_length_a 15.875409
_cell_length_b 6.559834
_cell_length_c 13.639906
_cell_angle_alpha 90.000000
_cell_angle_beta 68.826996
_cell_angle_gamma 90.000000
_cell_volume 1324.570977
_symmetry_space_group_name_H-M "C 2"
_symmetry_group_IT_number 5
_symmetry_cell_setting 'monoclinic'
loop_
_space_group_symop_operation_xyz
x,y,z
-x,y,-z
1/2+x,1/2+y,z
1/2-x,1/2+y,-z
loop_
_atom_site_type_symbol
_atom_site_label
_atom_site_fract_x
_atom_site_fract_y
_atom_site_fract_z
Si Si1 0.212217 0.706100 0.405736
Si Si2 0.854888 0.529141 0.363279
Si Si3 0.864670 0.300165 0.806982
Si Si4 0.497667 0.536428 0.114773
Si Si5 0.566713 0.508674 0.381933
Si Si6 0.035939 0.682325 0.227313
Si Si7 0.297200 0.377281 0.235780
O O1 0.163741 0.627348 0.523426
O O2 0.151993 0.886477 0.387638
O O3 0.229856 0.525457 0.323220
O O4 0.308007 0.810798 0.387608
O O5 0.958161 0.521850 0.287736
O O6 0.816930 0.686294 0.298318
O O7 0.928092 0.180661 0.860085
O O8 0.755504 0.287082 0.837326
O O9 0.877989 0.540986 0.812982
O O10 0.902951 0.207624 0.688964
O O11 0.527840 0.307036 0.130870
O O12 0.389680 0.509985 0.184609
O O13 0.500000 0.586434 0.000000
O O14 0.500000 0.548250 0.500000
O O15 0.528453 0.352939 0.315550
#
# Coordination Sequence:
#
# PCOD9126357 Si02
#       7
#     4   4   4   4   4   4   4
#     4  12  21  34  57  91 129 172 212 253 306 381
#     4  11  22  34  58  89 127 174 209 253 309 378
#     4  11  23  42  66  94 127 169 216 266 326 393
#     4  10  25  49  67  93 127 160 215 288 333 387
#     4  11  22  35  58  92 134 170 214 258 303 381
#     4  10  22  40  62  89 125 166 211 260 324 382
#     4  11  23  41  64  94 129 167 217 264 322 392
#
# _framework density 21.138919999999999
#
# number of rings (size 3 to 8) (size 9 to 14) (size 15 to 20)
#    0.000    1.143    5.714    0.857    0.000    3.429 
#    2.571    0.000    0.000    0.000    0.000    0.000 
#    0.000    0.000    0.000    0.000    0.000    0.000 
#
# Total GULP energy -77990.648779 kJ/mol
# GULP energy per Si atom -5570.760627 kJ/mol
# Density = 2.109081 g / cm^3
# Si number density = 21.138920 Si / 1000 Ang^3
#
#
#
# Elastic Constant Matrix: (Units=GPa)
#
#
# Indices 1 2 3 4 5 6 
#
# 1 97.7826 10.9810 23.8297 0.0000 17.5812 0.0000
# 2 10.9810 50.6267 9.1525 0.0000 8.0295 0.0000
# 3 23.8297 9.1525 47.4075 0.0000 21.9442 0.0000
# 4 0.0000 0.0000 0.0000 3.1471 0.0000 6.9292
# 5 17.5812 8.0295 21.9442 0.0000 25.1082 0.0000
# 6 0.0000 0.0000 0.0000 6.9292 0.0000 48.0615
#
#
#
# Elastic Compliance Matrix: (Units=1/GPa)
#
#
# Indices 1 2 3 4 5 6 
#
# 1 0.012126 -0.001195 -0.003545 0.000000 -0.005010 0.000000
# 2 -0.001195 0.020996 -0.001230 0.000000 -0.004803 0.000000
# 3 -0.003545 -0.001230 0.036581 0.000000 -0.029096 0.000000
# 4 0.000000 0.000000 0.000000 0.465534 0.000000 -0.067118
# 5 -0.005010 -0.004803 -0.029096 0.000000 0.070301 0.000000
# 6 0.000000 0.000000 0.000000 -0.067118 0.000000 0.030483
#
#
# Mechanical properties :
#
#
# Convention : Reuss Voigt Hill
#
# Bulk Modulus (GPa) = 17.31202 31.52700 24.41951
# Shear Modulus (GPa) = 7.49384 25.38693 16.44038
#
# Velocity S-wave (km/s) = 1.88487 3.46924 2.79181
# Velocity P-wave (km/s) = 3.59783 5.56723 4.68714
#
# Compressibility (1/GPa) = 0.05776334
#
# Stress axis : x y z
#
# Youngs Moduli (GPa) = 82.46927 47.62900 27.33644
#
# Poissons Ratio (x) = 0.05689 0.09692
# Poissons Ratio (y) = 0.09851 0.03361
# Poissons Ratio (z) = 0.29239 0.05857
#
# Static dielectric constant tensor:
#      x y z
#    x 1.946450 0.000000 -0.015510 
#    y 0.000000 1.740230 0.000000 
#    z -0.015510 0.000000 1.739240 
# 
# From -- ./inp_files/55331.got.cif
#   From: 2010.05.17/outbox.cif.g08.bks.cpg/sg5_28_cif.got.tgz:55331.got - 2010.06.03 18:56:24.
