data_PCOD9126794
_publ_section_title
;
Structure prediction by ZEFSAII (Michael W. Deem and Ramdas Pophale) SiO2 
 PCOD9126794
Probable space group: C 2
;
_chemical_formula_sum "Si O2"
_cell_formula_units_Z 30
_cell_length_a 10.267072
_cell_length_b 18.594935
_cell_length_c 6.758753
_cell_angle_alpha 90.000000
_cell_angle_beta 64.074212
_cell_angle_gamma 90.000000
_cell_volume 1160.491441
_symmetry_space_group_name_H-M "C 2"
_symmetry_group_IT_number 5
_symmetry_cell_setting 'monoclinic'
loop_
_space_group_symop_operation_xyz
x,y,z
-x,y,-z
1/2+x,1/2+y,z
1/2-x,1/2+y,-z
loop_
_atom_site_type_symbol
_atom_site_label
_atom_site_fract_x
_atom_site_fract_y
_atom_site_fract_z
Si Si1 0.609139 0.558490 0.075627
Si Si2 0.662108 0.326937 0.939618
Si Si3 0.198965 0.408557 0.795424
Si Si4 0.146442 0.717332 0.295594
Si Si5 0.500000 0.459442 0.500000
Si Si6 0.844688 0.554822 0.626714
Si Si7 0.633987 0.789785 0.555294
Si Si8 0.345855 0.077003 0.177535
O O1 0.527723 0.506916 0.284411
O O2 0.708397 0.606197 0.150778
O O3 0.500000 0.597022 0.000000
O O4 0.721185 0.521027 0.844759
O O5 0.757151 0.375625 0.023970
O O6 0.649584 0.255411 0.082391
O O7 0.500000 0.354512 0.000000
O O8 0.744533 0.311538 0.683859
O O9 0.353814 0.414470 0.578992
O O10 0.100381 0.358370 0.721978
O O11 0.150068 0.490224 0.857080
O O12 0.128756 0.632000 0.291109
O O13 0.285568 0.736543 0.341086
O O14 0.000000 0.744125 0.500000
O O15 0.805662 0.578585 0.432847
O O16 0.000000 0.515716 0.500000
O O17 0.500000 0.767923 0.500000
O O18 0.500000 0.104423 0.000000
#
# Coordination Sequence:
#
# PCOD9126794 Si02
#       8
#     4   4   4   4   2   4   4   4
#     4  11  23  44  67  97 136 181 230 280 333 404
#     4  11  22  42  74 100 133 181 228 282 352 408
#     4  10  24  38  67 100 142 174 226 277 336 420
#     4  10  23  46  71 100 133 175 239 286 332 422
#     4  10  22  42  66 100 142 186 228 280 332 414
#     4  11  24  46  73 101 135 186 236 291 343 406
#     4  11  25  44  67 105 138 172 224 288 354 405
#     4  11  24  43  66 100 141 181 226 277 339 413
#
# _framework density 25.851118
#
# number of rings (size 3 to 8) (size 9 to 14) (size 15 to 20)
#    0.000    1.333    2.667    2.400    3.733    9.600 
#    4.800    0.000    0.000    0.000    0.000    0.000 
#    0.000    0.000    0.000    0.000    0.000    0.000 
#
# Total GULP energy -83821.283703 kJ/mol
# GULP energy per Si atom -5588.085580 kJ/mol
# Density = 2.579228 g / cm^3
# Si number density = 25.851118 Si / 1000 Ang^3
#
#
#
# Elastic Constant Matrix: (Units=GPa)
#
#
# Indices 1 2 3 4 5 6 
#
# 1 164.8091 -0.6544 50.3625 0.0000 19.1553 0.0000
# 2 -0.6544 61.0144 2.5126 0.0000 7.2536 0.0000
# 3 50.3625 2.5126 171.4135 0.0000 17.0419 0.0000
# 4 0.0000 0.0000 0.0000 16.9744 0.0000 -9.7585
# 5 19.1553 7.2536 17.0419 0.0000 58.9688 0.0000
# 6 0.0000 0.0000 0.0000 -9.7585 0.0000 11.6929
#
#
#
# Elastic Compliance Matrix: (Units=1/GPa)
#
#
# Indices 1 2 3 4 5 6 
#
# 1 0.006833 0.000355 -0.001841 0.000000 -0.001731 0.000000
# 2 0.000355 0.016652 -0.000137 0.000000 -0.002124 0.000000
# 3 -0.001841 -0.000137 0.006502 0.000000 -0.001264 0.000000
# 4 0.000000 0.000000 0.000000 0.113246 0.000000 0.094511
# 5 -0.001731 -0.002124 -0.001264 0.000000 0.018147 0.000000
# 6 0.000000 0.000000 0.000000 0.094511 0.000000 0.164397
#
#
# Mechanical properties :
#
#
# Convention : Reuss Voigt Hill
#
# Bulk Modulus (GPa) = 37.39599 55.74203 46.56901
# Shear Modulus (GPa) = 14.79566 40.52832 27.66199
#
# Velocity S-wave (km/s) = 2.39496 3.96379 3.27471
# Velocity P-wave (km/s) = 4.70586 6.52368 5.68786
#
# Compressibility (1/GPa) = 0.02674083
#
# Stress axis : x y z
#
# Youngs Moduli (GPa) = 146.35512 60.05451 153.79090
#
# Poissons Ratio (x) = -0.02131 0.28306
# Poissons Ratio (y) = -0.05194 0.02110
# Poissons Ratio (z) = 0.26938 0.00824
#
# Static dielectric constant tensor:
#      x y z
#    x 2.161610 0.000000 -0.008630 
#    y 0.000000 2.035600 0.000000 
#    z -0.008630 0.000000 2.040960 
# 
# From -- ./inp_files/5949.got.cif
#   From: 2010.05.17/outbox.cif.g08.bks.cpg/sg5_3_cif.got.tgz:5949.got - 2010.06.03 18:56:24.
