data_PCOD9126223
_publ_section_title
;
Structure prediction by ZEFSAII (Michael W. Deem and Ramdas Pophale) SiO2 
 PCOD9126223
Probable space group: C 2
;
_chemical_formula_sum "Si O2"
_cell_formula_units_Z 28
_cell_length_a 9.334608
_cell_length_b 8.949421
_cell_length_c 24.289335
_cell_angle_alpha 90.000000
_cell_angle_beta 143.044128
_cell_angle_gamma 90.000000
_cell_volume 1219.903399
_symmetry_space_group_name_H-M "C 2"
_symmetry_group_IT_number 5
_symmetry_cell_setting 'monoclinic'
loop_
_space_group_symop_operation_xyz
x,y,z
-x,y,-z
1/2+x,1/2+y,z
1/2-x,1/2+y,-z
loop_
_atom_site_type_symbol
_atom_site_label
_atom_site_fract_x
_atom_site_fract_y
_atom_site_fract_z
Si Si1 0.459232 0.514800 0.866799
Si Si2 0.957830 0.510478 0.428459
Si Si3 0.964078 0.971709 0.318900
Si Si4 0.329287 0.842710 0.046348
Si Si5 0.352610 0.340122 0.508996
Si Si6 0.180458 0.870356 0.838441
Si Si7 0.561656 0.048475 0.820079
O O1 0.590503 0.670733 0.923041
O O2 0.513298 0.481988 0.820152
O O3 0.182224 0.514790 0.798216
O O4 0.588604 0.386318 0.942262
O O5 0.681540 0.553329 0.353449
O O6 0.000000 0.428322 0.500000
O O7 0.079207 0.398960 0.422371
O O8 0.110740 0.662279 0.474358
O O9 0.720999 0.057106 0.258605
O O10 0.892763 0.855124 0.248355
O O11 0.041435 0.905053 0.401359
O O12 0.546147 0.918912 0.078807
O O13 0.340734 0.924421 0.108441
O O14 0.500000 0.386767 0.500000
O O15 0.162836 0.712109 0.863073
#
# Coordination Sequence:
#
# PCOD9126223 Si02
#       7
#     4   4   4   4   4   4   4
#     4  11  22  38  62  88 118 162 207 251 301 354
#     4   9  21  40  62  90 121 153 194 243 295 356
#     4  10  23  40  60  89 126 156 194 249 300 356
#     4  10  22  39  59  89 122 157 206 255 299 352
#     4  10  22  40  65  93 119 156 201 241 295 359
#     4  10  23  39  58  85 122 161 199 249 306 355
#     4  10  23  40  59  88 120 157 202 248 299 358
#
# _framework density 22.952635999999998
#
# number of rings (size 3 to 8) (size 9 to 14) (size 15 to 20)
#    0.000    2.000    0.000    1.714    0.000   18.857 
#    0.000    0.000    0.000    0.000    0.000    0.000 
#    0.000    0.000    0.000    0.000    0.000    0.000 
#
# Total GULP energy -77969.277711 kJ/mol
# GULP energy per Si atom -5569.234122 kJ/mol
# Density = 2.290040 g / cm^3
# Si number density = 22.952636 Si / 1000 Ang^3
#
#
#
# Elastic Constant Matrix: (Units=GPa)
#
#
# Indices 1 2 3 4 5 6 
#
# 1 189.3232 55.8000 43.6374 0.0000 34.0809 0.0000
# 2 55.8000 63.2728 7.6039 0.0000 8.0824 0.0000
# 3 43.6374 7.6039 49.3522 0.0000 13.2910 0.0000
# 4 0.0000 0.0000 0.0000 18.0911 0.0000 3.7621
# 5 34.0809 8.0824 13.2910 0.0000 50.0280 0.0000
# 6 0.0000 0.0000 0.0000 3.7621 0.0000 29.7499
#
#
#
# Elastic Compliance Matrix: (Units=1/GPa)
#
#
# Indices 1 2 3 4 5 6 
#
# 1 0.009503 -0.007156 -0.006320 0.000000 -0.003639 0.000000
# 2 -0.007156 0.021698 0.002817 0.000000 0.000621 0.000000
# 3 -0.006320 0.002817 0.026258 0.000000 -0.003126 0.000000
# 4 0.000000 0.000000 0.000000 0.056769 0.000000 -0.007179
# 5 -0.003639 0.000621 -0.003126 0.000000 0.023198 0.000000
# 6 0.000000 0.000000 0.000000 -0.007179 0.000000 0.034521
#
#
# Mechanical properties :
#
#
# Convention : Reuss Voigt Hill
#
# Bulk Modulus (GPa) = 27.66940 57.33675 42.50308
# Shear Modulus (GPa) = 24.35321 32.56759 28.46040
#
# Velocity S-wave (km/s) = 3.26086 3.77092 3.52513
# Velocity P-wave (km/s) = 5.12434 6.63283 5.92677
#
# Compressibility (1/GPa) = 0.03614100
#
# Stress axis : x y z
#
# Youngs Moduli (GPa) = 105.23155 46.08782 38.08299
#
# Poissons Ratio (x) = 0.32982 0.24068
# Poissons Ratio (y) = 0.75306 -0.10729
# Poissons Ratio (z) = 0.66506 -0.12984
#
# Static dielectric constant tensor:
#      x y z
#    x 1.904980 0.000000 0.019110 
#    y 0.000000 1.850320 0.000000 
#    z 0.019110 0.000000 1.986410 
# 
# From -- ./inp_files/70141.got.cif
#   From: 2010.05.17/outbox.cif.g08.bks.cpg/sg5_36_cif.got.tgz:70141.got - 2010.06.03 18:56:24.
