data_PCOD9126397
_publ_section_title
;
Structure prediction by ZEFSAII (Michael W. Deem and Ramdas Pophale) SiO2 
 PCOD9126397
Probable space group: C 2
;
_chemical_formula_sum "Si O2"
_cell_formula_units_Z 24
_cell_length_a 20.442547
_cell_length_b 8.850093
_cell_length_c 7.994754
_cell_angle_alpha 90.000000
_cell_angle_beta 53.534014
_cell_angle_gamma 90.000000
_cell_volume 1163.207856
_symmetry_space_group_name_H-M "C 2"
_symmetry_group_IT_number 5
_symmetry_cell_setting 'monoclinic'
loop_
_space_group_symop_operation_xyz
x,y,z
-x,y,-z
1/2+x,1/2+y,z
1/2-x,1/2+y,-z
loop_
_atom_site_type_symbol
_atom_site_label
_atom_site_fract_x
_atom_site_fract_y
_atom_site_fract_z
Si Si1 0.034413 0.705980 0.636174
Si Si2 0.418457 0.924428 0.210205
Si Si3 0.310687 0.371579 0.730451
Si Si4 0.316288 0.665295 0.254717
Si Si5 0.714722 0.114955 0.710768
Si Si6 0.621335 0.376865 0.998800
O O1 0.059408 0.545062 0.679299
O O2 0.114031 0.811554 0.495529
O O3 0.000000 0.683487 0.500000
O O4 0.966194 0.795094 0.848447
O O5 0.362171 0.777521 0.314671
O O6 0.368509 0.021254 0.149983
O O7 0.500000 0.869744 0.000000
O O8 0.234997 0.261117 0.803049
O O9 0.280368 0.539051 0.730878
O O10 0.340382 0.370526 0.874453
O O11 0.248547 0.588071 0.473988
O O12 0.375891 0.545535 0.078417
O O13 0.684769 0.282023 0.790643
#
# Coordination Sequence:
#
# PCOD9126397 Si02
#       6
#     4   4   4   4   4   4
#     4  10  22  41  67  93 125 169 207 257 317 375
#     4  11  22  41  59  90 126 161 213 254 309 371
#     4  10  22  40  64  94 129 164 212 255 315 374
#     4  11  24  39  62  97 126 167 211 261 309 371
#     4  11  22  39  63  92 125 168 207 261 310 367
#     4  11  22  41  65  93 127 169 208 259 318 374
#
# _framework density 20.632595999999999
#
# number of rings (size 3 to 8) (size 9 to 14) (size 15 to 20)
#    0.000    1.333    3.333    3.000    0.000    1.333 
#    0.000    1.667    0.000    0.000    0.000    0.000 
#    0.000    0.000    0.000    0.000    0.000    0.000 
#
# Total GULP energy -66910.218686 kJ/mol
# GULP energy per Si atom -5575.851557 kJ/mol
# Density = 2.058564 g / cm^3
# Si number density = 20.632596 Si / 1000 Ang^3
#
#
#
# Elastic Constant Matrix: (Units=GPa)
#
#
# Indices 1 2 3 4 5 6 
#
# 1 88.5624 39.0304 25.6460 0.0000 -9.3654 0.0000
# 2 39.0304 111.7596 41.9159 0.0000 -14.0990 0.0000
# 3 25.6460 41.9159 83.1707 0.0000 -11.5672 0.0000
# 4 0.0000 0.0000 0.0000 20.8165 0.0000 8.0123
# 5 -9.3654 -14.0990 -11.5672 0.0000 26.4114 0.0000
# 6 0.0000 0.0000 0.0000 8.0123 0.0000 35.5713
#
#
#
# Elastic Compliance Matrix: (Units=1/GPa)
#
#
# Indices 1 2 3 4 5 6 
#
# 1 0.013765 -0.003786 -0.002064 0.000000 0.001956 0.000000
# 2 -0.003786 0.012421 -0.004639 0.000000 0.003256 0.000000
# 3 -0.002064 -0.004639 0.015496 0.000000 0.003578 0.000000
# 4 0.000000 0.000000 0.000000 0.052599 0.000000 -0.011848
# 5 0.001956 0.003256 0.003578 0.000000 0.041861 0.000000
# 6 0.000000 0.000000 0.000000 -0.011848 0.000000 0.030781
#
#
# Mechanical properties :
#
#
# Convention : Reuss Voigt Hill
#
# Bulk Modulus (GPa) = 48.30568 55.18635 51.74601
# Shear Modulus (GPa) = 25.66696 28.35319 27.01008
#
# Velocity S-wave (km/s) = 3.53087 3.71103 3.62207
# Velocity P-wave (km/s) = 6.33134 6.72068 6.52891
#
# Compressibility (1/GPa) = 0.02070150
#
# Stress axis : x y z
#
# Youngs Moduli (GPa) = 72.64978 80.50968 64.53379
#
# Poissons Ratio (x) = 0.30482 0.13321
# Poissons Ratio (y) = 0.27506 0.29940
# Poissons Ratio (z) = 0.14997 0.37352
#
# Static dielectric constant tensor:
#      x y z
#    x 1.739050 0.000000 0.000160 
#    y 0.000000 1.756000 0.000000 
#    z 0.000160 0.000000 1.725650 
# 
# From -- ./inp_files/22896.got.cif
#   From: 2010.05.17/outbox.cif.g08.bks.cpg/sg5_12_cif.got.tgz:22896.got - 2010.06.03 18:56:24.
