data_PCOD9126060
_publ_section_title
;
Structure prediction by ZEFSAII (Michael W. Deem and Ramdas Pophale) SiO2 
 PCOD9126060
Probable space group: C 2
;
_chemical_formula_sum "Si O2"
_cell_formula_units_Z 28
_cell_length_a 27.379379
_cell_length_b 9.518722
_cell_length_c 5.121733
_cell_angle_alpha 90.000000
_cell_angle_beta 77.697848
_cell_angle_gamma 90.000000
_cell_volume 1304.158680
_symmetry_space_group_name_H-M "C 2"
_symmetry_group_IT_number 5
_symmetry_cell_setting 'monoclinic'
loop_
_space_group_symop_operation_xyz
x,y,z
-x,y,-z
1/2+x,1/2+y,z
1/2-x,1/2+y,-z
loop_
_atom_site_type_symbol
_atom_site_label
_atom_site_fract_x
_atom_site_fract_y
_atom_site_fract_z
Si Si1 0.552992 0.961060 0.892950
Si Si2 0.342027 0.093710 0.224746
Si Si3 0.657188 0.400200 0.579107
Si Si4 0.859740 0.063580 0.875563
Si Si5 0.252735 0.705972 0.996471
Si Si6 0.552953 0.768808 0.382736
Si Si7 0.263200 0.971623 0.637482
O O1 0.558993 0.889880 0.599033
O O2 0.604284 0.036345 0.920323
O O3 0.500000 0.042317 0.000000
O O4 0.547270 0.838328 0.108192
O O5 0.354600 0.240784 0.344717
O O6 0.296795 0.139065 0.082320
O O7 0.316252 0.973800 0.435301
O O8 0.638734 0.429284 0.311497
O O9 0.717051 0.422693 0.515878
O O10 0.638186 0.508239 0.827792
O O11 0.806893 0.139231 0.876752
O O12 0.901517 0.164961 0.712152
O O13 0.258071 0.866342 0.891662
O O14 0.245626 0.637193 0.290667
O O15 0.500000 0.695070 0.500000
#
# Coordination Sequence:
#
# PCOD9126060 Si02
#       7
#     4   4   4   4   4   4   4
#     4  10  23  41  64  95 123 158 213 264 309 370
#     4  11  23  38  61  85 127 168 207 254 321 366
#     4  10  24  38  58  90 126 160 206 256 301 386
#     4  11  21  42  58  89 126 158 202 258 310 365
#     4  10  23  35  58  89 122 166 209 253 313 378
#     4  10  22  42  68  94 121 159 212 263 312 370
#     4  10  22  38  57  88 125 168 207 260 308 379
#
# _framework density 21.469778999999999
#
# number of rings (size 3 to 8) (size 9 to 14) (size 15 to 20)
#    0.000    1.714    1.429    1.714   10.000    0.000 
#    0.000    1.429    0.000    0.000    0.000    0.000 
#    0.000    0.000    0.000    0.000    0.000    0.000 
#
# Total GULP energy -77986.915080 kJ/mol
# GULP energy per Si atom -5570.493934 kJ/mol
# Density = 2.142091 g / cm^3
# Si number density = 21.469779 Si / 1000 Ang^3
#
#
#
# Elastic Constant Matrix: (Units=GPa)
#
#
# Indices 1 2 3 4 5 6 
#
# 1 94.1736 16.4031 37.1920 0.0000 -44.7571 0.0000
# 2 16.4031 52.9423 17.6738 0.0000 -15.9675 0.0000
# 3 37.1920 17.6738 75.6643 0.0000 -15.2418 0.0000
# 4 0.0000 0.0000 0.0000 23.2731 0.0000 -0.4120
# 5 -44.7571 -15.9675 -15.2418 0.0000 49.7991 0.0000
# 6 0.0000 0.0000 0.0000 -0.4120 0.0000 25.5593
#
#
#
# Elastic Compliance Matrix: (Units=1/GPa)
#
#
# Indices 1 2 3 4 5 6 
#
# 1 0.021706 0.001039 -0.007370 0.000000 0.017586 0.000000
# 2 0.001039 0.022018 -0.004309 0.000000 0.006675 0.000000
# 3 -0.007370 -0.004309 0.017299 0.000000 -0.002710 0.000000
# 4 0.000000 0.000000 0.000000 0.042980 0.000000 0.000693
# 5 0.017586 0.006675 -0.002710 0.000000 0.037197 0.000000
# 6 0.000000 0.000000 0.000000 0.000693 0.000000 0.039136
#
#
# Mechanical properties :
#
#
# Convention : Reuss Voigt Hill
#
# Bulk Modulus (GPa) = 25.16095 40.59088 32.87591
# Shear Modulus (GPa) = 23.27051 29.82706 26.54879
#
# Velocity S-wave (km/s) = 3.29579 3.73132 3.52030
# Velocity P-wave (km/s) = 5.12130 6.12460 5.64528
#
# Compressibility (1/GPa) = 0.03974413
#
# Stress axis : x y z
#
# Youngs Moduli (GPa) = 46.06985 45.41686 57.80584
#
# Poissons Ratio (x) = -0.04719 0.42601
# Poissons Ratio (y) = -0.04787 0.24910
# Poissons Ratio (z) = 0.33952 0.19571
#
# Static dielectric constant tensor:
#      x y z
#    x 1.872320 0.000000 -0.010120 
#    y 0.000000 1.793030 0.000000 
#    z -0.010120 0.000000 1.846120 
# 
# From -- ./inp_files/11133.got.cif
#   From: 2010.05.17/outbox.cif.g08.bks.cpg/sg5_6_cif.got.tgz:11133.got - 2010.06.03 18:56:24.
