data_PCOD9126296
_publ_section_title
;
Structure prediction by ZEFSAII (Michael W. Deem and Ramdas Pophale) SiO2 
 PCOD9126296
Probable space group: C 2
;
_chemical_formula_sum "Si O2"
_cell_formula_units_Z 28
_cell_length_a 9.060190
_cell_length_b 11.791059
_cell_length_c 20.237607
_cell_angle_alpha 90.000000
_cell_angle_beta 32.598143
_cell_angle_gamma 90.000000
_cell_volume 1164.746203
_symmetry_space_group_name_H-M "C 2"
_symmetry_group_IT_number 5
_symmetry_cell_setting 'monoclinic'
loop_
_space_group_symop_operation_xyz
x,y,z
-x,y,-z
1/2+x,1/2+y,z
1/2-x,1/2+y,-z
loop_
_atom_site_type_symbol
_atom_site_label
_atom_site_fract_x
_atom_site_fract_y
_atom_site_fract_z
Si Si1 0.197996 0.746820 0.862899
Si Si2 0.463201 0.047441 0.869919
Si Si3 0.694730 0.283533 0.604434
Si Si4 0.010228 0.985846 0.869336
Si Si5 0.288664 0.868625 0.128993
Si Si6 0.579507 0.037740 0.671158
Si Si7 0.180640 0.803431 0.378562
O O1 0.144316 0.647400 0.831313
O O2 0.093416 0.865107 0.870338
O O3 0.523171 0.754292 0.754638
O O4 0.000000 0.727572 0.000000
O O5 0.493111 0.048110 0.780760
O O6 0.562772 0.927810 0.864962
O O7 0.157003 0.057074 0.013909
O O8 0.482247 0.305682 0.744498
O O9 0.726864 0.147910 0.588517
O O10 0.523819 0.324763 0.605374
O O11 0.000000 0.332482 0.500000
O O12 0.817307 0.967499 0.879582
O O13 0.294808 0.036767 0.739581
O O14 0.500000 0.804831 0.000000
O O15 0.729635 0.917725 0.615741
O O16 0.000000 0.733841 0.500000
#
# Coordination Sequence:
#
# PCOD9126296 Si02
#       7
#     4   4   4   4   4   4   4
#     4  11  24  41  72 102 142 184 235 296 365 430
#     4  11  22  41  66 109 141 182 237 294 358 439
#     4  12  28  47  73 107 139 190 247 292 361 433
#     4  10  22  39  67 103 141 182 230 286 369 416
#     4  10  23  43  70 103 144 180 234 298 357 426
#     4  11  24  44  72 100 142 184 239 297 355 432
#     4  11  27  51  71 101 146 190 238 300 360 428
#
# _framework density 24.039573000000001
#
# number of rings (size 3 to 8) (size 9 to 14) (size 15 to 20)
#    0.000    1.143    1.429    4.714   12.000    1.143 
#    0.000    0.714    0.000    0.000    0.000    0.000 
#    0.000    0.000    0.000    0.000    0.000    0.000 
#
# Total GULP energy -78260.300415 kJ/mol
# GULP energy per Si atom -5590.021458 kJ/mol
# Density = 2.398486 g / cm^3
# Si number density = 24.039573 Si / 1000 Ang^3
#
#
#
# Elastic Constant Matrix: (Units=GPa)
#
#
# Indices 1 2 3 4 5 6 
#
# 1 94.0375 1.5213 46.5038 -0.0074 -19.2921 -0.0087
# 2 1.5213 52.9374 1.4284 -0.0070 -12.0033 -0.0004
# 3 46.5038 1.4284 155.6641 -0.0049 -34.1839 0.0136
# 4 -0.0074 -0.0070 -0.0049 18.3331 -0.0010 -1.1905
# 5 -19.2921 -12.0033 -34.1839 -0.0010 48.8184 -0.0016
# 6 -0.0087 -0.0004 0.0136 -1.1905 -0.0016 23.1175
#
#
#
# Elastic Compliance Matrix: (Units=1/GPa)
#
#
# Indices 1 2 3 4 5 6 
#
# 1 0.012803 0.000381 -0.003187 0.000005 0.002922 0.000007
# 2 0.000381 0.020166 0.000973 0.000008 0.005790 0.000001
# 3 -0.003187 0.000973 0.008441 0.000001 0.004891 -0.000006
# 4 0.000005 0.000008 0.000001 0.054729 0.000006 0.002818
# 5 0.002922 0.005790 0.004891 0.000006 0.026487 0.000000
# 6 0.000007 0.000001 -0.000006 0.002818 0.000000 0.043402
#
#
# Mechanical properties :
#
#
# Convention : Reuss Voigt Hill
#
# Bulk Modulus (GPa) = 26.49485 44.61623 35.55554
# Shear Modulus (GPa) = 27.43083 34.93283 31.18183
#
# Velocity S-wave (km/s) = 3.38164 3.81614 3.60544
# Velocity P-wave (km/s) = 5.12763 6.16580 5.67052
#
# Compressibility (1/GPa) = 0.03774319
#
# Stress axis : x y z
#
# Youngs Moduli (GPa) = 78.10525 49.58875 118.46709
#
# Poissons Ratio (x) = -0.01887 0.37753
# Poissons Ratio (y) = -0.02972 -0.11523
# Poissons Ratio (z) = 0.24890 -0.04824
#
# Static dielectric constant tensor:
#      x y z
#    x 1.903650 0.000010 0.009450 
#    y 0.000010 1.940850 0.000020 
#    z 0.009450 0.000020 2.002290 
# 
# From -- ./inp_files/50896.got.cif
#   From: 2010.05.17/outbox.cif.g08.bks.cpg/sg5_26_cif.got.tgz:50896.got - 2010.06.03 18:56:24.
