data_PCOD9126041
_publ_section_title
;
Structure prediction by ZEFSAII (Michael W. Deem and Ramdas Pophale) SiO2 
 PCOD9126041
Probable space group: C 2
;
_chemical_formula_sum "Si O2"
_cell_formula_units_Z 26
_cell_length_a 12.816109
_cell_length_b 9.022640
_cell_length_c 11.594819
_cell_angle_alpha 90.000000
_cell_angle_beta 67.114973
_cell_angle_gamma 90.000000
_cell_volume 1235.232666
_symmetry_space_group_name_H-M "C 2"
_symmetry_group_IT_number 5
_symmetry_cell_setting 'monoclinic'
loop_
_space_group_symop_operation_xyz
x,y,z
-x,y,-z
1/2+x,1/2+y,z
1/2-x,1/2+y,-z
loop_
_atom_site_type_symbol
_atom_site_label
_atom_site_fract_x
_atom_site_fract_y
_atom_site_fract_z
Si Si1 0.860765 0.271000 0.644639
Si Si2 0.213351 0.504098 0.801547
Si Si3 0.500000 0.153532 0.000000
Si Si4 0.705077 0.933367 0.561661
Si Si5 0.045185 0.019977 0.599714
Si Si6 0.092708 0.837475 0.170261
Si Si7 0.969781 0.574482 0.644826
O O1 0.766780 0.161545 0.736150
O O2 0.827714 0.320683 0.527389
O O3 0.891988 0.428498 0.685565
O O4 0.973518 0.172186 0.622049
O O5 0.225490 0.391534 0.686691
O O6 0.292895 0.432364 0.865857
O O7 0.090191 0.546410 0.899103
O O8 0.563655 0.262432 0.061958
O O9 0.819939 0.012443 0.469423
O O10 0.596838 0.038020 0.630995
O O11 0.000000 0.943380 0.500000
O O12 0.005994 0.941041 0.733164
O O13 0.090326 0.701597 0.260248
O O14 0.000000 0.608409 0.500000
#
# Coordination Sequence:
#
# PCOD9126041 Si02
#       7
#     4   4   2   4   4   4   4
#     4  10  23  41  65 108 143 174 214 284 348 419
#     4  11  25  45  74  95 135 188 230 282 339 406
#     4  12  26  50  68  94 138 190 240 284 324 400
#     4  11  21  35  68 100 138 178 210 274 352 397
#     4  11  20  39  67 103 141 170 217 280 351 412
#     4  11  24  43  69  98 133 185 232 283 338 402
#     4  10  22  37  64 107 144 170 221 275 349 417
#
# _framework density 21.048667999999999
#
# number of rings (size 3 to 8) (size 9 to 14) (size 15 to 20)
#    0.000    1.231    4.615    2.769    0.000    2.462 
#    0.000    0.000    3.385    1.846    0.000    0.000 
#    0.000    0.000    0.000    0.000    0.000    0.000 
#
# Total GULP energy -72397.563162 kJ/mol
# GULP energy per Si atom -5569.043320 kJ/mol
# Density = 2.100076 g / cm^3
# Si number density = 21.048668 Si / 1000 Ang^3
#
#
#
# Elastic Constant Matrix: (Units=GPa)
#
#
# Indices 1 2 3 4 5 6 
#
# 1 120.3336 43.9448 45.5781 0.0000 -11.8349 0.0000
# 2 43.9448 115.0887 39.6496 0.0000 -4.5158 0.0000
# 3 45.5781 39.6496 77.3726 0.0000 -6.0081 0.0000
# 4 0.0000 0.0000 0.0000 31.7073 0.0000 6.6678
# 5 -11.8349 -4.5158 -6.0081 0.0000 40.0048 0.0000
# 6 0.0000 0.0000 0.0000 6.6678 0.0000 20.5223
#
#
#
# Elastic Compliance Matrix: (Units=1/GPa)
#
#
# Indices 1 2 3 4 5 6 
#
# 1 0.011442 -0.002451 -0.005305 0.000000 0.002312 0.000000
# 2 -0.002451 0.011083 -0.004244 0.000000 -0.000111 0.000000
# 3 -0.005305 -0.004244 0.018278 0.000000 0.000697 0.000000
# 4 0.000000 0.000000 0.000000 0.033851 0.000000 -0.010998
# 5 0.002312 -0.000111 0.000697 0.000000 0.025773 0.000000
# 6 0.000000 0.000000 0.000000 -0.010998 0.000000 0.052301
#
#
# Mechanical properties :
#
#
# Convention : Reuss Voigt Hill
#
# Bulk Modulus (GPa) = 59.51155 63.45997 61.48576
# Shear Modulus (GPa) = 27.42305 30.68837 29.05571
#
# Velocity S-wave (km/s) = 3.61340 3.82248 3.71941
# Velocity P-wave (km/s) = 6.76340 7.04957 6.90797
#
# Compressibility (1/GPa) = 0.01680346
#
# Stress axis : x y z
#
# Youngs Moduli (GPa) = 87.39919 90.23217 54.70929
#
# Poissons Ratio (x) = 0.22112 0.29022
# Poissons Ratio (y) = 0.21418 0.23220
# Poissons Ratio (z) = 0.46363 0.38297
#
# Static dielectric constant tensor:
#      x y z
#    x 1.919360 0.000000 0.086950 
#    y 0.000000 1.823730 0.000000 
#    z 0.086950 0.000000 1.803660 
# 
# From -- ./inp_files/41627.got.cif
#   From: 2010.05.17/outbox.cif.g08.bks.cpg/sg5_21_cif.got.tgz:41627.got - 2010.06.03 18:56:24.
