data_PCOD9126007
_publ_section_title
;
Structure prediction by ZEFSAII (Michael W. Deem and Ramdas Pophale) SiO2 
 PCOD9126007
Probable space group: C 2
;
_chemical_formula_sum "Si O2"
_cell_formula_units_Z 32
_cell_length_a 11.268946
_cell_length_b 13.156075
_cell_length_c 19.051732
_cell_angle_alpha 90.000000
_cell_angle_beta 149.237593
_cell_angle_gamma 90.000000
_cell_volume 1444.681316
_symmetry_space_group_name_H-M "C 2"
_symmetry_group_IT_number 5
_symmetry_cell_setting 'monoclinic'
loop_
_space_group_symop_operation_xyz
x,y,z
-x,y,-z
1/2+x,1/2+y,z
1/2-x,1/2+y,-z
loop_
_atom_site_type_symbol
_atom_site_label
_atom_site_fract_x
_atom_site_fract_y
_atom_site_fract_z
Si Si1 0.556626 0.197940 0.161502
Si Si2 0.742503 0.090300 0.385110
Si Si3 0.963587 0.717002 0.342567
Si Si4 0.909681 0.367020 0.378437
Si Si5 0.368800 0.414833 0.526587
Si Si6 0.679173 0.540757 0.793724
Si Si7 0.247468 0.081936 0.333939
Si Si8 0.753973 0.825848 0.104308
O O1 0.576442 0.124203 0.238997
O O2 0.770106 0.277657 0.270545
O O3 0.619826 0.118300 0.130959
O O4 0.341759 0.273482 0.075910
O O5 0.654103 0.136570 0.413444
O O6 0.000000 0.126717 0.500000
O O7 0.770784 0.970586 0.408704
O O8 0.755003 0.654729 0.270497
O O9 0.917899 0.781503 0.249003
O O10 0.041241 0.801643 0.436753
O O11 0.747103 0.464795 0.308324
O O12 0.000000 0.334095 0.500000
O O13 0.140432 0.403275 0.457815
O O14 0.558112 0.484796 0.664194
O O15 0.469061 0.599571 0.725559
O O16 0.742740 0.448065 0.879856
O O17 0.500000 0.093439 0.500000
O O18 0.500000 0.791746 0.000000
#
# Coordination Sequence:
#
# PCOD9126007 Si02
#       8
#     4   4   4   4   4   4   4   4
#     4  11  22  37  61  90 116 159 209 252 302 369
#     4  11  19  31  52  81 120 157 198 231 285 366
#     4  10  22  37  55  83 122 160 198 251 303 365
#     4  11  18  31  53  81 125 164 198 237 288 369
#     4  11  20  31  50  85 122 163 193 228 289 370
#     4  11  21  39  60  88 120 156 206 247 301 372
#     4  11  20  35  54  91 131 165 194 232 300 377
#     4  10  23  46  66  84 110 154 213 271 316 354
#
# _framework density 22.150213000000001
#
# number of rings (size 3 to 8) (size 9 to 14) (size 15 to 20)
#    0.000    1.250    6.250    2.625    1.750    0.500 
#    2.250    0.000    0.000    0.000    0.000    0.875 
#    0.000    0.000    0.000    0.000    0.000    0.000 
#
# Total GULP energy -89169.159207 kJ/mol
# GULP energy per Si atom -5573.072450 kJ/mol
# Density = 2.209980 g / cm^3
# Si number density = 22.150213 Si / 1000 Ang^3
#
#
#
# Elastic Constant Matrix: (Units=GPa)
#
#
# Indices 1 2 3 4 5 6 
#
# 1 117.2989 51.6690 19.7455 -0.0003 28.9095 0.0000
# 2 51.6690 126.9470 13.2761 0.0003 6.9922 0.0001
# 3 19.7455 13.2761 33.7708 0.0013 21.7563 0.0001
# 4 -0.0003 0.0003 0.0013 11.2845 -0.0004 5.9478
# 5 28.9095 6.9922 21.7563 -0.0004 30.6660 0.0000
# 6 0.0000 0.0001 0.0001 5.9478 0.0000 24.2962
#
#
#
# Elastic Compliance Matrix: (Units=1/GPa)
#
#
# Indices 1 2 3 4 5 6 
#
# 1 0.013691 -0.005115 0.002891 0.000000 -0.013791 0.000000
# 2 -0.005115 0.010136 -0.004810 0.000000 0.005923 0.000000
# 3 0.002891 -0.004810 0.056841 -0.000009 -0.041955 0.000002
# 4 0.000000 0.000000 -0.000009 0.101746 0.000007 -0.024908
# 5 -0.013791 0.005923 -0.041955 0.000007 0.074025 -0.000002
# 6 0.000000 0.000000 0.000002 -0.024908 -0.000002 0.047256
#
#
# Mechanical properties :
#
#
# Convention : Reuss Voigt Hill
#
# Bulk Modulus (GPa) = 15.01528 49.71086 32.36307
# Shear Modulus (GPa) = 14.70749 26.13775 20.42262
#
# Velocity S-wave (km/s) = 2.57959 3.43887 3.03975
# Velocity P-wave (km/s) = 3.95802 6.18540 5.19255
#
# Compressibility (1/GPa) = 0.06659882
#
# Stress axis : x y z
#
# Youngs Moduli (GPa) = 73.04244 98.65887 17.59295
#
# Poissons Ratio (x) = 0.50464 -0.05086
# Poissons Ratio (y) = 0.37361 0.08462
# Poissons Ratio (z) = -0.21114 0.47456
#
# Static dielectric constant tensor:
#      x y z
#    x 1.916990 0.000000 0.018800 
#    y 0.000000 1.859650 0.000000 
#    z 0.018800 0.000000 1.875770 
# 
# From -- ./inp_files/68393.got.cif
#   From: 2010.05.17/outbox.cif.g08.bks.cpg/sg5_35_cif.got.tgz:68393.got - 2010.06.03 18:56:24.
