data_PCOD9126578
_publ_section_title
;
Structure prediction by ZEFSAII (Michael W. Deem and Ramdas Pophale) SiO2 
 PCOD9126578
Probable space group: C 2
;
_chemical_formula_sum "Si O2"
_cell_formula_units_Z 20
_cell_length_a 16.512897
_cell_length_b 7.402469
_cell_length_c 8.359201
_cell_angle_alpha 90.000000
_cell_angle_beta 130.709318
_cell_angle_gamma 90.000000
_cell_volume 774.551043
_symmetry_space_group_name_H-M "C 2"
_symmetry_group_IT_number 5
_symmetry_cell_setting 'monoclinic'
loop_
_space_group_symop_operation_xyz
x,y,z
-x,y,-z
1/2+x,1/2+y,z
1/2-x,1/2+y,-z
loop_
_atom_site_type_symbol
_atom_site_label
_atom_site_fract_x
_atom_site_fract_y
_atom_site_fract_z
Si Si1 0.632871 0.122430 0.510791
Si Si2 0.604468 0.296105 0.037336
Si Si3 0.113488 0.503410 0.831253
Si Si4 0.310052 0.489754 0.543398
Si Si5 0.479996 0.622657 0.285149
O O1 0.661668 0.032751 0.717937
O O2 0.507023 0.086362 0.333370
O O3 0.666484 0.333296 0.554664
O O4 0.691504 0.053346 0.426154
O O5 0.666008 0.132060 0.031276
O O6 0.568097 0.443601 0.857401
O O7 0.500000 0.229179 0.000000
O O8 0.663379 0.406114 0.249609
O O9 0.094377 0.294813 0.845271
O O10 0.399580 0.642498 0.630257
O O11 0.500000 0.610179 0.500000
#
# Coordination Sequence:
#
# PCOD9126578 Si02
#       5
#     4   4   4   4   4
#     4  11  22  42  66  94 131 171 221 265 324 394
#     4  10  22  41  63  95 132 166 216 275 319 387
#     4  11  22  43  67  94 125 177 218 264 333 388
#     4  11  24  43  64 101 134 170 225 273 323 389
#     4  11  21  39  70  92 127 172 219 258 332 391
#
# _framework density 25.821408000000002
#
# number of rings (size 3 to 8) (size 9 to 14) (size 15 to 20)
#    0.000    1.200    6.000    2.400    0.000    2.400 
#    7.200    0.000    0.000    0.000    0.000    0.000 
#    0.000    0.000    0.000    0.000    0.000    0.000 
#
# Total GULP energy -55947.170860 kJ/mol
# GULP energy per Si atom -5594.717086 kJ/mol
# Density = 2.576264 g / cm^3
# Si number density = 25.821408 Si / 1000 Ang^3
#
#
#
# Elastic Constant Matrix: (Units=GPa)
#
#
# Indices 1 2 3 4 5 6 
#
# 1 137.2198 33.4785 15.7500 0.0000 -13.7847 0.0000
# 2 33.4785 137.7391 20.6394 0.0000 -25.3332 0.0000
# 3 15.7500 20.6394 61.4231 0.0000 -29.0250 0.0000
# 4 0.0000 0.0000 0.0000 28.7623 0.0000 -8.8672
# 5 -13.7847 -25.3332 -29.0250 0.0000 40.0816 0.0000
# 6 0.0000 0.0000 0.0000 -8.8672 0.0000 36.8202
#
#
#
# Elastic Compliance Matrix: (Units=1/GPa)
#
#
# Indices 1 2 3 4 5 6 
#
# 1 0.007890 -0.001586 -0.001036 0.000000 0.000961 0.000000
# 2 -0.001586 0.008543 -0.000259 0.000000 0.004667 0.000000
# 3 -0.001036 -0.000259 0.024912 0.000000 0.017520 0.000000
# 4 0.000000 0.000000 0.000000 0.037556 0.000000 0.009044
# 5 0.000961 0.004667 0.017520 0.000000 0.040916 0.000000
# 6 0.000000 0.000000 0.000000 0.009044 0.000000 0.029337
#
#
# Mechanical properties :
#
#
# Convention : Reuss Voigt Hill
#
# Bulk Modulus (GPa) = 28.10307 52.90198 40.50252
# Shear Modulus (GPa) = 29.98022 38.90041 34.44032
#
# Velocity S-wave (km/s) = 3.41113 3.88560 3.65607
# Velocity P-wave (km/s) = 5.14020 6.37673 5.79156
#
# Compressibility (1/GPa) = 0.03558330
#
# Stress axis : x y z
#
# Youngs Moduli (GPa) = 126.74398 117.06085 40.14097
#
# Poissons Ratio (x) = 0.18562 0.04160
# Poissons Ratio (y) = 0.20098 0.01039
# Poissons Ratio (z) = 0.13134 0.03029
#
# Static dielectric constant tensor:
#      x y z
#    x 2.018190 0.000000 0.071100 
#    y 0.000000 2.064150 0.000000 
#    z 0.071100 0.000000 2.126050 
# 
# From -- ./inp_files/26589.got.cif
#   From: 2010.05.17/outbox.cif.g08.bks.cpg/sg5_14_cif.got.tgz:26589.got - 2010.06.03 18:56:24.
