data_PCOD9126061
_publ_section_title
;
Structure prediction by ZEFSAII (Michael W. Deem and Ramdas Pophale) SiO2 
 PCOD9126061
Probable space group: C 2
;
_chemical_formula_sum "Si O2"
_cell_formula_units_Z 28
_cell_length_a 14.720300
_cell_length_b 8.964745
_cell_length_c 14.362160
_cell_angle_alpha 90.000000
_cell_angle_beta 137.197510
_cell_angle_gamma 90.000000
_cell_volume 1287.794862
_symmetry_space_group_name_H-M "C 2"
_symmetry_group_IT_number 5
_symmetry_cell_setting 'monoclinic'
loop_
_space_group_symop_operation_xyz
x,y,z
-x,y,-z
1/2+x,1/2+y,z
1/2-x,1/2+y,-z
loop_
_atom_site_type_symbol
_atom_site_label
_atom_site_fract_x
_atom_site_fract_y
_atom_site_fract_z
Si Si1 0.996542 0.166520 0.856066
Si Si2 0.000000 0.929492 0.500000
Si Si3 0.815280 0.660062 0.347324
Si Si4 0.478383 0.007080 0.624457
Si Si5 0.500000 0.429492 0.000000
Si Si6 0.996540 0.166520 0.356065
Si Si7 0.815281 0.660062 0.847322
Si Si8 0.521619 0.007080 0.875545
O O1 0.842166 0.169407 0.772009
O O2 0.054208 0.332112 0.913147
O O3 0.000003 0.131801 0.750002
O O4 0.057999 0.035458 0.963388
O O5 0.884264 0.818800 0.378304
O O6 0.057998 0.035457 0.463387
O O7 0.867255 0.606333 0.488469
O O8 0.885346 0.547161 0.328005
O O9 0.445793 0.832112 0.586854
O O10 0.500003 0.035519 0.750002
O O11 0.384265 0.318801 0.878304
O O12 0.842165 0.169408 0.272011
O O13 0.885347 0.547161 0.828003
O O14 0.867255 0.606333 0.988466
#
# Coordination Sequence:
#
# PCOD9126061 Si02
#       8
#     4   2   4   4   2   4   4   4
#     4  11  23  37  58  86 113 147 187 228 278 331
#     4  10  22  38  58  84 112 146 188 232 276 326
#     4  10  22  39  58  83 114 147 186 230 276 330
#     4   9  20  40  60  80 112 151 185 227 280 328
#     4  10  22  38  58  84 112 146 188 232 276 326
#     4  11  23  37  58  86 113 147 187 228 278 331
#     4  10  22  39  58  83 114 147 186 230 276 330
#     4   9  20  40  60  80 112 151 185 227 280 328
#
# _framework density 21.742592999999999
#
# number of rings (size 3 to 8) (size 9 to 14) (size 15 to 20)
#    0.000    2.286    0.000    3.429    0.000   11.429 
#    0.000    0.000    0.000    0.000    0.000    0.000 
#    0.000    0.000    0.000    0.000    0.000    0.000 
#
# Total GULP energy -78235.523266 kJ/mol
# GULP energy per Si atom -5588.251662 kJ/mol
# Density = 2.169311 g / cm^3
# Si number density = 21.742593 Si / 1000 Ang^3
#
#
#
# Elastic Constant Matrix: (Units=GPa)
#
#
# Indices 1 2 3 4 5 6 
#
# 1 41.1893 6.6304 6.7454 0.0000 -24.2832 0.0000
# 2 6.6304 103.3738 18.6800 0.0000 -40.8190 0.0000
# 3 6.7454 18.6800 43.9414 0.0000 -17.0827 0.0000
# 4 0.0000 0.0000 0.0000 28.1499 0.0000 -9.0897
# 5 -24.2832 -40.8190 -17.0827 0.0000 49.2213 0.0000
# 6 0.0000 0.0000 0.0000 -9.0897 0.0000 16.5917
#
#
#
# Elastic Compliance Matrix: (Units=1/GPa)
#
#
# Indices 1 2 3 4 5 6 
#
# 1 0.037640 0.007261 0.000804 0.000000 0.024870 0.000000
# 2 0.007261 0.015896 -0.001566 0.000000 0.016221 0.000000
# 3 0.000804 -0.001566 0.026528 0.000000 0.008305 0.000000
# 4 0.000000 0.000000 0.000000 0.043159 0.000000 0.023644
# 5 0.024870 0.016221 0.008305 0.000000 0.048920 0.000000
# 6 0.000000 0.000000 0.000000 0.023644 0.000000 0.073224
#
#
# Mechanical properties :
#
#
# Convention : Reuss Voigt Hill
#
# Bulk Modulus (GPa) = 10.74561 28.06845 19.40703
# Shear Modulus (GPa) = 18.98316 29.22250 24.10283
#
# Velocity S-wave (km/s) = 2.95801 3.67007 3.33311
# Velocity P-wave (km/s) = 4.07668 5.55847 4.87422
#
# Compressibility (1/GPa) = 0.09306124
#
# Stress axis : x y z
#
# Youngs Moduli (GPa) = 26.56772 62.90836 37.69532
#
# Poissons Ratio (x) = -0.45677 -0.03030
# Poissons Ratio (y) = -0.19290 0.05903
# Poissons Ratio (z) = -0.02135 0.09852
#
# Static dielectric constant tensor:
#      x y z
#    x 1.767630 0.000000 0.008140 
#    y 0.000000 1.791730 0.000000 
#    z 0.008140 0.000000 1.811830 
# 
# From -- ./inp_files/54235.got.cif
#   From: 2010.05.17/outbox.cif.g08.bks.cpg/sg5_28_cif.got.tgz:54235.got - 2010.06.03 18:56:24.
