data_PCOD9126696
_publ_section_title
;
Structure prediction by ZEFSAII (Michael W. Deem and Ramdas Pophale) SiO2 
 PCOD9126696
Probable space group: C 2
;
_chemical_formula_sum "Si O2"
_cell_formula_units_Z 32
_cell_length_a 12.473305
_cell_length_b 14.609339
_cell_length_c 18.230011
_cell_angle_alpha 90.000000
_cell_angle_beta 29.965409
_cell_angle_gamma 90.000000
_cell_volume 1659.260564
_symmetry_space_group_name_H-M "C 2"
_symmetry_group_IT_number 5
_symmetry_cell_setting 'monoclinic'
loop_
_space_group_symop_operation_xyz
x,y,z
-x,y,-z
1/2+x,1/2+y,z
1/2-x,1/2+y,-z
loop_
_atom_site_type_symbol
_atom_site_label
_atom_site_fract_x
_atom_site_fract_y
_atom_site_fract_z
Si Si1 0.881001 0.358130 0.375328
Si Si2 0.841518 0.023563 0.407688
Si Si3 0.267993 0.795825 0.163778
Si Si4 0.658264 0.305838 0.837164
Si Si5 0.062844 0.693372 0.546587
Si Si6 0.427839 0.941361 0.187573
Si Si7 0.413119 0.414055 0.856701
Si Si8 0.347687 0.620623 0.660049
O O1 0.744642 0.434914 0.498358
O O2 0.753469 0.262953 0.455217
O O3 0.899386 0.386762 0.279779
O O4 0.117398 0.348133 0.268326
O O5 0.645765 0.091134 0.507163
O O6 0.006382 0.079000 0.361344
O O7 0.956425 0.990314 0.265390
O O8 0.314680 0.882218 0.190147
O O9 0.137068 0.833539 0.172138
O O10 0.136540 0.719866 0.284576
O O11 0.500000 0.762586 0.000000
O O12 0.542873 0.372133 0.847400
O O13 0.721725 0.210048 0.761368
O O14 0.500000 0.291186 0.000000
O O15 0.000000 0.710867 0.500000
O O16 0.316484 0.039219 0.261900
O O17 0.678925 0.949221 0.019866
O O18 0.500000 0.640581 0.500000
#
# Coordination Sequence:
#
# PCOD9126696 Si02
#       8
#     4   4   4   4   4   4   4   4
#     4  12  24  46  70  97 145 184 228 287 349 415
#     4  12  27  43  68 105 139 179 231 283 352 416
#     4  10  22  41  71 101 130 175 230 287 340 403
#     4  12  29  47  68  99 145 189 230 288 361 421
#     4  12  25  44  69 103 136 181 234 283 345 417
#     4  11  22  44  72 100 133 180 237 288 340 409
#     4  11  25  44  70  99 137 183 224 285 356 412
#     4  12  26  43  71 107 136 179 238 293 341 420
#
# _framework density 19.285699999999999
#
# number of rings (size 3 to 8) (size 9 to 14) (size 15 to 20)
#    0.000    0.500    7.500    0.000    7.000    0.000 
#    0.000    1.875    0.000    0.000    0.000    0.000 
#    0.000    0.000    0.000    0.000    0.000    0.000 
#
# Total GULP energy -89511.334861 kJ/mol
# GULP energy per Si atom -5594.458429 kJ/mol
# Density = 1.924180 g / cm^3
# Si number density = 19.285700 Si / 1000 Ang^3
#
#
#
# Elastic Constant Matrix: (Units=GPa)
#
#
# Indices 1 2 3 4 5 6 
#
# 1 106.4686 20.3451 33.9037 -0.0031 0.1900 -0.0007
# 2 20.3451 50.9732 19.6891 -0.0076 9.5401 0.0005
# 3 33.9037 19.6891 103.5737 -0.0133 23.6046 0.0016
# 4 -0.0031 -0.0076 -0.0133 25.4605 0.0038 -6.6023
# 5 0.1900 9.5401 23.6046 0.0038 34.4257 0.0002
# 6 -0.0007 0.0005 0.0016 -6.6023 0.0002 19.5847
#
#
#
# Elastic Compliance Matrix: (Units=1/GPa)
#
#
# Indices 1 2 3 4 5 6 
#
# 1 0.011309 -0.003711 -0.003812 -0.000002 0.003580 0.000000
# 2 -0.003711 0.022792 -0.001995 0.000006 -0.004928 0.000002
# 3 -0.003812 -0.001995 0.013217 0.000008 -0.008488 0.000001
# 4 -0.000002 0.000006 0.000008 0.043039 -0.000012 0.014509
# 5 0.003580 -0.004928 -0.008488 -0.000012 0.036214 -0.000003
# 6 0.000000 0.000002 0.000001 0.014509 -0.000003 0.055951
#
#
# Mechanical properties :
#
#
# Convention : Reuss Voigt Hill
#
# Bulk Modulus (GPa) = 35.35920 45.43237 40.39579
# Shear Modulus (GPa) = 23.69817 28.36604 26.03211
#
# Velocity S-wave (km/s) = 3.50922 3.83930 3.67797
# Velocity P-wave (km/s) = 5.89862 6.57741 6.24724
#
# Compressibility (1/GPa) = 0.02828118
#
# Stress axis : x y z
#
# Youngs Moduli (GPa) = 88.42312 43.87440 75.66242
#
# Poissons Ratio (x) = 0.16284 0.28845
# Poissons Ratio (y) = 0.32817 0.15093
# Poissons Ratio (z) = 0.33710 0.08752
#
# Static dielectric constant tensor:
#      x y z
#    x 1.665260 0.000000 -0.002480 
#    y 0.000000 1.636590 0.000000 
#    z -0.002480 0.000000 1.655960 
# 
# From -- ./inp_files/20704.got.cif
#   From: 2010.05.17/outbox.cif.g08.bks.cpg/sg5_11_cif.got.tgz:20704.got - 2010.06.03 18:56:24.
