data_PCOD9126333
_publ_section_title
;
Structure prediction by ZEFSAII (Michael W. Deem and Ramdas Pophale) SiO2 
 PCOD9126333
Probable space group: C 2
;
_chemical_formula_sum "Si O2"
_cell_formula_units_Z 28
_cell_length_a 15.313306
_cell_length_b 7.937290
_cell_length_c 13.169531
_cell_angle_alpha 90.000000
_cell_angle_beta 94.132411
_cell_angle_gamma 90.000000
_cell_volume 1596.544249
_symmetry_space_group_name_H-M "C 2"
_symmetry_group_IT_number 5
_symmetry_cell_setting 'monoclinic'
loop_
_space_group_symop_operation_xyz
x,y,z
-x,y,-z
1/2+x,1/2+y,z
1/2-x,1/2+y,-z
loop_
_atom_site_type_symbol
_atom_site_label
_atom_site_fract_x
_atom_site_fract_y
_atom_site_fract_z
Si Si1 0.762912 0.465310 0.371576
Si Si2 0.542129 0.467666 0.609489
Si Si3 0.090002 0.865323 0.232757
Si Si4 0.558018 0.821080 0.700086
Si Si5 0.106017 0.489560 0.239841
Si Si6 0.241586 0.866006 0.603396
Si Si7 0.529719 0.693490 0.117637
O O1 0.676844 0.405137 0.304873
O O2 0.850019 0.398930 0.323174
O O3 0.757651 0.667078 0.375760
O O4 0.762868 0.398447 0.487086
O O5 0.500000 0.414767 0.500000
O O6 0.490910 0.376925 0.695667
O O7 0.530844 0.668184 0.624507
O O8 0.644605 0.432323 0.617189
O O9 0.100512 0.675801 0.194153
O O10 0.071061 0.013649 0.151058
O O11 0.550985 0.735405 0.811758
O O12 0.480303 0.957315 0.697941
O O13 0.189394 0.458897 0.317889
O O14 0.097314 0.341752 0.155434
O O15 0.500000 0.700689 0.000000
#
# Coordination Sequence:
#
# PCOD9126333 Si02
#       7
#     4   4   4   4   4   4   4
#     4  12  22  37  56  92 123 166 201 235 299 352
#     4  11  21  36  54  90 121 163 202 237 290 357
#     4  11  21  40  62  89 121 155 200 248 296 361
#     4   9  22  37  61  82 123 149 202 248 297 349
#     4  10  22  40  60  91 120 159 196 252 296 356
#     4  12  23  35  59  87 130 167 200 240 285 365
#     4   9  21  43  68  84 118 153 203 257 312 345
#
# _framework density 17.537877999999999
#
# number of rings (size 3 to 8) (size 9 to 14) (size 15 to 20)
#    0.857    0.571    2.857    3.429    2.000    0.571 
#    0.000    0.000    9.429    0.000    0.000    0.000 
#    0.000    0.000    0.000    0.000    0.000    0.000 
#
# Total GULP energy -78066.213535 kJ/mol
# GULP energy per Si atom -5576.158110 kJ/mol
# Density = 1.749796 g / cm^3
# Si number density = 17.537878 Si / 1000 Ang^3
#
#
#
# Elastic Constant Matrix: (Units=GPa)
#
#
# Indices 1 2 3 4 5 6 
#
# 1 100.0994 18.9994 42.8476 0.0000 18.9453 0.0000
# 2 18.9994 128.8086 27.6401 0.0000 11.2128 0.0000
# 3 42.8476 27.6401 99.5621 0.0000 20.8127 0.0000
# 4 0.0000 0.0000 0.0000 14.5403 0.0000 1.1608
# 5 18.9453 11.2128 20.8127 0.0000 16.2733 0.0000
# 6 0.0000 0.0000 0.0000 1.1608 0.0000 26.6920
#
#
#
# Elastic Compliance Matrix: (Units=1/GPa)
#
#
# Indices 1 2 3 4 5 6 
#
# 1 0.013654 -0.000294 -0.003432 0.000000 -0.011305 0.000000
# 2 -0.000294 0.008434 -0.001463 0.000000 -0.003599 0.000000
# 3 -0.003432 -0.001463 0.014852 0.000000 -0.013992 0.000000
# 4 0.000000 0.000000 0.000000 0.069014 0.000000 -0.003001
# 5 -0.011305 -0.003599 -0.013992 0.000000 0.094986 0.000000
# 6 0.000000 0.000000 0.000000 -0.003001 0.000000 0.037595
#
#
# Mechanical properties :
#
#
# Convention : Reuss Voigt Hill
#
# Bulk Modulus (GPa) = 37.64458 56.38269 47.01364
# Shear Modulus (GPa) = 19.39747 27.43332 23.41540
#
# Velocity S-wave (km/s) = 3.32932 3.95933 3.65791
# Velocity P-wave (km/s) = 6.02416 7.28839 6.68622
#
# Compressibility (1/GPa) = 0.02656425
#
# Stress axis : x y z
#
# Youngs Moduli (GPa) = 73.23673 118.56903 67.33227
#
# Poissons Ratio (x) = 0.03481 0.23105
# Poissons Ratio (y) = 0.02150 0.09849
# Poissons Ratio (z) = 0.25131 0.17344
#
# Static dielectric constant tensor:
#      x y z
#    x 1.581410 0.000000 -0.011440 
#    y 0.000000 1.628230 0.000000 
#    z -0.011440 0.000000 1.561430 
# 
# From -- ./inp_files/41553.got.cif
#   From: 2010.05.17/outbox.cif.g08.bks.cpg/sg5_21_cif.got.tgz:41553.got - 2010.06.03 18:56:24.
