data_PCOD9126599
_publ_section_title
;
Structure prediction by ZEFSAII (Michael W. Deem and Ramdas Pophale) SiO2 
 PCOD9126599
Probable space group: C 2
;
_chemical_formula_sum "Si O2"
_cell_formula_units_Z 24
_cell_length_a 16.710702
_cell_length_b 7.187731
_cell_length_c 13.220071
_cell_angle_alpha 90.000000
_cell_angle_beta 144.353752
_cell_angle_gamma 90.000000
_cell_volume 925.388856
_symmetry_space_group_name_H-M "C 2"
_symmetry_group_IT_number 5
_symmetry_cell_setting 'monoclinic'
loop_
_space_group_symop_operation_xyz
x,y,z
-x,y,-z
1/2+x,1/2+y,z
1/2-x,1/2+y,-z
loop_
_atom_site_type_symbol
_atom_site_label
_atom_site_fract_x
_atom_site_fract_y
_atom_site_fract_z
Si Si1 0.278454 0.262120 0.161433
Si Si2 0.991002 0.870659 0.760046
Si Si3 0.113665 0.308037 0.530455
Si Si4 0.131852 0.933292 0.085161
Si Si5 0.287089 0.391188 0.394722
Si Si6 0.486383 0.819297 0.788465
O O1 0.399265 0.326062 0.214231
O O2 0.311785 0.291749 0.313628
O O3 0.231083 0.047871 0.112043
O O4 0.139370 0.363460 0.982244
O O5 0.850351 0.805479 0.563183
O O6 0.052585 0.792052 0.928568
O O7 0.976554 0.092554 0.767696
O O8 0.263591 0.375894 0.720144
O O9 0.054005 0.388308 0.365055
O O10 0.000000 0.339388 0.500000
O O11 0.140087 0.088624 0.544305
O O12 0.000000 0.036044 0.000000
O O13 0.126081 0.394350 0.249782
#
# Coordination Sequence:
#
# PCOD9126599 Si02
#       6
#     4   4   4   4   4   4
#     4  11  22  41  67  95 128 170 216 267 322 384
#     4  10  22  41  64  95 130 170 216 267 321 385
#     4  11  24  44  66  96 133 172 215 268 325 387
#     4  11  24  44  66  96 133 172 215 268 325 387
#     4  11  22  41  67  95 128 170 216 267 322 384
#     4  10  22  41  64  95 130 170 216 267 321 385
#
# _framework density 25.935040000000001
#
# number of rings (size 3 to 8) (size 9 to 14) (size 15 to 20)
#    0.000    1.333    0.000    7.000    0.000    5.333 
#    0.000   10.000    0.000    0.000    0.000    0.000 
#    0.000    0.000    0.000    0.000    0.000    0.000 
#
# Total GULP energy -67081.975900 kJ/mol
# GULP energy per Si atom -5590.164658 kJ/mol
# Density = 2.587601 g / cm^3
# Si number density = 25.935040 Si / 1000 Ang^3
#
#
#
# Elastic Constant Matrix: (Units=GPa)
#
#
# Indices 1 2 3 4 5 6 
#
# 1 111.1825 -5.6478 14.0481 0.0000 3.3089 0.0000
# 2 -5.6478 54.5591 0.3400 0.0000 2.0451 0.0000
# 3 14.0481 0.3400 175.1210 0.0000 -15.6539 0.0000
# 4 0.0000 0.0000 0.0000 27.0307 0.0000 2.6613
# 5 3.3089 2.0451 -15.6539 0.0000 66.8872 0.0000
# 6 0.0000 0.0000 0.0000 2.6613 0.0000 16.0857
#
#
#
# Elastic Compliance Matrix: (Units=1/GPa)
#
#
# Indices 1 2 3 4 5 6 
#
# 1 0.009165 0.000979 -0.000797 0.000000 -0.000670 0.000000
# 2 0.000979 0.018456 -0.000173 0.000000 -0.000653 0.000000
# 3 -0.000797 -0.000173 0.005902 0.000000 0.001426 0.000000
# 4 0.000000 0.000000 0.000000 0.037608 0.000000 -0.006222
# 5 -0.000670 -0.000653 0.001426 0.000000 0.015337 0.000000
# 6 0.000000 0.000000 0.000000 -0.006222 0.000000 0.063196
#
#
# Mechanical properties :
#
#
# Convention : Reuss Voigt Hill
#
# Bulk Modulus (GPa) = 29.81479 39.81593 34.81536
# Shear Modulus (GPa) = 31.08959 44.14220 37.61590
#
# Velocity S-wave (km/s) = 3.46605 4.13004 3.81253
# Velocity P-wave (km/s) = 5.24775 6.17483 5.73007
#
# Compressibility (1/GPa) = 0.03354040
#
# Stress axis : x y z
#
# Youngs Moduli (GPa) = 109.11588 54.18406 169.43204
#
# Poissons Ratio (x) = -0.05303 0.13503
# Poissons Ratio (y) = -0.10680 0.02927
# Poissons Ratio (z) = 0.08696 0.00936
#
# Static dielectric constant tensor:
#      x y z
#    x 1.981420 0.000000 -0.087950 
#    y 0.000000 2.151010 0.000000 
#    z -0.087950 0.000000 2.100660 
# 
# From -- ./inp_files/55803.got.cif
#   From: 2010.05.17/outbox.cif.g08.bks.cpg/sg5_28_cif.got.tgz:55803.got - 2010.06.03 18:56:24.
