data_PCOD9126085
_publ_section_title
;
Structure prediction by ZEFSAII (Michael W. Deem and Ramdas Pophale) SiO2 
 PCOD9126085
Probable space group: C 2
;
_chemical_formula_sum "Si O2"
_cell_formula_units_Z 28
_cell_length_a 16.021851
_cell_length_b 5.214765
_cell_length_c 16.169111
_cell_angle_alpha 90.000000
_cell_angle_beta 130.137127
_cell_angle_gamma 90.000000
_cell_volume 1032.792922
_symmetry_space_group_name_H-M "C 2"
_symmetry_group_IT_number 5
_symmetry_cell_setting 'monoclinic'
loop_
_space_group_symop_operation_xyz
x,y,z
-x,y,-z
1/2+x,1/2+y,z
1/2-x,1/2+y,-z
loop_
_atom_site_type_symbol
_atom_site_label
_atom_site_fract_x
_atom_site_fract_y
_atom_site_fract_z
Si Si1 0.634523 0.821210 0.802546
Si Si2 0.986249 0.818030 0.304226
Si Si3 0.500000 0.465128 0.500000
Si Si4 0.629416 0.387070 0.001061
Si Si5 0.299986 0.823735 0.346237
Si Si6 0.585030 0.151211 0.147973
Si Si7 0.500000 0.711744 0.000000
Si Si8 0.716104 0.596326 0.432903
O O1 0.603816 0.521402 0.786169
O O2 0.672714 0.861548 0.731686
O O3 0.538899 0.033046 0.744301
O O4 0.743021 0.868006 0.926763
O O5 0.984552 0.815317 0.404032
O O6 0.096688 0.970061 0.352168
O O7 0.396114 0.652800 0.444781
O O8 0.601748 0.367749 0.084914
O O9 0.566722 0.651068 0.954626
O O10 0.539593 0.199745 0.905360
O O11 0.183355 0.679330 0.272560
O O12 0.277498 0.078071 0.384283
O O13 0.592923 0.895151 0.101420
O O14 0.720389 0.880436 0.471923
#
# Coordination Sequence:
#
# PCOD9126085 Si02
#       8
#     4   4   2   4   4   4   2   4
#     4  10  23  37  66  92 123 156 204 255 300 360
#     4  11  24  40  60  90 124 163 202 249 310 359
#     4  10  22  38  60  94 120 156 206 262 294 360
#     4   8  16  30  51  90 118 154 192 251 303 356
#     4  10  22  40  62  91 123 160 207 252 306 359
#     4   8  16  31  52  85 122 150 199 243 308 355
#     4   8  14  26  54  80 128 148 188 248 310 356
#     4  12  26  45  62  85 124 171 201 252 302 367
#
# _framework density 27.110949000000002
#
# number of rings (size 3 to 8) (size 9 to 14) (size 15 to 20)
#    0.000    2.571    1.429    0.857   12.000    0.571 
#    5.143    0.000    0.000    1.714    0.000    0.000 
#    0.000    0.000    0.000    0.000    0.000    0.000 
#
# Total GULP energy -78112.036995 kJ/mol
# GULP energy per Si atom -5579.431214 kJ/mol
# Density = 2.704924 g / cm^3
# Si number density = 27.110949 Si / 1000 Ang^3
#
#
#
# Elastic Constant Matrix: (Units=GPa)
#
#
# Indices 1 2 3 4 5 6 
#
# 1 62.6980 -8.2239 8.5054 0.0000 -5.0784 0.0001
# 2 -8.2239 62.3206 19.0699 0.0001 -1.2012 0.0004
# 3 8.5054 19.0699 123.5705 0.0000 43.6735 0.0000
# 4 0.0000 0.0001 0.0000 20.4723 0.0000 1.8926
# 5 -5.0784 -1.2012 43.6735 0.0000 54.2295 0.0000
# 6 0.0001 0.0004 0.0000 1.8926 0.0000 26.2230
#
#
#
# Elastic Compliance Matrix: (Units=1/GPa)
#
#
# Indices 1 2 3 4 5 6 
#
# 1 0.017165 0.003326 -0.003200 0.000000 0.004258 0.000000
# 2 0.003326 0.017960 -0.004545 0.000000 0.004370 0.000000
# 3 -0.003200 -0.004545 0.012799 0.000000 -0.010708 0.000000
# 4 0.000000 0.000000 0.000000 0.049175 0.000000 -0.003549
# 5 0.004258 0.004370 -0.010708 0.000000 0.027559 0.000000
# 6 0.000000 0.000000 0.000000 -0.003549 0.000000 0.038391
#
#
# Mechanical properties :
#
#
# Convention : Reuss Voigt Hill
#
# Bulk Modulus (GPa) = 25.58427 31.92131 28.75279
# Shear Modulus (GPa) = 27.03975 35.46747 31.25361
#
# Velocity S-wave (km/s) = 3.16155 3.62088 3.39898
# Velocity P-wave (km/s) = 4.77332 5.41118 5.10223
#
# Compressibility (1/GPa) = 0.03908652
#
# Stress axis : x y z
#
# Youngs Moduli (GPa) = 58.25909 55.67940 78.13387
#
# Poissons Ratio (x) = -0.18520 0.25000
# Poissons Ratio (y) = -0.19378 0.35511
# Poissons Ratio (z) = 0.18641 0.25306
#
# Static dielectric constant tensor:
#      x y z
#    x 2.160870 0.000000 -0.163830 
#    y 0.000000 2.271550 0.000000 
#    z -0.163830 0.000000 2.020590 
# 
# From -- ./inp_files/66481.got.cif
#   From: 2010.05.17/outbox.cif.g08.bks.cpg/sg5_34_cif.got.tgz:66481.got - 2010.06.03 18:56:24.
