data_PCOD9126624
_publ_section_title
;
Structure prediction by ZEFSAII (Michael W. Deem and Ramdas Pophale) SiO2 
 PCOD9126624
Probable space group: C 2
;
_chemical_formula_sum "Si O2"
_cell_formula_units_Z 18
_cell_length_a 10.295950
_cell_length_b 8.387474
_cell_length_c 16.076343
_cell_angle_alpha 90.000000
_cell_angle_beta 145.415103
_cell_angle_gamma 90.000000
_cell_volume 788.039031
_symmetry_space_group_name_H-M "C 2"
_symmetry_group_IT_number 5
_symmetry_cell_setting 'monoclinic'
loop_
_space_group_symop_operation_xyz
x,y,z
-x,y,-z
1/2+x,1/2+y,z
1/2-x,1/2+y,-z
loop_
_atom_site_type_symbol
_atom_site_label
_atom_site_fract_x
_atom_site_fract_y
_atom_site_fract_z
Si Si1 0.736644 0.781420 0.883870
Si Si2 0.359093 0.227179 0.671098
Si Si3 0.202002 0.412156 0.041512
Si Si4 0.132139 0.424470 0.426067
Si Si5 0.500000 0.493163 0.500000
O O1 0.731041 0.595116 0.905025
O O2 0.571829 0.823045 0.720557
O O3 0.647036 0.883397 0.915608
O O4 0.000000 0.821653 0.000000
O O5 0.583236 0.296446 0.829712
O O6 0.206760 0.372039 0.556166
O O7 0.196435 0.111092 0.639582
O O8 0.415783 0.107417 0.623937
O O9 0.000000 0.372522 0.000000
O O10 0.366098 0.395598 0.497155
#
# Coordination Sequence:
#
# PCOD9126624 Si02
#       5
#     4   4   4   4   2
#     4  11  26  44  66  96 134 171 215 269 323 383
#     4  10  22  41  66  91 127 169 210 263 318 378
#     4  11  26  44  66  96 134 171 215 269 323 383
#     4  10  22  41  66  91 127 169 210 263 318 378
#     4   8  24  40  64  88 140 152 216 268 326 356
#
# _framework density 22.841508000000001
#
# number of rings (size 3 to 8) (size 9 to 14) (size 15 to 20)
#    1.333    0.444    0.000    2.667    6.222    3.556 
#    0.000    2.222    0.000    0.000    0.000    0.000 
#    0.000    0.000    0.000    0.000    0.000    0.000 
#
# Total GULP energy -50219.177558 kJ/mol
# GULP energy per Si atom -5579.908618 kJ/mol
# Density = 2.278952 g / cm^3
# Si number density = 22.841508 Si / 1000 Ang^3
#
#
#
# Elastic Constant Matrix: (Units=GPa)
#
#
# Indices 1 2 3 4 5 6 
#
# 1 88.1047 15.7427 18.7586 0.0001 25.6929 0.0000
# 2 15.7427 66.9889 22.3327 0.0000 8.4049 0.0000
# 3 18.7586 22.3327 100.9443 0.0002 15.1045 0.0001
# 4 0.0001 0.0000 0.0002 283.8471 0.0001 100.1353
# 5 25.6929 8.4049 15.1045 0.0001 35.7390 0.0000
# 6 0.0000 0.0000 0.0001 100.1353 0.0000 70.6782
#
#
#
# Elastic Compliance Matrix: (Units=1/GPa)
#
#
# Indices 1 2 3 4 5 6 
#
# 1 0.014729 -0.001954 -0.000842 0.000000 -0.009773 0.000000
# 2 -0.001954 0.016577 -0.003129 0.000000 -0.001171 0.000000
# 3 -0.000842 -0.003129 0.011267 0.000000 -0.003420 0.000000
# 4 0.000000 0.000000 0.000000 0.007043 0.000000 -0.009979
# 5 -0.009773 -0.001171 -0.003420 0.000000 0.036727 0.000000
# 6 0.000000 0.000000 0.000000 -0.009979 0.000000 0.028286
#
#
# Mechanical properties :
#
#
# Convention : Reuss Voigt Hill
#
# Bulk Modulus (GPa) = 32.55057 41.07843 36.81450
# Shear Modulus (GPa) = 36.57054 91.33313 63.95183
#
# Velocity S-wave (km/s) = 4.00566 6.33028 5.29706
# Velocity P-wave (km/s) = 5.97288 8.45299 7.31875
#
# Compressibility (1/GPa) = 0.03072142
#
# Stress axis : x y z
#
# Youngs Moduli (GPa) = 67.89499 60.32365 88.75428
#
# Poissons Ratio (x) = 0.11789 0.07476
# Poissons Ratio (y) = 0.13269 0.27772
# Poissons Ratio (z) = 0.05719 0.18876
#
# Static dielectric constant tensor:
#      x y z
#    x 0.953250 0.000000 -0.060250 
#    y 0.000000 1.831560 0.000000 
#    z -0.060250 0.000000 1.825670 
# 
# From -- ./inp_files/18013.got.cif
#   From: 2010.05.17/outbox.cif.g08.bks.cpg/sg5_10_cif.got.tgz:18013.got - 2010.06.03 18:56:24.
