data_PCOD9126527
_publ_section_title
;
Structure prediction by ZEFSAII (Michael W. Deem and Ramdas Pophale) SiO2 
 PCOD9126527
Probable space group: C 2
;
_chemical_formula_sum "Si O2"
_cell_formula_units_Z 30
_cell_length_a 9.226908
_cell_length_b 11.186270
_cell_length_c 13.774687
_cell_angle_alpha 90.000000
_cell_angle_beta 86.586155
_cell_angle_gamma 90.000000
_cell_volume 1419.227027
_symmetry_space_group_name_H-M "C 2"
_symmetry_group_IT_number 5
_symmetry_cell_setting 'monoclinic'
loop_
_space_group_symop_operation_xyz
x,y,z
-x,y,-z
1/2+x,1/2+y,z
1/2-x,1/2+y,-z
loop_
_atom_site_type_symbol
_atom_site_label
_atom_site_fract_x
_atom_site_fract_y
_atom_site_fract_z
Si Si1 0.879767 0.226350 0.080051
Si Si2 0.312963 0.471429 0.137851
Si Si3 0.518967 0.892708 0.220596
Si Si4 0.958400 0.000215 0.329810
Si Si5 0.736392 0.802589 0.375687
Si Si6 0.000000 0.188494 0.500000
Si Si7 0.642873 0.226600 0.948931
Si Si8 0.761941 0.577629 0.236437
O O1 0.934926 0.278653 0.179303
O O2 0.859669 0.084092 0.074367
O O3 0.731372 0.272479 0.039382
O O4 0.000000 0.264907 0.000000
O O5 0.143094 0.440041 0.142336
O O6 0.350007 0.516786 0.244236
O O7 0.391678 0.347101 0.110335
O O8 0.611068 0.861269 0.312326
O O9 0.399469 0.992718 0.239303
O O10 0.969089 0.103563 0.409146
O O11 0.116667 0.004058 0.270961
O O12 0.879901 0.884141 0.381578
O O13 0.644984 0.765156 0.473697
O O14 0.777298 0.684490 0.313361
O O15 0.731170 0.141262 0.870589
O O16 0.500000 0.168019 0.000000
#
# Coordination Sequence:
#
# PCOD9126527 Si02
#       8
#     4   4   4   4   4   2   4   4
#     4  12  23  39  60  90 129 173 232 280 326 388
#     4  11  23  43  62  91 135 178 227 279 342 390
#     4  11  24  41  66  92 126 181 223 273 338 395
#     4  10  22  42  73  95 134 180 214 273 349 404
#     4  10  22  47  67 101 139 168 222 276 343 408
#     4  10  22  40  72 104 134 170 218 286 330 418
#     4  12  25  39  62  98 136 181 236 291 324 383
#     4  11  23  43  67  94 135 180 225 279 335 396
#
# _framework density 21.138266999999999
#
# number of rings (size 3 to 8) (size 9 to 14) (size 15 to 20)
#    0.000    1.067    4.000    3.600    3.733    3.733 
#    0.000    2.667    0.000    0.000    0.000    0.000 
#    0.000    0.000    0.000    0.000    0.000    0.000 
#
# Total GULP energy -83621.573413 kJ/mol
# GULP energy per Si atom -5574.771561 kJ/mol
# Density = 2.109016 g / cm^3
# Si number density = 21.138267 Si / 1000 Ang^3
#
#
#
# Elastic Constant Matrix: (Units=GPa)
#
#
# Indices 1 2 3 4 5 6 
#
# 1 122.8482 46.2069 26.6802 0.0000 -27.4470 0.0000
# 2 46.2069 82.7254 14.6347 0.0000 -7.2790 0.0000
# 3 26.6802 14.6347 61.1974 0.0000 -13.5949 0.0000
# 4 0.0000 0.0000 0.0000 18.2728 0.0000 -3.9663
# 5 -27.4470 -7.2790 -13.5949 0.0000 33.8567 0.0000
# 6 0.0000 0.0000 0.0000 -3.9663 0.0000 9.2419
#
#
#
# Elastic Compliance Matrix: (Units=1/GPa)
#
#
# Indices 1 2 3 4 5 6 
#
# 1 0.012692 -0.005970 -0.002311 0.000000 0.008078 0.000000
# 2 -0.005970 0.015514 -0.001583 0.000000 -0.002140 0.000000
# 3 -0.002311 -0.001583 0.018923 0.000000 0.005384 0.000000
# 4 0.000000 0.000000 0.000000 0.060348 0.000000 0.025899
# 5 0.008078 -0.002140 0.005384 0.000000 0.037787 0.000000
# 6 0.000000 0.000000 0.000000 0.025899 0.000000 0.119318
#
#
# Mechanical properties :
#
#
# Convention : Reuss Voigt Hill
#
# Bulk Modulus (GPa) = 36.49403 49.09050 42.79226
# Shear Modulus (GPa) = 17.03906 24.22423 20.63165
#
# Velocity S-wave (km/s) = 2.84223 3.38892 3.12754
# Velocity P-wave (km/s) = 5.29839 6.21184 5.77321
#
# Compressibility (1/GPa) = 0.02740174
#
# Stress axis : x y z
#
# Youngs Moduli (GPa) = 78.78812 64.45649 52.84620
#
# Poissons Ratio (x) = 0.38479 0.12215
# Poissons Ratio (y) = 0.47034 0.08364
# Poissons Ratio (z) = 0.18211 0.10202
#
# Static dielectric constant tensor:
#      x y z
#    x 1.785250 0.000000 -0.009580 
#    y 0.000000 1.802690 0.000000 
#    z -0.009580 0.000000 1.826290 
# 
# From -- ./inp_files/50308.got.cif
#   From: 2010.05.17/outbox.cif.g08.bks.cpg/sg5_26_cif.got.tgz:50308.got - 2010.06.03 18:56:24.
