data_PCOD9126196
_publ_section_title
;
Structure prediction by ZEFSAII (Michael W. Deem and Ramdas Pophale) SiO2 
 PCOD9126196
Probable space group: C 2
;
_chemical_formula_sum "Si O2"
_cell_formula_units_Z 22
_cell_length_a 5.171304
_cell_length_b 18.662785
_cell_length_c 11.621776
_cell_angle_alpha 90.000000
_cell_angle_beta 109.504209
_cell_angle_gamma 90.000000
_cell_volume 1057.266021
_symmetry_space_group_name_H-M "C 2"
_symmetry_group_IT_number 5
_symmetry_cell_setting 'monoclinic'
loop_
_space_group_symop_operation_xyz
x,y,z
-x,y,-z
1/2+x,1/2+y,z
1/2-x,1/2+y,-z
loop_
_atom_site_type_symbol
_atom_site_label
_atom_site_fract_x
_atom_site_fract_y
_atom_site_fract_z
Si Si1 0.991612 0.252040 0.137497
Si Si2 0.708861 0.393665 0.800936
Si Si3 0.466549 0.028109 0.131738
Si Si4 0.000000 0.844163 0.000000
Si Si5 0.197208 0.977858 0.419658
Si Si6 0.953748 0.095243 0.764426
O O1 0.205837 0.312412 0.208972
O O2 0.042103 0.179460 0.212636
O O3 0.699301 0.292027 0.101868
O O4 0.000000 0.238047 0.000000
O O5 0.962298 0.447623 0.817475
O O6 0.454219 0.425035 0.693014
O O7 0.651621 0.392732 0.929321
O O8 0.189205 0.058771 0.144534
O O9 0.731716 0.073243 0.211950
O O10 0.500000 0.033321 0.000000
O O11 0.500000 0.954160 0.500000
O O12 0.000000 0.980992 0.500000
O O13 0.211081 0.056235 0.362146
#
# Coordination Sequence:
#
# PCOD9126196 Si02
#       6
#     4   4   4   2   4   4
#     4  10  22  40  63 103 140 176 209 271 352 422
#     4  10  24  39  69  95 138 174 225 275 349 399
#     4  11  22  36  61  99 131 172 216 269 334 408
#     4  10  22  38  70 104 144 172 212 282 348 432
#     4  11  25  47  71  93 129 181 239 286 323 379
#     4  11  25  40  66  92 134 177 223 275 333 396
#
# _framework density 20.808385999999999
#
# number of rings (size 3 to 8) (size 9 to 14) (size 15 to 20)
#    0.000    1.455    0.000    5.455   19.091    0.000 
#    0.000    0.909    0.000    0.000    0.000    0.000 
#    0.000    0.000    0.000    0.000    0.000    0.000 
#
# Total GULP energy -61429.448477 kJ/mol
# GULP energy per Si atom -5584.495316 kJ/mol
# Density = 2.076103 g / cm^3
# Si number density = 20.808386 Si / 1000 Ang^3
#
#
#
# Elastic Constant Matrix: (Units=GPa)
#
#
# Indices 1 2 3 4 5 6 
#
# 1 99.2011 40.7246 32.0485 0.0000 0.5800 0.0000
# 2 40.7246 170.1156 50.8513 0.0000 6.0193 0.0000
# 3 32.0485 50.8513 80.9836 0.0000 16.0904 0.0000
# 4 0.0000 0.0000 0.0000 19.9272 0.0000 3.7877
# 5 0.5800 6.0193 16.0904 0.0000 39.8757 0.0000
# 6 0.0000 0.0000 0.0000 3.7877 0.0000 18.0608
#
#
#
# Elastic Compliance Matrix: (Units=1/GPa)
#
#
# Indices 1 2 3 4 5 6 
#
# 1 0.012090 -0.001752 -0.004025 0.000000 0.001713 0.000000
# 2 -0.001752 0.007514 -0.004137 0.000000 0.000560 0.000000
# 3 -0.004025 -0.004137 0.017832 0.000000 -0.006513 0.000000
# 4 0.000000 0.000000 0.000000 0.052266 0.000000 -0.010961
# 5 0.001713 0.000560 -0.006513 0.000000 0.027596 0.000000
# 6 0.000000 0.000000 0.000000 -0.010961 0.000000 0.057667
#
#
# Mechanical properties :
#
#
# Convention : Reuss Voigt Hill
#
# Bulk Modulus (GPa) = 56.78427 66.39433 61.58930
# Shear Modulus (GPa) = 24.91743 30.68448 27.80095
#
# Velocity S-wave (km/s) = 3.46420 3.84424 3.65916
# Velocity P-wave (km/s) = 6.58402 7.18895 6.89313
#
# Compressibility (1/GPa) = 0.01761051
#
# Stress axis : x y z
#
# Youngs Moduli (GPa) = 82.71341 133.07809 56.07789
#
# Poissons Ratio (x) = 0.23312 0.22570
# Poissons Ratio (y) = 0.14489 0.23197
# Poissons Ratio (z) = 0.33291 0.55048
#
# Static dielectric constant tensor:
#      x y z
#    x 1.798540 0.000000 0.005570 
#    y 0.000000 1.734390 0.000000 
#    z 0.005570 0.000000 1.768850 
# 
# From -- ./inp_files/33420.got.cif
#   From: 2010.05.17/outbox.cif.g08.bks.cpg/sg5_17_cif.got.tgz:33420.got - 2010.06.03 18:56:24.
