data_PCOD9126128
_publ_section_title
;
Structure prediction by ZEFSAII (Michael W. Deem and Ramdas Pophale) SiO2 
 PCOD9126128
Probable space group: C 2
;
_chemical_formula_sum "Si O2"
_cell_formula_units_Z 24
_cell_length_a 22.339340
_cell_length_b 6.122837
_cell_length_c 21.978828
_cell_angle_alpha 90.000000
_cell_angle_beta 160.336123
_cell_angle_gamma 90.000000
_cell_volume 1011.613776
_symmetry_space_group_name_H-M "C 2"
_symmetry_group_IT_number 5
_symmetry_cell_setting 'monoclinic'
loop_
_space_group_symop_operation_xyz
x,y,z
-x,y,-z
1/2+x,1/2+y,z
1/2-x,1/2+y,-z
loop_
_atom_site_type_symbol
_atom_site_label
_atom_site_fract_x
_atom_site_fract_y
_atom_site_fract_z
Si Si1 0.225830 0.290800 0.788146
Si Si2 0.673907 0.993453 0.855057
Si Si3 0.259369 0.931479 0.714958
Si Si4 0.500000 0.054279 0.500000
Si Si5 0.472863 0.674294 0.743801
Si Si6 0.000000 0.145800 0.000000
Si Si7 0.611056 0.349706 0.447222
O O1 0.219770 0.286243 0.854781
O O2 0.373752 0.471661 0.913572
O O3 0.036486 0.398052 0.590509
O O4 0.246543 0.104195 0.757254
O O5 0.545959 0.900350 0.785148
O O6 0.561112 0.189739 0.715133
O O7 0.860766 0.077900 0.059748
O O8 0.454276 0.824105 0.902403
O O9 0.162140 0.978073 0.558486
O O10 0.159958 0.714294 0.642024
O O11 0.423008 0.512192 0.641002
O O12 0.291539 0.713453 0.607224
#
# Coordination Sequence:
#
# PCOD9126128 Si02
#       7
#     4   4   4   2   4   2   4
#     4  11  24  44  71 104 148 198 246 316 392 454
#     4  12  26  49  76 113 155 201 265 322 386 470
#     4  11  24  44  71 104 148 198 246 316 392 454
#     4  10  22  38  64 100 136 178 250 290 378 440
#     4  12  27  48  77 113 152 209 256 320 392 456
#     4  10  24  46  64 112 148 192 254 318 388 454
#     4  12  26  49  76 113 155 201 265 322 386 470
#
# _framework density 23.724471000000001
#
# number of rings (size 3 to 8) (size 9 to 14) (size 15 to 20)
#    0.000    0.667    5.000    2.000    4.667    0.000 
#   12.000    0.000    0.000    0.000    0.000    0.000 
#    0.000    0.000    0.000    0.000    0.000    0.000 
#
# Total GULP energy -66872.325876 kJ/mol
# GULP energy per Si atom -5572.693823 kJ/mol
# Density = 2.367047 g / cm^3
# Si number density = 23.724471 Si / 1000 Ang^3
#
#
#
# Elastic Constant Matrix: (Units=GPa)
#
#
# Indices 1 2 3 4 5 6 
#
# 1 83.5341 33.2198 38.9732 0.0001 -13.1581 0.0000
# 2 33.2198 92.3957 48.2871 0.0002 -12.1759 0.0000
# 3 38.9732 48.2871 109.4811 0.0004 -23.4523 0.0008
# 4 0.0001 0.0002 0.0004 46.7676 0.0000 7.2598
# 5 -13.1581 -12.1759 -23.4523 0.0000 30.8527 0.0003
# 6 0.0000 0.0000 0.0008 7.2598 0.0003 44.7825
#
#
#
# Elastic Compliance Matrix: (Units=1/GPa)
#
#
# Indices 1 2 3 4 5 6 
#
# 1 0.015315 -0.003386 -0.003399 0.000000 0.002612 0.000000
# 2 -0.003386 0.014839 -0.005249 0.000000 0.000422 0.000000
# 3 -0.003399 -0.005249 0.014220 0.000000 0.007288 0.000000
# 4 0.000000 0.000000 0.000000 0.021934 0.000000 -0.003556
# 5 0.002612 0.000422 0.007288 0.000000 0.039233 0.000000
# 6 0.000000 0.000000 0.000000 -0.003556 0.000000 0.022907
#
#
# Mechanical properties :
#
#
# Convention : Reuss Voigt Hill
#
# Bulk Modulus (GPa) = 49.24539 58.48569 53.86554
# Shear Modulus (GPa) = 31.39031 35.47594 33.43312
#
# Velocity S-wave (km/s) = 3.64142 3.87115 3.75804
# Velocity P-wave (km/s) = 6.20340 6.68480 6.44860
#
# Compressibility (1/GPa) = 0.02030647
#
# Stress axis : x y z
#
# Youngs Moduli (GPa) = 65.29629 67.38877 70.32123
#
# Poissons Ratio (x) = 0.22816 0.23903
# Poissons Ratio (y) = 0.22107 0.36913
# Poissons Ratio (z) = 0.22195 0.35374
#
# Static dielectric constant tensor:
#      x y z
#    x 1.946380 0.000000 -0.078580 
#    y 0.000000 1.916720 0.000000 
#    z -0.078580 0.000000 1.132040 
# 
# From -- ./inp_files/69556.got.cif
#   From: 2010.05.17/outbox.cif.g08.bks.cpg/sg5_35_cif.got.tgz:69556.got - 2010.06.03 18:56:24.
