data_PCOD9126000
_publ_section_title
;
Structure prediction by ZEFSAII (Michael W. Deem and Ramdas Pophale) SiO2 
 PCOD9126000
Probable space group: C 2
;
_chemical_formula_sum "Si O2"
_cell_formula_units_Z 26
_cell_length_a 22.290745
_cell_length_b 6.307114
_cell_length_c 10.121076
_cell_angle_alpha 90.000000
_cell_angle_beta 127.671131
_cell_angle_gamma 90.000000
_cell_volume 1126.289886
_symmetry_space_group_name_H-M "C 2"
_symmetry_group_IT_number 5
_symmetry_cell_setting 'monoclinic'
loop_
_space_group_symop_operation_xyz
x,y,z
-x,y,-z
1/2+x,1/2+y,z
1/2-x,1/2+y,-z
loop_
_atom_site_type_symbol
_atom_site_label
_atom_site_fract_x
_atom_site_fract_y
_atom_site_fract_z
Si Si1 0.000000 0.577390 0.000000
Si Si2 0.848468 0.928178 0.493862
Si Si3 0.478312 0.392569 0.213808
Si Si4 0.648385 0.111504 0.854764
Si Si5 0.610637 0.786098 0.033900
Si Si6 0.782290 0.255547 0.215510
Si Si7 0.237513 0.066181 0.360276
O O1 0.070096 0.417299 0.094626
O O2 0.994642 0.724024 0.119747
O O3 0.821645 0.043469 0.322660
O O4 0.808011 0.043488 0.564632
O O5 0.817545 0.688256 0.474079
O O6 0.939000 0.946651 0.620028
O O7 0.418738 0.285267 0.235729
O O8 0.438016 0.591343 0.088266
O O9 0.664929 0.954806 0.755297
O O10 0.725510 0.214429 0.017133
O O11 0.623489 0.946664 0.933406
O O12 0.689016 0.710143 0.196833
O O13 0.738508 0.344099 0.284693
#
# Coordination Sequence:
#
# PCOD9126000 Si02
#       7
#     2   4   4   4   4   4   4
#     4  10  22  36  70 104 144 190 240 298 356 432
#     4  12  27  43  72 112 152 184 239 312 376 423
#     4  11  25  44  70 108 150 192 243 305 368 430
#     4  11  26  46  77 102 139 201 260 289 358 442
#     4  11  22  43  71 103 141 195 249 294 352 438
#     4  12  26  48  76 105 142 194 251 301 353 449
#     4  12  24  43  72 109 147 190 238 299 372 435
#
# _framework density 23.084641999999999
#
# number of rings (size 3 to 8) (size 9 to 14) (size 15 to 20)
#    0.000    0.615    4.615    3.231    4.308    2.462 
#    0.000    4.615    0.000    0.000    0.000    0.000 
#    0.000    0.000    0.000    0.000    0.000    0.000 
#
# Total GULP energy -72663.877465 kJ/mol
# GULP energy per Si atom -5589.529036 kJ/mol
# Density = 2.303210 g / cm^3
# Si number density = 23.084642 Si / 1000 Ang^3
#
#
#
# Elastic Constant Matrix: (Units=GPa)
#
#
# Indices 1 2 3 4 5 6 
#
# 1 93.0797 26.1796 21.3452 0.0000 -5.2298 0.0000
# 2 26.1796 72.6029 -0.3770 0.0000 -3.5936 0.0000
# 3 21.3452 -0.3770 40.6891 0.0000 -4.6632 0.0000
# 4 0.0000 0.0000 0.0000 32.4072 0.0000 -6.0325
# 5 -5.2298 -3.5936 -4.6632 0.0000 21.9079 0.0000
# 6 0.0000 0.0000 0.0000 -6.0325 0.0000 60.5800
#
#
#
# Elastic Compliance Matrix: (Units=1/GPa)
#
#
# Indices 1 2 3 4 5 6 
#
# 1 0.013851 -0.004985 -0.007203 0.000000 0.000956 0.000000
# 2 -0.004985 0.015686 0.002992 0.000000 0.002020 0.000000
# 3 -0.007203 0.002992 0.028948 0.000000 0.004933 0.000000
# 4 0.000000 0.000000 0.000000 0.031440 0.000000 0.003131
# 5 0.000956 0.002020 0.004933 0.000000 0.047255 0.000000
# 6 0.000000 0.000000 0.000000 0.003131 0.000000 0.016819
#
#
# Mechanical properties :
#
#
# Convention : Reuss Voigt Hill
#
# Bulk Modulus (GPa) = 24.94118 33.40748 29.17433
# Shear Modulus (GPa) = 26.91711 33.59394 30.25552
#
# Velocity S-wave (km/s) = 3.41840 3.81891 3.62420
# Velocity P-wave (km/s) = 5.13890 5.82654 5.49349
#
# Compressibility (1/GPa) = 0.04009434
#
# Stress axis : x y z
#
# Youngs Moduli (GPa) = 72.19766 63.74937 34.54449
#
# Poissons Ratio (x) = 0.31776 0.24881
# Poissons Ratio (y) = 0.35987 -0.10335
# Poissons Ratio (z) = 0.52002 -0.19072
#
# Static dielectric constant tensor:
#      x y z
#    x 1.963410 0.000000 0.011290 
#    y 0.000000 1.895050 0.000000 
#    z 0.011290 0.000000 1.843620 
# 
# From -- ./inp_files/45535.got.cif
#   From: 2010.05.17/outbox.cif.g08.bks.cpg/sg5_23_cif.got.tgz:45535.got - 2010.06.03 18:56:24.
