data_PCOD9126688
_publ_section_title
;
Structure prediction by ZEFSAII (Michael W. Deem and Ramdas Pophale) SiO2 
 PCOD9126688
Probable space group: C 2
;
_chemical_formula_sum "Si O2"
_cell_formula_units_Z 28
_cell_length_a 20.950584
_cell_length_b 7.655272
_cell_length_c 13.508945
_cell_angle_alpha 90.000000
_cell_angle_beta 150.781870
_cell_angle_gamma 90.000000
_cell_volume 1057.593808
_symmetry_space_group_name_H-M "C 2"
_symmetry_group_IT_number 5
_symmetry_cell_setting 'monoclinic'
loop_
_space_group_symop_operation_xyz
x,y,z
-x,y,-z
1/2+x,1/2+y,z
1/2-x,1/2+y,-z
loop_
_atom_site_type_symbol
_atom_site_label
_atom_site_fract_x
_atom_site_fract_y
_atom_site_fract_z
Si Si1 0.457014 0.213960 0.128704
Si Si2 0.273387 0.992784 0.210912
Si Si3 0.021080 0.842619 0.629982
Si Si4 0.677339 0.926903 0.943696
Si Si5 0.343907 0.687417 0.773902
Si Si6 0.067093 0.218854 0.446695
Si Si7 0.721999 0.321279 0.423972
O O1 0.511469 0.246166 0.313323
O O2 0.585056 0.217049 0.236241
O O3 0.376045 0.039192 0.036756
O O4 0.358370 0.370632 0.970376
O O5 0.315463 0.020344 0.154563
O O6 0.379414 0.865973 0.406141
O O7 0.229849 0.154631 0.221179
O O8 0.000000 0.742369 0.500000
O O9 0.173329 0.886358 0.837997
O O10 0.943212 0.025890 0.523753
O O11 0.575707 0.771235 0.787304
O O12 0.312681 0.507672 0.671228
O O13 0.281966 0.829349 0.615752
O O14 0.500000 0.708481 0.000000
O O15 0.168013 0.231556 0.493522
#
# Coordination Sequence:
#
# PCOD9126688 Si02
#       7
#     4   4   4   4   4   4   4
#     4  11  22  40  65  96 130 167 224 273 324 410
#     4  10  22  41  70  93 130 178 217 271 348 392
#     4  11  23  40  60  89 129 169 210 276 339 383
#     4  11  23  40  64  95 127 168 224 275 327 409
#     4  11  23  46  70  96 141 183 224 283 340 405
#     4  11  23  41  65  91 127 171 219 271 335 407
#     4  11  24  42  69 101 131 180 231 270 342 413
#
# _framework density 26.475192
#
# number of rings (size 3 to 8) (size 9 to 14) (size 15 to 20)
#    0.000    1.143    1.429    6.429    2.000    2.286 
#    2.571    0.714    0.000    0.000    0.000    0.000 
#    0.000    0.000    0.000    0.000    0.000    0.000 
#
# Total GULP energy -78516.470917 kJ/mol
# GULP energy per Si atom -5608.319351 kJ/mol
# Density = 2.641493 g / cm^3
# Si number density = 26.475192 Si / 1000 Ang^3
#
#
#
# Elastic Constant Matrix: (Units=GPa)
#
#
# Indices 1 2 3 4 5 6 
#
# 1 109.5631 10.5724 37.7369 0.0000 24.5580 0.0000
# 2 10.5724 69.7957 10.5989 0.0000 5.9691 0.0000
# 3 37.7369 10.5989 137.5679 0.0000 12.9309 0.0000
# 4 0.0000 0.0000 0.0000 39.1764 0.0000 -7.0637
# 5 24.5580 5.9691 12.9309 0.0000 50.3495 0.0000
# 6 0.0000 0.0000 0.0000 -7.0637 0.0000 41.0273
#
#
#
# Elastic Compliance Matrix: (Units=1/GPa)
#
#
# Indices 1 2 3 4 5 6 
#
# 1 0.011139 -0.000901 -0.002547 0.000000 -0.004672 0.000000
# 2 -0.000901 0.014677 -0.000780 0.000000 -0.001100 0.000000
# 3 -0.002547 -0.000780 0.008098 0.000000 -0.000745 0.000000
# 4 0.000000 0.000000 0.000000 0.026343 0.000000 0.004536
# 5 -0.004672 -0.001100 -0.000745 0.000000 0.022462 0.000000
# 6 0.000000 0.000000 0.000000 0.004536 0.000000 0.025155
#
#
# Mechanical properties :
#
#
# Convention : Reuss Voigt Hill
#
# Bulk Modulus (GPa) = 39.28200 48.30480 43.79340
# Shear Modulus (GPa) = 40.05939 43.31186 41.68563
#
# Velocity S-wave (km/s) = 3.89407 4.04907 3.97232
# Velocity P-wave (km/s) = 5.92350 6.33599 6.13322
#
# Compressibility (1/GPa) = 0.02545695
#
# Stress axis : x y z
#
# Youngs Moduli (GPa) = 89.77853 68.13587 123.48842
#
# Poissons Ratio (x) = 0.06138 0.31451
# Poissons Ratio (y) = 0.08088 0.09635
# Poissons Ratio (z) = 0.22866 0.05316
#
# Static dielectric constant tensor:
#      x y z
#    x 2.091870 0.000000 -0.039320 
#    y 0.000000 2.137010 0.000000 
#    z -0.039320 0.000000 2.060110 
# 
# From -- ./inp_files/56936.got.cif
#   From: 2010.05.17/outbox.cif.g08.bks.cpg/sg5_29_cif.got.tgz:56936.got - 2010.06.03 18:56:24.
