data_PCOD9126405
_publ_section_title
;
Structure prediction by ZEFSAII (Michael W. Deem and Ramdas Pophale) SiO2 
 PCOD9126405
Probable space group: C 2
;
_chemical_formula_sum "Si O2"
_cell_formula_units_Z 30
_cell_length_a 9.322744
_cell_length_b 10.745815
_cell_length_c 15.110326
_cell_angle_alpha 90.000000
_cell_angle_beta 97.987156
_cell_angle_gamma 90.000000
_cell_volume 1499.075130
_symmetry_space_group_name_H-M "C 2"
_symmetry_group_IT_number 5
_symmetry_cell_setting 'monoclinic'
loop_
_space_group_symop_operation_xyz
x,y,z
-x,y,-z
1/2+x,1/2+y,z
1/2-x,1/2+y,-z
loop_
_atom_site_type_symbol
_atom_site_label
_atom_site_fract_x
_atom_site_fract_y
_atom_site_fract_z
Si Si1 0.970259 0.901530 0.215063
Si Si2 0.672519 0.873267 0.088492
Si Si3 0.500000 0.640258 0.500000
Si Si4 0.869343 0.438240 0.113926
Si Si5 0.569371 0.797770 0.337311
Si Si6 0.849468 0.132153 0.827638
Si Si7 0.701760 0.507351 0.651349
Si Si8 0.765165 0.256329 0.237954
O O1 0.828135 0.868321 0.147615
O O2 0.103361 0.807268 0.230734
O O3 0.918689 0.924850 0.310057
O O4 0.030482 0.027369 0.176315
O O5 0.543759 0.942348 0.130944
O O6 0.626158 0.728470 0.090471
O O7 0.675166 0.935088 0.992779
O O8 0.571584 0.721190 0.428190
O O9 0.626805 0.562468 0.558202
O O10 0.793215 0.549492 0.161841
O O11 0.815071 0.304079 0.145956
O O12 0.636927 0.715060 0.261726
O O13 0.398221 0.819436 0.304039
O O14 0.658839 0.923748 0.352583
O O15 0.731407 0.617056 0.725137
#
# Coordination Sequence:
#
# PCOD9126405 Si02
#       8
#     4   4   2   4   4   4   4   4
#     4  11  22  39  69  96 127 177 225 260 336 385
#     4  11  23  42  61 101 131 181 223 279 318 385
#     4  10  24  42  68 104 126 164 218 282 326 402
#     4  10  23  41  67  96 137 174 231 269 330 380
#     4  11  22  47  67  95 134 171 217 268 348 391
#     4  11  22  43  65  93 131 178 211 277 321 402
#     4  11  22  44  70  92 135 168 211 278 328 404
#     4  10  22  40  64  99 125 179 213 268 324 394
#
# _framework density 20.012339000000001
#
# number of rings (size 3 to 8) (size 9 to 14) (size 15 to 20)
#    0.000    1.333    5.333    0.000    0.000   10.667 
#    0.000    4.000    0.000    0.000    0.000    0.000 
#    0.000    0.000    0.000    0.000    0.000    0.000 
#
# Total GULP energy -83602.291335 kJ/mol
# GULP energy per Si atom -5573.486089 kJ/mol
# Density = 1.996679 g / cm^3
# Si number density = 20.012339 Si / 1000 Ang^3
#
#
#
# Elastic Constant Matrix: (Units=GPa)
#
#
# Indices 1 2 3 4 5 6 
#
# 1 162.8625 53.2892 54.4511 0.0000 7.9837 0.0000
# 2 53.2892 69.6476 28.6064 0.0000 6.1954 0.0000
# 3 54.4511 28.6064 98.6614 0.0000 -1.1793 0.0000
# 4 0.0000 0.0000 0.0000 30.1028 0.0000 -6.7263
# 5 7.9837 6.1954 -1.1793 0.0000 15.3586 0.0000
# 6 0.0000 0.0000 0.0000 -6.7263 0.0000 31.5853
#
#
#
# Elastic Compliance Matrix: (Units=1/GPa)
#
#
# Indices 1 2 3 4 5 6 
#
# 1 0.009223 -0.005326 -0.003581 0.000000 -0.002921 0.000000
# 2 -0.005326 0.020150 -0.002970 0.000000 -0.005587 0.000000
# 3 -0.003581 -0.002970 0.013022 0.000000 0.004059 0.000000
# 4 0.000000 0.000000 0.000000 0.034879 0.000000 0.007428
# 5 -0.002921 -0.005587 0.004059 0.000000 0.069194 0.000000
# 6 0.000000 0.000000 0.000000 0.007428 0.000000 0.033242
#
#
# Mechanical properties :
#
#
# Convention : Reuss Voigt Hill
#
# Bulk Modulus (GPa) = 53.64469 67.09608 60.37039
# Shear Modulus (GPa) = 23.84611 28.39767 26.12189
#
# Velocity S-wave (km/s) = 3.45566 3.77106 3.61680
# Velocity P-wave (km/s) = 6.54111 7.24992 6.90461
#
# Compressibility (1/GPa) = 0.01864117
#
# Stress axis : x y z
#
# Youngs Moduli (GPa) = 108.41984 49.62754 76.79606
#
# Poissons Ratio (x) = 0.26434 0.27500
# Poissons Ratio (y) = 0.57749 0.22805
# Poissons Ratio (z) = 0.38824 0.14737
#
# Static dielectric constant tensor:
#      x y z
#    x 1.728880 0.000000 0.000450 
#    y 0.000000 1.752700 0.000000 
#    z 0.000450 0.000000 1.706830 
# 
# From -- ./inp_files/50314.got.cif
#   From: 2010.05.17/outbox.cif.g08.bks.cpg/sg5_26_cif.got.tgz:50314.got - 2010.06.03 18:56:24.
