data_PCOD9126732
_publ_section_title
;
Structure prediction by ZEFSAII (Michael W. Deem and Ramdas Pophale) SiO2 
 PCOD9126732
Probable space group: C 2
;
_chemical_formula_sum "Si O2"
_cell_formula_units_Z 30
_cell_length_a 21.721000
_cell_length_b 14.732597
_cell_length_c 15.791545
_cell_angle_alpha 90.000000
_cell_angle_beta 162.786028
_cell_angle_gamma 90.000000
_cell_volume 1495.508458
_symmetry_space_group_name_H-M "C 2"
_symmetry_group_IT_number 5
_symmetry_cell_setting 'monoclinic'
loop_
_space_group_symop_operation_xyz
x,y,z
-x,y,-z
1/2+x,1/2+y,z
1/2-x,1/2+y,-z
loop_
_atom_site_type_symbol
_atom_site_label
_atom_site_fract_x
_atom_site_fract_y
_atom_site_fract_z
Si Si1 0.716026 0.250000 0.504918
Si Si2 0.677893 0.785792 0.119847
Si Si3 0.580462 0.896503 0.825468
Si Si4 0.000000 0.635377 0.500000
Si Si5 0.549651 0.398111 0.387650
Si Si6 0.937973 0.598447 0.229748
Si Si7 0.232186 0.756297 0.328749
Si Si8 0.969317 0.093316 0.560612
O O1 0.625454 0.351912 0.400329
O O2 0.576478 0.178182 0.372401
O O3 0.726269 0.226250 0.419488
O O4 0.950360 0.252654 0.847352
O O5 0.801548 0.700851 0.245550
O O6 0.828986 0.835284 0.384693
O O7 0.631221 0.855952 0.983699
O O8 0.401103 0.836736 0.547437
O O9 0.519545 0.001040 0.755483
O O10 0.800659 0.890341 0.066251
O O11 0.019184 0.585326 0.614212
O O12 0.596834 0.501304 0.477058
O O13 0.695830 0.620292 0.894941
O O14 0.309964 0.673777 0.372033
O O15 0.000000 0.784939 0.000000
O O16 0.000000 0.076639 0.500000
#
# Coordination Sequence:
#
# PCOD9126732 Si02
#       8
#     4   4   4   2   4   4   4   4
#     4  11  23  39  65  98 135 165 216 279 342 389
#     4  11  20  38  68  96 129 169 218 283 334 386
#     4  10  22  42  62  87 133 171 221 265 324 400
#     4  12  22  40  66  96 136 174 230 270 332 406
#     4  11  20  38  67 100 120 164 220 284 335 378
#     4  11  23  41  64 101 129 176 219 277 334 398
#     4  11  25  43  59  91 130 181 214 262 331 406
#     4  11  24  43  71  95 128 177 230 280 331 396
#
# _framework density 20.060065999999999
#
# number of rings (size 3 to 8) (size 9 to 14) (size 15 to 20)
#    0.000    1.067    2.667    5.200    0.000    3.200 
#    8.400    0.000    0.000    0.000    0.000    0.000 
#    0.000    0.000    0.000    0.000    0.000    0.000 
#
# Total GULP energy -83769.434496 kJ/mol
# GULP energy per Si atom -5584.628966 kJ/mol
# Density = 2.001441 g / cm^3
# Si number density = 20.060066 Si / 1000 Ang^3
#
#
#
# Elastic Constant Matrix: (Units=GPa)
#
#
# Indices 1 2 3 4 5 6 
#
# 1 40.6667 -6.2611 5.9161 -0.0004 -6.2224 -0.0010
# 2 -6.2611 57.9910 35.5888 -0.0002 11.9906 -0.0004
# 3 5.9161 35.5888 107.8213 -0.0005 10.6468 -0.0013
# 4 -0.0004 -0.0002 -0.0005 16.9265 -0.0003 -12.7527
# 5 -6.2224 11.9906 10.6468 -0.0003 35.0260 -0.0009
# 6 -0.0010 -0.0004 -0.0013 -12.7527 -0.0009 68.1502
#
#
#
# Elastic Compliance Matrix: (Units=1/GPa)
#
#
# Indices 1 2 3 4 5 6 
#
# 1 0.026304 0.003884 -0.003150 0.000001 0.004301 0.000001
# 2 0.003884 0.023234 -0.007386 0.000000 -0.005019 0.000000
# 3 -0.003150 -0.007386 0.012053 0.000000 -0.001695 0.000000
# 4 0.000001 0.000000 0.000000 0.068775 0.000001 0.012870
# 5 0.004301 -0.005019 -0.001695 0.000001 0.031547 0.000001
# 6 0.000001 0.000000 0.000000 0.012870 0.000001 0.017082
#
#
# Mechanical properties :
#
#
# Convention : Reuss Voigt Hill
#
# Bulk Modulus (GPa) = 20.70984 30.77404 25.74194
# Shear Modulus (GPa) = 23.99275 35.43622 29.71448
#
# Velocity S-wave (km/s) = 3.46214 4.20754 3.85291
# Velocity P-wave (km/s) = 5.13110 6.24330 5.71432
#
# Compressibility (1/GPa) = 0.04828622
#
# Stress axis : x y z
#
# Youngs Moduli (GPa) = 38.01638 43.04019 82.96804
#
# Poissons Ratio (x) = -0.16716 0.26134
# Poissons Ratio (y) = -0.14765 0.61284
# Poissons Ratio (z) = 0.11975 0.31791
#
# Static dielectric constant tensor:
#      x y z
#    x 1.750840 0.000000 -0.003520 
#    y 0.000000 1.691230 0.000000 
#    z -0.003520 0.000000 1.703490 
# 
# From -- ./inp_files/57160.got.cif
#   From: 2010.05.17/outbox.cif.g08.bks.cpg/sg5_29_cif.got.tgz:57160.got - 2010.06.03 18:56:24.
