data_PCOD9126719
_publ_section_title
;
Structure prediction by ZEFSAII (Michael W. Deem and Ramdas Pophale) SiO2 
 PCOD9126719
Probable space group: C 2
;
_chemical_formula_sum "Si O2"
_cell_formula_units_Z 30
_cell_length_a 10.280124
_cell_length_b 9.637705
_cell_length_c 25.185159
_cell_angle_alpha 90.000000
_cell_angle_beta 30.835931
_cell_angle_gamma 90.000000
_cell_volume 1279.026514
_symmetry_space_group_name_H-M "C 2"
_symmetry_group_IT_number 5
_symmetry_cell_setting 'monoclinic'
loop_
_space_group_symop_operation_xyz
x,y,z
-x,y,-z
1/2+x,1/2+y,z
1/2-x,1/2+y,-z
loop_
_atom_site_type_symbol
_atom_site_label
_atom_site_fract_x
_atom_site_fract_y
_atom_site_fract_z
Si Si1 0.179854 0.786750 0.515164
Si Si2 0.224934 0.174365 0.224809
Si Si3 0.777317 0.306917 0.929931
Si Si4 0.200418 0.569938 0.366641
Si Si5 0.126377 0.517374 0.010298
Si Si6 0.182446 0.467983 0.714843
Si Si7 0.500000 0.821270 0.500000
Si Si8 0.072102 0.456189 0.304459
O O1 0.335272 0.745561 0.513480
O O2 0.356760 0.873073 0.413713
O O3 0.064038 0.649014 0.530749
O O4 0.938003 0.881334 0.614564
O O5 0.411383 0.100193 0.118862
O O6 0.943071 0.151680 0.301248
O O7 0.265375 0.336890 0.218099
O O8 0.252360 0.098547 0.271409
O O9 0.785995 0.397129 0.980846
O O10 0.984694 0.373056 0.817490
O O11 0.500000 0.319026 0.000000
O O12 0.816231 0.143751 0.929173
O O13 0.184360 0.422221 0.401361
O O14 0.199136 0.552710 0.303560
O O15 0.000000 0.464217 0.000000
O O16 0.057091 0.513946 0.703164
#
# Coordination Sequence:
#
# PCOD9126719 Si02
#       8
#     4   4   4   4   4   4   2   4
#     4  11  23  39  64  89 129 170 210 256 310 366
#     4  11  23  43  65  92 131 162 212 267 316 381
#     4  10  23  44  68  96 131 166 211 274 330 389
#     4  11  23  39  62  89 121 169 210 258 310 368
#     4  10  23  42  69  97 127 168 214 270 330 393
#     4  11  23  43  64  93 129 167 211 261 317 376
#     4  10  22  42  56  90 128 164 212 258 300 366
#     4  11  24  39  64  92 126 173 212 259 310 376
#
# _framework density 23.455338999999999
#
# number of rings (size 3 to 8) (size 9 to 14) (size 15 to 20)
#    0.000    1.333    2.667    2.800    1.867    4.800 
#    0.000    2.667    0.000    0.000    0.000    0.000 
#    0.000    0.000    0.000    0.000    0.000    0.000 
#
# Total GULP energy -84014.632345 kJ/mol
# GULP energy per Si atom -5600.975490 kJ/mol
# Density = 2.340195 g / cm^3
# Si number density = 23.455339 Si / 1000 Ang^3
#
#
#
# Elastic Constant Matrix: (Units=GPa)
#
#
# Indices 1 2 3 4 5 6 
#
# 1 204.0906 49.6267 22.7226 -0.0001 40.7589 0.0000
# 2 49.6267 51.5565 0.9524 -0.0004 5.5364 0.0002
# 3 22.7226 0.9524 100.9594 -0.0008 11.1920 0.0002
# 4 -0.0001 -0.0004 -0.0008 23.2746 0.0001 16.5178
# 5 40.7589 5.5364 11.1920 0.0001 27.7749 0.0000
# 6 0.0000 0.0002 0.0002 16.5178 0.0000 37.5785
#
#
#
# Elastic Compliance Matrix: (Units=1/GPa)
#
#
# Indices 1 2 3 4 5 6 
#
# 1 0.009126 -0.007525 -0.000696 0.000000 -0.011612 0.000000
# 2 -0.007525 0.026031 0.000836 0.000001 0.005516 0.000000
# 3 -0.000696 0.000836 0.010425 0.000001 -0.003346 0.000000
# 4 0.000000 0.000001 0.000001 0.062445 0.000000 -0.027448
# 5 -0.011612 0.005516 -0.003346 0.000000 0.053293 0.000000
# 6 0.000000 0.000000 0.000000 -0.027448 0.000000 0.038676
#
#
# Mechanical properties :
#
#
# Convention : Reuss Voigt Hill
#
# Bulk Modulus (GPa) = 32.45250 55.91219 44.18234
# Shear Modulus (GPa) = 22.21888 36.61260 29.41574
#
# Velocity S-wave (km/s) = 3.08114 3.95517 3.54519
# Velocity P-wave (km/s) = 5.15012 6.68934 5.96955
#
# Compressibility (1/GPa) = 0.03081427
#
# Stress axis : x y z
#
# Youngs Moduli (GPa) = 109.57830 38.41533 95.92654
#
# Poissons Ratio (x) = 0.28906 0.06674
# Poissons Ratio (y) = 0.82452 -0.08024
# Poissons Ratio (z) = 0.07623 -0.03213
#
# Static dielectric constant tensor:
#      x y z
#    x 1.856520 0.000000 0.030980 
#    y 0.000000 1.863440 0.000000 
#    z 0.030980 0.000000 1.918970 
# 
# From -- ./inp_files/67954.got.cif
#   From: 2010.05.17/outbox.cif.g08.bks.cpg/sg5_34_cif.got.tgz:67954.got - 2010.06.03 18:56:24.
