data_PCOD9126109
_publ_section_title
;
Structure prediction by ZEFSAII (Michael W. Deem and Ramdas Pophale) SiO2 
 PCOD9126109
Probable space group: C 2
;
_chemical_formula_sum "Si O2"
_cell_formula_units_Z 28
_cell_length_a 8.923061
_cell_length_b 26.078370
_cell_length_c 8.316296
_cell_angle_alpha 90.000000
_cell_angle_beta 132.047776
_cell_angle_gamma 90.000000
_cell_volume 1437.048281
_symmetry_space_group_name_H-M "C 2"
_symmetry_group_IT_number 5
_symmetry_cell_setting 'monoclinic'
loop_
_space_group_symop_operation_xyz
x,y,z
-x,y,-z
1/2+x,1/2+y,z
1/2-x,1/2+y,-z
loop_
_atom_site_type_symbol
_atom_site_label
_atom_site_fract_x
_atom_site_fract_y
_atom_site_fract_z
Si Si1 0.296364 0.221970 0.956383
Si Si2 0.112271 0.713689 0.439132
Si Si3 0.918752 0.029226 0.764250
Si Si4 0.466022 0.636702 0.652429
Si Si5 0.000000 0.970525 0.500000
Si Si6 0.547960 0.792424 0.222536
Si Si7 0.500000 0.973589 0.500000
Si Si8 0.919582 0.413912 0.761120
O O1 0.153007 0.172085 0.845433
O O2 0.140725 0.268329 0.813333
O O3 0.500000 0.215643 0.000000
O O4 0.413231 0.232078 0.204635
O O5 0.275178 0.674245 0.487630
O O6 0.250199 0.762251 0.583159
O O7 0.000000 0.683781 0.500000
O O8 0.928852 0.090255 0.745362
O O9 0.025819 0.003411 0.684186
O O10 0.691522 0.008796 0.601654
O O11 0.000000 0.015879 0.000000
O O12 0.500000 0.614216 0.500000
O O13 0.807330 0.935166 0.396315
O O14 0.569478 0.852892 0.257032
O O15 0.500000 0.781364 0.000000
O O16 0.526769 0.940251 0.683371
O O17 0.000000 0.424769 0.000000
#
# Coordination Sequence:
#
# PCOD9126109 Si02
#       8
#     4   4   4   4   2   4   2   4
#     4  11  23  40  59  88 126 165 199 249 307 360
#     4  11  23  38  61  88 128 161 199 249 304 369
#     4  11  24  42  65  92 124 160 208 258 314 372
#     4  11  24  41  60  92 123 161 210 255 304 378
#     4  10  22  42  66  90 124 164 202 260 316 364
#     4  10  22  38  62  94 123 160 210 249 300 372
#     4  10  24  44  62  92 124 162 204 260 318 368
#     4  10  22  41  66  93 125 161 207 256 310 369
#
# _framework density 19.484383999999999
#
# number of rings (size 3 to 8) (size 9 to 14) (size 15 to 20)
#    0.000    1.429    3.571    0.857    4.000    1.143 
#    0.000    4.286    0.000    0.000    0.000    0.000 
#    0.000    0.000    0.000    0.000    0.000    0.000 
#
# Total GULP energy -77936.414405 kJ/mol
# GULP energy per Si atom -5566.886743 kJ/mol
# Density = 1.944004 g / cm^3
# Si number density = 19.484384 Si / 1000 Ang^3
#
#
#
# Elastic Constant Matrix: (Units=GPa)
#
#
# Indices 1 2 3 4 5 6 
#
# 1 102.1611 50.7820 33.7851 0.0000 9.7161 0.0000
# 2 50.7820 115.4906 48.6408 0.0000 8.0823 0.0000
# 3 33.7851 48.6408 97.4062 0.0000 1.9897 0.0000
# 4 0.0000 0.0000 0.0000 8.5275 0.0000 -0.9072
# 5 9.7161 8.0823 1.9897 0.0000 29.4582 0.0000
# 6 0.0000 0.0000 0.0000 -0.9072 0.0000 20.5685
#
#
#
# Elastic Compliance Matrix: (Units=1/GPa)
#
#
# Indices 1 2 3 4 5 6 
#
# 1 0.013086 -0.004640 -0.002162 0.000000 -0.002897 0.000000
# 2 -0.004640 0.012820 -0.004758 0.000000 -0.001665 0.000000
# 3 -0.002162 -0.004758 0.013369 0.000000 0.001116 0.000000
# 4 0.000000 0.000000 0.000000 0.117820 0.000000 0.005196
# 5 -0.002897 -0.001665 0.001116 0.000000 0.035283 0.000000
# 6 0.000000 0.000000 0.000000 0.005196 0.000000 0.048847
#
#
# Mechanical properties :
#
#
# Convention : Reuss Voigt Hill
#
# Bulk Modulus (GPa) = 61.90742 64.60820 63.25781
# Shear Modulus (GPa) = 18.53694 23.83419 21.18556
#
# Velocity S-wave (km/s) = 3.08778 3.50129 3.30102
# Velocity P-wave (km/s) = 6.67490 7.04104 6.86042
#
# Compressibility (1/GPa) = 0.01615315
#
# Stress axis : x y z
#
# Youngs Moduli (GPa) = 76.41924 78.00536 74.79727
#
# Poissons Ratio (x) = 0.36198 0.16173
# Poissons Ratio (y) = 0.35462 0.35589
# Poissons Ratio (z) = 0.16524 0.37115
#
# Static dielectric constant tensor:
#      x y z
#    x 1.745460 0.000000 -0.086820 
#    y 0.000000 1.640740 0.000000 
#    z -0.086820 0.000000 1.709800 
# 
# From -- ./inp_files/17529.got.cif
#   From: 2010.05.17/outbox.cif.g08.bks.cpg/sg5_9_cif.got.tgz:17529.got - 2010.06.03 18:56:24.
