data_PCOD9126464
_publ_section_title
;
Structure prediction by ZEFSAII (Michael W. Deem and Ramdas Pophale) SiO2 
 PCOD9126464
Probable space group: C 2
;
_chemical_formula_sum "Si O2"
_cell_formula_units_Z 26
_cell_length_a 8.524512
_cell_length_b 12.845744
_cell_length_c 14.913901
_cell_angle_alpha 90.000000
_cell_angle_beta 42.526148
_cell_angle_gamma 90.000000
_cell_volume 1103.874212
_symmetry_space_group_name_H-M "C 2"
_symmetry_group_IT_number 5
_symmetry_cell_setting 'monoclinic'
loop_
_space_group_symop_operation_xyz
x,y,z
-x,y,-z
1/2+x,1/2+y,z
1/2-x,1/2+y,-z
loop_
_atom_site_type_symbol
_atom_site_label
_atom_site_fract_x
_atom_site_fract_y
_atom_site_fract_z
Si Si1 0.488767 0.586780 0.610059
Si Si2 0.353019 0.627903 0.189462
Si Si3 0.756929 0.185748 0.851882
Si Si4 0.712989 0.412379 0.843038
Si Si5 0.500000 0.814023 0.000000
Si Si6 0.991421 0.896071 0.744777
Si Si7 0.572092 0.231873 0.560181
O O1 0.500000 0.565008 0.500000
O O2 0.260943 0.640800 0.749188
O O3 0.518291 0.484299 0.657680
O O4 0.687824 0.671689 0.544822
O O5 0.578115 0.611303 0.157601
O O6 0.256233 0.537736 0.164296
O O7 0.442926 0.731596 0.102277
O O8 0.136263 0.649543 0.344031
O O9 0.852115 0.306189 0.807930
O O10 0.500000 0.183591 0.000000
O O11 0.656282 0.404043 0.761408
O O12 0.500000 0.398659 0.000000
O O13 0.267149 0.883025 0.102816
O O14 0.056078 0.795489 0.658593
O O15 0.500000 0.293115 0.500000
#
# Coordination Sequence:
#
# PCOD9126464 Si02
#       7
#     4   4   4   4   2   4   4
#     4  12  26  46  70 109 150 197 252 312 384 454
#     4  11  22  44  71 104 143 189 247 305 375 453
#     4  11  24  43  72 106 148 189 249 315 375 449
#     4  11  22  42  68 103 144 190 243 302 376 450
#     4  10  22  40  68 102 138 190 240 320 366 444
#     4  11  24  43  69 106 146 192 257 303 391 449
#     4  11  23  46  71  97 146 195 242 310 373 461
#
# _framework density 23.553408999999998
#
# number of rings (size 3 to 8) (size 9 to 14) (size 15 to 20)
#    0.000    0.923    3.846    3.231    1.077    2.462 
#    8.308    3.077    0.000    0.000    0.000    0.000 
#    0.000    0.000    0.000    0.000    0.000    0.000 
#
# Total GULP energy -72394.071571 kJ/mol
# GULP energy per Si atom -5568.774736 kJ/mol
# Density = 2.349980 g / cm^3
# Si number density = 23.553409 Si / 1000 Ang^3
#
#
#
# Elastic Constant Matrix: (Units=GPa)
#
#
# Indices 1 2 3 4 5 6 
#
# 1 57.4001 19.9642 29.1365 -0.0008 18.1267 0.0006
# 2 19.9642 87.7118 30.4171 -0.0004 -0.5476 0.0003
# 3 29.1365 30.4171 133.5796 -0.0015 8.0278 0.0008
# 4 -0.0008 -0.0004 -0.0015 36.8542 0.0007 14.0057
# 5 18.1267 -0.5476 8.0278 0.0007 37.5186 -0.0004
# 6 0.0006 0.0003 0.0008 14.0057 -0.0004 28.2483
#
#
#
# Elastic Compliance Matrix: (Units=1/GPa)
#
#
# Indices 1 2 3 4 5 6 
#
# 1 0.024248 -0.004324 -0.003643 0.000001 -0.010999 -0.000001
# 2 -0.004324 0.013173 -0.002222 0.000000 0.002757 0.000000
# 3 -0.003643 -0.002222 0.008796 0.000000 -0.000154 0.000000
# 4 0.000001 0.000000 0.000000 0.033433 -0.000001 -0.016576
# 5 -0.010999 0.002757 -0.000154 -0.000001 0.032041 0.000001
# 6 -0.000001 0.000000 0.000000 -0.016576 0.000001 0.043619
#
#
# Mechanical properties :
#
#
# Convention : Reuss Voigt Hill
#
# Bulk Modulus (GPa) = 38.70281 48.63633 43.66957
# Shear Modulus (GPa) = 27.12922 33.80249 30.46585
#
# Velocity S-wave (km/s) = 3.39753 3.79244 3.60040
# Velocity P-wave (km/s) = 5.64433 6.31435 5.98872
#
# Compressibility (1/GPa) = 0.02583792
#
# Stress axis : x y z
#
# Youngs Moduli (GPa) = 41.23970 75.91253 113.68653
#
# Poissons Ratio (x) = 0.32828 0.41420
# Poissons Ratio (y) = 0.17834 0.25262
# Poissons Ratio (z) = 0.15025 0.16868
#
# Static dielectric constant tensor:
#      x y z
#    x 1.938920 0.000000 0.053500 
#    y 0.000000 2.074390 0.000000 
#    z 0.053500 0.000000 1.797200 
# 
# From -- ./inp_files/51073.got.cif
#   From: 2010.05.17/outbox.cif.g08.bks.cpg/sg5_26_cif.got.tgz:51073.got - 2010.06.03 18:56:24.
