data_PCOD9126656
_publ_section_title
;
Structure prediction by ZEFSAII (Michael W. Deem and Ramdas Pophale) SiO2 
 PCOD9126656
Probable space group: C 2
;
_chemical_formula_sum "Si O2"
_cell_formula_units_Z 30
_cell_length_a 9.076214
_cell_length_b 13.936008
_cell_length_c 20.593991
_cell_angle_alpha 90.000000
_cell_angle_beta 30.835176
_cell_angle_gamma 90.000000
_cell_volume 1335.171073
_symmetry_space_group_name_H-M "C 2"
_symmetry_group_IT_number 5
_symmetry_cell_setting 'monoclinic'
loop_
_space_group_symop_operation_xyz
x,y,z
-x,y,-z
1/2+x,1/2+y,z
1/2-x,1/2+y,-z
loop_
_atom_site_type_symbol
_atom_site_label
_atom_site_fract_x
_atom_site_fract_y
_atom_site_fract_z
Si Si1 0.736314 0.537400 0.965380
Si Si2 0.696558 0.833739 0.106637
Si Si3 0.571342 0.808110 0.292028
Si Si4 0.313948 0.663363 0.207852
Si Si5 0.637518 0.547635 0.329947
Si Si6 0.500000 0.409752 0.500000
Si Si7 0.296010 0.614396 0.354952
Si Si8 0.226227 0.236330 0.362251
O O1 0.769985 0.421724 0.956178
O O2 0.047778 0.564878 0.819758
O O3 0.500000 0.551537 0.000000
O O4 0.585875 0.602890 0.076533
O O5 0.656015 0.869530 0.196460
O O6 0.443469 0.766116 0.179453
O O7 0.000000 0.779918 0.000000
O O8 0.519495 0.702286 0.280918
O O9 0.765650 0.801795 0.282706
O O10 0.260154 0.847058 0.429100
O O11 0.236074 0.603877 0.301959
O O12 0.024537 0.691540 0.277403
O O13 0.613015 0.470609 0.396025
O O14 0.430900 0.529266 0.346688
O O15 0.551849 0.645518 0.398792
O O16 0.000000 0.641839 0.500000
O O17 0.000000 0.278908 0.500000
#
# Coordination Sequence:
#
# PCOD9126656 Si02
#       8
#     4   4   4   4   4   2   4   4
#     4  11  23  42  68  93 136 185 233 280 346 415
#     4  10  24  43  68  98 132 181 238 280 346 426
#     4  10  22  41  70  95 133 174 227 284 353 409
#     4  11  24  41  75  99 142 183 228 296 354 408
#     4  11  23  39  68  97 135 184 233 274 347 419
#     4  12  22  42  72 100 138 182 224 302 356 402
#     4  10  22  41  67  99 134 179 230 280 345 421
#     4  11  23  40  70 103 133 179 230 282 354 426
#
# _framework density 22.46903
#
# number of rings (size 3 to 8) (size 9 to 14) (size 15 to 20)
#    0.000    1.333    4.000    1.600    7.467    0.000 
#    0.000    2.000    8.800    0.000    0.000    0.000 
#    0.000    0.000    0.000    0.000    0.000    0.000 
#
# Total GULP energy -83508.448732 kJ/mol
# GULP energy per Si atom -5567.229915 kJ/mol
# Density = 2.241789 g / cm^3
# Si number density = 22.469030 Si / 1000 Ang^3
#
#
#
# Elastic Constant Matrix: (Units=GPa)
#
#
# Indices 1 2 3 4 5 6 
#
# 1 140.0437 31.2735 45.2499 -0.0057 -1.8899 0.0002
# 2 31.2735 36.6305 21.4816 0.0032 11.0843 -0.0003
# 3 45.2499 21.4816 117.2475 -0.0307 7.4786 0.0075
# 4 -0.0057 0.0032 -0.0307 23.1783 0.0139 -8.2064
# 5 -1.8899 11.0843 7.4786 0.0139 32.4122 -0.0006
# 6 0.0002 -0.0003 0.0075 -8.2064 -0.0006 14.8038
#
#
#
# Elastic Compliance Matrix: (Units=1/GPa)
#
#
# Indices 1 2 3 4 5 6 
#
# 1 0.009824 -0.008072 -0.002563 -0.000002 0.003925 0.000000
# 2 -0.008072 0.040257 -0.003402 -0.000004 -0.013453 0.000000
# 3 -0.002563 -0.003402 0.010227 0.000015 -0.001346 0.000003
# 4 -0.000002 -0.000004 0.000015 0.053679 -0.000025 0.029757
# 5 0.003925 -0.013453 -0.001346 -0.000025 0.035992 -0.000012
# 6 0.000000 0.000000 0.000003 0.029757 -0.000012 0.084046
#
#
# Mechanical properties :
#
#
# Convention : Reuss Voigt Hill
#
# Bulk Modulus (GPa) = 31.02315 54.43686 42.73001
# Shear Modulus (GPa) = 18.32533 27.13996 22.73265
#
# Velocity S-wave (km/s) = 2.85894 3.47923 3.18422
# Velocity P-wave (km/s) = 4.97344 6.35769 5.70768
#
# Compressibility (1/GPa) = 0.03223400
#
# Stress axis : x y z
#
# Youngs Moduli (GPa) = 101.78819 24.84023 97.77746
#
# Poissons Ratio (x) = 0.20051 0.25060
# Poissons Ratio (y) = 0.82165 0.33267
# Poissons Ratio (z) = 0.26088 0.08452
#
# Static dielectric constant tensor:
#      x y z
#    x 1.928090 0.000030 0.107290 
#    y 0.000030 1.918120 0.000060 
#    z 0.107290 0.000060 2.021970 
# 
# From -- ./inp_files/64763.got.cif
#   From: 2010.05.17/outbox.cif.g08.bks.cpg/sg5_33_cif.got.tgz:64763.got - 2010.06.03 18:56:24.
