data_PCOD9126869
_publ_section_title
;
Structure prediction by ZEFSAII (Michael W. Deem and Ramdas Pophale) SiO2 
 PCOD9126869
Probable space group: C 2
;
_chemical_formula_sum "Si O2"
_cell_formula_units_Z 32
_cell_length_a 30.628802
_cell_length_b 5.144410
_cell_length_c 8.782751
_cell_angle_alpha 90.000000
_cell_angle_beta 87.657653
_cell_angle_gamma 90.000000
_cell_volume 1382.716460
_symmetry_space_group_name_H-M "C 2"
_symmetry_group_IT_number 5
_symmetry_cell_setting 'monoclinic'
loop_
_space_group_symop_operation_xyz
x,y,z
-x,y,-z
1/2+x,1/2+y,z
1/2-x,1/2+y,-z
loop_
_atom_site_type_symbol
_atom_site_label
_atom_site_fract_x
_atom_site_fract_y
_atom_site_fract_z
Si Si1 0.418388 0.694030 0.235467
Si Si2 0.232249 0.403328 0.581553
Si Si3 0.922251 0.463151 0.672554
Si Si4 0.952120 0.960439 0.515035
Si Si5 0.451144 0.061805 0.009066
Si Si6 0.138768 0.819115 0.853922
Si Si7 0.359959 0.030285 0.445708
Si Si8 0.230429 0.602654 0.926514
O O1 0.435293 0.468523 0.344225
O O2 0.374685 0.621360 0.146451
O O3 0.401791 0.899763 0.360734
O O4 0.454074 0.812187 0.119944
O O5 0.257906 0.147036 0.530081
O O6 0.181329 0.345127 0.560381
O O7 0.239335 0.498168 0.753572
O O8 0.925601 0.161377 0.624216
O O9 0.935397 0.484734 0.844529
O O10 0.875363 0.570520 0.616074
O O11 0.953160 0.674616 0.584561
O O12 0.000000 0.076447 0.500000
O O13 0.500000 0.183700 0.000000
O O14 0.408045 0.208570 0.080984
O O15 0.149839 0.756918 0.674225
O O16 0.180364 0.710266 0.936806
O O17 0.240450 0.353810 0.031898
#
# Coordination Sequence:
#
# PCOD9126869 Si02
#       8
#     4   4   4   4   4   4   4   4
#     4  10  22  42  68  92 130 193 226 279 340 423
#     4  11  25  42  71 104 139 174 223 291 353 410
#     4  11  24  41  63  97 128 173 219 289 328 388
#     4  11  23  40  67  92 127 170 234 269 327 403
#     4  11  26  41  64 102 146 180 230 292 355 402
#     4  10  23  43  71  92 137 188 233 276 354 422
#     4   9  22  43  67  93 132 178 234 273 338 414
#     4  11  26  46  74 104 142 184 237 285 351 433
#
# _framework density 23.142852000000001
#
# number of rings (size 3 to 8) (size 9 to 14) (size 15 to 20)
#    0.000    1.500    1.250    1.875   12.250    2.500 
#    0.000    0.000    0.000    0.000    0.000    0.000 
#    0.000    0.000    0.000    0.000    0.000    0.000 
#
# Total GULP energy -89148.235931 kJ/mol
# GULP energy per Si atom -5571.764746 kJ/mol
# Density = 2.309018 g / cm^3
# Si number density = 23.142852 Si / 1000 Ang^3
#
#
#
# Elastic Constant Matrix: (Units=GPa)
#
#
# Indices 1 2 3 4 5 6 
#
# 1 78.2741 8.7076 41.2660 0.0000 8.8091 0.0000
# 2 8.7076 82.7492 24.7072 0.0000 -3.4311 0.0000
# 3 41.2660 24.7072 113.1630 0.0000 17.7572 0.0000
# 4 0.0000 0.0000 0.0000 20.7567 0.0000 6.7113
# 5 8.8091 -3.4311 17.7572 0.0000 31.4215 0.0000
# 6 0.0000 0.0000 0.0000 6.7113 0.0000 12.7448
#
#
#
# Elastic Compliance Matrix: (Units=1/GPa)
#
#
# Indices 1 2 3 4 5 6 
#
# 1 0.015864 -0.000062 -0.005566 0.000000 -0.001309 0.000000
# 2 -0.000062 0.013247 -0.003401 0.000000 0.003386 0.000000
# 3 -0.005566 -0.003401 0.012534 0.000000 -0.005894 0.000000
# 4 0.000000 0.000000 0.000000 0.058063 0.000000 -0.030575
# 5 -0.001309 0.003386 -0.005894 0.000000 0.035893 0.000000
# 6 0.000000 0.000000 0.000000 -0.030575 0.000000 0.094564
#
#
# Mechanical properties :
#
#
# Convention : Reuss Voigt Hill
#
# Bulk Modulus (GPa) = 42.39546 47.06088 44.72817
# Shear Modulus (GPa) = 19.52472 26.28499 22.90486
#
# Velocity S-wave (km/s) = 2.90774 3.37378 3.14939
# Velocity P-wave (km/s) = 5.44353 5.96285 5.70910
#
# Compressibility (1/GPa) = 0.02358743
#
# Stress axis : x y z
#
# Youngs Moduli (GPa) = 63.03466 75.48832 79.78254
#
# Poissons Ratio (x) = 0.00466 0.44409
# Poissons Ratio (y) = 0.00389 0.27135
# Poissons Ratio (z) = 0.35087 0.25674
#
# Static dielectric constant tensor:
#      x y z
#    x 1.956790 0.000000 0.001000 
#    y 0.000000 1.995250 0.000000 
#    z 0.001000 0.000000 1.974350 
# 
# From -- ./inp_files/32283.got.cif
#   From: 2010.05.17/outbox.cif.g08.bks.cpg/sg5_17_cif.got.tgz:32283.got - 2010.06.03 18:56:24.
