data_PCOD9126775
_publ_section_title
;
Structure prediction by ZEFSAII (Michael W. Deem and Ramdas Pophale) SiO2 
 PCOD9126775
Probable space group: C 2
;
_chemical_formula_sum "Si O2"
_cell_formula_units_Z 32
_cell_length_a 22.706166
_cell_length_b 16.316117
_cell_length_c 7.754488
_cell_angle_alpha 90.000000
_cell_angle_beta 149.528625
_cell_angle_gamma 90.000000
_cell_volume 1456.847401
_symmetry_space_group_name_H-M "C 2"
_symmetry_group_IT_number 5
_symmetry_cell_setting 'monoclinic'
loop_
_space_group_symop_operation_xyz
x,y,z
-x,y,-z
1/2+x,1/2+y,z
1/2-x,1/2+y,-z
loop_
_atom_site_type_symbol
_atom_site_label
_atom_site_fract_x
_atom_site_fract_y
_atom_site_fract_z
Si Si1 0.373052 0.329720 0.643552
Si Si2 0.668856 0.892023 0.643593
Si Si3 0.792321 0.471724 0.898472
Si Si4 0.191378 0.139307 0.703644
Si Si5 0.372963 0.266979 0.260498
Si Si6 0.369466 0.029868 0.729691
Si Si7 0.500668 0.760025 0.692012
Si Si8 0.734923 0.693301 0.432468
O O1 0.278804 0.399228 0.372268
O O2 0.380127 0.280930 0.482126
O O3 0.332030 0.264223 0.682394
O O4 0.500000 0.364719 0.000000
O O5 0.562230 0.828493 0.351030
O O6 0.674728 0.954485 0.499699
O O7 0.652302 0.939717 0.784003
O O8 0.784282 0.836237 0.961727
O O9 0.703350 0.542568 0.734592
O O10 0.866790 0.509173 0.928212
O O11 0.082525 0.180502 0.521069
O O12 0.184604 0.168955 0.489704
O O13 0.309473 0.180562 0.069921
O O14 0.500000 0.271336 0.500000
O O15 0.290489 0.110045 0.500411
O O16 0.500000 0.047152 0.000000
O O17 0.500000 0.795855 0.500000
O O18 0.628872 0.732950 0.062345
#
# Coordination Sequence:
#
# PCOD9126775 Si02
#       8
#     4   4   4   4   4   4   4   4
#     4  11  24  41  69  93 136 178 227 289 344 416
#     4  10  25  44  69 100 141 179 231 289 348 409
#     4  10  25  46  65 105 136 177 233 288 349 416
#     4  10  23  44  67 100 135 181 227 284 353 412
#     4  10  22  42  65 100 130 180 228 275 352 413
#     4  11  27  43  71 102 137 184 230 286 357 411
#     4  11  24  42  71 102 136 182 238 282 351 424
#     4  11  24  45  66  98 137 179 235 279 354 421
#
# _framework density 21.965237999999999
#
# number of rings (size 3 to 8) (size 9 to 14) (size 15 to 20)
#    0.000    1.500    0.000    3.750   12.250    3.000 
#    2.250    0.000    0.000    0.000    0.000    0.000 
#    0.000    0.000    0.000    0.000    0.000    0.000 
#
# Total GULP energy -89489.381208 kJ/mol
# GULP energy per Si atom -5593.086326 kJ/mol
# Density = 2.191524 g / cm^3
# Si number density = 21.965238 Si / 1000 Ang^3
#
#
#
# Elastic Constant Matrix: (Units=GPa)
#
#
# Indices 1 2 3 4 5 6 
#
# 1 59.1424 16.8655 13.9332 0.0000 7.4126 0.0000
# 2 16.8655 102.0384 6.3771 0.0000 3.7034 0.0000
# 3 13.9332 6.3771 75.7475 0.0000 6.0710 0.0000
# 4 0.0000 0.0000 0.0000 16.5614 0.0000 -1.5224
# 5 7.4126 3.7034 6.0710 0.0000 37.2847 0.0000
# 6 0.0000 0.0000 0.0000 -1.5224 0.0000 34.7565
#
#
#
# Elastic Compliance Matrix: (Units=1/GPa)
#
#
# Indices 1 2 3 4 5 6 
#
# 1 0.018784 -0.002811 -0.002981 0.000000 -0.002970 0.000000
# 2 -0.002811 0.010300 -0.000317 0.000000 -0.000413 0.000000
# 3 -0.002981 -0.000317 0.013908 0.000000 -0.001641 0.000000
# 4 0.000000 0.000000 0.000000 0.060626 0.000000 0.002655
# 5 -0.002970 -0.000413 -0.001641 0.000000 0.027719 0.000000
# 6 0.000000 0.000000 0.000000 0.002655 0.000000 0.028888
#
#
# Mechanical properties :
#
#
# Convention : Reuss Voigt Hill
#
# Bulk Modulus (GPa) = 32.49343 34.58666 33.54004
# Shear Modulus (GPa) = 27.36729 31.03734 29.20232
#
# Velocity S-wave (km/s) = 3.53361 3.76310 3.65016
# Velocity P-wave (km/s) = 5.61015 5.88740 5.75044
#
# Compressibility (1/GPa) = 0.03077545
#
# Stress axis : x y z
#
# Youngs Moduli (GPa) = 53.23597 97.09119 71.90007
#
# Poissons Ratio (x) = 0.27290 0.21430
# Poissons Ratio (y) = 0.14963 0.02279
# Poissons Ratio (z) = 0.15867 0.03078
#
# Static dielectric constant tensor:
#      x y z
#    x 1.809670 0.000000 -0.004170 
#    y 0.000000 1.798620 0.000000 
#    z -0.004170 0.000000 1.800980 
# 
# From -- ./inp_files/31084.got.cif
#   From: 2010.05.17/outbox.cif.g08.bks.cpg/sg5_16_cif.got.tgz:31084.got - 2010.06.03 18:56:24.
