data_PCOD9126055
_publ_section_title
;
Structure prediction by ZEFSAII (Michael W. Deem and Ramdas Pophale) SiO2 
 PCOD9126055
Probable space group: C 2
;
_chemical_formula_sum "Si O2"
_cell_formula_units_Z 28
_cell_length_a 17.468642
_cell_length_b 13.218011
_cell_length_c 5.437644
_cell_angle_alpha 90.000000
_cell_angle_beta 70.728515
_cell_angle_gamma 90.000000
_cell_volume 1185.201156
_symmetry_space_group_name_H-M "C 2"
_symmetry_group_IT_number 5
_symmetry_cell_setting 'monoclinic'
loop_
_space_group_symop_operation_xyz
x,y,z
-x,y,-z
1/2+x,1/2+y,z
1/2-x,1/2+y,-z
loop_
_atom_site_type_symbol
_atom_site_label
_atom_site_fract_x
_atom_site_fract_y
_atom_site_fract_z
Si Si1 0.050486 0.657570 0.191881
Si Si2 0.588907 0.756370 0.022511
Si Si3 0.236836 0.550501 0.424794
Si Si4 0.312393 0.598786 0.845733
Si Si5 0.805229 0.795500 0.037008
Si Si6 0.595262 0.955148 0.337405
Si Si7 0.752650 0.783637 0.595591
O O1 0.104522 0.556116 0.163424
O O2 0.000000 0.668389 0.500000
O O3 0.104348 0.755596 0.084489
O O4 0.000000 0.640300 0.000000
O O5 0.603421 0.654072 0.166440
O O6 0.608504 0.851875 0.177566
O O7 0.500000 0.764020 0.000000
O O8 0.657104 0.761198 0.734152
O O9 0.294853 0.548835 0.601625
O O10 0.156182 0.480641 0.497346
O O11 0.207743 0.670248 0.450414
O O12 0.284695 0.538041 0.116508
O O13 0.253623 0.697073 0.900361
O O14 0.783871 0.839860 0.322385
O O15 0.781636 0.843246 0.804514
O O16 0.500000 0.952550 0.500000
#
# Coordination Sequence:
#
# PCOD9126055 Si02
#       7
#     4   4   4   4   4   4   4
#     4  11  21  30  49  83 120 157 192 243 313 367
#     4  10  22  38  54  90 133 170 204 253 329 394
#     4   9  18  36  54  75 107 163 221 249 277 353
#     4   9  19  35  56  71 106 171 214 254 275 351
#     4   9  16  32  51  69  99 152 208 251 274 332
#     4  11  23  33  55  92 136 168 190 251 331 392
#     4   9  18  34  55  70 102 169 211 249 274 347
#
# _framework density 23.624682
#
# number of rings (size 3 to 8) (size 9 to 14) (size 15 to 20)
#    0.000    2.571    2.857    1.286    6.000    5.714 
#    0.000    0.000    0.000    0.000    0.000    0.000 
#    0.000   41.143   28.000    0.000    3.429    0.000 
#
# Total GULP energy -78131.845339 kJ/mol
# GULP energy per Si atom -5580.846096 kJ/mol
# Density = 2.357091 g / cm^3
# Si number density = 23.624682 Si / 1000 Ang^3
#
#
#
# Elastic Constant Matrix: (Units=GPa)
#
#
# Indices 1 2 3 4 5 6 
#
# 1 115.3374 59.5124 66.7613 0.0000 21.7566 0.0000
# 2 59.5124 80.5967 46.4045 0.0000 2.9745 0.0000
# 3 66.7613 46.4045 185.1640 0.0000 40.6221 0.0000
# 4 0.0000 0.0000 0.0000 30.3703 0.0000 4.0903
# 5 21.7566 2.9745 40.6221 0.0000 44.4284 0.0000
# 6 0.0000 0.0000 0.0000 4.0903 0.0000 26.8528
#
#
#
# Elastic Compliance Matrix: (Units=1/GPa)
#
#
# Indices 1 2 3 4 5 6 
#
# 1 0.016428 -0.010762 -0.002025 0.000000 -0.005472 0.000000
# 2 -0.010762 0.021864 -0.003045 0.000000 0.006591 0.000000
# 3 -0.002025 -0.003045 0.008296 0.000000 -0.006389 0.000000
# 4 0.000000 0.000000 0.000000 0.033617 0.000000 -0.005121
# 5 -0.005472 0.006591 -0.006389 0.000000 0.030589 0.000000
# 6 0.000000 0.000000 0.000000 -0.005121 0.000000 0.038020
#
#
# Mechanical properties :
#
#
# Convention : Reuss Voigt Hill
#
# Bulk Modulus (GPa) = 67.01242 80.71716 73.86479
# Shear Modulus (GPa) = 26.96103 34.22496 30.59300
#
# Velocity S-wave (km/s) = 3.38186 3.81030 3.60246
# Velocity P-wave (km/s) = 6.60881 7.32110 6.97405
#
# Compressibility (1/GPa) = 0.01492261
#
# Stress axis : x y z
#
# Youngs Moduli (GPa) = 60.87132 45.73679 120.54432
#
# Poissons Ratio (x) = 0.49223 0.24416
# Poissons Ratio (y) = 0.65512 0.36705
# Poissons Ratio (z) = 0.12329 0.13927
#
# Static dielectric constant tensor:
#      x y z
#    x 1.960180 0.000000 0.060240 
#    y 0.000000 1.961100 0.000000 
#    z 0.060240 0.000000 2.018690 
# 
# From -- ./inp_files/8511.got.cif
#   From: 2010.05.17/outbox.cif.g08.bks.cpg/sg5_5_cif.got.tgz:8511.got - 2010.06.03 18:56:24.
