data_PCOD9126420
_publ_section_title
;
Structure prediction by ZEFSAII (Michael W. Deem and Ramdas Pophale) SiO2 
 PCOD9126420
Probable space group: C 2
;
_chemical_formula_sum "Si O2"
_cell_formula_units_Z 22
_cell_length_a 5.133731
_cell_length_b 14.533939
_cell_length_c 11.839801
_cell_angle_alpha 90.000000
_cell_angle_beta 99.216854
_cell_angle_gamma 90.000000
_cell_volume 872.001519
_symmetry_space_group_name_H-M "C 2"
_symmetry_group_IT_number 5
_symmetry_cell_setting 'monoclinic'
loop_
_space_group_symop_operation_xyz
x,y,z
-x,y,-z
1/2+x,1/2+y,z
1/2-x,1/2+y,-z
loop_
_atom_site_type_symbol
_atom_site_label
_atom_site_fract_x
_atom_site_fract_y
_atom_site_fract_z
Si Si1 0.000000 0.718681 0.500000
Si Si2 0.252448 0.465186 0.311745
Si Si3 0.269306 0.853744 0.346148
Si Si4 0.094077 0.044665 0.883115
Si Si5 0.888129 0.740840 0.874817
Si Si6 0.869691 0.622306 0.287347
O O1 0.813980 0.774531 0.573001
O O2 0.807553 0.661619 0.404645
O O3 0.541371 0.428192 0.357475
O O4 0.234827 0.468919 0.172276
O O5 0.052771 0.400823 0.366281
O O6 0.146188 0.568403 0.325779
O O7 0.254726 0.812831 0.216971
O O8 0.233731 0.145432 0.895330
O O9 0.839726 0.056947 0.785810
O O10 0.000000 0.019256 0.000000
O O11 0.108018 0.703387 0.802754
O O12 0.000000 0.777881 0.000000
#
# Coordination Sequence:
#
# PCOD9126420 Si02
#       6
#     2   4   4   4   4   4
#     4  10  26  48  78 102 142 196 246 306 354 440
#     4  11  25  48  68 106 148 186 243 298 368 431
#     4  11  26  47  69 107 147 191 238 303 373 428
#     4  11  22  43  77 105 149 193 246 295 357 438
#     4  10  22  40  66 102 142 190 240 298 349 424
#     4  10  22  47  72 105 137 193 249 291 354 429
#
# _framework density 25.229316000000001
#
# number of rings (size 3 to 8) (size 9 to 14) (size 15 to 20)
#    0.000    1.455    3.636    0.000    5.091    2.909 
#    9.818    0.000    0.000    0.000    0.000    0.000 
#    0.000    0.000    0.000    0.000    0.000    0.000 
#
# Total GULP energy -61430.640489 kJ/mol
# GULP energy per Si atom -5584.603681 kJ/mol
# Density = 2.517189 g / cm^3
# Si number density = 25.229316 Si / 1000 Ang^3
#
#
#
# Elastic Constant Matrix: (Units=GPa)
#
#
# Indices 1 2 3 4 5 6 
#
# 1 99.9811 10.0500 30.0725 0.0000 -9.0618 0.0000
# 2 10.0500 39.4828 33.2287 0.0000 -0.6850 0.0000
# 3 30.0725 33.2287 190.2956 0.0000 -14.6984 0.0000
# 4 0.0000 0.0000 0.0000 36.2228 0.0000 -10.5991
# 5 -9.0618 -0.6850 -14.6984 0.0000 29.6004 0.0000
# 6 0.0000 0.0000 0.0000 -10.5991 0.0000 21.4962
#
#
#
# Elastic Compliance Matrix: (Units=1/GPa)
#
#
# Indices 1 2 3 4 5 6 
#
# 1 0.010774 -0.001684 -0.001203 0.000000 0.002662 0.000000
# 2 -0.001684 0.030064 -0.005168 0.000000 -0.002386 0.000000
# 3 -0.001203 -0.005168 0.006561 0.000000 0.002770 0.000000
# 4 0.000000 0.000000 0.000000 0.032261 0.000000 0.015907
# 5 0.002662 -0.002386 0.002770 0.000000 0.035919 0.000000
# 6 0.000000 0.000000 0.000000 0.015907 0.000000 0.054363
#
#
# Mechanical properties :
#
#
# Convention : Reuss Voigt Hill
#
# Bulk Modulus (GPa) = 31.95880 52.94020 42.44950
# Shear Modulus (GPa) = 25.44758 34.55778 30.00268
#
# Velocity S-wave (km/s) = 3.17937 3.70502 3.45222
# Velocity P-wave (km/s) = 5.11593 6.27153 5.72297
#
# Compressibility (1/GPa) = 0.03129029
#
# Stress axis : x y z
#
# Youngs Moduli (GPa) = 92.81366 33.26239 152.40521
#
# Poissons Ratio (x) = 0.05601 0.18335
# Poissons Ratio (y) = 0.15629 0.78761
# Poissons Ratio (z) = 0.11166 0.17189
#
# Static dielectric constant tensor:
#      x y z
#    x 2.098460 0.000000 0.000870 
#    y 0.000000 2.045610 0.000000 
#    z 0.000870 0.000000 1.994220 
# 
# From -- ./inp_files/33271.got.cif
#   From: 2010.05.17/outbox.cif.g08.bks.cpg/sg5_17_cif.got.tgz:33271.got - 2010.06.03 18:56:24.
