data_PCOD9126356
_publ_section_title
;
Structure prediction by ZEFSAII (Michael W. Deem and Ramdas Pophale) SiO2 
 PCOD9126356
Probable space group: C 2
;
_chemical_formula_sum "Si O2"
_cell_formula_units_Z 30
_cell_length_a 9.475851
_cell_length_b 10.548709
_cell_length_c 24.155313
_cell_angle_alpha 90.000000
_cell_angle_beta 146.819428
_cell_angle_gamma 90.000000
_cell_volume 1321.415368
_symmetry_space_group_name_H-M "C 2"
_symmetry_group_IT_number 5
_symmetry_cell_setting 'monoclinic'
loop_
_space_group_symop_operation_xyz
x,y,z
-x,y,-z
1/2+x,1/2+y,z
1/2-x,1/2+y,-z
loop_
_atom_site_type_symbol
_atom_site_label
_atom_site_fract_x
_atom_site_fract_y
_atom_site_fract_z
Si Si1 0.179736 0.894720 0.506416
Si Si2 0.660904 0.861820 0.731424
Si Si3 0.974745 0.019633 0.211069
Si Si4 0.141104 0.194926 0.930211
Si Si5 0.161096 0.580530 0.812343
Si Si6 0.000000 0.905506 0.000000
Si Si7 0.905685 0.621053 0.840379
Si Si8 0.492000 0.129819 0.564090
O O1 0.438405 0.829969 0.615768
O O2 0.000000 0.925046 0.500000
O O3 0.053159 0.776356 0.431824
O O4 0.276609 0.024389 0.509795
O O5 0.571155 0.990623 0.732801
O O6 0.727272 0.744863 0.792117
O O7 0.923013 0.894391 0.785248
O O8 0.235875 0.080892 0.322140
O O9 0.857725 0.103145 0.122786
O O10 0.758234 0.009031 0.186497
O O11 0.276584 0.322429 0.954688
O O12 0.327531 0.142731 0.039980
O O13 0.842994 0.194409 0.851354
O O14 0.952103 0.608502 0.790352
O O15 0.365567 0.489757 0.909964
O O16 0.500000 0.133464 0.500000
#
# Coordination Sequence:
#
# PCOD9126356 Si02
#       8
#     4   4   4   4   4   2   4   4
#     4  10  22  41  67  94 124 167 202 262 322 378
#     4  10  23  41  60  90 125 156 202 254 306 364
#     4  10  22  40  62  89 122 161 202 254 307 367
#     4  11  21  38  59  85 119 161 203 242 294 356
#     4  11  24  38  57  89 119 156 212 246 290 356
#     4  12  20  36  58  78 116 160 198 246 294 340
#     4  12  20  38  62  86 121 164 201 248 294 361
#     4  10  22  42  67  94 127 159 212 259 320 379
#
# _framework density 22.702931
#
# number of rings (size 3 to 8) (size 9 to 14) (size 15 to 20)
#    0.000    1.333    4.000    1.600    0.000    3.733 
#    0.000    8.000    0.000    0.000    0.000    0.000 
#    0.000    0.000    0.000    0.000    0.000    0.000 
#
# Total GULP energy -83774.110070 kJ/mol
# GULP energy per Si atom -5584.940671 kJ/mol
# Density = 2.265126 g / cm^3
# Si number density = 22.702931 Si / 1000 Ang^3
#
#
#
# Elastic Constant Matrix: (Units=GPa)
#
#
# Indices 1 2 3 4 5 6 
#
# 1 120.5529 37.3823 -17.2506 0.0001 5.8515 0.0000
# 2 37.3823 86.6170 -2.9935 0.0001 11.1119 0.0000
# 3 -17.2506 -2.9935 28.0958 -0.0004 -7.8612 0.0002
# 4 0.0001 0.0001 -0.0004 22.7826 -0.0001 5.8740
# 5 5.8515 11.1119 -7.8612 -0.0001 20.9321 0.0000
# 6 0.0000 0.0000 0.0002 5.8740 0.0000 29.7223
#
#
#
# Elastic Compliance Matrix: (Units=1/GPa)
#
#
# Indices 1 2 3 4 5 6 
#
# 1 0.010556 -0.004578 0.006534 0.000000 0.001933 0.000000
# 2 -0.004578 0.014383 -0.003416 0.000000 -0.007638 0.000000
# 3 0.006534 -0.003416 0.043844 0.000001 0.016452 0.000000
# 4 0.000000 0.000000 0.000001 0.046250 0.000001 -0.009140
# 5 0.001933 -0.007638 0.016452 0.000001 0.057467 0.000000
# 6 0.000000 0.000000 0.000000 -0.009140 0.000000 0.035451
#
#
# Mechanical properties :
#
#
# Convention : Reuss Voigt Hill
#
# Bulk Modulus (GPa) = 15.18267 29.94912 22.56590
# Shear Modulus (GPa) = 21.47554 29.22924 25.35239
#
# Velocity S-wave (km/s) = 3.07895 3.59202 3.34533
# Velocity P-wave (km/s) = 4.39795 5.51578 4.98828
#
# Compressibility (1/GPa) = 0.06586455
#
# Stress axis : x y z
#
# Youngs Moduli (GPa) = 94.73382 69.52813 22.80811
#
# Poissons Ratio (x) = 0.31830 -0.14904
# Poissons Ratio (y) = 0.43369 0.07790
# Poissons Ratio (z) = -0.61903 0.23748
#
# Static dielectric constant tensor:
#      x y z
#    x 1.906760 0.000000 0.008320 
#    y 0.000000 1.858960 0.000000 
#    z 0.008320 0.000000 1.807770 
# 
# From -- ./inp_files/67966.got.cif
#   From: 2010.05.17/outbox.cif.g08.bks.cpg/sg5_34_cif.got.tgz:67966.got - 2010.06.03 18:56:24.
