data_PCOD9126971
_publ_section_title
;
Structure prediction by ZEFSAII (Michael W. Deem and Ramdas Pophale) SiO2 
 PCOD9126971
Probable space group: C 2
;
_chemical_formula_sum "Si O2"
_cell_formula_units_Z 28
_cell_length_a 19.886835
_cell_length_b 7.728435
_cell_length_c 9.344552
_cell_angle_alpha 90.000000
_cell_angle_beta 123.025951
_cell_angle_gamma 90.000000
_cell_volume 1204.146455
_symmetry_space_group_name_H-M "C 2"
_symmetry_group_IT_number 5
_symmetry_cell_setting 'monoclinic'
loop_
_space_group_symop_operation_xyz
x,y,z
-x,y,-z
1/2+x,1/2+y,z
1/2-x,1/2+y,-z
loop_
_atom_site_type_symbol
_atom_site_label
_atom_site_fract_x
_atom_site_fract_y
_atom_site_fract_z
Si Si1 0.500000 0.778530 0.000000
Si Si2 0.167292 0.434363 0.241169
Si Si3 0.324728 0.307638 0.843911
Si Si4 0.841203 0.426412 0.441557
Si Si5 0.566848 0.252081 0.770204
Si Si6 0.000000 0.449130 0.500000
Si Si7 0.161204 0.837001 0.611885
Si Si8 0.430502 0.488106 0.743124
O O1 0.581148 0.887205 0.075821
O O2 0.519963 0.658685 0.160177
O O3 0.174093 0.639797 0.254233
O O4 0.171807 0.369701 0.410100
O O5 0.244904 0.364395 0.248317
O O6 0.235222 0.378261 0.741603
O O7 0.383448 0.443806 0.835178
O O8 0.360126 0.244144 0.034600
O O9 0.923585 0.351768 0.473935
O O10 0.849120 0.635936 0.445615
O O11 0.534723 0.073395 0.666368
O O12 0.601305 0.358957 0.675421
O O13 0.494628 0.343991 0.769486
O O14 0.135602 0.969972 0.457838
#
# Coordination Sequence:
#
# PCOD9126971 Si02
#       8
#     2   4   4   4   4   2   4   4
#     4  12  30  40  74 100 148 172 260 296 340 408
#     4  12  26  45  66 108 138 192 232 302 345 428
#     4  12  25  41  77 100 141 185 243 283 360 424
#     4  11  22  45  73 101 139 189 232 291 357 431
#     4  11  22  43  71 106 137 182 229 295 356 420
#     4  10  22  42  74 106 142 184 226 304 362 426
#     4  11  24  43  74  99 146 180 235 283 366 426
#     4  12  21  45  71 102 128 194 229 292 343 422
#
# _framework density 23.252984000000001
#
# number of rings (size 3 to 8) (size 9 to 14) (size 15 to 20)
#    0.000    0.571    7.143    0.857    6.000    2.286 
#    0.000    0.000    0.000    0.000    0.000    0.000 
#    0.000    0.000    0.000    0.000    0.000    0.000 
#
# Total GULP energy -78320.047903 kJ/mol
# GULP energy per Si atom -5594.289136 kJ/mol
# Density = 2.320006 g / cm^3
# Si number density = 23.252984 Si / 1000 Ang^3
#
#
#
# Elastic Constant Matrix: (Units=GPa)
#
#
# Indices 1 2 3 4 5 6 
#
# 1 119.9764 9.7979 36.1548 0.0000 35.8300 0.0000
# 2 9.7979 42.6818 13.6815 0.0000 15.2518 0.0000
# 3 36.1548 13.6815 133.7879 0.0000 20.9210 0.0000
# 4 0.0000 0.0000 0.0000 33.3984 0.0000 13.3493
# 5 35.8300 15.2518 20.9210 0.0000 38.6717 0.0000
# 6 0.0000 0.0000 0.0000 13.3493 0.0000 29.7615
#
#
#
# Elastic Compliance Matrix: (Units=1/GPa)
#
#
# Indices 1 2 3 4 5 6 
#
# 1 0.011937 0.001664 -0.001708 0.000000 -0.010791 0.000000
# 2 0.001664 0.027685 -0.001455 0.000000 -0.011673 0.000000
# 3 -0.001708 -0.001455 0.008464 0.000000 -0.002422 0.000000
# 4 0.000000 0.000000 0.000000 0.036482 0.000000 -0.016364
# 5 -0.010791 -0.011673 -0.002422 0.000000 0.041771 0.000000
# 6 0.000000 0.000000 0.000000 -0.016364 0.000000 0.040940
#
#
# Mechanical properties :
#
#
# Convention : Reuss Voigt Hill
#
# Bulk Modulus (GPa) = 22.18026 46.19051 34.18538
# Shear Modulus (GPa) = 26.98214 36.15376 31.56795
#
# Velocity S-wave (km/s) = 3.41012 3.94737 3.68854
# Velocity P-wave (km/s) = 5.00646 6.37833 5.73357
#
# Compressibility (1/GPa) = 0.04508513
#
# Stress axis : x y z
#
# Youngs Moduli (GPa) = 83.77503 36.12074 118.15082
#
# Poissons Ratio (x) = -0.06009 0.20185
# Poissons Ratio (y) = -0.13937 0.17196
# Poissons Ratio (z) = 0.14312 0.05257
#
# Static dielectric constant tensor:
#      x y z
#    x 1.886930 0.000000 0.006290 
#    y 0.000000 1.884160 0.000000 
#    z 0.006290 0.000000 1.898940 
# 
# From -- ./inp_files/29173.got.cif
#   From: 2010.05.17/outbox.cif.g08.bks.cpg/sg5_15_cif.got.tgz:29173.got - 2010.06.03 18:56:24.
