data_PCOD9126282
_publ_section_title
;
Structure prediction by ZEFSAII (Michael W. Deem and Ramdas Pophale) SiO2 
 PCOD9126282
Probable space group: C 2
;
_chemical_formula_sum "Si O2"
_cell_formula_units_Z 22
_cell_length_a 5.345521
_cell_length_b 24.027333
_cell_length_c 7.280688
_cell_angle_alpha 90.000000
_cell_angle_beta 77.041398
_cell_angle_gamma 90.000000
_cell_volume 911.306118
_symmetry_space_group_name_H-M "C 2"
_symmetry_group_IT_number 5
_symmetry_cell_setting 'monoclinic'
loop_
_space_group_symop_operation_xyz
x,y,z
-x,y,-z
1/2+x,1/2+y,z
1/2-x,1/2+y,-z
loop_
_atom_site_type_symbol
_atom_site_label
_atom_site_fract_x
_atom_site_fract_y
_atom_site_fract_z
Si Si1 0.883655 0.142490 0.729624
Si Si2 0.290192 0.251761 0.384419
Si Si3 0.285758 0.966584 0.693075
Si Si4 0.000000 0.404975 0.000000
Si Si5 0.116216 0.593123 0.279517
Si Si6 0.959791 0.864776 0.787759
O O1 0.750106 0.203031 0.758400
O O2 0.646866 0.099385 0.794327
O O3 0.000000 0.137987 0.500000
O O4 0.143753 0.133180 0.801826
O O5 0.500000 0.231199 0.500000
O O6 0.402956 0.311067 0.309024
O O7 0.000000 0.261013 0.500000
O O8 0.500000 0.958989 0.500000
O O9 0.056224 0.923451 0.691491
O O10 0.253505 0.032443 0.720277
O O11 0.363303 0.946203 0.882376
O O12 0.846157 0.365706 0.166782
O O13 0.000000 0.605172 0.500000
O O14 0.000000 0.864504 0.000000
#
# Coordination Sequence:
#
# PCOD9126282 Si02
#       6
#     4   4   4   2   4   4
#     4   9  17  34  56  92 125 155 205 266 319 377
#     4  11  23  38  67  97 126 166 220 275 323 394
#     4  10  22  39  65  97 125 174 218 270 329 401
#     4  10  24  42  60  92 140 172 216 276 334 388
#     4   9  18  33  59  91 123 160 206 259 322 385
#     4  10  24  41  60  88 131 174 216 273 330 389
#
# _framework density 24.141175
#
# number of rings (size 3 to 8) (size 9 to 14) (size 15 to 20)
#    0.000    2.182    0.000    3.273   10.182    0.000 
#    0.000    0.000    2.000    0.000    0.000    0.000 
#    0.000    0.000    0.000    0.000    0.000    0.000 
#
# Total GULP energy -61295.874251 kJ/mol
# GULP energy per Si atom -5572.352205 kJ/mol
# Density = 2.408623 g / cm^3
# Si number density = 24.141175 Si / 1000 Ang^3
#
#
#
# Elastic Constant Matrix: (Units=GPa)
#
#
# Indices 1 2 3 4 5 6 
#
# 1 135.5178 62.3635 15.8399 0.0000 -19.6362 0.0000
# 2 62.3635 166.3574 20.0912 0.0000 -39.0939 0.0000
# 3 15.8399 20.0912 58.3141 0.0000 -10.5083 0.0000
# 4 0.0000 0.0000 0.0000 -50.6542 0.0000 63.9133
# 5 -19.6362 -39.0939 -10.5083 0.0000 33.5196 0.0000
# 6 0.0000 0.0000 0.0000 63.9133 0.0000 -41.2944
#
#
#
# Elastic Compliance Matrix: (Units=1/GPa)
#
#
# Indices 1 2 3 4 5 6 
#
# 1 0.009075 -0.002889 -0.001186 0.000000 0.001576 0.000000
# 2 -0.002889 0.009277 -0.000813 0.000000 0.008873 0.000000
# 3 -0.001186 -0.000813 0.018500 0.000000 0.004157 0.000000
# 4 0.000000 0.000000 0.000000 0.020718 0.000000 0.032066
# 5 0.001576 0.008873 0.004157 0.000000 0.042408 0.000000
# 6 0.000000 0.000000 0.000000 0.032066 0.000000 0.025414
#
#
# Mechanical properties :
#
#
# Convention : Reuss Voigt Hill
#
# Bulk Modulus (GPa) = 36.93070 61.86427 49.39748
# Shear Modulus (GPa) = 34.67571 5.77387 20.22479
#
# Velocity S-wave (km/s) = 3.79406 1.54819 2.89757
# Velocity P-wave (km/s) = 5.87573 5.37378 5.63035
#
# Compressibility (1/GPa) = 0.02707774
#
# Stress axis : x y z
#
# Youngs Moduli (GPa) = 110.18872 107.78897 54.05474
#
# Poissons Ratio (x) = 0.31136 0.06411
# Poissons Ratio (y) = 0.31829 0.04393
# Poissons Ratio (z) = 0.13068 0.08761
#
# Static dielectric constant tensor:
#      x y z
#    x 2.422330 0.000000 -0.100300 
#    y 0.000000 1.976230 0.000000 
#    z -0.100300 0.000000 1.984880 
# 
# From -- ./inp_files/12584.got.cif
#   From: 2010.05.17/outbox.cif.g08.bks.cpg/sg5_7_cif.got.tgz:12584.got - 2010.06.03 18:56:24.
