data_PCOD9126734
_publ_section_title
;
Structure prediction by ZEFSAII (Michael W. Deem and Ramdas Pophale) SiO2 
 PCOD9126734
Probable space group: C 2
;
_chemical_formula_sum "Si O2"
_cell_formula_units_Z 24
_cell_length_a 9.777408
_cell_length_b 9.565066
_cell_length_c 13.880754
_cell_angle_alpha 90.000000
_cell_angle_beta 100.770588
_cell_angle_gamma 90.000000
_cell_volume 1275.280569
_symmetry_space_group_name_H-M "C 2"
_symmetry_group_IT_number 5
_symmetry_cell_setting 'monoclinic'
loop_
_space_group_symop_operation_xyz
x,y,z
-x,y,-z
1/2+x,1/2+y,z
1/2-x,1/2+y,-z
loop_
_atom_site_type_symbol
_atom_site_label
_atom_site_fract_x
_atom_site_fract_y
_atom_site_fract_z
Si Si1 0.344803 0.010150 0.728897
Si Si2 0.147213 0.208894 0.971729
Si Si3 0.894308 0.310131 0.251842
Si Si4 0.437804 0.535246 0.388117
Si Si5 0.093116 0.839445 0.264512
Si Si6 0.167121 0.916760 0.893673
O O1 0.224695 0.991837 0.632745
O O2 0.395867 0.170845 0.735030
O O3 0.475770 0.912102 0.731667
O O4 0.265813 0.966111 0.817660
O O5 0.141172 0.261540 0.861106
O O6 0.267808 0.281933 0.047901
O O7 0.000000 0.244866 0.000000
O O8 0.165680 0.043070 0.968726
O O9 0.933886 0.172917 0.319458
O O10 0.753701 0.382197 0.272292
O O11 0.500000 0.567053 0.500000
O O12 0.527213 0.412671 0.349537
O O13 0.986921 0.887859 0.167067
#
# Coordination Sequence:
#
# PCOD9126734 Si02
#       6
#     4   4   4   4   4   4
#     4  10  22  42  62  92 128 164 210 267 316 371
#     4  12  25  38  63  95 130 176 216 253 316 372
#     4  11  23  43  64  95 132 167 212 264 317 375
#     4  10  23  45  68  93 128 166 212 268 324 382
#     4  10  22  42  64  90 129 167 211 266 316 375
#     4  11  25  40  59  92 130 173 217 257 305 376
#
# _framework density 18.819388
#
# number of rings (size 3 to 8) (size 9 to 14) (size 15 to 20)
#    0.000    1.333    6.667    0.000    4.667    5.333 
#    0.000    0.833    0.000    0.000    0.000    0.000 
#    0.000    0.000    0.000    0.000    0.000    0.000 
#
# Total GULP energy -66994.909024 kJ/mol
# GULP energy per Si atom -5582.909085 kJ/mol
# Density = 1.877655 g / cm^3
# Si number density = 18.819388 Si / 1000 Ang^3
#
#
#
# Elastic Constant Matrix: (Units=GPa)
#
#
# Indices 1 2 3 4 5 6 
#
# 1 139.5092 64.5319 31.4969 0.0000 5.0247 0.0000
# 2 64.5319 81.2672 32.5515 0.0000 4.4943 0.0000
# 3 31.4969 32.5515 90.1817 0.0000 19.5275 0.0000
# 4 0.0000 0.0000 0.0000 15.6176 0.0000 -0.3612
# 5 5.0247 4.4943 19.5275 0.0000 19.4183 0.0000
# 6 0.0000 0.0000 0.0000 -0.3612 0.0000 41.5726
#
#
#
# Elastic Compliance Matrix: (Units=1/GPa)
#
#
# Indices 1 2 3 4 5 6 
#
# 1 0.011383 -0.008709 -0.000806 0.000000 -0.000119 0.000000
# 2 -0.008709 0.021138 -0.005135 0.000000 0.002525 0.000000
# 3 -0.000806 -0.005135 0.016518 0.000000 -0.015214 0.000000
# 4 0.000000 0.000000 0.000000 0.064043 0.000000 0.000556
# 5 -0.000119 0.002525 -0.015214 0.000000 0.066243 0.000000
# 6 0.000000 0.000000 0.000000 0.000556 0.000000 0.024059
#
#
# Mechanical properties :
#
#
# Convention : Reuss Voigt Hill
#
# Bulk Modulus (GPa) = 50.66262 63.12430 56.89346
# Shear Modulus (GPa) = 20.89735 27.48024 24.18880
#
# Velocity S-wave (km/s) = 3.33591 3.82541 3.58902
# Velocity P-wave (km/s) = 6.46657 7.28881 6.88997
#
# Compressibility (1/GPa) = 0.01973842
#
# Stress axis : x y z
#
# Youngs Moduli (GPa) = 87.85113 47.30816 60.53990
#
# Poissons Ratio (x) = 0.41202 0.04880
# Poissons Ratio (y) = 0.76512 0.31086
# Poissons Ratio (z) = 0.07082 0.24292
#
# Static dielectric constant tensor:
#      x y z
#    x 1.646710 0.000000 -0.020150 
#    y 0.000000 1.648640 0.000000 
#    z -0.020150 0.000000 1.649600 
# 
# From -- ./inp_files/38339.got.cif
#   From: 2010.05.17/outbox.cif.g08.bks.cpg/sg5_20_cif.got.tgz:38339.got - 2010.06.03 18:56:24.
