data_PCOD9126576
_publ_section_title
;
Structure prediction by ZEFSAII (Michael W. Deem and Ramdas Pophale) SiO2 
 PCOD9126576
Probable space group: C 2
;
_chemical_formula_sum "Si O2"
_cell_formula_units_Z 28
_cell_length_a 10.888956
_cell_length_b 13.715270
_cell_length_c 8.221418
_cell_angle_alpha 90.000000
_cell_angle_beta 79.902386
_cell_angle_gamma 90.000000
_cell_volume 1208.808982
_symmetry_space_group_name_H-M "C 2"
_symmetry_group_IT_number 5
_symmetry_cell_setting 'monoclinic'
loop_
_space_group_symop_operation_xyz
x,y,z
-x,y,-z
1/2+x,1/2+y,z
1/2-x,1/2+y,-z
loop_
_atom_site_type_symbol
_atom_site_label
_atom_site_fract_x
_atom_site_fract_y
_atom_site_fract_z
Si Si1 0.877918 0.576060 0.120783
Si Si2 0.330751 0.962904 0.419030
Si Si3 0.562122 0.421400 0.337602
Si Si4 0.898879 0.257126 0.260245
Si Si5 0.181641 0.244509 0.100600
Si Si6 0.795270 0.931230 0.008133
Si Si7 0.169867 0.048562 0.702159
O O1 0.905194 0.542976 0.298595
O O2 0.768290 0.654317 0.127515
O O3 0.827899 0.476410 0.047897
O O4 0.000000 0.610995 0.000000
O O5 0.192201 0.962711 0.372149
O O6 0.378802 0.854540 0.370174
O O7 0.295853 0.997929 0.606496
O O8 0.500000 0.358220 0.500000
O O9 0.457030 0.501862 0.335437
O O10 0.604946 0.390626 0.146598
O O11 0.831204 0.161406 0.343926
O O12 0.046030 0.237827 0.211319
O O13 0.844324 0.260640 0.087637
O O14 0.256116 0.342119 0.130952
O O15 0.841929 0.021977 0.104712
#
# Coordination Sequence:
#
# PCOD9126576 Si02
#       7
#     4   4   4   4   4   4   4
#     4  11  22  41  63  90 131 171 213 264 329 384
#     4  10  22  41  63  93 134 173 209 263 335 379
#     4   9  19  36  60  91 128 172 206 262 321 372
#     4  11  21  41  68  93 125 166 222 263 318 392
#     4  11  23  38  68  99 119 169 223 265 319 385
#     4  11  21  38  61  93 127 166 227 260 321 378
#     4  11  23  38  65  96 131 168 219 271 310 384
#
# _framework density 23.163295999999999
#
# number of rings (size 3 to 8) (size 9 to 14) (size 15 to 20)
#    0.000    1.429    4.286    3.000    2.000    2.286 
#    0.000    5.714    0.000    0.000    0.000    0.000 
#    0.000    0.000    0.000    0.000    0.000    0.000 
#
# Total GULP energy -78058.843213 kJ/mol
# GULP energy per Si atom -5575.631658 kJ/mol
# Density = 2.311057 g / cm^3
# Si number density = 23.163296 Si / 1000 Ang^3
#
#
#
# Elastic Constant Matrix: (Units=GPa)
#
#
# Indices 1 2 3 4 5 6 
#
# 1 66.9008 22.3912 27.7304 0.0000 -19.8887 0.0000
# 2 22.3912 139.6765 36.5565 0.0000 -24.5677 0.0000
# 3 27.7304 36.5565 104.6778 0.0000 -34.7253 0.0000
# 4 0.0000 0.0000 0.0000 19.3007 0.0000 -2.4888
# 5 -19.8887 -24.5677 -34.7253 0.0000 27.2451 0.0000
# 6 0.0000 0.0000 0.0000 -2.4888 0.0000 16.1928
#
#
#
# Elastic Compliance Matrix: (Units=1/GPa)
#
#
# Indices 1 2 3 4 5 6 
#
# 1 0.019181 -0.000696 -0.000696 0.000000 0.012488 0.000000
# 2 -0.000696 0.008567 -0.000716 0.000000 0.006304 0.000000
# 3 -0.000696 -0.000716 0.016641 0.000000 0.020056 0.000000
# 4 0.000000 0.000000 0.000000 0.052859 0.000000 0.008124
# 5 0.012488 0.006304 0.020056 0.000000 0.077067 0.000000
# 6 0.000000 0.000000 0.000000 0.008124 0.000000 0.063004
#
#
# Mechanical properties :
#
#
# Convention : Reuss Voigt Hill
#
# Bulk Modulus (GPa) = 24.89209 53.84568 39.36889
# Shear Modulus (GPa) = 19.61342 27.51953 23.56647
#
# Velocity S-wave (km/s) = 2.91305 3.45057 3.19314
# Velocity P-wave (km/s) = 4.69938 6.25874 5.53426
#
# Compressibility (1/GPa) = 0.04017341
#
# Stress axis : x y z
#
# Youngs Moduli (GPa) = 52.13399 116.72245 60.09339
#
# Poissons Ratio (x) = 0.08128 0.04180
# Poissons Ratio (y) = 0.03631 0.04303
# Poissons Ratio (z) = 0.03626 0.08359
#
# Static dielectric constant tensor:
#      x y z
#    x 1.849910 0.000000 0.045670 
#    y 0.000000 1.870510 0.000000 
#    z 0.045670 0.000000 2.097530 
# 
# From -- ./inp_files/20326.got.cif
#   From: 2010.05.17/outbox.cif.g08.bks.cpg/sg5_11_cif.got.tgz:20326.got - 2010.06.03 18:56:24.
