data_PCOD9126417
_publ_section_title
;
Structure prediction by ZEFSAII (Michael W. Deem and Ramdas Pophale) SiO2 
 PCOD9126417
Probable space group: C 2
;
_chemical_formula_sum "Si O2"
_cell_formula_units_Z 24
_cell_length_a 22.434141
_cell_length_b 5.175256
_cell_length_c 8.996403
_cell_angle_alpha 90.000000
_cell_angle_beta 71.296002
_cell_angle_gamma 90.000000
_cell_volume 989.341729
_symmetry_space_group_name_H-M "C 2"
_symmetry_group_IT_number 5
_symmetry_cell_setting 'monoclinic'
loop_
_space_group_symop_operation_xyz
x,y,z
-x,y,-z
1/2+x,1/2+y,z
1/2-x,1/2+y,-z
loop_
_atom_site_type_symbol
_atom_site_label
_atom_site_fract_x
_atom_site_fract_y
_atom_site_fract_z
Si Si1 0.765867 0.840300 0.630203
Si Si2 0.354181 0.672017 0.732318
Si Si3 0.642240 0.980855 0.556904
Si Si4 0.483875 0.828310 0.186629
Si Si5 0.225206 0.122703 0.959763
Si Si6 0.030436 0.817204 0.314583
O O1 0.830840 0.766511 0.495132
O O2 0.740275 0.640912 0.774590
O O3 0.788162 0.078455 0.712896
O O4 0.707704 0.866928 0.567298
O O5 0.401400 0.436093 0.712035
O O6 0.377924 0.869391 0.588151
O O7 0.337155 0.748890 0.915123
O O8 0.586514 0.927840 0.715929
O O9 0.494721 0.549602 0.254975
O O10 0.526728 0.050602 0.228020
O O11 0.500000 0.811478 0.000000
O O12 0.275183 0.324912 0.991026
O O13 0.000000 0.777049 0.500000
#
# Coordination Sequence:
#
# PCOD9126417 Si02
#       6
#     4   4   4   4   4   4
#     4  11  24  43  68 107 144 193 232 305 381 431
#     4  11  24  44  70 105 141 189 247 307 364 448
#     4  12  24  46  73 102 154 188 248 299 375 452
#     4  12  30  52  75 111 152 203 255 311 378 446
#     4  10  22  40  65  98 142 176 233 287 358 431
#     4  12  26  50  79 107 143 201 258 314 370 442
#
# _framework density 24.258555000000001
#
# number of rings (size 3 to 8) (size 9 to 14) (size 15 to 20)
#    0.000    0.667    5.000    2.000    4.667    0.000 
#    9.000    0.000    0.000    0.000    0.000    0.000 
#    0.000    0.000    0.000    0.000    0.000    0.000 
#
# Total GULP energy -66968.291819 kJ/mol
# GULP energy per Si atom -5580.690985 kJ/mol
# Density = 2.420334 g / cm^3
# Si number density = 24.258555 Si / 1000 Ang^3
#
#
#
# Elastic Constant Matrix: (Units=GPa)
#
#
# Indices 1 2 3 4 5 6 
#
# 1 88.6568 0.8609 28.0361 0.0000 -8.4345 0.0000
# 2 0.8609 80.4711 20.6228 0.0000 9.6992 0.0000
# 3 28.0361 20.6228 156.6514 0.0000 -13.9195 0.0000
# 4 0.0000 0.0000 0.0000 36.0764 0.0000 -2.6037
# 5 -8.4345 9.6992 -13.9195 0.0000 37.5850 0.0000
# 6 0.0000 0.0000 0.0000 -2.6037 0.0000 41.1574
#
#
#
# Elastic Compliance Matrix: (Units=1/GPa)
#
#
# Indices 1 2 3 4 5 6 
#
# 1 0.012098 0.000154 -0.002014 0.000000 0.001929 0.000000
# 2 0.000154 0.013498 -0.002183 0.000000 -0.004257 0.000000
# 3 -0.002014 -0.002183 0.007281 0.000000 0.002808 0.000000
# 4 0.000000 0.000000 0.000000 0.027846 0.000000 0.001762
# 5 0.001929 -0.004257 0.002808 0.000000 0.029178 0.000000
# 6 0.000000 0.000000 0.000000 0.001762 0.000000 0.024408
#
#
# Mechanical properties :
#
#
# Convention : Reuss Voigt Hill
#
# Bulk Modulus (GPa) = 40.33630 47.20210 43.76920
# Shear Modulus (GPa) = 38.26769 41.38107 39.82438
#
# Velocity S-wave (km/s) = 3.97607 4.13466 4.05614
# Velocity P-wave (km/s) = 6.14350 6.50338 6.32600
#
# Compressibility (1/GPa) = 0.02479156
#
# Stress axis : x y z
#
# Youngs Moduli (GPa) = 82.65532 74.08693 137.34525
#
# Poissons Ratio (x) = -0.01143 0.27663
# Poissons Ratio (y) = -0.01275 0.29980
# Poissons Ratio (z) = 0.16648 0.16172
#
# Static dielectric constant tensor:
#      x y z
#    x 1.994200 0.000000 -0.048860 
#    y 0.000000 2.052570 0.000000 
#    z -0.048860 0.000000 2.009130 
# 
# From -- ./inp_files/30236.got.cif
#   From: 2010.05.17/outbox.cif.g08.bks.cpg/sg5_16_cif.got.tgz:30236.got - 2010.06.03 18:56:24.
