data_PCOD9126098
_publ_section_title
;
Structure prediction by ZEFSAII (Michael W. Deem and Ramdas Pophale) SiO2 
 PCOD9126098
Probable space group: C 2
;
_chemical_formula_sum "Si O2"
_cell_formula_units_Z 24
_cell_length_a 10.501015
_cell_length_b 8.675986
_cell_length_c 11.977135
_cell_angle_alpha 90.000000
_cell_angle_beta 114.846715
_cell_angle_gamma 90.000000
_cell_volume 990.190330
_symmetry_space_group_name_H-M "C 2"
_symmetry_group_IT_number 5
_symmetry_cell_setting 'monoclinic'
loop_
_space_group_symop_operation_xyz
x,y,z
-x,y,-z
1/2+x,1/2+y,z
1/2-x,1/2+y,-z
loop_
_atom_site_type_symbol
_atom_site_label
_atom_site_fract_x
_atom_site_fract_y
_atom_site_fract_z
Si Si1 0.142382 0.182800 0.759941
Si Si2 0.598219 0.691497 0.182835
Si Si3 0.877523 0.748168 0.676497
Si Si4 0.500000 0.413128 0.000000
Si Si5 0.256152 0.544077 0.561984
Si Si6 0.000000 0.313411 0.500000
Si Si7 0.165051 0.834295 0.859256
O O1 0.288586 0.241950 0.759950
O O2 0.033354 0.205752 0.616831
O O3 0.047877 0.259595 0.823668
O O4 0.159520 0.007952 0.807899
O O5 0.566175 0.525787 0.117241
O O6 0.703996 0.663932 0.325976
O O7 0.682146 0.779000 0.118809
O O8 0.794432 0.628236 0.567977
O O9 0.042087 0.726928 0.760269
O O10 0.874128 0.911733 0.610124
O O11 0.378869 0.330161 0.026711
O O12 0.127708 0.431243 0.542561
#
# Coordination Sequence:
#
# PCOD9126098 Si02
#       7
#     4   4   4   2   4   2   4
#     4  10  23  40  64 102 140 177 217 280 340 402
#     4  11  23  46  69  98 136 180 235 278 344 405
#     4  11  24  42  70 105 146 180 224 277 348 414
#     4  10  24  48  64 100 134 182 234 294 334 394
#     4  11  22  39  66 106 140 185 216 281 339 416
#     4  10  22  38  62 106 152 172 224 278 338 422
#     4  11  25  45  73  96 135 183 230 292 338 409
#
# _framework density 24.237762
#
# number of rings (size 3 to 8) (size 9 to 14) (size 15 to 20)
#    0.000    1.333    3.333    3.000    4.667    2.667 
#    0.000    0.000    0.000    0.000    0.000    0.000 
#    0.000    0.000    0.000    0.000    0.000    0.000 
#
# Total GULP energy -66930.915979 kJ/mol
# GULP energy per Si atom -5577.576332 kJ/mol
# Density = 2.418260 g / cm^3
# Si number density = 24.237762 Si / 1000 Ang^3
#
#
#
# Elastic Constant Matrix: (Units=GPa)
#
#
# Indices 1 2 3 4 5 6 
#
# 1 155.4267 35.8921 19.5590 0.0000 -35.8549 0.0000
# 2 35.8921 59.3748 17.9744 0.0000 -23.0175 0.0000
# 3 19.5590 17.9744 103.7559 0.0000 -24.3965 0.0000
# 4 0.0000 0.0000 0.0000 31.6803 0.0000 -11.2907
# 5 -35.8549 -23.0175 -24.3965 0.0000 35.8144 0.0000
# 6 0.0000 0.0000 0.0000 -11.2907 0.0000 27.9395
#
#
#
# Elastic Compliance Matrix: (Units=1/GPa)
#
#
# Indices 1 2 3 4 5 6 
#
# 1 0.008660 -0.002524 0.000550 0.000000 0.007422 0.000000
# 2 -0.002524 0.023197 -0.000752 0.000000 0.011869 0.000000
# 3 0.000550 -0.000752 0.011527 0.000000 0.007919 0.000000
# 4 0.000000 0.000000 0.000000 0.036876 0.000000 0.014902
# 5 0.007422 0.011869 0.007919 0.000000 0.048375 0.000000
# 6 0.000000 0.000000 0.000000 0.014902 0.000000 0.041814
#
#
# Mechanical properties :
#
#
# Convention : Reuss Voigt Hill
#
# Bulk Modulus (GPa) = 26.36345 51.71204 39.03774
# Shear Modulus (GPa) = 26.51897 35.42895 30.97396
#
# Velocity S-wave (km/s) = 3.31133 3.82740 3.57868
# Velocity P-wave (km/s) = 5.05179 6.39638 5.76343
#
# Compressibility (1/GPa) = 0.03793130
#
# Stress axis : x y z
#
# Youngs Moduli (GPa) = 115.47732 43.10924 86.75534
#
# Poissons Ratio (x) = 0.10881 -0.04771
# Poissons Ratio (y) = 0.29147 0.06523
# Poissons Ratio (z) = -0.06351 0.03241
#
# Static dielectric constant tensor:
#      x y z
#    x 2.041890 0.000000 0.018230 
#    y 0.000000 1.932590 0.000000 
#    z 0.018230 0.000000 2.025460 
# 
# From -- ./inp_files/38296.got.cif
#   From: 2010.05.17/outbox.cif.g08.bks.cpg/sg5_20_cif.got.tgz:38296.got - 2010.06.03 18:56:24.
