data_PCOD9126214
_publ_section_title
;
Structure prediction by ZEFSAII (Michael W. Deem and Ramdas Pophale) SiO2 
 PCOD9126214
Probable space group: C 2
;
_chemical_formula_sum "Si O2"
_cell_formula_units_Z 30
_cell_length_a 15.342979
_cell_length_b 13.002051
_cell_length_c 15.975095
_cell_angle_alpha 90.000000
_cell_angle_beta 151.670344
_cell_angle_gamma 90.000000
_cell_volume 1512.311931
_symmetry_space_group_name_H-M "C 2"
_symmetry_group_IT_number 5
_symmetry_cell_setting 'monoclinic'
loop_
_space_group_symop_operation_xyz
x,y,z
-x,y,-z
1/2+x,1/2+y,z
1/2-x,1/2+y,-z
loop_
_atom_site_type_symbol
_atom_site_label
_atom_site_fract_x
_atom_site_fract_y
_atom_site_fract_z
Si Si1 0.046198 0.267910 0.732594
Si Si2 0.208444 0.640788 0.386778
Si Si3 0.853055 0.773667 0.120373
Si Si4 0.380358 0.186875 0.319423
Si Si5 0.060364 0.920935 0.181676
Si Si6 0.000000 0.085658 0.000000
Si Si7 0.687395 0.212796 0.194000
Si Si8 0.095117 0.492108 0.422061
O O1 0.172739 0.228397 0.763262
O O2 0.851307 0.210522 0.560180
O O3 0.015360 0.388719 0.690432
O O4 0.157342 0.250252 0.912419
O O5 0.263657 0.648524 0.336671
O O6 0.188260 0.533064 0.415617
O O7 0.005777 0.691254 0.219360
O O8 0.860822 0.767106 0.226674
O O9 0.927210 0.877681 0.140759
O O10 0.500000 0.220653 0.500000
O O11 0.477525 0.084423 0.362978
O O12 0.176089 0.152708 0.170932
O O13 0.127237 0.824432 0.181225
O O14 0.244341 0.964623 0.377792
O O15 0.962691 0.008228 0.045155
O O16 0.500000 0.165246 0.000000
#
# Coordination Sequence:
#
# PCOD9126214 Si02
#       8
#     4   4   4   4   4   2   4   4
#     4  12  21  38  68  89 124 169 208 255 321 363
#     4  10  23  38  56  96 130 160 203 260 310 372
#     4  10  22  39  57  93 121 166 202 257 302 374
#     4  11  24  38  60  93 130 159 203 261 315 363
#     4  11  19  37  60  89 125 152 204 255 307 367
#     4  12  22  36  64  96 120 156 208 256 318 368
#     4  11  19  36  63  92 124 155 205 260 310 360
#     4  11  23  38  62  93 130 162 202 260 317 365
#
# _framework density 19.837177000000001
#
# number of rings (size 3 to 8) (size 9 to 14) (size 15 to 20)
#    0.000    1.067    7.333    2.000    1.867    0.000 
#    0.000    0.000    0.000    3.200    0.000    0.000 
#    0.000    0.000    0.000    0.000    0.000    0.000 
#
# Total GULP energy -83761.605562 kJ/mol
# GULP energy per Si atom -5584.107037 kJ/mol
# Density = 1.979203 g / cm^3
# Si number density = 19.837177 Si / 1000 Ang^3
#
#
#
# Elastic Constant Matrix: (Units=GPa)
#
#
# Indices 1 2 3 4 5 6 
#
# 1 65.0463 21.5160 22.7576 -0.0002 -29.1337 0.0000
# 2 21.5160 14.5363 17.3067 -0.0009 -6.6018 -0.0002
# 3 22.7576 17.3067 147.4908 -0.0006 -26.3586 0.0000
# 4 -0.0002 -0.0009 -0.0006 9.7182 -0.0006 -7.2328
# 5 -29.1337 -6.6018 -26.3586 -0.0006 29.8249 0.0002
# 6 0.0000 -0.0002 0.0000 -7.2328 0.0002 12.9827
#
#
#
# Elastic Compliance Matrix: (Units=1/GPa)
#
#
# Indices 1 2 3 4 5 6 
#
# 1 0.059093 -0.075462 0.008393 -0.000007 0.048438 -0.000006
# 2 -0.075462 0.179592 -0.018406 0.000024 -0.050226 0.000018
# 3 0.008393 -0.018406 0.009954 -0.000001 0.012922 -0.000001
# 4 -0.000007 0.000024 -0.000001 0.175785 0.000001 0.097931
# 5 0.048438 -0.050226 0.012922 0.000001 0.081147 -0.000002
# 6 -0.000006 0.000018 -0.000001 0.097931 -0.000002 0.131584
#
#
# Mechanical properties :
#
#
# Convention : Reuss Voigt Hill
#
# Bulk Modulus (GPa) = 12.87162 38.91487 25.89325
# Shear Modulus (GPa) = 5.99520 21.53802 13.76661
#
# Velocity S-wave (km/s) = 1.74033 3.29863 2.63721
# Velocity P-wave (km/s) = 3.24670 5.84531 4.72804
#
# Compressibility (1/GPa) = 0.07769028
#
# Stress axis : x y z
#
# Youngs Moduli (GPa) = 16.92241 5.56819 100.46111
#
# Poissons Ratio (x) = 0.42018 -0.84320
# Poissons Ratio (y) = 1.27699 1.84909
# Poissons Ratio (z) = -0.14203 0.10249
#
# Static dielectric constant tensor:
#      x y z
#    x 1.739320 0.000000 -0.011930 
#    y 0.000000 1.684130 0.000000 
#    z -0.011930 0.000000 1.722130 
# 
# From -- ./inp_files/54776.got.cif
#   From: 2010.05.17/outbox.cif.g08.bks.cpg/sg5_28_cif.got.tgz:54776.got - 2010.06.03 18:56:24.
