data_PCOD9126094
_publ_section_title
;
Structure prediction by ZEFSAII (Michael W. Deem and Ramdas Pophale) SiO2 
 PCOD9126094
Probable space group: C 2
;
_chemical_formula_sum "Si O2"
_cell_formula_units_Z 22
_cell_length_a 10.583638
_cell_length_b 16.862857
_cell_length_c 6.612501
_cell_angle_alpha 90.000000
_cell_angle_beta 82.027262
_cell_angle_gamma 90.000000
_cell_volume 1168.728546
_symmetry_space_group_name_H-M "C 2"
_symmetry_group_IT_number 5
_symmetry_cell_setting 'monoclinic'
loop_
_space_group_symop_operation_xyz
x,y,z
-x,y,-z
1/2+x,1/2+y,z
1/2-x,1/2+y,-z
loop_
_atom_site_type_symbol
_atom_site_label
_atom_site_fract_x
_atom_site_fract_y
_atom_site_fract_z
Si Si1 0.371410 0.137000 0.156071
Si Si2 0.352057 0.050683 0.530857
Si Si3 0.779176 0.183994 0.192942
Si Si4 0.367326 0.284114 0.464733
Si Si5 0.500000 0.784011 0.000000
Si Si6 0.624087 0.871719 0.336148
O O1 0.327061 0.061114 0.297289
O O2 0.391866 0.210632 0.305384
O O3 0.500000 0.121069 0.000000
O O4 0.264180 0.163377 0.022649
O O5 0.500000 0.080057 0.500000
O O6 0.251362 0.106163 0.668081
O O7 0.357800 0.965764 0.635419
O O8 0.687594 0.248361 0.315910
O O9 0.915973 0.225054 0.156448
O O10 0.500000 0.324318 0.500000
O O11 0.254425 0.333817 0.388931
O O12 0.588765 0.839235 0.121721
O O13 0.500000 0.850690 0.500000
#
# Coordination Sequence:
#
# PCOD9126094 Si02
#       6
#     4   4   4   4   2   4
#     4  11  18  35  64  91 115 157 212 262 311 377
#     4  10  22  38  61  92 129 165 215 272 322 371
#     4  11  21  38  62  93 122 168 216 264 310 390
#     4  11  21  37  64  94 125 161 217 269 316 375
#     4  12  24  40  70  92 130 182 218 260 332 392
#     4  11  24  41  60  96 134 171 210 274 332 383
#
# _framework density 18.823874
#
# number of rings (size 3 to 8) (size 9 to 14) (size 15 to 20)
#    0.000    1.091    7.273    1.091    0.000    2.909 
#    0.000    1.818    2.000    0.000    0.000    0.000 
#    0.000    0.000    0.000    0.000    0.000    0.000 
#
# Total GULP energy -61285.612987 kJ/mol
# GULP energy per Si atom -5571.419362 kJ/mol
# Density = 1.878103 g / cm^3
# Si number density = 18.823874 Si / 1000 Ang^3
#
#
#
# Elastic Constant Matrix: (Units=GPa)
#
#
# Indices 1 2 3 4 5 6 
#
# 1 103.0392 53.8646 33.8227 0.0000 1.6890 0.0000
# 2 53.8646 100.9907 40.5034 0.0000 -3.5201 0.0000
# 3 33.8227 40.5034 84.7318 0.0000 3.7980 0.0000
# 4 0.0000 0.0000 0.0000 20.9622 0.0000 -6.0283
# 5 1.6890 -3.5201 3.7980 0.0000 38.3639 0.0000
# 6 0.0000 0.0000 0.0000 -6.0283 0.0000 21.2296
#
#
#
# Elastic Compliance Matrix: (Units=1/GPa)
#
#
# Indices 1 2 3 4 5 6 
#
# 1 0.013899 -0.006482 -0.002406 0.000000 -0.000968 0.000000
# 2 -0.006482 0.015386 -0.004865 0.000000 0.002179 0.000000
# 3 -0.002406 -0.004865 0.015171 0.000000 -0.001842 0.000000
# 4 0.000000 0.000000 0.000000 0.051947 0.000000 0.014751
# 5 -0.000968 0.002179 -0.001842 0.000000 0.026491 0.000000
# 6 0.000000 0.000000 0.000000 0.014751 0.000000 0.051293
#
#
# Mechanical properties :
#
#
# Convention : Reuss Voigt Hill
#
# Bulk Modulus (GPa) = 58.99930 60.57146 59.78538
# Shear Modulus (GPa) = 24.11455 26.81588 25.46521
#
# Velocity S-wave (km/s) = 3.58308 3.77844 3.68205
# Velocity P-wave (km/s) = 6.96626 7.16124 7.06442
#
# Compressibility (1/GPa) = 0.01694935
#
# Stress axis : x y z
#
# Youngs Moduli (GPa) = 71.94584 64.99259 65.91655
#
# Poissons Ratio (x) = 0.42129 0.15861
# Poissons Ratio (y) = 0.46636 0.32070
# Poissons Ratio (z) = 0.17312 0.31620
#
# Static dielectric constant tensor:
#      x y z
#    x 1.697580 0.000000 0.010980 
#    y 0.000000 1.671980 0.000000 
#    z 0.010980 0.000000 1.702500 
# 
# From -- ./inp_files/4773.got.cif
#   From: 2010.05.17/outbox.cif.g08.bks.cpg/sg5_3_cif.got.tgz:4773.got - 2010.06.03 18:56:24.
