data_PCOD9126944
_publ_section_title
;
Structure prediction by ZEFSAII (Michael W. Deem and Ramdas Pophale) SiO2 
 PCOD9126944
Probable space group: C 2
;
_chemical_formula_sum "Si O2"
_cell_formula_units_Z 14
_cell_length_a 11.617979
_cell_length_b 7.037488
_cell_length_c 9.349484
_cell_angle_alpha 90.000000
_cell_angle_beta 132.327294
_cell_angle_gamma 90.000000
_cell_volume 565.148680
_symmetry_space_group_name_H-M "C 2"
_symmetry_group_IT_number 5
_symmetry_cell_setting 'monoclinic'
loop_
_space_group_symop_operation_xyz
x,y,z
-x,y,-z
1/2+x,1/2+y,z
1/2-x,1/2+y,-z
loop_
_atom_site_type_symbol
_atom_site_label
_atom_site_fract_x
_atom_site_fract_y
_atom_site_fract_z
Si Si1 0.094734 0.326630 0.400215
Si Si2 0.064857 0.883247 0.367496
Si Si3 0.000000 0.956172 0.000000
Si Si4 0.664208 0.065285 0.749476
O O1 0.255518 0.329419 0.445662
O O2 0.142272 0.447539 0.582001
O O3 0.937142 0.436407 0.224178
O O4 0.053988 0.107261 0.386564
O O5 0.923000 0.765549 0.314861
O O6 0.045546 0.843953 0.180766
O O7 0.151835 0.073310 0.078616
#
# Coordination Sequence:
#
# PCOD9126944 Si02
#       4
#     4   4   2   4
#     4  10  22  42  72 101 131 182 236 278 338 400
#     4  11  22  46  73 100 142 176 233 291 332 416
#     4  10  26  44  66 108 138 186 224 272 368 400
#     4  10  23  44  68 104 138 179 231 280 342 408
#
# _framework density 24.77224
#
# number of rings (size 3 to 8) (size 9 to 14) (size 15 to 20)
#    0.000    1.714    2.857    0.000    4.000    4.571 
#    0.000    2.857    0.000    0.000    0.000    0.000 
#    0.000    0.000    0.000    0.000    0.000    0.000 
#
# Total GULP energy -39019.751661 kJ/mol
# GULP energy per Si atom -5574.250237 kJ/mol
# Density = 2.471586 g / cm^3
# Si number density = 24.772240 Si / 1000 Ang^3
#
#
#
# Elastic Constant Matrix: (Units=GPa)
#
#
# Indices 1 2 3 4 5 6 
#
# 1 201.5091 59.9803 59.7848 0.0000 66.3763 0.0000
# 2 59.9803 200.7639 7.0769 0.0000 44.1232 0.0000
# 3 59.7848 7.0769 58.6078 0.0000 36.9548 0.0000
# 4 0.0000 0.0000 0.0000 11.1752 0.0000 -2.7626
# 5 66.3763 44.1232 36.9548 0.0000 80.6462 0.0000
# 6 0.0000 0.0000 0.0000 -2.7626 0.0000 39.3782
#
#
#
# Elastic Compliance Matrix: (Units=1/GPa)
#
#
# Indices 1 2 3 4 5 6 
#
# 1 0.008341 -0.001592 -0.006380 0.000000 -0.003070 0.000000
# 2 -0.001592 0.006102 0.003046 0.000000 -0.003424 0.000000
# 3 -0.006380 0.003046 0.029453 0.000000 -0.009912 0.000000
# 4 0.000000 0.000000 0.000000 0.091063 0.000000 0.006389
# 5 -0.003070 -0.003424 -0.009912 0.000000 0.021342 0.000000
# 6 0.000000 0.000000 0.000000 0.006389 0.000000 0.025843
#
#
# Mechanical properties :
#
#
# Convention : Reuss Voigt Hill
#
# Bulk Modulus (GPa) = 29.37447 79.39608 54.38528
# Shear Modulus (GPa) = 24.58904 48.50918 36.54911
#
# Velocity S-wave (km/s) = 3.15398 4.42996 3.84527
# Velocity P-wave (km/s) = 5.01468 7.63453 6.45884
#
# Compressibility (1/GPa) = 0.03404317
#
# Stress axis : x y z
#
# Youngs Moduli (GPa) = 119.89483 163.88704 33.95273
#
# Poissons Ratio (x) = 0.26094 0.21662
# Poissons Ratio (y) = 0.19090 -0.10343
# Poissons Ratio (z) = 0.76493 -0.49925
#
# Static dielectric constant tensor:
#      x y z
#    x 2.163350 0.000000 -0.045340 
#    y 0.000000 1.932100 0.000000 
#    z -0.045340 0.000000 2.120710 
# 
# From -- ./inp_files/22367.got.cif
#   From: 2010.05.17/outbox.cif.g08.bks.cpg/sg5_12_cif.got.tgz:22367.got - 2010.06.03 18:56:24.
