data_PCOD9126271
_publ_section_title
;
Structure prediction by ZEFSAII (Michael W. Deem and Ramdas Pophale) SiO2 
 PCOD9126271
Probable space group: C 2
;
_chemical_formula_sum "Si O2"
_cell_formula_units_Z 18
_cell_length_a 19.603478
_cell_length_b 4.913409
_cell_length_c 10.898715
_cell_angle_alpha 90.000000
_cell_angle_beta 139.958935
_cell_angle_gamma 90.000000
_cell_volume 675.350963
_symmetry_space_group_name_H-M "C 2"
_symmetry_group_IT_number 5
_symmetry_cell_setting 'monoclinic'
loop_
_space_group_symop_operation_xyz
x,y,z
-x,y,-z
1/2+x,1/2+y,z
1/2-x,1/2+y,-z
loop_
_atom_site_type_symbol
_atom_site_label
_atom_site_fract_x
_atom_site_fract_y
_atom_site_fract_z
Si Si1 0.500000 0.651120 0.000000
Si Si2 0.500987 0.594669 0.739587
Si Si3 0.308866 0.803603 0.136583
Si Si4 0.232277 0.912439 0.561214
Si Si5 0.656990 0.263784 0.110571
O O1 0.505917 0.776268 0.144115
O O2 0.598600 0.441361 0.132955
O O3 0.384674 0.490227 0.550666
O O4 0.570452 0.743871 0.732059
O O5 0.575176 0.342103 0.887858
O O6 0.269422 0.885482 0.217280
O O7 0.257460 0.024838 0.975413
O O8 0.266451 0.123666 0.501741
O O9 0.314182 0.979997 0.784986
#
# Coordination Sequence:
#
# PCOD9126271 Si02
#       5
#     2   4   4   4   4
#     4   8  16  40  66  92 130 172 230 264 342 396
#     4   9  20  40  64  95 131 177 222 276 339 403
#     4  10  22  39  64  93 134 180 222 274 346 412
#     4  12  24  41  66 101 136 176 234 290 338 409
#     4   9  20  40  64  95 131 177 222 276 339 403
#
# _framework density 26.652812999999998
#
# number of rings (size 3 to 8) (size 9 to 14) (size 15 to 20)
#    1.333    0.889    2.222    0.000    0.000   11.556 
#    0.000    2.222    0.000   13.333    0.000    0.000 
#    0.000    0.000    0.000    0.000    0.000    0.000 
#
# Total GULP energy -50191.519352 kJ/mol
# GULP energy per Si atom -5576.835484 kJ/mol
# Density = 2.659215 g / cm^3
# Si number density = 26.652813 Si / 1000 Ang^3
#
#
#
# Elastic Constant Matrix: (Units=GPa)
#
#
# Indices 1 2 3 4 5 6 
#
# 1 192.3646 18.7416 14.1578 0.0000 34.2967 0.0000
# 2 18.7416 62.3197 23.5412 0.0000 3.8911 0.0000
# 3 14.1578 23.5412 108.1287 0.0000 22.1275 0.0000
# 4 0.0000 0.0000 0.0000 37.3043 0.0000 7.3840
# 5 34.2967 3.8911 22.1275 0.0000 42.1289 0.0000
# 6 0.0000 0.0000 0.0000 7.3840 0.0000 26.0026
#
#
#
# Elastic Compliance Matrix: (Units=1/GPa)
#
#
# Indices 1 2 3 4 5 6 
#
# 1 0.006267 -0.001801 0.000652 0.000000 -0.005278 0.000000
# 2 -0.001801 0.018009 -0.004084 0.000000 0.001948 0.000000
# 3 0.000652 -0.004084 0.011298 0.000000 -0.006087 0.000000
# 4 0.000000 0.000000 0.000000 0.028403 0.000000 -0.008066
# 5 -0.005278 0.001948 -0.006087 0.000000 0.031051 0.000000
# 6 0.000000 0.000000 0.000000 -0.008066 0.000000 0.040748
#
#
# Mechanical properties :
#
#
# Convention : Reuss Voigt Hill
#
# Bulk Modulus (GPa) = 39.82939 52.85492 46.34216
# Shear Modulus (GPa) = 32.33924 41.51198 36.92561
#
# Velocity S-wave (km/s) = 3.48710 3.95081 3.72617
# Velocity P-wave (km/s) = 5.58474 6.37854 5.99480
#
# Compressibility (1/GPa) = 0.02510709
#
# Stress axis : x y z
#
# Youngs Moduli (GPa) = 159.56673 55.52799 88.51393
#
# Poissons Ratio (x) = 0.10002 -0.05768
# Poissons Ratio (y) = 0.28743 0.36145
# Poissons Ratio (z) = -0.10398 0.22675
#
# Static dielectric constant tensor:
#      x y z
#    x 2.310740 0.000000 -0.067520 
#    y 0.000000 2.089200 0.000000 
#    z -0.067520 0.000000 2.173010 
# 
# From -- ./inp_files/45338.got.cif
#   From: 2010.05.17/outbox.cif.g08.bks.cpg/sg5_23_cif.got.tgz:45338.got - 2010.06.03 18:56:24.
