data_PCOD9126726
_publ_section_title
;
Structure prediction by ZEFSAII (Michael W. Deem and Ramdas Pophale) SiO2 
 PCOD9126726
Probable space group: C 2
;
_chemical_formula_sum "Si O2"
_cell_formula_units_Z 24
_cell_length_a 28.037088
_cell_length_b 10.064505
_cell_length_c 8.595478
_cell_angle_alpha 90.000000
_cell_angle_beta 30.245248
_cell_angle_gamma 90.000000
_cell_volume 1221.713346
_symmetry_space_group_name_H-M "C 2"
_symmetry_group_IT_number 5
_symmetry_cell_setting 'monoclinic'
loop_
_space_group_symop_operation_xyz
x,y,z
-x,y,-z
1/2+x,1/2+y,z
1/2-x,1/2+y,-z
loop_
_atom_site_type_symbol
_atom_site_label
_atom_site_fract_x
_atom_site_fract_y
_atom_site_fract_z
Si Si1 0.683902 0.217050 0.141056
Si Si2 0.325445 0.887869 0.579239
Si Si3 0.836998 0.593465 0.268815
Si Si4 0.890763 0.814528 0.321003
Si Si5 0.966888 0.508531 0.435558
Si Si6 0.677535 0.600962 0.457207
O O1 0.661550 0.257389 0.379229
O O2 0.590545 0.140322 0.349057
O O3 0.722901 0.342659 0.934895
O O4 0.770480 0.115796 0.857804
O O5 0.364865 0.747975 0.398883
O O6 0.316913 0.000083 0.473754
O O7 0.394393 0.933892 0.524560
O O8 0.840298 0.746006 0.316910
O O9 0.760768 0.580116 0.348233
O O10 0.939786 0.549175 0.919795
O O11 0.886232 0.972685 0.347421
O O12 0.000000 0.771491 0.000000
O O13 0.000000 0.435752 0.500000
#
# Coordination Sequence:
#
# PCOD9126726 Si02
#       6
#     4   4   4   4   4   4
#     4  10  22  42  60  94 121 170 198 269 298 380
#     4  10  23  41  62  94 130 162 206 261 314 364
#     4  12  22  40  66  97 121 167 214 257 301 383
#     4  12  23  40  66  92 123 168 208 255 314 370
#     4  12  21  40  69  95 121 167 220 255 301 375
#     4  10  25  40  64  92 132 162 204 258 323 364
#
# _framework density 19.644542999999999
#
# number of rings (size 3 to 8) (size 9 to 14) (size 15 to 20)
#    1.000    0.000    5.000    2.500    0.000    1.333 
#    0.000    0.000    0.000    1.000    0.000    0.000 
#    0.000    0.000    0.000    0.000    0.000    0.000 
#
# Total GULP energy -66839.203463 kJ/mol
# GULP energy per Si atom -5569.933622 kJ/mol
# Density = 1.959983 g / cm^3
# Si number density = 19.644543 Si / 1000 Ang^3
#
#
#
# Elastic Constant Matrix: (Units=GPa)
#
#
# Indices 1 2 3 4 5 6 
#
# 1 80.3955 37.1097 27.4980 0.0000 -3.5494 0.0000
# 2 37.1097 98.0351 21.8730 0.0000 5.7059 0.0000
# 3 27.4980 21.8730 88.3481 0.0000 12.4649 0.0000
# 4 0.0000 0.0000 0.0000 25.3366 0.0000 -0.3198
# 5 -3.5494 5.7059 12.4649 0.0000 24.1361 0.0000
# 6 0.0000 0.0000 0.0000 -0.3198 0.0000 18.8002
#
#
#
# Elastic Compliance Matrix: (Units=1/GPa)
#
#
# Indices 1 2 3 4 5 6 
#
# 1 0.016994 -0.005738 -0.004759 0.000000 0.006314 0.000000
# 2 -0.005738 0.012770 -0.000896 0.000000 -0.003400 0.000000
# 3 -0.004759 -0.000896 0.014120 0.000000 -0.007780 0.000000
# 4 0.000000 0.000000 0.000000 0.039477 0.000000 0.000672
# 5 0.006314 -0.003400 -0.007780 0.000000 0.047182 0.000000
# 6 0.000000 0.000000 0.000000 0.000672 0.000000 0.053202
#
#
# Mechanical properties :
#
#
# Convention : Reuss Voigt Hill
#
# Bulk Modulus (GPa) = 47.40073 48.85999 48.13036
# Shear Modulus (GPa) = 23.41206 25.67444 24.54325
#
# Velocity S-wave (km/s) = 3.45597 3.61910 3.53847
# Velocity P-wave (km/s) = 6.33297 6.51075 6.42248
#
# Compressibility (1/GPa) = 0.02109672
#
# Stress axis : x y z
#
# Youngs Moduli (GPa) = 58.84462 78.30612 70.82309
#
# Poissons Ratio (x) = 0.44935 0.33707
# Poissons Ratio (y) = 0.33767 0.06345
# Poissons Ratio (z) = 0.28006 0.07015
#
# Static dielectric constant tensor:
#      x y z
#    x 1.687450 0.000000 0.043410 
#    y 0.000000 1.735350 0.000000 
#    z 0.043410 0.000000 1.682070 
# 
# From -- ./inp_files/31868.got.cif
#   From: 2010.05.17/outbox.cif.g08.bks.cpg/sg5_16_cif.got.tgz:31868.got - 2010.06.03 18:56:24.
