data_PCOD9126604
_publ_section_title
;
Structure prediction by ZEFSAII (Michael W. Deem and Ramdas Pophale) SiO2 
 PCOD9126604
Probable space group: C 2
;
_chemical_formula_sum "Si O2"
_cell_formula_units_Z 32
_cell_length_a 22.196706
_cell_length_b 9.335596
_cell_length_c 14.198939
_cell_angle_alpha 90.000000
_cell_angle_beta 147.151398
_cell_angle_gamma 90.000000
_cell_volume 1595.963660
_symmetry_space_group_name_H-M "C 2"
_symmetry_group_IT_number 5
_symmetry_cell_setting 'monoclinic'
loop_
_space_group_symop_operation_xyz
x,y,z
-x,y,-z
1/2+x,1/2+y,z
1/2-x,1/2+y,-z
loop_
_atom_site_type_symbol
_atom_site_label
_atom_site_fract_x
_atom_site_fract_y
_atom_site_fract_z
Si Si1 0.341838 0.660780 0.034180
Si Si2 0.962054 0.464501 0.200247
Si Si3 0.526545 0.504103 0.646712
Si Si4 0.721761 0.921757 0.531623
Si Si5 0.194956 0.087380 0.535987
Si Si6 0.581035 0.181440 0.694193
Si Si7 0.395589 0.129462 0.930668
Si Si8 0.389053 0.469685 0.913976
O O1 0.413066 0.805662 0.131436
O O2 0.366509 0.581326 0.166302
O O3 0.212312 0.694265 0.847217
O O4 0.379983 0.562004 0.996523
O O5 0.932758 0.546254 0.256723
O O6 0.094474 0.468237 0.362167
O O7 0.910432 0.553213 0.047974
O O8 0.500000 0.526003 0.500000
O O9 0.423632 0.564759 0.571785
O O10 0.541402 0.334499 0.682992
O O11 0.717343 0.749268 0.529922
O O12 0.784655 0.983309 0.705981
O O13 0.785590 0.979130 0.524093
O O14 0.287627 0.068660 0.737501
O O15 0.500000 0.157393 0.500000
O O16 0.391389 0.300385 0.939827
O O17 0.500000 0.100743 0.000000
O O18 0.500000 0.504880 0.000000
#
# Coordination Sequence:
#
# PCOD9126604 Si02
#       8
#     4   4   4   4   4   4   4   4
#     4  12  25  46  66 101 132 177 230 282 338 398
#     4  12  25  42  68 100 135 169 226 281 339 396
#     4  11  26  47  69  98 136 184 228 274 338 407
#     4  11  24  43  68 105 134 176 219 284 340 400
#     4  11  24  43  70 100 139 174 227 274 340 404
#     4  11  27  46  68  94 132 182 226 277 335 400
#     4  10  22  41  65 100 132 174 213 271 338 407
#     4  10  23  43  69  95 137 178 222 274 347 407
#
# _framework density 20.050581999999999
#
# number of rings (size 3 to 8) (size 9 to 14) (size 15 to 20)
#    0.000    1.000    2.500    3.000    7.000    2.000 
#    2.250    0.000    0.000    0.000    0.000    0.000 
#    0.000    0.000    0.000    0.000    0.000    0.000 
#
# Total GULP energy -89451.480704 kJ/mol
# GULP energy per Si atom -5590.717544 kJ/mol
# Density = 2.000495 g / cm^3
# Si number density = 20.050582 Si / 1000 Ang^3
#
#
#
# Elastic Constant Matrix: (Units=GPa)
#
#
# Indices 1 2 3 4 5 6 
#
# 1 69.5806 41.1637 33.7712 0.0000 -7.5255 0.0000
# 2 41.1637 61.7221 35.1940 0.0000 -22.3060 0.0000
# 3 33.7712 35.1940 109.9490 0.0000 -10.2073 0.0000
# 4 0.0000 0.0000 0.0000 57.9437 0.0000 -4.3788
# 5 -7.5255 -22.3060 -10.2073 0.0000 27.9765 0.0000
# 6 0.0000 0.0000 0.0000 -4.3788 0.0000 26.9554
#
#
#
# Elastic Compliance Matrix: (Units=1/GPa)
#
#
# Indices 1 2 3 4 5 6 
#
# 1 0.026019 -0.019147 -0.002723 0.000000 -0.009260 0.000000
# 2 -0.019147 0.041083 -0.004872 0.000000 0.025828 0.000000
# 3 -0.002723 -0.004872 0.011450 0.000000 -0.000439 0.000000
# 4 0.000000 0.000000 0.000000 0.017473 0.000000 0.002838
# 5 -0.009260 0.025828 -0.000439 0.000000 0.053686 0.000000
# 6 0.000000 0.000000 0.000000 0.002838 0.000000 0.037559
#
#
# Mechanical properties :
#
#
# Convention : Reuss Voigt Hill
#
# Bulk Modulus (GPa) = 39.88866 51.27883 45.58375
# Shear Modulus (GPa) = 20.07158 31.31662 25.69410
#
# Velocity S-wave (km/s) = 3.16737 3.95635 3.58364
# Velocity P-wave (km/s) = 5.77178 6.81913 6.31720
#
# Compressibility (1/GPa) = 0.02506978
#
# Stress axis : x y z
#
# Youngs Moduli (GPa) = 38.43371 24.34109 87.33587
#
# Poissons Ratio (x) = 0.46605 0.23780
# Poissons Ratio (y) = 0.73587 0.42547
# Poissons Ratio (z) = 0.10465 0.11858
#
# Static dielectric constant tensor:
#      x y z
#    x 1.683190 0.000000 0.008890 
#    y 0.000000 1.689940 0.000000 
#    z 0.008890 0.000000 1.726220 
# 
# From -- ./inp_files/57712.got.cif
#   From: 2010.05.17/outbox.cif.g08.bks.cpg/sg5_29_cif.got.tgz:57712.got - 2010.06.03 18:56:24.
