data_PCOD9126507
_publ_section_title
;
Structure prediction by ZEFSAII (Michael W. Deem and Ramdas Pophale) SiO2 
 PCOD9126507
Probable space group: C 2
;
_chemical_formula_sum "Si O2"
_cell_formula_units_Z 32
_cell_length_a 8.219967
_cell_length_b 25.370872
_cell_length_c 13.148423
_cell_angle_alpha 90.000000
_cell_angle_beta 30.587316
_cell_angle_gamma 90.000000
_cell_volume 1395.306584
_symmetry_space_group_name_H-M "C 2"
_symmetry_group_IT_number 5
_symmetry_cell_setting 'monoclinic'
loop_
_space_group_symop_operation_xyz
x,y,z
-x,y,-z
1/2+x,1/2+y,z
1/2-x,1/2+y,-z
loop_
_atom_site_type_symbol
_atom_site_label
_atom_site_fract_x
_atom_site_fract_y
_atom_site_fract_z
Si Si1 0.876268 0.393980 0.270321
Si Si2 0.662515 0.563280 0.639874
Si Si3 0.811997 0.251667 0.388116
Si Si4 0.702512 0.154571 0.587972
Si Si5 0.724506 0.595983 0.967278
Si Si6 0.854314 0.293836 0.973239
Si Si7 0.851177 0.342332 0.679911
Si Si8 0.763603 0.506030 0.268890
O O1 0.500000 0.394276 0.500000
O O2 0.941832 0.450690 0.185555
O O3 0.940644 0.346458 0.159309
O O4 0.096167 0.380230 0.250701
O O5 0.737316 0.599748 0.502753
O O6 0.430053 0.516465 0.730568
O O7 0.000000 0.543844 0.500000
O O8 0.489807 0.599967 0.816903
O O9 0.500000 0.272699 0.500000
O O10 0.702825 0.198578 0.501381
O O11 0.080166 0.253238 0.155165
O O12 0.930259 0.292164 0.408873
O O13 0.392630 0.146732 0.825877
O O14 0.000000 0.166082 0.500000
O O15 0.002929 0.555276 0.844053
O O16 0.500000 0.573027 0.000000
O O17 0.494903 0.316873 0.157300
O O18 0.000000 0.272235 0.000000
O O19 0.000000 0.368381 0.500000
O O20 0.500000 0.507273 0.500000
#
# Coordination Sequence:
#
# PCOD9126507 Si02
#       8
#     4   4   4   4   4   4   4   4
#     4  10  22  40  70 104 140 182 232 285 354 423
#     4  12  23  45  71  99 140 191 236 295 352 412
#     4  11  24  44  68 101 136 184 229 292 358 425
#     4  12  25  47  68  99 142 181 240 296 349 423
#     4  12  24  43  70  97 138 188 228 293 355 409
#     4  11  23  44  71 101 146 184 230 299 353 425
#     4  11  22  45  71 102 143 184 231 292 358 423
#     4  11  22  44  68 102 141 185 235 291 351 423
#
# _framework density 22.934027
#
# number of rings (size 3 to 8) (size 9 to 14) (size 15 to 20)
#    0.000    0.750    3.750    5.625    0.000    2.000 
#    9.000    7.500    0.000    0.000    0.000    0.000 
#    0.000    0.000    0.000    0.000    0.000    0.000 
#
# Total GULP energy -89428.901564 kJ/mol
# GULP energy per Si atom -5589.306348 kJ/mol
# Density = 2.288183 g / cm^3
# Si number density = 22.934027 Si / 1000 Ang^3
#
#
#
# Elastic Constant Matrix: (Units=GPa)
#
#
# Indices 1 2 3 4 5 6 
#
# 1 125.2908 32.8204 46.8315 0.0000 -7.4723 0.0000
# 2 32.8204 86.8575 15.2743 0.0000 -1.3568 0.0000
# 3 46.8315 15.2743 110.5952 0.0000 -2.9945 0.0000
# 4 0.0000 0.0000 0.0000 9.8798 0.0000 -1.3012
# 5 -7.4723 -1.3568 -2.9945 0.0000 53.7959 0.0000
# 6 0.0000 0.0000 0.0000 -1.3012 0.0000 19.4042
#
#
#
# Elastic Compliance Matrix: (Units=1/GPa)
#
#
# Indices 1 2 3 4 5 6 
#
# 1 0.010350 -0.003206 -0.003909 0.000000 0.001139 0.000000
# 2 -0.003206 0.012795 -0.000414 0.000000 -0.000146 0.000000
# 3 -0.003909 -0.000414 0.010756 0.000000 0.000045 0.000000
# 4 0.000000 0.000000 0.000000 0.102118 0.000000 0.006848
# 5 0.001139 -0.000146 0.000045 0.000000 0.018746 0.000000
# 6 0.000000 0.000000 0.000000 0.006848 0.000000 0.051994
#
#
# Mechanical properties :
#
#
# Convention : Reuss Voigt Hill
#
# Bulk Modulus (GPa) = 53.06792 56.95509 55.01150
# Shear Modulus (GPa) = 21.92041 31.80381 26.86211
#
# Velocity S-wave (km/s) = 3.09496 3.72795 3.42611
# Velocity P-wave (km/s) = 5.99678 6.58926 6.29999
#
# Compressibility (1/GPa) = 0.01884378
#
# Stress axis : x y z
#
# Youngs Moduli (GPa) = 96.61502 78.15606 92.97395
#
# Poissons Ratio (x) = 0.25055 0.36346
# Poissons Ratio (y) = 0.30973 0.03845
# Poissons Ratio (z) = 0.37769 0.03232
#
# Static dielectric constant tensor:
#      x y z
#    x 1.847520 0.000000 0.014400 
#    y 0.000000 1.853220 0.000000 
#    z 0.014400 0.000000 1.923340 
# 
# From -- ./inp_files/51733.got.cif
#   From: 2010.05.17/outbox.cif.g08.bks.cpg/sg5_26_cif.got.tgz:51733.got - 2010.06.03 18:56:24.
