data_PCOD9126134
_publ_section_title
;
Structure prediction by ZEFSAII (Michael W. Deem and Ramdas Pophale) SiO2 
 PCOD9126134
Probable space group: C 2
;
_chemical_formula_sum "Si O2"
_cell_formula_units_Z 32
_cell_length_a 8.987116
_cell_length_b 23.052468
_cell_length_c 15.340435
_cell_angle_alpha 90.000000
_cell_angle_beta 32.325870
_cell_angle_gamma 90.000000
_cell_volume 1699.468831
_symmetry_space_group_name_H-M "C 2"
_symmetry_group_IT_number 5
_symmetry_cell_setting 'monoclinic'
loop_
_space_group_symop_operation_xyz
x,y,z
-x,y,-z
1/2+x,1/2+y,z
1/2-x,1/2+y,-z
loop_
_atom_site_type_symbol
_atom_site_label
_atom_site_fract_x
_atom_site_fract_y
_atom_site_fract_z
Si Si1 0.663184 0.509450 0.827611
Si Si2 0.336146 0.595478 0.327833
Si Si3 0.460244 0.381936 0.916200
Si Si4 0.333977 0.519273 0.492834
Si Si5 0.427075 0.820329 0.131389
Si Si6 0.587936 0.387736 0.557903
Si Si7 0.838175 0.229254 0.327035
Si Si8 0.932557 0.304085 0.632307
O O1 0.579504 0.556368 0.796206
O O2 0.582216 0.445096 0.832918
O O3 0.998262 0.516088 0.674068
O O4 0.500000 0.516924 0.000000
O O5 0.418348 0.565930 0.378341
O O6 0.418297 0.662255 0.276430
O O7 0.000000 0.594506 0.500000
O O8 0.622017 0.327747 0.794585
O O9 0.500000 0.376967 0.000000
O O10 0.140109 0.371694 0.051603
O O11 0.500000 0.529318 0.500000
O O12 0.413272 0.455158 0.419714
O O13 0.432568 0.770326 0.201133
O O14 0.125921 0.849682 0.281659
O O15 0.500000 0.797868 0.000000
O O16 0.500000 0.381882 0.500000
O O17 0.885898 0.359674 0.426965
O O18 0.500000 0.233527 0.500000
O O19 0.977034 0.254385 0.345722
O O20 0.000000 0.288720 0.500000
#
# Coordination Sequence:
#
# PCOD9126134 Si02
#       8
#     4   4   4   4   4   4   4   4
#     4  10  22  39  62  93 121 159 198 247 305 360
#     4   9  22  42  66  85 117 168 207 243 291 363
#     4  11  22  37  58  90 133 152 190 252 310 361
#     4  10  22  38  64  92 120 157 202 251 297 354
#     4  12  24  37  60  92 124 160 199 249 306 355
#     4  11  20  39  60  88 127 157 195 249 300 363
#     4  11  22  44  63  85 123 163 209 244 292 364
#     4  12  22  35  62  90 118 159 199 248 298 355
#
# _framework density 18.829412000000001
#
# number of rings (size 3 to 8) (size 9 to 14) (size 15 to 20)
#    0.000    1.250    5.000    0.750    8.750    1.000 
#    0.000    0.625    5.500    0.000    0.000    0.000 
#    0.000    0.000    0.000    0.000    0.000    0.000 
#
# Total GULP energy -89349.111938 kJ/mol
# GULP energy per Si atom -5584.319496 kJ/mol
# Density = 1.878656 g / cm^3
# Si number density = 18.829412 Si / 1000 Ang^3
#
#
#
# Elastic Constant Matrix: (Units=GPa)
#
#
# Indices 1 2 3 4 5 6 
#
# 1 88.2424 53.0662 17.8169 0.0004 19.7293 0.0003
# 2 53.0662 132.5693 38.6725 0.0001 20.1457 0.0000
# 3 17.8169 38.6725 62.8805 0.0002 20.0584 0.0000
# 4 0.0004 0.0001 0.0002 11.0938 -0.0002 -3.4908
# 5 19.7293 20.1457 20.0584 -0.0002 33.1197 0.0000
# 6 0.0003 0.0000 0.0000 -3.4908 0.0000 12.6533
#
#
#
# Elastic Compliance Matrix: (Units=1/GPa)
#
#
# Indices 1 2 3 4 5 6 
#
# 1 0.016064 -0.005732 0.001133 -0.000001 -0.006769 -0.000001
# 2 -0.005732 0.011435 -0.005304 0.000000 -0.000329 0.000000
# 3 0.001133 -0.005304 0.022348 -0.000001 -0.010983 0.000000
# 4 -0.000001 0.000000 -0.000001 0.098710 0.000001 0.027232
# 5 -0.006769 -0.000329 -0.010983 0.000001 0.041077 0.000001
# 6 -0.000001 0.000000 0.000000 0.027232 0.000001 0.086544
#
#
# Mechanical properties :
#
#
# Convention : Reuss Voigt Hill
#
# Bulk Modulus (GPa) = 33.28801 55.86702 44.57751
# Shear Modulus (GPa) = 16.34002 22.98247 19.66125
#
# Velocity S-wave (km/s) = 2.94903 3.49744 3.23488
# Velocity P-wave (km/s) = 5.41413 6.78557 6.13827
#
# Compressibility (1/GPa) = 0.03004085
#
# Stress axis : x y z
#
# Youngs Moduli (GPa) = 62.25014 87.45184 44.74768
#
# Poissons Ratio (x) = 0.50129 -0.05069
# Poissons Ratio (y) = 0.35683 0.23732
# Poissons Ratio (z) = -0.07052 0.46380
#
# Static dielectric constant tensor:
#      x y z
#    x 1.649940 0.000000 0.016310 
#    y 0.000000 1.631120 0.000000 
#    z 0.016310 0.000000 1.666250 
# 
# From -- ./inp_files/25561.got.cif
#   From: 2010.05.17/outbox.cif.g08.bks.cpg/sg5_13_cif.got.tgz:25561.got - 2010.06.03 18:56:24.
