data_PCOD9126192
_publ_section_title
;
Structure prediction by ZEFSAII (Michael W. Deem and Ramdas Pophale) SiO2 
 PCOD9126192
Probable space group: C 2
;
_chemical_formula_sum "Si O2"
_cell_formula_units_Z 32
_cell_length_a 13.898562
_cell_length_b 11.188556
_cell_length_c 18.203902
_cell_angle_alpha 90.000000
_cell_angle_beta 149.557105
_cell_angle_gamma 90.000000
_cell_volume 1434.305299
_symmetry_space_group_name_H-M "C 2"
_symmetry_group_IT_number 5
_symmetry_cell_setting 'monoclinic'
loop_
_space_group_symop_operation_xyz
x,y,z
-x,y,-z
1/2+x,1/2+y,z
1/2-x,1/2+y,-z
loop_
_atom_site_type_symbol
_atom_site_label
_atom_site_fract_x
_atom_site_fract_y
_atom_site_fract_z
Si Si1 0.446469 0.788320 0.128768
Si Si2 0.806849 0.919369 0.418627
Si Si3 0.904178 0.906437 0.013219
Si Si4 0.065299 0.838498 0.266154
Si Si5 0.239850 0.670342 0.874807
Si Si6 0.394429 0.675810 0.507541
Si Si7 0.542155 0.179019 0.441403
Si Si8 0.944675 0.087264 0.688866
O O1 0.627342 0.873778 0.255197
O O2 0.276289 0.841909 0.066688
O O3 0.495023 0.663296 0.200718
O O4 0.395974 0.761512 0.010899
O O5 0.860374 0.809253 0.506907
O O6 0.000000 0.930145 0.500000
O O7 0.775055 0.051348 0.427442
O O8 0.826284 0.040116 0.946787
O O9 0.000000 0.863671 0.000000
O O10 0.061395 0.887423 0.180399
O O11 0.268652 0.793515 0.425516
O O12 0.935235 0.720728 0.190976
O O13 0.987838 0.951431 0.260972
O O14 0.145118 0.670278 0.731707
O O15 0.500000 0.681017 0.500000
O O16 0.511565 0.655537 0.659330
O O17 0.500000 0.169461 0.500000
O O18 0.714114 0.089438 0.537627
#
# Coordination Sequence:
#
# PCOD9126192 Si02
#       8
#     4   4   4   4   4   4   4   4
#     4  10  23  42  68  95 136 188 222 284 348 408
#     4   9  20  42  66  99 131 175 227 287 338 413
#     4  11  26  42  69  98 141 179 234 286 341 416
#     4  11  24  44  65 101 135 179 233 284 349 417
#     4  11  22  44  66  98 134 188 223 279 349 411
#     4  11  24  40  69  97 136 177 231 286 354 407
#     4  10  22  38  69 102 139 173 232 289 344 411
#     4  11  23  42  65  97 136 181 226 288 345 410
#
# _framework density 22.310452999999999
#
# number of rings (size 3 to 8) (size 9 to 14) (size 15 to 20)
#    0.000    1.500    2.500    1.500    5.250    1.500 
#    0.000    0.000    0.000    0.750    0.000    0.000 
#    0.000    0.000    0.000    0.000    0.000    0.000 
#
# Total GULP energy -89166.763361 kJ/mol
# GULP energy per Si atom -5572.922710 kJ/mol
# Density = 2.225967 g / cm^3
# Si number density = 22.310453 Si / 1000 Ang^3
#
#
#
# Elastic Constant Matrix: (Units=GPa)
#
#
# Indices 1 2 3 4 5 6 
#
# 1 128.1172 15.8311 47.2888 0.0004 -26.0825 0.0002
# 2 15.8311 85.0397 29.2444 0.0010 -0.9497 0.0004
# 3 47.2888 29.2444 117.6939 0.0007 -29.7645 0.0006
# 4 0.0004 0.0010 0.0007 25.8385 0.0002 -2.2841
# 5 -26.0825 -0.9497 -29.7645 0.0002 42.0406 0.0002
# 6 0.0002 0.0004 0.0006 -2.2841 0.0002 18.5974
#
#
#
# Elastic Compliance Matrix: (Units=1/GPa)
#
#
# Indices 1 2 3 4 5 6 
#
# 1 0.009733 -0.000854 -0.002651 0.000000 0.004142 0.000000
# 2 -0.000854 0.013135 -0.003629 0.000000 -0.002803 0.000000
# 3 -0.002651 -0.003629 0.012214 0.000000 0.006921 0.000000
# 4 0.000000 0.000000 0.000000 0.039127 0.000000 0.004806
# 5 0.004142 -0.002803 0.006921 0.000000 0.031193 -0.000001
# 6 0.000000 0.000000 0.000000 0.004806 -0.000001 0.054361
#
#
# Mechanical properties :
#
#
# Convention : Reuss Voigt Hill
#
# Bulk Modulus (GPa) = 48.04697 57.28660 52.66679
# Shear Modulus (GPa) = 27.62919 33.19441 30.41180
#
# Velocity S-wave (km/s) = 3.52290 3.86144 3.69605
# Velocity P-wave (km/s) = 6.17496 6.75379 6.47085
#
# Compressibility (1/GPa) = 0.02081297
#
# Stress axis : x y z
#
# Youngs Moduli (GPa) = 102.74781 76.13227 81.87501
#
# Poissons Ratio (x) = 0.06502 0.21703
# Poissons Ratio (y) = 0.08775 0.29716
# Poissons Ratio (z) = 0.27236 0.27632
#
# Static dielectric constant tensor:
#      x y z
#    x 1.818850 0.000000 -0.046930 
#    y 0.000000 1.835440 0.000000 
#    z -0.046930 0.000000 1.891450 
# 
# From -- ./inp_files/61718.got.cif
#   From: 2010.05.17/outbox.cif.g08.bks.cpg/sg5_31_cif.got.tgz:61718.got - 2010.06.03 18:56:24.
