data_PCOD9126866
_publ_section_title
;
Structure prediction by ZEFSAII (Michael W. Deem and Ramdas Pophale) SiO2 
 PCOD9126866
Probable space group: C 2
;
_chemical_formula_sum "Si O2"
_cell_formula_units_Z 20
_cell_length_a 10.763428
_cell_length_b 9.101769
_cell_length_c 9.104642
_cell_angle_alpha 90.000000
_cell_angle_beta 80.325055
_cell_angle_gamma 90.000000
_cell_volume 879.261379
_symmetry_space_group_name_H-M "C 2"
_symmetry_group_IT_number 5
_symmetry_cell_setting 'monoclinic'
loop_
_space_group_symop_operation_xyz
x,y,z
-x,y,-z
1/2+x,1/2+y,z
1/2-x,1/2+y,-z
loop_
_atom_site_type_symbol
_atom_site_label
_atom_site_fract_x
_atom_site_fract_y
_atom_site_fract_z
Si Si1 0.860564 0.728540 0.596088
Si Si2 0.149556 0.077043 0.440753
Si Si3 0.500000 0.435419 0.000000
Si Si4 0.078942 0.185347 0.160099
Si Si5 0.322916 0.184641 0.946305
Si Si6 0.000000 0.433901 0.000000
O O1 0.749497 0.639518 0.536439
O O2 0.858967 0.689252 0.768683
O O3 0.000000 0.700117 0.500000
O O4 0.833409 0.902931 0.584846
O O5 0.161684 0.168102 0.287259
O O6 0.000000 0.100257 0.500000
O O7 0.498979 0.537007 0.854895
O O8 0.382006 0.327776 0.011157
O O9 0.176083 0.186175 0.005034
O O10 0.002050 0.332987 0.146101
O O11 0.381794 0.041485 0.010303
#
# Coordination Sequence:
#
# PCOD9126866 Si02
#       6
#     4   4   2   4   4   2
#     4  11  28  47  70 101 142 183 227 281 345 408
#     4  11  28  47  70 101 142 183 227 281 345 408
#     4  10  22  42  68  90 140 170 228 278 340 384
#     4  11  24  42  69  97 132 177 228 279 333 401
#     4  11  24  42  69  97 132 177 228 279 333 401
#     4  10  26  38  68 102 132 166 236 274 340 392
#
# _framework density 22.746365999999998
#
# number of rings (size 3 to 8) (size 9 to 14) (size 15 to 20)
#    0.000    1.200    2.000    1.200   14.000    0.800 
#    0.000    0.000    0.000    0.000    0.000    0.000 
#    0.000    0.000    0.000    0.000    0.000    0.000 
#
# Total GULP energy -55894.454645 kJ/mol
# GULP energy per Si atom -5589.445464 kJ/mol
# Density = 2.269459 g / cm^3
# Si number density = 22.746366 Si / 1000 Ang^3
#
#
#
# Elastic Constant Matrix: (Units=GPa)
#
#
# Indices 1 2 3 4 5 6 
#
# 1 115.9651 47.2917 39.8051 0.0000 15.2251 0.0000
# 2 47.2917 127.9022 22.9579 0.0000 18.4339 0.0000
# 3 39.8051 22.9579 85.2733 0.0000 -3.9130 0.0000
# 4 0.0000 0.0000 0.0000 -18.3511 0.0000 -5.3922
# 5 15.2251 18.4339 -3.9130 0.0000 35.7873 0.0000
# 6 0.0000 0.0000 0.0000 -5.3922 0.0000 29.4148
#
#
#
# Elastic Compliance Matrix: (Units=1/GPa)
#
#
# Indices 1 2 3 4 5 6 
#
# 1 0.012116 -0.002972 -0.005047 0.000000 -0.004175 0.000000
# 2 -0.002972 0.009734 -0.001412 0.000000 -0.003904 0.000000
# 3 -0.005047 -0.001412 0.014669 0.000000 0.004479 0.000000
# 4 0.000000 0.000000 0.000000 -0.051707 0.000000 -0.009479
# 5 -0.004175 -0.003904 0.004479 0.000000 0.032220 0.000000
# 6 0.000000 0.000000 0.000000 -0.009479 0.000000 0.032259
#
#
# Mechanical properties :
#
#
# Convention : Reuss Voigt Hill
#
# Bulk Modulus (GPa) = 56.64067 61.02778 58.83423
# Shear Modulus (GPa) = 67.53333 23.97592 45.75463
#
# Velocity S-wave (km/s) = 5.45474 3.25014 4.48986
# Velocity P-wave (km/s) = 8.03911 6.40098 7.26635
#
# Compressibility (1/GPa) = 0.01765516
#
# Stress axis : x y z
#
# Youngs Moduli (GPa) = 82.53574 102.73757 68.17239
#
# Poissons Ratio (x) = 0.30535 0.34407
# Poissons Ratio (y) = 0.24531 0.09628
# Poissons Ratio (z) = 0.41656 0.14509
#
# Static dielectric constant tensor:
#      x y z
#    x 1.844730 0.000000 -0.017680 
#    y 0.000000 1.849660 0.000000 
#    z -0.017680 0.000000 1.940370 
# 
# From -- ./inp_files/18280.got.cif
#   From: 2010.05.17/outbox.cif.g08.bks.cpg/sg5_10_cif.got.tgz:18280.got - 2010.06.03 18:56:24.
