data_PCOD9126966
_publ_section_title
;
Structure prediction by ZEFSAII (Michael W. Deem and Ramdas Pophale) SiO2 
 PCOD9126966
Probable space group: C 2
;
_chemical_formula_sum "Si O2"
_cell_formula_units_Z 30
_cell_length_a 11.966236
_cell_length_b 10.619431
_cell_length_c 20.818549
_cell_angle_alpha 90.000000
_cell_angle_beta 149.126101
_cell_angle_gamma 90.000000
_cell_volume 1357.543838
_symmetry_space_group_name_H-M "C 2"
_symmetry_group_IT_number 5
_symmetry_cell_setting 'monoclinic'
loop_
_space_group_symop_operation_xyz
x,y,z
-x,y,-z
1/2+x,1/2+y,z
1/2-x,1/2+y,-z
loop_
_atom_site_type_symbol
_atom_site_label
_atom_site_fract_x
_atom_site_fract_y
_atom_site_fract_z
Si Si1 0.536627 0.108280 0.090483
Si Si2 0.694926 0.844750 0.209397
Si Si3 0.012611 0.747557 0.754987
Si Si4 0.563285 0.761747 0.672703
Si Si5 0.246667 0.201537 0.363422
Si Si6 0.871103 0.960721 0.778738
Si Si7 0.000000 0.178665 0.500000
Si Si8 0.848439 0.138732 0.006843
O O1 0.715040 0.216168 0.183938
O O2 0.311622 0.146618 0.011309
O O3 0.631425 0.988460 0.173590
O O4 0.500000 0.069522 0.000000
O O5 0.903484 0.809371 0.269262
O O6 0.723526 0.805558 0.296728
O O7 0.503158 0.759780 0.084377
O O8 0.187330 0.644532 0.866399
O O9 0.765984 0.702254 0.627718
O O10 0.004733 0.853529 0.807094
O O11 0.376445 0.746241 0.633329
O O12 0.514175 0.675556 0.586551
O O13 0.636633 0.899412 0.681826
O O14 0.500000 0.180536 0.500000
O O15 0.156520 0.073980 0.286029
O O16 0.000257 0.018217 0.903144
#
# Coordination Sequence:
#
# PCOD9126966 Si02
#       8
#     4   4   4   4   4   4   2   4
#     4  12  23  42  71 100 144 193 242 314 387 449
#     4  11  24  43  66 103 143 190 249 309 380 454
#     4  11  21  43  69 101 139 190 248 297 374 456
#     4  11  24  48  72 112 147 199 255 309 378 465
#     4  11  25  48  71 106 151 199 257 318 383 457
#     4  10  23  43  74 108 142 199 250 312 384 446
#     4  10  22  42  74 102 142 192 244 300 366 450
#     4  11  21  40  66 103 140 179 251 306 373 450
#
# _framework density 22.098732999999999
#
# number of rings (size 3 to 8) (size 9 to 14) (size 15 to 20)
#    0.000    1.067    2.667    6.000    3.733    0.000 
#   10.800    0.000    0.000    0.000    0.000    0.000 
#    0.000    0.000    0.000    0.000    0.000    0.000 
#
# Total GULP energy -83607.868118 kJ/mol
# GULP energy per Si atom -5573.857875 kJ/mol
# Density = 2.204844 g / cm^3
# Si number density = 22.098733 Si / 1000 Ang^3
#
#
#
# Elastic Constant Matrix: (Units=GPa)
#
#
# Indices 1 2 3 4 5 6 
#
# 1 169.9861 24.9333 32.6497 -0.0002 10.8994 -0.0001
# 2 24.9333 58.8442 -13.2304 0.0000 7.1779 0.0001
# 3 32.6497 -13.2304 109.8797 0.0003 -7.1366 0.0002
# 4 -0.0002 0.0000 0.0003 -4.9184 0.0000 -6.8863
# 5 10.8994 7.1779 -7.1366 0.0000 46.2628 0.0000
# 6 -0.0001 0.0001 0.0002 -6.8863 0.0000 3.0033
#
#
#
# Elastic Compliance Matrix: (Units=1/GPa)
#
#
# Indices 1 2 3 4 5 6 
#
# 1 0.006964 -0.003344 -0.002571 0.000000 -0.001519 0.000000
# 2 -0.003344 0.019342 0.003211 0.000000 -0.001718 0.000000
# 3 -0.002571 0.003211 0.010362 0.000000 0.001706 0.000000
# 4 0.000000 0.000000 0.000000 -0.048291 0.000000 -0.110725
# 5 -0.001519 -0.001718 0.001706 0.000000 0.022503 0.000000
# 6 0.000000 0.000000 0.000000 -0.110725 0.000000 0.079084
#
#
# Mechanical properties :
#
#
# Convention : Reuss Voigt Hill
#
# Bulk Modulus (GPa) = 31.98765 47.49058 39.73912
# Shear Modulus (GPa) = 47.26231 28.49337 37.87784
#
# Velocity S-wave (km/s) = 4.62961 3.59467 4.14457
# Velocity P-wave (km/s) = 6.56384 6.22621 6.39726
#
# Compressibility (1/GPa) = 0.03126207
#
# Stress axis : x y z
#
# Youngs Moduli (GPa) = 143.58740 51.70011 96.50531
#
# Poissons Ratio (x) = 0.17287 0.24808
# Poissons Ratio (y) = 0.48011 -0.30987
# Poissons Ratio (z) = 0.36911 -0.16601
#
# Static dielectric constant tensor:
#      x y z
#    x 1.810300 0.000000 0.015140 
#    y 0.000000 1.863630 0.000000 
#    z 0.015140 0.000000 1.853610 
# 
# From -- ./inp_files/65367.got.cif
#   From: 2010.05.17/outbox.cif.g08.bks.cpg/sg5_33_cif.got.tgz:65367.got - 2010.06.03 18:56:24.
