data_PCOD9126043
_publ_section_title
;
Structure prediction by ZEFSAII (Michael W. Deem and Ramdas Pophale) SiO2 
 PCOD9126043
Probable space group: C 2
;
_chemical_formula_sum "Si O2"
_cell_formula_units_Z 26
_cell_length_a 17.100209
_cell_length_b 13.414230
_cell_length_c 10.606652
_cell_angle_alpha 90.000000
_cell_angle_beta 149.591165
_cell_angle_gamma 90.000000
_cell_volume 1231.513300
_symmetry_space_group_name_H-M "C 2"
_symmetry_group_IT_number 5
_symmetry_cell_setting 'monoclinic'
loop_
_space_group_symop_operation_xyz
x,y,z
-x,y,-z
1/2+x,1/2+y,z
1/2-x,1/2+y,-z
loop_
_atom_site_type_symbol
_atom_site_label
_atom_site_fract_x
_atom_site_fract_y
_atom_site_fract_z
Si Si1 0.406117 0.270380 0.741444
Si Si2 0.326964 0.385475 0.023267
Si Si3 0.328272 0.096177 0.197831
Si Si4 0.052699 0.565105 0.306033
Si Si5 0.824329 0.301241 0.957667
Si Si6 0.362448 0.862022 0.475092
Si Si7 0.500000 0.920557 0.000000
O O1 0.366932 0.169502 0.612060
O O2 0.259871 0.327197 0.591839
O O3 0.500000 0.241130 0.000000
O O4 0.512243 0.344189 0.806427
O O5 0.283533 0.500979 0.950089
O O6 0.303538 0.357803 0.136168
O O7 0.201062 0.335933 0.751412
O O8 0.500000 0.100469 0.500000
O O9 0.385432 0.096518 0.130162
O O10 0.234335 0.188936 0.121882
O O11 0.122739 0.482175 0.497388
O O12 0.048961 0.496858 0.177110
O O13 0.977106 0.315935 0.256639
O O14 0.871902 0.350569 0.890700
#
# Coordination Sequence:
#
# PCOD9126043 Si02
#       7
#     4   4   4   4   4   4   2
#     4  10  22  37  64  97 128 164 220 266 322 388
#     4  11  20  42  65  95 125 168 221 267 314 399
#     4  12  23  40  68  94 125 175 217 269 327 388
#     4  11  20  39  66  88 127 174 207 261 334 381
#     4  11  23  40  67  91 128 172 217 264 327 390
#     4  10  22  40  65  95 128 170 210 275 320 384
#     4  10  22  40  60  96 130 170 212 268 336 378
#
# _framework density 21.112234999999998
#
# number of rings (size 3 to 8) (size 9 to 14) (size 15 to 20)
#    0.000    1.231    6.923    0.462    0.000    3.692 
#    4.154    0.000    0.000    0.000    0.000    0.000 
#    0.000    0.000    0.000    0.000    0.000    0.000 
#
# Total GULP energy -72426.415004 kJ/mol
# GULP energy per Si atom -5571.262693 kJ/mol
# Density = 2.106418 g / cm^3
# Si number density = 21.112235 Si / 1000 Ang^3
#
#
#
# Elastic Constant Matrix: (Units=GPa)
#
#
# Indices 1 2 3 4 5 6 
#
# 1 160.2901 52.5023 27.1734 0.0000 11.8751 0.0000
# 2 52.5023 154.1495 28.1630 0.0000 24.4196 0.0000
# 3 27.1734 28.1630 19.5279 0.0000 15.5331 0.0000
# 4 0.0000 0.0000 0.0000 50.0377 0.0000 1.2293
# 5 11.8751 24.4196 15.5331 0.0000 29.9201 0.0000
# 6 0.0000 0.0000 0.0000 1.2293 0.0000 44.2926
#
#
#
# Elastic Compliance Matrix: (Units=1/GPa)
#
#
# Indices 1 2 3 4 5 6 
#
# 1 0.008678 -0.001105 -0.014409 0.000000 0.004939 0.000000
# 2 -0.001105 0.008967 -0.010087 0.000000 -0.001643 0.000000
# 3 -0.014409 -0.010087 0.127262 0.000000 -0.052117 0.000000
# 4 0.000000 0.000000 0.000000 0.019999 0.000000 -0.000555
# 5 0.004939 -0.001643 -0.052117 0.000000 0.059860 0.000000
# 6 0.000000 0.000000 0.000000 -0.000555 0.000000 0.022593
#
#
# Mechanical properties :
#
#
# Convention : Reuss Voigt Hill
#
# Bulk Modulus (GPa) = 10.67196 61.07164 35.87180
# Shear Modulus (GPa) = 15.16094 39.92534 27.54314
#
# Velocity S-wave (km/s) = 2.68267 4.35340 3.61585
# Velocity P-wave (km/s) = 3.82903 7.36609 5.87030
#
# Compressibility (1/GPa) = 0.09370350
#
# Stress axis : x y z
#
# Youngs Moduli (GPa) = 115.23904 111.52217 7.85780
#
# Poissons Ratio (x) = 0.12327 0.11323
# Poissons Ratio (y) = 0.12738 0.07926
# Poissons Ratio (z) = 1.66052 1.12491
#
# Static dielectric constant tensor:
#      x y z
#    x 1.765180 0.000000 -0.085500 
#    y 0.000000 1.743370 0.000000 
#    z -0.085500 0.000000 1.800430 
# 
# From -- ./inp_files/44846.got.cif
#   From: 2010.05.17/outbox.cif.g08.bks.cpg/sg5_23_cif.got.tgz:44846.got - 2010.06.03 18:56:24.
