data_PCOD9126120
_publ_section_title
;
Structure prediction by ZEFSAII (Michael W. Deem and Ramdas Pophale) SiO2 
 PCOD9126120
Probable space group: C 2
;
_chemical_formula_sum "Si O2"
_cell_formula_units_Z 32
_cell_length_a 15.439396
_cell_length_b 23.485488
_cell_length_c 9.095903
_cell_angle_alpha 90.000000
_cell_angle_beta 151.591602
_cell_angle_gamma 90.000000
_cell_volume 1569.124399
_symmetry_space_group_name_H-M "C 2"
_symmetry_group_IT_number 5
_symmetry_cell_setting 'monoclinic'
loop_
_space_group_symop_operation_xyz
x,y,z
-x,y,-z
1/2+x,1/2+y,z
1/2-x,1/2+y,-z
loop_
_atom_site_type_symbol
_atom_site_label
_atom_site_fract_x
_atom_site_fract_y
_atom_site_fract_z
Si Si1 0.030090 0.690910 0.215010
Si Si2 0.799822 0.103532 0.766264
Si Si3 0.299287 0.176022 0.131603
Si Si4 0.514383 0.906355 0.694195
Si Si5 0.208391 0.982723 0.354510
Si Si6 0.513758 0.323095 0.198319
Si Si7 0.708150 0.917803 0.259143
Si Si8 0.650657 0.788906 0.834106
O O1 0.184746 0.650341 0.508054
O O2 0.078942 0.757436 0.310481
O O3 0.844330 0.676015 0.026159
O O4 0.000000 0.681715 0.000000
O O5 0.799892 0.124360 0.935539
O O6 0.721527 0.040994 0.614011
O O7 0.000000 0.102454 0.000000
O O8 0.500000 0.175766 0.500000
O O9 0.215761 0.238119 0.034156
O O10 0.500000 0.918494 0.500000
O O11 0.326277 0.930647 0.471715
O O12 0.544716 0.839150 0.756807
O O13 0.678596 0.929562 0.041451
O O14 0.233966 0.974963 0.567169
O O15 0.000000 0.976271 0.000000
O O16 0.646840 0.368775 0.477127
O O17 0.500000 0.334070 0.000000
O O18 0.317710 0.318212 0.991636
O O19 0.500000 0.902657 0.000000
O O20 0.500000 0.763604 0.500000
#
# Coordination Sequence:
#
# PCOD9126120 Si02
#       8
#     4   4   4   4   4   4   4   4
#     4   9  20  38  60  95 125 171 218 263 339 396
#     4  10  22  40  65  92 123 169 229 281 327 390
#     4   9  20  39  62  89 129 174 216 269 337 390
#     4  10  24  40  58  95 128 165 224 267 337 392
#     4  10  23  45  64  86 127 176 228 281 322 393
#     4  10  22  38  63  92 137 177 214 268 329 407
#     4  10  23  38  64  89 121 176 220 269 330 392
#     4  10  23  37  58  96 138 172 210 267 334 406
#
# _framework density 20.393539000000001
#
# number of rings (size 3 to 8) (size 9 to 14) (size 15 to 20)
#    0.000    2.250    0.000    0.375   15.750    6.500 
#    0.000    0.000    0.000    3.000    0.000    0.000 
#    0.000    0.000    0.000    0.000    0.000    0.000 
#
# Total GULP energy -89112.807529 kJ/mol
# GULP energy per Si atom -5569.550471 kJ/mol
# Density = 2.034712 g / cm^3
# Si number density = 20.393539 Si / 1000 Ang^3
#
#
#
# Elastic Constant Matrix: (Units=GPa)
#
#
# Indices 1 2 3 4 5 6 
#
# 1 75.5432 57.3653 35.6820 0.0000 -26.1206 0.0000
# 2 57.3653 95.9798 26.4085 0.0000 7.4592 0.0000
# 3 35.6820 26.4085 81.2765 0.0000 -2.5024 0.0000
# 4 0.0000 0.0000 0.0000 30.3749 0.0000 3.0338
# 5 -26.1206 7.4592 -2.5024 0.0000 36.3278 0.0000
# 6 0.0000 0.0000 0.0000 3.0338 0.0000 25.0181
#
#
#
# Elastic Compliance Matrix: (Units=1/GPa)
#
#
# Indices 1 2 3 4 5 6 
#
# 1 0.086113 -0.051843 -0.018766 0.000000 0.071270 0.000000
# 2 -0.051843 0.042906 0.007416 0.000000 -0.045576 0.000000
# 3 -0.018766 0.007416 0.017708 0.000000 -0.013796 0.000000
# 4 0.000000 0.000000 0.000000 0.033325 0.000000 -0.004041
# 5 0.071270 -0.045576 -0.013796 0.000000 0.087180 0.000000
# 6 0.000000 0.000000 0.000000 -0.004041 0.000000 0.040461
#
#
# Mechanical properties :
#
#
# Convention : Reuss Voigt Hill
#
# Bulk Modulus (GPa) = 49.16388 54.63457 51.89923
# Shear Modulus (GPa) = 11.34148 27.23374 19.28761
#
# Velocity S-wave (km/s) = 2.36080 3.65829 3.07867
# Velocity P-wave (km/s) = 5.62060 6.68524 6.17590
#
# Compressibility (1/GPa) = 0.02034013
#
# Stress axis : x y z
#
# Youngs Moduli (GPa) = 11.61270 23.30668 56.47197
#
# Poissons Ratio (x) = 1.20830 1.05974
# Poissons Ratio (y) = 0.60204 -0.41879
# Poissons Ratio (z) = 0.21792 -0.17284
#
# Static dielectric constant tensor:
#      x y z
#    x 1.882840 0.000000 -0.056470 
#    y 0.000000 1.746780 0.000000 
#    z -0.056470 0.000000 1.756630 
# 
# From -- ./inp_files/25638.got.cif
#   From: 2010.05.17/outbox.cif.g08.bks.cpg/sg5_13_cif.got.tgz:25638.got - 2010.06.03 18:56:24.
