data_PCOD9126144
_publ_section_title
;
Structure prediction by ZEFSAII (Michael W. Deem and Ramdas Pophale) SiO2 
 PCOD9126144
Probable space group: C 2
;
_chemical_formula_sum "Si O2"
_cell_formula_units_Z 26
_cell_length_a 12.567769
_cell_length_b 21.310249
_cell_length_c 5.031996
_cell_angle_alpha 90.000000
_cell_angle_beta 70.827828
_cell_angle_gamma 90.000000
_cell_volume 1272.932896
_symmetry_space_group_name_H-M "C 2"
_symmetry_group_IT_number 5
_symmetry_cell_setting 'monoclinic'
loop_
_space_group_symop_operation_xyz
x,y,z
-x,y,-z
1/2+x,1/2+y,z
1/2-x,1/2+y,-z
loop_
_atom_site_type_symbol
_atom_site_label
_atom_site_fract_x
_atom_site_fract_y
_atom_site_fract_z
Si Si1 0.120500 0.319540 0.045636
Si Si2 0.209317 0.920317 0.880124
Si Si3 0.865041 0.992597 0.579577
Si Si4 0.000000 0.834406 0.000000
Si Si5 0.272467 0.205197 0.821445
Si Si6 0.681684 0.638565 0.428852
Si Si7 0.000000 0.224657 0.500000
Si Si8 0.000000 0.758616 0.500000
O O1 0.182392 0.379309 0.123110
O O2 0.087002 0.272008 0.304269
O O3 0.207136 0.272179 0.822788
O O4 0.000000 0.333089 0.000000
O O5 0.190306 0.947837 0.600424
O O6 0.102418 0.875769 0.023416
O O7 0.195097 0.977234 0.094642
O O8 0.000000 0.982042 0.500000
O O9 0.844325 0.065623 0.539993
O O10 0.050385 0.798784 0.702517
O O11 0.271451 0.160661 0.567097
O O12 0.402768 0.222774 0.740075
O O13 0.218488 0.165985 0.110963
O O14 0.570232 0.676529 0.620188
#
# Coordination Sequence:
#
# PCOD9126144 Si02
#       8
#     4   4   4   2   4   4   2   2
#     4  11  24  41  67 102 140 175 223 282 352 414
#     4  12  26  40  66  99 137 181 225 272 344 423
#     4  12  24  44  68  98 134 181 232 290 339 396
#     4  12  22  38  62  98 138 166 218 268 332 406
#     4  11  24  40  67 102 131 171 224 279 358 406
#     4  11  23  42  67  98 131 169 227 292 338 403
#     4  10  22  38  65 101 130 168 218 284 346 400
#     4  12  24  40  65  97 138 180 204 278 344 424
#
# _framework density 20.425272
#
# number of rings (size 3 to 8) (size 9 to 14) (size 15 to 20)
#    0.000    0.615    5.385    2.769    4.308    0.000 
#    0.000    0.000    6.769    0.000    0.000    0.000 
#    0.000    0.000    0.000    0.000    0.000    0.000 
#
# Total GULP energy -72443.707468 kJ/mol
# GULP energy per Si atom -5572.592882 kJ/mol
# Density = 2.037878 g / cm^3
# Si number density = 20.425272 Si / 1000 Ang^3
#
#
#
# Elastic Constant Matrix: (Units=GPa)
#
#
# Indices 1 2 3 4 5 6 
#
# 1 100.6417 47.2215 11.9836 0.0000 -0.3970 0.0000
# 2 47.2215 96.4357 9.7513 0.0000 0.0536 0.0000
# 3 11.9836 9.7513 43.5026 0.0000 7.0774 0.0000
# 4 0.0000 0.0000 0.0000 35.7985 0.0000 -4.2187
# 5 -0.3970 0.0536 7.0774 0.0000 36.3520 0.0000
# 6 0.0000 0.0000 0.0000 -4.2187 0.0000 37.6386
#
#
#
# Elastic Compliance Matrix: (Units=1/GPa)
#
#
# Indices 1 2 3 4 5 6 
#
# 1 0.013120 -0.006189 -0.002325 0.000000 0.000605 0.000000
# 2 -0.006189 0.013538 -0.001358 0.000000 0.000177 0.000000
# 3 -0.002325 -0.001358 0.024719 0.000000 -0.004836 0.000000
# 4 0.000000 0.000000 0.000000 0.028308 0.000000 0.003173
# 5 0.000605 0.000177 -0.004836 0.000000 0.028457 0.000000
# 6 0.000000 0.000000 0.000000 0.003173 0.000000 0.026924
#
#
# Mechanical properties :
#
#
# Convention : Reuss Voigt Hill
#
# Bulk Modulus (GPa) = 31.61518 42.05476 36.83497
# Shear Modulus (GPa) = 30.23816 33.39942 31.81879
#
# Velocity S-wave (km/s) = 3.85181 4.04815 3.95120
# Velocity P-wave (km/s) = 5.94087 6.51800 6.23611
#
# Compressibility (1/GPa) = 0.03163038
#
# Stress axis : x y z
#
# Youngs Moduli (GPa) = 76.22174 73.86808 40.45498
#
# Poissons Ratio (x) = 0.45721 0.09406
# Poissons Ratio (y) = 0.47177 0.05495
# Poissons Ratio (z) = 0.17722 0.10033
#
# Static dielectric constant tensor:
#      x y z
#    x 1.763390 0.000000 -0.022980 
#    y 0.000000 1.725140 0.000000 
#    z -0.022980 0.000000 1.790590 
# 
# From -- ./inp_files/5447.got.cif
#   From: 2010.05.17/outbox.cif.g08.bks.cpg/sg5_3_cif.got.tgz:5447.got - 2010.06.03 18:56:24.
