data_PCOD9126729
_publ_section_title
;
Structure prediction by ZEFSAII (Michael W. Deem and Ramdas Pophale) SiO2 
 PCOD9126729
Probable space group: C 2
;
_chemical_formula_sum "Si O2"
_cell_formula_units_Z 28
_cell_length_a 23.921581
_cell_length_b 9.135805
_cell_length_c 4.929303
_cell_angle_alpha 90.000000
_cell_angle_beta 72.292496
_cell_angle_gamma 90.000000
_cell_volume 1026.225175
_symmetry_space_group_name_H-M "C 2"
_symmetry_group_IT_number 5
_symmetry_cell_setting 'monoclinic'
loop_
_space_group_symop_operation_xyz
x,y,z
-x,y,-z
1/2+x,1/2+y,z
1/2-x,1/2+y,-z
loop_
_atom_site_type_symbol
_atom_site_label
_atom_site_fract_x
_atom_site_fract_y
_atom_site_fract_z
Si Si1 0.779590 0.729960 0.174199
Si Si2 0.586878 0.987099 0.531024
Si Si3 0.040960 0.180961 0.699281
Si Si4 0.666162 0.792873 0.002369
Si Si5 0.623764 0.496114 0.204142
Si Si6 0.763504 0.956433 0.590722
Si Si7 0.404543 0.181647 0.941778
O O1 0.725767 0.746515 0.061441
O O2 0.795469 0.876254 0.303525
O O3 0.754814 0.621014 0.439446
O O4 0.836116 0.663658 0.953447
O O5 0.562648 0.846600 0.735156
O O6 0.631406 0.890682 0.271468
O O7 0.559618 0.082895 0.321827
O O8 0.594296 0.112810 0.756492
O O9 0.087491 0.064760 0.511603
O O10 0.000000 0.210210 0.500000
O O11 0.000000 0.124156 0.000000
O O12 0.631962 0.641407 0.003247
O O13 0.697978 0.885846 0.721451
O O14 0.687801 0.454255 0.242143
O O15 0.590040 0.356498 0.123332
#
# Coordination Sequence:
#
# PCOD9126729 Si02
#       7
#     4   4   4   4   4   4   4
#     4  11  23  33  61  92 145 204 235 295 341 434
#     4  11  25  45  73 105 143 194 247 309 367 448
#     4  11  26  54  83 108 141 194 258 320 391 461
#     4  10  22  42  61  99 152 204 254 281 358 444
#     4  10  25  43  71 111 146 197 246 312 371 447
#     4  11  22  40  60 100 151 200 255 287 362 432
#     4  12  23  41  67 107 152 184 239 303 372 433
#
# _framework density 27.284462000000001
#
# number of rings (size 3 to 8) (size 9 to 14) (size 15 to 20)
#    0.000    1.143    2.857    2.571    2.000    2.286 
#    5.143    2.857    0.000    0.000    0.000    0.000 
#    0.000    0.000    0.000    0.000    0.000    0.000 
#
# Total GULP energy -78089.902774 kJ/mol
# GULP energy per Si atom -5577.850198 kJ/mol
# Density = 2.722236 g / cm^3
# Si number density = 27.284462 Si / 1000 Ang^3
#
#
#
# Elastic Constant Matrix: (Units=GPa)
#
#
# Indices 1 2 3 4 5 6 
#
# 1 25.1304 17.3658 15.0265 0.0000 -13.8796 0.0000
# 2 17.3658 168.1603 67.4410 0.0000 -2.8723 0.0000
# 3 15.0265 67.4410 119.9791 0.0000 -5.1828 0.0000
# 4 0.0000 0.0000 0.0000 51.2519 0.0000 14.0518
# 5 -13.8796 -2.8723 -5.1828 0.0000 50.3282 0.0000
# 6 0.0000 0.0000 0.0000 14.0518 0.0000 18.6747
#
#
#
# Elastic Compliance Matrix: (Units=1/GPa)
#
#
# Indices 1 2 3 4 5 6 
#
# 1 0.052239 -0.003582 -0.003933 0.000000 0.013797 0.000000
# 2 -0.003582 0.007923 -0.004046 0.000000 -0.000952 0.000000
# 3 -0.003933 -0.004046 0.011094 0.000000 -0.000173 0.000000
# 4 0.000000 0.000000 0.000000 0.024583 0.000000 -0.018497
# 5 0.013797 -0.000952 -0.000173 0.000000 0.023602 0.000000
# 6 0.000000 0.000000 0.000000 -0.018497 0.000000 0.067467
#
#
# Mechanical properties :
#
#
# Convention : Reuss Voigt Hill
#
# Bulk Modulus (GPa) = 20.77509 56.99294 38.88401
# Shear Modulus (GPa) = 22.11646 38.28006 30.19826
#
# Velocity S-wave (km/s) = 2.85017 3.74973 3.33046
# Velocity P-wave (km/s) = 4.29675 6.29929 5.39180
#
# Compressibility (1/GPa) = 0.04813458
#
# Stress axis : x y z
#
# Youngs Moduli (GPa) = 19.14263 126.21442 90.13643
#
# Poissons Ratio (x) = 0.45205 0.35454
# Poissons Ratio (y) = 0.06856 0.36471
# Poissons Ratio (z) = 0.07530 0.51068
#
# Static dielectric constant tensor:
#      x y z
#    x 2.202090 0.000000 -0.016370 
#    y 0.000000 2.268500 0.000000 
#    z -0.016370 0.000000 2.095070 
# 
# From -- ./inp_files/11184.got.cif
#   From: 2010.05.17/outbox.cif.g08.bks.cpg/sg5_6_cif.got.tgz:11184.got - 2010.06.03 18:56:24.
