data_PCOD9126053
_publ_section_title
;
Structure prediction by ZEFSAII (Michael W. Deem and Ramdas Pophale) SiO2 
 PCOD9126053
Probable space group: C 2
;
_chemical_formula_sum "Si O2"
_cell_formula_units_Z 24
_cell_length_a 9.360551
_cell_length_b 14.657292
_cell_length_c 15.473489
_cell_angle_alpha 90.000000
_cell_angle_beta 147.622340
_cell_angle_gamma 90.000000
_cell_volume 1136.844038
_symmetry_space_group_name_H-M "C 2"
_symmetry_group_IT_number 5
_symmetry_cell_setting 'monoclinic'
loop_
_space_group_symop_operation_xyz
x,y,z
-x,y,-z
1/2+x,1/2+y,z
1/2-x,1/2+y,-z
loop_
_atom_site_type_symbol
_atom_site_label
_atom_site_fract_x
_atom_site_fract_y
_atom_site_fract_z
Si Si1 0.484815 0.763470 0.151311
Si Si2 0.894277 0.471000 0.848480
Si Si3 0.700870 0.440637 0.261186
Si Si4 0.351844 0.582286 0.011371
Si Si5 0.190114 0.921649 0.450190
Si Si6 0.500000 0.321199 0.000000
Si Si7 0.000000 0.784222 0.500000
O O1 0.537235 0.865767 0.142599
O O2 0.364953 0.690615 0.024625
O O3 0.770678 0.731339 0.332608
O O4 0.266365 0.766509 0.115104
O O5 0.576601 0.482487 0.675962
O O6 0.000000 0.484355 0.000000
O O7 0.061811 0.538586 0.873449
O O8 0.531658 0.533585 0.176686
O O9 0.676811 0.392107 0.342194
O O10 0.008051 0.458862 0.391848
O O11 0.564815 0.379268 0.118399
O O12 0.500000 0.555249 0.000000
O O13 0.150595 0.846718 0.505122
#
# Coordination Sequence:
#
# PCOD9126053 Si02
#       7
#     4   4   4   4   4   2   2
#     4  11  24  39  67  95 139 173 226 276 335 398
#     4  11  21  43  67  96 132 177 225 270 337 400
#     4  11  21  40  67 100 133 175 226 273 338 398
#     4  12  25  41  66 100 136 177 228 277 337 400
#     4  10  22  37  69 100 130 178 223 273 333 402
#     4  12  20  42  68  98 130 176 228 276 328 406
#     4  10  22  42  64  98 138 178 226 270 346 394
#
# _framework density 21.111073999999999
#
# number of rings (size 3 to 8) (size 9 to 14) (size 15 to 20)
#    0.000    1.000    5.833    0.500    3.500    2.667 
#    0.000    0.000    0.000    0.000    0.000    0.000 
#    0.000    0.000    0.000    0.000    0.000    0.000 
#
# Total GULP energy -66927.266653 kJ/mol
# GULP energy per Si atom -5577.272221 kJ/mol
# Density = 2.106302 g / cm^3
# Si number density = 21.111074 Si / 1000 Ang^3
#
#
#
# Elastic Constant Matrix: (Units=GPa)
#
#
# Indices 1 2 3 4 5 6 
#
# 1 120.5313 18.9447 27.7258 0.0025 22.8026 0.0004
# 2 18.9447 44.4826 2.6563 0.0002 4.6725 0.0000
# 3 27.7258 2.6563 83.1807 0.0076 31.1412 0.0018
# 4 0.0025 0.0002 0.0076 16.0620 0.0033 0.6142
# 5 22.8026 4.6725 31.1412 0.0033 59.4309 0.0004
# 6 0.0004 0.0000 0.0018 0.6142 0.0004 7.0645
#
#
#
# Elastic Compliance Matrix: (Units=1/GPa)
#
#
# Indices 1 2 3 4 5 6 
#
# 1 0.009859 -0.003822 -0.002315 0.000000 -0.002269 0.000000
# 2 -0.003822 0.024150 0.000827 0.000000 -0.000865 0.000000
# 3 -0.002315 0.000827 0.015500 -0.000005 -0.007299 -0.000003
# 4 0.000000 0.000000 -0.000005 0.062467 -0.000001 -0.005431
# 5 -0.002269 -0.000865 -0.007299 -0.000001 0.021589 0.000001
# 6 0.000000 0.000000 -0.000003 -0.005431 0.000001 0.142025
#
#
# Mechanical properties :
#
#
# Convention : Reuss Voigt Hill
#
# Bulk Modulus (GPa) = 25.71442 38.53870 32.12656
# Shear Modulus (GPa) = 16.71277 29.76932 23.24104
#
# Velocity S-wave (km/s) = 2.81670 3.75924 3.32157
# Velocity P-wave (km/s) = 4.77340 6.09404 5.47370
#
# Compressibility (1/GPa) = 0.03888868
#
# Stress axis : x y z
#
# Youngs Moduli (GPa) = 101.42868 41.40772 64.51807
#
# Poissons Ratio (x) = 0.15827 0.14933
# Poissons Ratio (y) = 0.38769 -0.05334
# Poissons Ratio (z) = 0.23476 -0.03424
#
# Static dielectric constant tensor:
#      x y z
#    x 1.795140 0.000000 -0.011070 
#    y 0.000000 1.786900 0.000000 
#    z -0.011070 0.000000 1.794550 
# 
# From -- ./inp_files/51037.got.cif
#   From: 2010.05.17/outbox.cif.g08.bks.cpg/sg5_26_cif.got.tgz:51037.got - 2010.06.03 18:56:24.
