data_PCOD9126612
_publ_section_title
;
Structure prediction by ZEFSAII (Michael W. Deem and Ramdas Pophale) SiO2 
 PCOD9126612
Probable space group: C 2
;
_chemical_formula_sum "Si O2"
_cell_formula_units_Z 24
_cell_length_a 9.940093
_cell_length_b 9.750237
_cell_length_c 10.900316
_cell_angle_alpha 90.000000
_cell_angle_beta 84.406640
_cell_angle_gamma 90.000000
_cell_volume 1051.409664
_symmetry_space_group_name_H-M "C 2"
_symmetry_group_IT_number 5
_symmetry_cell_setting 'monoclinic'
loop_
_space_group_symop_operation_xyz
x,y,z
-x,y,-z
1/2+x,1/2+y,z
1/2-x,1/2+y,-z
loop_
_atom_site_type_symbol
_atom_site_label
_atom_site_fract_x
_atom_site_fract_y
_atom_site_fract_z
Si Si1 0.249072 0.629870 0.987746
Si Si2 0.131662 0.893609 0.918866
Si Si3 0.429559 0.220540 0.386930
Si Si4 0.811802 0.061042 0.718623
Si Si5 0.889845 0.012066 0.352556
Si Si6 0.279481 0.241790 0.743683
O O1 0.137771 0.733192 0.945055
O O2 0.335032 0.618753 0.854514
O O3 0.239879 0.471461 0.031447
O O4 0.279156 0.698338 0.117703
O O5 0.124008 0.938004 0.779899
O O6 0.000000 0.948510 0.000000
O O7 0.500000 0.155720 0.500000
O O8 0.303066 0.143241 0.341744
O O9 0.376616 0.372976 0.432775
O O10 0.557605 0.224052 0.281362
O O11 0.958185 0.065223 0.643916
O O12 0.761752 0.903910 0.730189
O O13 0.790107 0.141117 0.350010
#
# Coordination Sequence:
#
# PCOD9126612 Si02
#       6
#     4   4   4   4   4   4
#     4  11  20  35  61  92 130 164 194 247 307 378
#     4  11  19  36  57  88 130 163 199 244 299 372
#     4  11  25  45  66  87 120 168 218 266 314 358
#     4  11  22  41  62  94 129 164 205 258 310 371
#     4  10  22  41  65  91 124 163 208 251 312 372
#     4  10  24  41  61  99 128 161 207 252 311 377
#
# _framework density 22.826497
#
# number of rings (size 3 to 8) (size 9 to 14) (size 15 to 20)
#    0.000    1.333    5.000    1.000    0.000    4.000 
#    0.000    3.333    0.000    0.000    0.000    0.000 
#    0.000    0.000    0.000    0.000    0.000    0.000 
#
# Total GULP energy -66802.229490 kJ/mol
# GULP energy per Si atom -5566.852457 kJ/mol
# Density = 2.277454 g / cm^3
# Si number density = 22.826497 Si / 1000 Ang^3
#
#
#
# Elastic Constant Matrix: (Units=GPa)
#
#
# Indices 1 2 3 4 5 6 
#
# 1 112.8388 80.9752 17.2558 0.0000 22.7605 0.0000
# 2 80.9752 110.5104 11.8534 0.0000 1.4977 0.0000
# 3 17.2558 11.8534 88.7847 0.0000 5.1030 0.0000
# 4 0.0000 0.0000 0.0000 26.8286 0.0000 15.9989
# 5 22.7605 1.4977 5.1030 0.0000 25.2511 0.0000
# 6 0.0000 0.0000 0.0000 15.9989 0.0000 46.9766
#
#
#
# Elastic Compliance Matrix: (Units=1/GPa)
#
#
# Indices 1 2 3 4 5 6 
#
# 1 0.028827 -0.020637 -0.001441 0.000000 -0.024469 0.000000
# 2 -0.020637 0.023956 -0.000177 0.000000 0.017216 0.000000
# 3 -0.001441 -0.000177 0.011627 0.000000 -0.001040 0.000000
# 4 0.000000 0.000000 0.000000 0.046773 0.000000 -0.015930
# 5 -0.024469 0.017216 -0.001040 0.000000 0.060847 0.000000
# 6 0.000000 0.000000 0.000000 -0.015930 0.000000 0.026712
#
#
# Mechanical properties :
#
#
# Convention : Reuss Voigt Hill
#
# Bulk Modulus (GPa) = 50.25075 59.14473 54.69774
# Shear Modulus (GPa) = 20.00918 33.28126 26.64522
#
# Velocity S-wave (km/s) = 2.96392 3.82253 3.42027
# Velocity P-wave (km/s) = 5.81163 6.74160 6.29381
#
# Compressibility (1/GPa) = 0.01990020
#
# Stress axis : x y z
#
# Youngs Moduli (GPa) = 34.68914 41.74332 86.00885
#
# Poissons Ratio (x) = 0.86145 0.12396
# Poissons Ratio (y) = 0.71587 0.01522
# Poissons Ratio (z) = 0.05000 0.00739
#
# Static dielectric constant tensor:
#      x y z
#    x 1.851720 0.000000 -0.014400 
#    y 0.000000 1.878600 0.000000 
#    z -0.014400 0.000000 1.972480 
# 
# From -- ./inp_files/38332.got.cif
#   From: 2010.05.17/outbox.cif.g08.bks.cpg/sg5_20_cif.got.tgz:38332.got - 2010.06.03 18:56:24.
