data_PCOD9126186
_publ_section_title
;
Structure prediction by ZEFSAII (Michael W. Deem and Ramdas Pophale) SiO2 
 PCOD9126186
Probable space group: C 2
;
_chemical_formula_sum "Si O2"
_cell_formula_units_Z 22
_cell_length_a 10.935275
_cell_length_b 11.515802
_cell_length_c 8.715700
_cell_angle_alpha 90.000000
_cell_angle_beta 67.643128
_cell_angle_gamma 90.000000
_cell_volume 1015.054375
_symmetry_space_group_name_H-M "C 2"
_symmetry_group_IT_number 5
_symmetry_cell_setting 'monoclinic'
loop_
_space_group_symop_operation_xyz
x,y,z
-x,y,-z
1/2+x,1/2+y,z
1/2-x,1/2+y,-z
loop_
_atom_site_type_symbol
_atom_site_label
_atom_site_fract_x
_atom_site_fract_y
_atom_site_fract_z
Si Si1 0.000000 0.041880 0.500000
Si Si2 0.036599 0.903331 0.206979
Si Si3 0.495862 0.931379 0.317704
Si Si4 0.338232 0.708116 0.350298
Si Si5 0.703448 0.501779 0.848041
Si Si6 0.930805 0.681529 0.369061
O O1 0.922491 0.124594 0.421519
O O2 0.922203 0.954258 0.648617
O O3 0.023302 0.764536 0.222855
O O4 0.885142 0.936315 0.236984
O O5 0.125997 0.967921 0.039628
O O6 0.500000 0.910678 0.500000
O O7 0.424983 0.821435 0.276410
O O8 0.648407 0.956280 0.205737
O O9 0.418006 0.050299 0.316168
O O10 0.301016 0.633622 0.215686
O O11 0.209482 0.734776 0.514764
O O12 0.000000 0.666961 0.500000
#
# Coordination Sequence:
#
# PCOD9126186 Si02
#       6
#     2   4   4   4   4   4
#     4  10  22  38  68  96 120 186 238 274 344 434
#     4  10  22  42  66  95 137 183 232 290 347 422
#     4  11  21  41  67 103 140 187 232 293 345 423
#     4  11  22  40  71 101 135 184 241 286 352 418
#     4  10  22  44  65  99 141 180 231 292 357 399
#     4  11  22  39  70 101 137 186 238 288 349 418
#
# _framework density 21.673714
#
# number of rings (size 3 to 8) (size 9 to 14) (size 15 to 20)
#    0.000    1.455    5.455    1.091    2.545    0.000 
#    9.818    0.000    0.000   10.909    0.000    0.000 
#    0.000    0.000    0.000    0.000    0.000    0.000 
#
# Total GULP energy -61325.950018 kJ/mol
# GULP energy per Si atom -5575.086365 kJ/mol
# Density = 2.162438 g / cm^3
# Si number density = 21.673714 Si / 1000 Ang^3
#
#
#
# Elastic Constant Matrix: (Units=GPa)
#
#
# Indices 1 2 3 4 5 6 
#
# 1 85.2713 54.9888 22.4452 0.0000 -25.4905 0.0000
# 2 54.9888 159.7407 75.4754 0.0000 -14.3255 0.0000
# 3 22.4452 75.4754 95.2656 0.0000 -12.1419 0.0000
# 4 0.0000 0.0000 0.0000 21.8189 0.0000 6.6609
# 5 -25.4905 -14.3255 -12.1419 0.0000 25.4104 0.0000
# 6 0.0000 0.0000 0.0000 6.6609 0.0000 23.6693
#
#
#
# Elastic Compliance Matrix: (Units=1/GPa)
#
#
# Indices 1 2 3 4 5 6 
#
# 1 0.020967 -0.006933 0.002913 0.000000 0.018516 0.000000
# 2 -0.006933 0.012392 -0.008711 0.000000 -0.004131 0.000000
# 3 0.002913 -0.008711 0.017526 0.000000 0.006386 0.000000
# 4 0.000000 0.000000 0.000000 0.050139 0.000000 -0.014110
# 5 0.018516 -0.004131 0.006386 0.000000 0.058651 0.000000
# 6 0.000000 0.000000 0.000000 -0.014110 0.000000 0.046220
#
#
# Mechanical properties :
#
#
# Convention : Reuss Voigt Hill
#
# Bulk Modulus (GPa) = 39.33548 71.78850 55.56199
# Shear Modulus (GPa) = 20.84805 26.67093 23.75949
#
# Velocity S-wave (km/s) = 3.10482 3.51175 3.31454
# Velocity P-wave (km/s) = 5.57150 7.04538 6.35134
#
# Compressibility (1/GPa) = 0.02542234
#
# Stress axis : x y z
#
# Youngs Moduli (GPa) = 47.69476 80.69631 57.05884
#
# Poissons Ratio (x) = 0.55950 -0.16622
# Poissons Ratio (y) = 0.33069 0.49703
# Poissons Ratio (z) = -0.13894 0.70293
#
# Static dielectric constant tensor:
#      x y z
#    x 1.825150 0.000000 -0.028250 
#    y 0.000000 1.862220 0.000000 
#    z -0.028250 0.000000 1.804760 
# 
# From -- ./inp_files/19021.got.cif
#   From: 2010.05.17/outbox.cif.g08.bks.cpg/sg5_10_cif.got.tgz:19021.got - 2010.06.03 18:56:24.
