data_PCOD9126692
_publ_section_title
;
Structure prediction by ZEFSAII (Michael W. Deem and Ramdas Pophale) SiO2 
 PCOD9126692
Probable space group: C 2
;
_chemical_formula_sum "Si O2"
_cell_formula_units_Z 22
_cell_length_a 15.690306
_cell_length_b 5.065380
_cell_length_c 12.527232
_cell_angle_alpha 90.000000
_cell_angle_beta 76.112505
_cell_angle_gamma 90.000000
_cell_volume 966.527945
_symmetry_space_group_name_H-M "C 2"
_symmetry_group_IT_number 5
_symmetry_cell_setting 'monoclinic'
loop_
_space_group_symop_operation_xyz
x,y,z
-x,y,-z
1/2+x,1/2+y,z
1/2-x,1/2+y,-z
loop_
_atom_site_type_symbol
_atom_site_label
_atom_site_fract_x
_atom_site_fract_y
_atom_site_fract_z
Si Si1 0.674641 0.839360 0.783353
Si Si2 0.990486 0.454042 0.287446
Si Si3 0.500000 0.613958 0.500000
Si Si4 0.630986 0.368521 0.329218
Si Si5 0.819907 0.852295 0.074470
Si Si6 0.370079 0.702962 0.872664
O O1 0.610340 0.966225 0.715812
O O2 0.769668 0.770584 0.702944
O O3 0.649225 0.563020 0.846051
O O4 0.673448 0.059914 0.878439
O O5 0.990507 0.281870 0.395703
O O6 0.054443 0.695263 0.297437
O O7 0.036229 0.339094 0.165552
O O8 0.587895 0.443815 0.454330
O O9 0.641740 0.615757 0.246687
O O10 0.715112 0.883752 0.081846
O O11 0.866716 0.954428 0.952901
#
# Coordination Sequence:
#
# PCOD9126692 Si02
#       6
#     4   4   2   4   4   4
#     4  11  26  44  71 105 146 180 247 290 360 434
#     4  11  24  46  70 102 140 188 237 313 357 435
#     4  10  24  46  70  98 132 182 246 290 386 420
#     4  10  22  46  68  97 139 187 232 299 356 435
#     4  11  23  43  67 107 139 193 233 288 351 437
#     4  10  22  41  70  96 145 189 235 281 363 419
#
# _framework density 22.761887999999999
#
# number of rings (size 3 to 8) (size 9 to 14) (size 15 to 20)
#    0.000    1.455    1.818    2.727    7.636    0.727 
#    6.545    0.000    0.000    0.000    0.000    0.000 
#    0.000    0.000    0.000    0.000    0.000    0.000 
#
# Total GULP energy -61281.056287 kJ/mol
# GULP energy per Si atom -5571.005117 kJ/mol
# Density = 2.271008 g / cm^3
# Si number density = 22.761888 Si / 1000 Ang^3
#
#
#
# Elastic Constant Matrix: (Units=GPa)
#
#
# Indices 1 2 3 4 5 6 
#
# 1 83.3787 2.7164 24.7366 0.0000 14.1296 0.0000
# 2 2.7164 66.8338 16.9840 0.0000 -1.5267 0.0000
# 3 24.7366 16.9840 109.6238 0.0000 -18.6902 0.0000
# 4 0.0000 0.0000 0.0000 29.6538 0.0000 -11.9200
# 5 14.1296 -1.5267 -18.6902 0.0000 29.7545 0.0000
# 6 0.0000 0.0000 0.0000 -11.9200 0.0000 17.5606
#
#
#
# Elastic Compliance Matrix: (Units=1/GPa)
#
#
# Indices 1 2 3 4 5 6 
#
# 1 0.015370 0.000494 -0.005359 0.000000 -0.010640 0.000000
# 2 0.000494 0.015609 -0.002725 0.000000 -0.001145 0.000000
# 3 -0.005359 -0.002725 0.012503 0.000000 0.010258 0.000000
# 4 0.000000 0.000000 0.000000 0.046377 0.000000 0.031480
# 5 -0.010640 -0.001145 0.010258 0.000000 0.045046 0.000000
# 6 0.000000 0.000000 0.000000 0.031480 0.000000 0.078314
#
#
# Mechanical properties :
#
#
# Convention : Reuss Voigt Hill
#
# Bulk Modulus (GPa) = 35.33335 38.74556 37.03946
# Shear Modulus (GPa) = 21.02326 29.75373 25.38849
#
# Velocity S-wave (km/s) = 3.04240 3.61941 3.34338
# Velocity P-wave (km/s) = 5.28189 5.87587 5.58678
#
# Compressibility (1/GPa) = 0.02830187
#
# Stress axis : x y z
#
# Youngs Moduli (GPa) = 65.06071 64.06664 79.98397
#
# Poissons Ratio (x) = -0.03165 0.42862
# Poissons Ratio (y) = -0.03214 0.21796
# Poissons Ratio (z) = 0.34865 0.17458
#
# Static dielectric constant tensor:
#      x y z
#    x 2.011060 0.000000 -0.018360 
#    y 0.000000 1.960470 0.000000 
#    z -0.018360 0.000000 1.832290 
# 
# From -- ./inp_files/41076.got.cif
#   From: 2010.05.17/outbox.cif.g08.bks.cpg/sg5_21_cif.got.tgz:41076.got - 2010.06.03 18:56:24.
