data_PCOD9126156
_publ_section_title
;
Structure prediction by ZEFSAII (Michael W. Deem and Ramdas Pophale) SiO2 
 PCOD9126156
Probable space group: C 2
;
_chemical_formula_sum "Si O2"
_cell_formula_units_Z 28
_cell_length_a 13.316674
_cell_length_b 5.002949
_cell_length_c 20.794787
_cell_angle_alpha 90.000000
_cell_angle_beta 128.293520
_cell_angle_gamma 90.000000
_cell_volume 1087.329133
_symmetry_space_group_name_H-M "C 2"
_symmetry_group_IT_number 5
_symmetry_cell_setting 'monoclinic'
loop_
_space_group_symop_operation_xyz
x,y,z
-x,y,-z
1/2+x,1/2+y,z
1/2-x,1/2+y,-z
loop_
_atom_site_type_symbol
_atom_site_label
_atom_site_fract_x
_atom_site_fract_y
_atom_site_fract_z
Si Si1 0.250902 0.503210 0.145942
Si Si2 0.309359 0.356088 0.358630
Si Si3 0.500000 0.314460 0.000000
Si Si4 0.186823 0.508673 0.528795
Si Si5 0.500000 0.539730 0.500000
Si Si6 0.165638 0.072073 0.955523
Si Si7 0.886362 0.663585 0.643216
Si Si8 0.179278 0.507996 0.754342
O O1 0.116636 0.627042 0.069769
O O2 0.352548 0.524590 0.127699
O O3 0.241732 0.199216 0.165457
O O4 0.295778 0.700383 0.220679
O O5 0.368938 0.258501 0.453057
O O6 0.443301 0.496071 0.399743
O O7 0.185861 0.525708 0.325410
O O8 0.286043 0.112189 0.302593
O O9 0.443028 0.486884 0.037175
O O10 0.164540 0.543956 0.445255
O O11 0.330622 0.463749 0.612414
O O12 0.112383 0.257639 0.524964
O O13 0.286305 0.875032 0.018072
O O14 0.033876 0.599425 0.707562
#
# Coordination Sequence:
#
# PCOD9126156 Si02
#       8
#     4   4   2   4   2   4   4   4
#     4  11  27  47  74 110 145 190 231 292 367 431
#     4  11  25  41  65  98 135 195 245 296 369 428
#     4  10  24  50  86 108 144 186 246 290 344 454
#     4  11  22  42  66  94 126 190 254 302 352 420
#     4  10  22  38  66  94 126 178 256 312 342 418
#     4  10  22  44  78 114 142 180 237 291 346 424
#     4  11  25  40  68  95 138 187 251 306 359 420
#     4  12  29  45  68 105 156 185 230 303 366 427
#
# _framework density 25.751176000000001
#
# number of rings (size 3 to 8) (size 9 to 14) (size 15 to 20)
#    0.000    1.143    1.429    3.857   10.000    7.429 
#    0.000    0.000    0.000    0.000    0.000    0.000 
#    0.000    0.000    0.000    0.000    0.000    0.000 
#
# Total GULP energy -78212.617910 kJ/mol
# GULP energy per Si atom -5586.615565 kJ/mol
# Density = 2.569257 g / cm^3
# Si number density = 25.751176 Si / 1000 Ang^3
#
#
#
# Elastic Constant Matrix: (Units=GPa)
#
#
# Indices 1 2 3 4 5 6 
#
# 1 145.6561 6.3529 27.5990 0.0000 -1.1044 0.0000
# 2 6.3529 81.4459 -2.2567 0.0000 -1.5295 0.0000
# 3 27.5990 -2.2567 67.0489 0.0000 -0.8388 0.0000
# 4 0.0000 0.0000 0.0000 45.6624 0.0000 -11.0500
# 5 -1.1044 -1.5295 -0.8388 0.0000 48.5087 0.0000
# 6 0.0000 0.0000 0.0000 -11.0500 0.0000 28.6636
#
#
#
# Elastic Compliance Matrix: (Units=1/GPa)
#
#
# Indices 1 2 3 4 5 6 
#
# 1 0.007483 -0.000668 -0.003101 0.000000 0.000096 0.000000
# 2 -0.000668 0.012357 0.000696 0.000000 0.000386 0.000000
# 3 -0.003101 0.000696 0.016217 0.000000 0.000232 0.000000
# 4 0.000000 0.000000 0.000000 0.024153 0.000000 0.009311
# 5 0.000096 0.000386 0.000232 0.000000 0.020633 0.000000
# 6 0.000000 0.000000 0.000000 0.009311 0.000000 0.038477
#
#
# Mechanical properties :
#
#
# Convention : Reuss Voigt Hill
#
# Bulk Modulus (GPa) = 33.43383 39.72682 36.58032
# Shear Modulus (GPa) = 36.91730 42.06397 39.49064
#
# Velocity S-wave (km/s) = 3.79042 4.04602 3.92030
# Velocity P-wave (km/s) = 5.67168 6.10636 5.89303
#
# Compressibility (1/GPa) = 0.02990983
#
# Stress axis : x y z
#
# Youngs Moduli (GPa) = 133.63602 80.92766 61.66198
#
# Poissons Ratio (x) = 0.05405 0.19124
# Poissons Ratio (y) = 0.08925 -0.04289
# Poissons Ratio (z) = 0.41447 -0.05630
#
# Static dielectric constant tensor:
#      x y z
#    x 2.248500 0.000000 -0.048390 
#    y 0.000000 2.098400 0.000000 
#    z -0.048390 0.000000 2.177240 
# 
# From -- ./inp_files/65725.got.cif
#   From: 2010.05.17/outbox.cif.g08.bks.cpg/sg5_33_cif.got.tgz:65725.got - 2010.06.03 18:56:24.
