data_PCOD9126175
_publ_section_title
;
Structure prediction by ZEFSAII (Michael W. Deem and Ramdas Pophale) SiO2 
 PCOD9126175
Probable space group: C 2
;
_chemical_formula_sum "Si O2"
_cell_formula_units_Z 22
_cell_length_a 9.001545
_cell_length_b 10.107468
_cell_length_c 19.283941
_cell_angle_alpha 90.000000
_cell_angle_beta 150.190278
_cell_angle_gamma 90.000000
_cell_volume 872.202863
_symmetry_space_group_name_H-M "C 2"
_symmetry_group_IT_number 5
_symmetry_cell_setting 'monoclinic'
loop_
_space_group_symop_operation_xyz
x,y,z
-x,y,-z
1/2+x,1/2+y,z
1/2-x,1/2+y,-z
loop_
_atom_site_type_symbol
_atom_site_label
_atom_site_fract_x
_atom_site_fract_y
_atom_site_fract_z
Si Si1 0.500000 0.197451 0.500000
Si Si2 0.186524 0.520340 0.175594
Si Si3 0.894649 0.232174 0.882155
Si Si4 0.681215 0.550243 0.263103
Si Si5 0.256680 0.625857 0.349042
Si Si6 0.368214 0.794627 0.272640
O O1 0.473720 0.106639 0.420520
O O2 0.195112 0.278931 0.373921
O O3 0.014246 0.387181 0.085429
O O4 0.479421 0.502297 0.245835
O O5 0.204260 0.519368 0.266358
O O6 0.149350 0.680865 0.152980
O O7 0.994150 0.159865 0.852495
O O8 0.542354 0.191333 0.740979
O O9 0.000000 0.182743 0.000000
O O10 0.746597 0.439521 0.232122
O O11 0.500000 0.573871 0.500000
O O12 0.405380 0.746900 0.367175
#
# Coordination Sequence:
#
# PCOD9126175 Si02
#       6
#     2   4   4   4   4   4
#     4  10  22  38  68 108 140 182 228 296 360 420
#     4   9  22  47  68  98 138 188 231 288 353 419
#     4  12  27  47  70 103 145 189 241 292 351 423
#     4  11  23  43  67 102 138 186 237 291 353 417
#     4  10  22  45  71 105 139 182 231 295 356 417
#     4   9  21  41  66  99 142 176 232 287 353 418
#
# _framework density 25.223488
#
# number of rings (size 3 to 8) (size 9 to 14) (size 15 to 20)
#    1.091    0.727    1.818    1.091    1.273    7.273 
#    6.545    0.909    0.000    0.000    0.000    0.000 
#    0.000    0.000    0.000    0.000    0.000    0.000 
#
# Total GULP energy -61250.776672 kJ/mol
# GULP energy per Si atom -5568.252425 kJ/mol
# Density = 2.516608 g / cm^3
# Si number density = 25.223488 Si / 1000 Ang^3
#
#
#
# Elastic Constant Matrix: (Units=GPa)
#
#
# Indices 1 2 3 4 5 6 
#
# 1 70.2274 22.2173 16.7890 0.0028 -1.4715 -0.0002
# 2 22.2173 141.7048 30.4104 0.0012 -4.4494 0.0000
# 3 16.7890 30.4104 105.2036 0.0129 -9.6054 0.0016
# 4 0.0028 0.0012 0.0129 5.5991 0.0053 -17.8239
# 5 -1.4715 -4.4494 -9.6054 0.0053 38.0698 -0.0006
# 6 -0.0002 0.0000 0.0016 -17.8239 -0.0006 29.1933
#
#
#
# Elastic Compliance Matrix: (Units=1/GPa)
#
#
# Indices 1 2 3 4 5 6 
#
# 1 0.015319 -0.002003 -0.001876 0.000002 -0.000115 0.000002
# 2 -0.002003 0.007790 -0.001900 -0.000004 0.000354 -0.000002
# 3 -0.001876 -0.001900 0.010571 0.000029 0.002372 0.000017
# 4 0.000002 -0.000004 0.000029 -0.189278 0.000031 -0.115563
# 5 -0.000115 0.000354 0.002372 0.000031 0.026903 0.000019
# 6 0.000002 -0.000002 0.000017 -0.115563 0.000019 -0.036302
#
#
# Mechanical properties :
#
#
# Convention : Reuss Voigt Hill
#
# Bulk Modulus (GPa) = 45.20452 50.66324 47.93388
# Shear Modulus (GPa) = -34.23123 31.08704 -1.57210
#
# Velocity S-wave (km/s) = -3.68790 3.51446 -0.79033
# Velocity P-wave (km/s) = 0.41675 6.04962 4.26756
#
# Compressibility (1/GPa) = 0.02212168
#
# Stress axis : x y z
#
# Youngs Moduli (GPa) = 65.27756 128.37392 94.60211
#
# Poissons Ratio (x) = 0.25711 0.17750
# Poissons Ratio (y) = 0.13074 0.17973
# Poissons Ratio (z) = 0.12248 0.24389
#
# Static dielectric constant tensor:
#      x y z
#    x 2.025120 0.000000 0.057110 
#    y 0.000000 2.070550 0.000000 
#    z 0.057110 0.000000 2.032540 
# 
# From -- ./inp_files/59540.got.cif
#   From: 2010.05.17/outbox.cif.g08.bks.cpg/sg5_30_cif.got.tgz:59540.got - 2010.06.03 18:56:24.
