data_PCOD9126396
_publ_section_title
;
Structure prediction by ZEFSAII (Michael W. Deem and Ramdas Pophale) SiO2 
 PCOD9126396
Probable space group: C 2
;
_chemical_formula_sum "Si O2"
_cell_formula_units_Z 24
_cell_length_a 19.272815
_cell_length_b 4.900326
_cell_length_c 10.574448
_cell_angle_alpha 90.000000
_cell_angle_beta 62.289649
_cell_angle_gamma 90.000000
_cell_volume 884.144035
_symmetry_space_group_name_H-M "C 2"
_symmetry_group_IT_number 5
_symmetry_cell_setting 'monoclinic'
loop_
_space_group_symop_operation_xyz
x,y,z
-x,y,-z
1/2+x,1/2+y,z
1/2-x,1/2+y,-z
loop_
_atom_site_type_symbol
_atom_site_label
_atom_site_fract_x
_atom_site_fract_y
_atom_site_fract_z
Si Si1 0.970993 0.680650 0.165338
Si Si2 0.501322 0.699751 0.302761
Si Si3 0.762500 0.594656 0.900462
Si Si4 0.193437 0.390662 0.729219
Si Si5 0.412609 0.242248 0.613523
Si Si6 0.164243 0.105560 0.497167
O O1 0.885517 0.553718 0.224542
O O2 0.020977 0.475602 0.212112
O O3 0.975037 0.979744 0.219780
O O4 0.000000 0.690896 0.000000
O O5 0.563925 0.526819 0.330966
O O6 0.418729 0.757157 0.443698
O O7 0.701460 0.718620 0.849988
O O8 0.845814 0.598946 0.754841
O O9 0.762744 0.809226 0.017139
O O10 0.198233 0.188575 0.603653
O O11 0.263562 0.612670 0.660403
O O12 0.500000 0.143189 0.500000
O O13 0.368619 0.309991 0.518676
#
# Coordination Sequence:
#
# PCOD9126396 Si02
#       6
#     4   4   4   4   4   4
#     4  11  24  38  61  93 128 175 211 263 327 395
#     4  10  22  40  64  93 128 164 218 270 327 391
#     4  11  27  45  70 103 144 186 227 289 358 416
#     4  10  22  40  68  97 136 174 230 278 338 409
#     4   9  21  44  72 101 138 182 234 286 344 414
#     4   9  19  41  65  99 124 174 223 281 328 391
#
# _framework density 27.144895999999999
#
# number of rings (size 3 to 8) (size 9 to 14) (size 15 to 20)
#    0.000    2.000    0.000    1.500    4.667    5.333 
#    0.000   26.667    0.000    0.000    0.000    0.000 
#    0.000    0.000    0.000    0.000    0.000    0.000 
#
# Total GULP energy -67115.984828 kJ/mol
# GULP energy per Si atom -5592.998736 kJ/mol
# Density = 2.708311 g / cm^3
# Si number density = 27.144896 Si / 1000 Ang^3
#
#
#
# Elastic Constant Matrix: (Units=GPa)
#
#
# Indices 1 2 3 4 5 6 
#
# 1 135.6997 32.0285 28.8862 0.0000 0.7884 -0.0001
# 2 32.0285 133.4036 38.2671 -0.0001 -6.7254 0.0002
# 3 28.8862 38.2671 149.1708 0.0000 -1.2222 0.0000
# 4 0.0000 -0.0001 0.0000 -13.8584 0.0000 18.2631
# 5 0.7884 -6.7254 -1.2222 0.0000 35.8493 0.0000
# 6 -0.0001 0.0002 0.0000 18.2631 0.0000 56.7912
#
#
#
# Elastic Compliance Matrix: (Units=1/GPa)
#
#
# Indices 1 2 3 4 5 6 
#
# 1 0.007997 -0.001620 -0.001137 0.000000 -0.000519 0.000000
# 2 -0.001620 0.008495 -0.001853 0.000000 0.001566 0.000000
# 3 -0.001137 -0.001853 0.007399 0.000000 -0.000070 0.000000
# 4 0.000000 0.000000 0.000000 -0.050680 0.000000 0.016298
# 5 -0.000519 0.001566 -0.000070 0.000000 0.028197 0.000000
# 6 0.000000 0.000000 0.000000 0.016298 0.000000 0.012367
#
#
# Mechanical properties :
#
#
# Convention : Reuss Voigt Hill
#
# Bulk Modulus (GPa) = 68.16194 68.51531 68.33862
# Shear Modulus (GPa) = 179.30728 37.02924 108.16826
#
# Velocity S-wave (km/s) = 8.13628 3.69742 6.31941
# Velocity P-wave (km/s) = 10.65036 6.59722 8.85871
#
# Compressibility (1/GPa) = 0.01467094
#
# Stress axis : x y z
#
# Youngs Moduli (GPa) = 125.05285 117.71085 135.15931
#
# Poissons Ratio (x) = 0.19067 0.15371
# Poissons Ratio (y) = 0.20256 0.25043
# Poissons Ratio (z) = 0.14221 0.21810
#
# Static dielectric constant tensor:
#      x y z
#    x 2.148640 0.000000 0.000150 
#    y 0.000000 2.159990 0.000000 
#    z 0.000150 0.000000 2.111660 
# 
# From -- ./inp_files/45375.got.cif
#   From: 2010.05.17/outbox.cif.g08.bks.cpg/sg5_23_cif.got.tgz:45375.got - 2010.06.03 18:56:24.
