data_PCOD9126315
_publ_section_title
;
Structure prediction by ZEFSAII (Michael W. Deem and Ramdas Pophale) SiO2 
 PCOD9126315
Probable space group: C 2
;
_chemical_formula_sum "Si O2"
_cell_formula_units_Z 22
_cell_length_a 29.993616
_cell_length_b 5.253562
_cell_length_c 7.720103
_cell_angle_alpha 90.000000
_cell_angle_beta 135.338449
_cell_angle_gamma 90.000000
_cell_volume 855.086742
_symmetry_space_group_name_H-M "C 2"
_symmetry_group_IT_number 5
_symmetry_cell_setting 'monoclinic'
loop_
_space_group_symop_operation_xyz
x,y,z
-x,y,-z
1/2+x,1/2+y,z
1/2-x,1/2+y,-z
loop_
_atom_site_type_symbol
_atom_site_label
_atom_site_fract_x
_atom_site_fract_y
_atom_site_fract_z
Si Si1 0.627053 0.363950 0.311517
Si Si2 0.098442 0.365460 0.046560
Si Si3 0.000000 0.201855 0.500000
Si Si4 0.118705 0.014699 0.667327
Si Si5 0.783762 0.387029 0.164722
Si Si6 0.296485 0.538561 0.770571
O O1 0.632832 0.358608 0.532887
O O2 0.590421 0.619147 0.148600
O O3 0.692137 0.403112 0.380710
O O4 0.594641 0.118251 0.144773
O O5 0.047574 0.357533 0.753108
O O6 0.169191 0.312209 0.161603
O O7 0.045324 0.032116 0.505675
O O8 0.146694 0.295607 0.695522
O O9 0.154575 0.933930 0.943254
O O10 0.753501 0.620124 0.975278
O O11 0.769699 0.471045 0.322279
#
# Coordination Sequence:
#
# PCOD9126315 Si02
#       6
#     4   4   2   4   4   4
#     4  10  22  43  68 102 136 176 238 288 352 411
#     4   9  22  42  69  99 135 177 229 290 343 413
#     4  10  22  46  74 102 146 192 240 288 354 420
#     4  10  22  44  71 105 139 192 231 288 356 411
#     4  10  22  39  70 104 139 187 237 285 350 426
#     4   8  21  42  69  96 141 174 230 287 341 418
#
# _framework density 25.728384999999999
#
# number of rings (size 3 to 8) (size 9 to 14) (size 15 to 20)
#    1.091    1.455    0.000    0.000    7.636    4.364 
#    0.000   10.909    0.000    0.000    0.000    0.000 
#    0.000    0.000    0.000    0.000    0.000    0.000 
#
# Total GULP energy -61443.810616 kJ/mol
# GULP energy per Si atom -5585.800965 kJ/mol
# Density = 2.566983 g / cm^3
# Si number density = 25.728385 Si / 1000 Ang^3
#
#
#
# Elastic Constant Matrix: (Units=GPa)
#
#
# Indices 1 2 3 4 5 6 
#
# 1 175.3798 26.9518 46.0616 0.0000 -12.0856 0.0000
# 2 26.9518 139.1093 30.4834 0.0000 -10.8982 0.0000
# 3 46.0616 30.4834 121.6059 0.0000 -17.7930 0.0000
# 4 0.0000 0.0000 0.0000 46.0495 0.0000 -18.0389
# 5 -12.0856 -10.8982 -17.7930 0.0000 48.0811 0.0000
# 6 0.0000 0.0000 0.0000 -18.0389 0.0000 22.2489
#
#
#
# Elastic Compliance Matrix: (Units=1/GPa)
#
#
# Indices 1 2 3 4 5 6 
#
# 1 0.006424 -0.000721 -0.002157 0.000000 0.000653 0.000000
# 2 -0.000721 0.007740 -0.001519 0.000000 0.001011 0.000000
# 3 -0.002157 -0.001519 0.009823 0.000000 0.002749 0.000000
# 4 0.000000 0.000000 0.000000 0.031823 0.000000 0.025801
# 5 0.000653 0.001011 0.002749 0.000000 0.022209 0.000000
# 6 0.000000 0.000000 0.000000 0.025801 0.000000 0.065865
#
#
# Mechanical properties :
#
#
# Convention : Reuss Voigt Hill
#
# Bulk Modulus (GPa) = 65.81775 71.45430 68.63602
# Shear Modulus (GPa) = 31.69704 45.44912 38.57308
#
# Velocity S-wave (km/s) = 3.51378 4.20753 3.87621
# Velocity P-wave (km/s) = 6.48841 7.17198 6.83874
#
# Compressibility (1/GPa) = 0.01519347
#
# Stress axis : x y z
#
# Youngs Moduli (GPa) = 155.66068 129.19240 101.79793
#
# Poissons Ratio (x) = 0.09312 0.21959
# Poissons Ratio (y) = 0.11220 0.15467
# Poissons Ratio (z) = 0.33578 0.19629
#
# Static dielectric constant tensor:
#      x y z
#    x 2.091200 0.000000 0.025680 
#    y 0.000000 2.055570 0.000000 
#    z 0.025680 0.000000 2.054710 
# 
# From -- ./inp_files/32094.got.cif
#   From: 2010.05.17/outbox.cif.g08.bks.cpg/sg5_17_cif.got.tgz:32094.got - 2010.06.03 18:56:24.
