data_PCOD9126802
_publ_section_title
;
Structure prediction by ZEFSAII (Michael W. Deem and Ramdas Pophale) SiO2 
 PCOD9126802
Probable space group: C 2
;
_chemical_formula_sum "Si O2"
_cell_formula_units_Z 18
_cell_length_a 20.341111
_cell_length_b 8.130079
_cell_length_c 21.228078
_cell_angle_alpha 90.000000
_cell_angle_beta 166.938146
_cell_angle_gamma 90.000000
_cell_volume 793.403203
_symmetry_space_group_name_H-M "C 2"
_symmetry_group_IT_number 5
_symmetry_cell_setting 'monoclinic'
loop_
_space_group_symop_operation_xyz
x,y,z
-x,y,-z
1/2+x,1/2+y,z
1/2-x,1/2+y,-z
loop_
_atom_site_type_symbol
_atom_site_label
_atom_site_fract_x
_atom_site_fract_y
_atom_site_fract_z
Si Si1 0.500000 0.906500 0.500000
Si Si2 0.350856 0.740951 0.238344
Si Si3 0.360092 0.070360 0.492037
Si Si4 0.571657 0.096619 0.246806
Si Si5 0.227686 0.242284 0.039937
O O1 0.333660 0.789952 0.295353
O O2 0.332879 0.026119 0.392589
O O3 0.582254 0.599229 0.437453
O O4 0.501735 0.904312 0.349684
O O5 0.048316 0.698344 0.924962
O O6 0.044806 0.118610 0.221420
O O7 0.598283 0.207237 0.732807
O O8 0.420580 0.919525 0.104779
O O9 0.458832 0.195938 0.202001
#
# Coordination Sequence:
#
# PCOD9126802 Si02
#       5
#     2   4   4   4   4
#     4   8  24  42  74  86 132 174 226 240 340 366
#     4  10  22  42  66  90 125 172 216 257 312 387
#     4  10  22  42  66  90 125 172 216 257 312 387
#     4  12  24  40  63  97 131 167 212 267 326 377
#     4  12  24  40  63  97 131 167 212 267 326 377
#
# _framework density 22.687078
#
# number of rings (size 3 to 8) (size 9 to 14) (size 15 to 20)
#    1.333    0.000    0.000    6.667    0.000    3.556 
#    0.000    6.667    0.000    0.000    0.000    0.000 
#    0.000    0.000    0.000    0.000    0.000    0.000 
#
# Total GULP energy -50242.702239 kJ/mol
# GULP energy per Si atom -5582.522471 kJ/mol
# Density = 2.263544 g / cm^3
# Si number density = 22.687078 Si / 1000 Ang^3
#
#
#
# Elastic Constant Matrix: (Units=GPa)
#
#
# Indices 1 2 3 4 5 6 
#
# 1 70.5920 23.8958 0.5470 -0.0088 -13.3158 -0.0062
# 2 23.8958 93.9138 5.8862 0.0165 1.4299 0.0104
# 3 0.5470 5.8862 71.9505 0.0013 10.9811 0.0065
# 4 -0.0088 0.0165 0.0013 31.4173 0.0073 1.0622
# 5 -13.3158 1.4299 10.9811 0.0073 25.8369 -0.0003
# 6 -0.0062 0.0104 0.0065 1.0622 -0.0003 28.3169
#
#
#
# Elastic Compliance Matrix: (Units=1/GPa)
#
#
# Indices 1 2 3 4 5 6 
#
# 1 0.017570 -0.004541 -0.001264 0.000005 0.009844 0.000006
# 2 -0.004541 0.011878 -0.000513 -0.000007 -0.002780 -0.000005
# 3 -0.001264 -0.000513 0.015019 0.000001 -0.007007 -0.000004
# 4 0.000005 -0.000007 0.000001 0.031870 -0.000007 -0.001195
# 5 0.009844 -0.002780 -0.007007 -0.000007 0.046909 0.000006
# 6 0.000006 -0.000005 -0.000004 -0.001195 0.000006 0.035359
#
#
# Mechanical properties :
#
#
# Convention : Reuss Voigt Hill
#
# Bulk Modulus (GPa) = 31.41681 33.01270 32.21476
# Shear Modulus (GPa) = 27.49470 30.85603 29.17537
#
# Velocity S-wave (km/s) = 3.48503 3.69191 3.58996
# Velocity P-wave (km/s) = 5.48378 5.72333 5.60484
#
# Compressibility (1/GPa) = 0.03183009
#
# Stress axis : x y z
#
# Youngs Moduli (GPa) = 56.91597 84.18918 66.58056
#
# Poissons Ratio (x) = 0.38232 0.08419
# Poissons Ratio (y) = 0.25846 0.03415
# Poissons Ratio (z) = 0.07197 0.04319
#
# Static dielectric constant tensor:
#      x y z
#    x 1.862890 0.000020 -0.031190 
#    y 0.000020 1.899950 -0.000010 
#    z -0.031190 -0.000010 1.815640 
# 
# From -- ./inp_files/9100.got.cif
#   From: 2010.05.17/outbox.cif.g08.bks.cpg/sg5_5_cif.got.tgz:9100.got - 2010.06.03 18:56:24.
