data_PCOD9126795
_publ_section_title
;
Structure prediction by ZEFSAII (Michael W. Deem and Ramdas Pophale) SiO2 
 PCOD9126795
Probable space group: C 2
;
_chemical_formula_sum "Si O2"
_cell_formula_units_Z 26
_cell_length_a 23.616529
_cell_length_b 5.881393
_cell_length_c 20.720160
_cell_angle_alpha 90.000000
_cell_angle_beta 22.894146
_cell_angle_gamma 90.000000
_cell_volume 1119.624197
_symmetry_space_group_name_H-M "C 2"
_symmetry_group_IT_number 5
_symmetry_cell_setting 'monoclinic'
loop_
_space_group_symop_operation_xyz
x,y,z
-x,y,-z
1/2+x,1/2+y,z
1/2-x,1/2+y,-z
loop_
_atom_site_type_symbol
_atom_site_label
_atom_site_fract_x
_atom_site_fract_y
_atom_site_fract_z
Si Si1 0.829700 0.641750 0.327649
Si Si2 0.000000 0.969614 0.500000
Si Si3 0.311945 0.082568 0.745239
Si Si4 0.431951 0.490892 0.316656
Si Si5 0.442172 0.816123 0.923035
Si Si6 0.276416 0.527478 0.938563
Si Si7 0.101530 0.353546 0.476746
O O1 0.720219 0.505062 0.488242
O O2 0.725212 0.821817 0.400405
O O3 0.931446 0.473348 0.178804
O O4 0.931787 0.774341 0.270572
O O5 0.041811 0.111227 0.518437
O O6 0.137015 0.821576 0.336592
O O7 0.451576 0.001008 0.642861
O O8 0.321264 0.930585 0.671270
O O9 0.153188 0.120836 0.941741
O O10 0.475751 0.695305 0.222836
O O11 0.551744 0.498410 0.246442
O O12 0.317466 0.981927 0.025860
O O13 0.255570 0.789984 0.985765
#
# Coordination Sequence:
#
# PCOD9126795 Si02
#       7
#     4   2   4   4   4   4   4
#     4  12  24  43  66 103 143 188 231 306 371 442
#     4   8  18  42  66 100 126 174 244 288 358 434
#     4   9  21  43  68 103 132 183 249 298 355 453
#     4  11  25  42  62 100 146 184 239 284 381 450
#     4  11  24  41  69 103 142 184 243 308 363 440
#     4  10  22  42  66 100 143 188 239 297 361 452
#     4   9  22  42  70  98 137 188 237 299 370 439
#
# _framework density 23.222076000000001
#
# number of rings (size 3 to 8) (size 9 to 14) (size 15 to 20)
#    0.000    2.154    3.077    0.000    2.154   11.077 
#    0.000    4.615    0.000    0.000    0.000    0.000 
#    0.000    0.000    0.000    0.000    0.000    0.000 
#
# Total GULP energy -72370.130387 kJ/mol
# GULP energy per Si atom -5566.933107 kJ/mol
# Density = 2.316922 g / cm^3
# Si number density = 23.222076 Si / 1000 Ang^3
#
#
#
# Elastic Constant Matrix: (Units=GPa)
#
#
# Indices 1 2 3 4 5 6 
#
# 1 43.3346 10.9199 41.3325 0.0025 7.4685 0.0006
# 2 10.9199 63.5924 34.3269 -0.0072 5.0288 0.0023
# 3 41.3325 34.3269 134.6363 0.0032 -7.9495 -0.0026
# 4 0.0025 -0.0072 0.0032 13.9363 -0.0027 -8.3199
# 5 7.4685 5.0288 -7.9495 -0.0027 20.6897 -0.0003
# 6 0.0006 0.0023 -0.0026 -8.3199 -0.0003 16.0031
#
#
#
# Elastic Compliance Matrix: (Units=1/GPa)
#
#
# Indices 1 2 3 4 5 6 
#
# 1 0.039048 0.002293 -0.013749 -0.000013 -0.019936 -0.000011
# 2 0.002293 0.019226 -0.006068 0.000010 -0.007832 0.000001
# 3 -0.013749 -0.006068 0.013891 0.000001 0.011775 0.000004
# 4 -0.000013 0.000010 0.000001 0.104048 0.000017 0.054094
# 5 -0.019936 -0.007832 0.011775 0.000017 0.061958 0.000014
# 6 -0.000011 0.000001 0.000004 0.054094 0.000014 0.090611
#
#
# Mechanical properties :
#
#
# Convention : Reuss Voigt Hill
#
# Bulk Modulus (GPa) = 26.94236 46.08021 36.51128
# Shear Modulus (GPa) = 13.29067 20.45809 16.87438
#
# Velocity S-wave (km/s) = 2.39494 2.97134 2.69857
# Velocity P-wave (km/s) = 4.39031 5.62656 5.04644
#
# Compressibility (1/GPa) = 0.03711627
#
# Stress axis : x y z
#
# Youngs Moduli (GPa) = 25.60930 52.01158 71.98994
#
# Poissons Ratio (x) = -0.11926 0.98981
# Poissons Ratio (y) = -0.05872 0.43686
# Poissons Ratio (z) = 0.35211 0.31563
#
# Static dielectric constant tensor:
#      x y z
#    x 1.900870 0.000000 0.014790 
#    y 0.000000 2.010820 0.000000 
#    z 0.014790 0.000000 1.937870 
# 
# From -- ./inp_files/69868.got.cif
#   From: 2010.05.17/outbox.cif.g08.bks.cpg/sg5_35_cif.got.tgz:69868.got - 2010.06.03 18:56:24.
