data_PCOD9126827
_publ_section_title
;
Structure prediction by ZEFSAII (Michael W. Deem and Ramdas Pophale) SiO2 
 PCOD9126827
Probable space group: C 2
;
_chemical_formula_sum "Si O2"
_cell_formula_units_Z 30
_cell_length_a 5.699030
_cell_length_b 17.526451
_cell_length_c 15.192715
_cell_angle_alpha 90.000000
_cell_angle_beta 65.564217
_cell_angle_gamma 90.000000
_cell_volume 1381.575821
_symmetry_space_group_name_H-M "C 2"
_symmetry_group_IT_number 5
_symmetry_cell_setting 'monoclinic'
loop_
_space_group_symop_operation_xyz
x,y,z
-x,y,-z
1/2+x,1/2+y,z
1/2-x,1/2+y,-z
loop_
_atom_site_type_symbol
_atom_site_label
_atom_site_fract_x
_atom_site_fract_y
_atom_site_fract_z
Si Si1 0.016952 0.563540 0.592444
Si Si2 0.274620 0.055735 0.105276
Si Si3 0.500000 0.676225 0.500000
Si Si4 0.280762 0.215910 0.608933
Si Si5 0.017639 0.898731 0.893995
Si Si6 0.056706 0.470616 0.758113
Si Si7 0.740728 0.817100 0.785242
Si Si8 0.819338 0.216750 0.939893
O O1 0.263206 0.619213 0.553624
O O2 0.000000 0.525435 0.500000
O O3 0.789627 0.626052 0.633080
O O4 0.029363 0.503558 0.666485
O O5 0.129917 0.135889 0.117697
O O6 0.144968 0.976153 0.097854
O O7 0.378953 0.039822 0.186390
O O8 0.500000 0.063508 0.000000
O O9 0.532919 0.725004 0.584305
O O10 0.500000 0.231587 0.500000
O O11 0.313950 0.262215 0.692965
O O12 0.911060 0.831446 0.847130
O O13 0.297357 0.928718 0.826528
O O14 0.000000 0.881426 0.000000
O O15 0.253314 0.401437 0.740254
O O16 0.463768 0.783876 0.862651
O O17 0.500000 0.222695 0.000000
O O18 0.000000 0.212826 0.000000
#
# Coordination Sequence:
#
# PCOD9126827 Si02
#       8
#     4   4   2   4   4   4   4   4
#     4   9  21  41  69  99 127 173 232 296 352 428
#     4  10  22  42  67 100 130 186 242 298 346 419
#     4   8  18  40  74  92 136 168 224 298 358 414
#     4   9  21  44  67  99 133 177 233 292 358 431
#     4  11  24  44  70  93 147 190 237 287 359 432
#     4  11  25  41  66  99 134 187 232 287 362 433
#     4  11  28  42  66 104 139 192 230 294 370 441
#     4  11  28  46  72 108 148 190 249 310 363 437
#
# _framework density 21.714334999999998
#
# number of rings (size 3 to 8) (size 9 to 14) (size 15 to 20)
#    0.000    2.133    1.333    0.400    9.333    5.333 
#    4.800    0.000    0.000    0.000    0.000    0.000 
#    0.000    0.000    0.000    0.000    0.000    0.000 
#
# Total GULP energy -83548.005952 kJ/mol
# GULP energy per Si atom -5569.867063 kJ/mol
# Density = 2.166491 g / cm^3
# Si number density = 21.714335 Si / 1000 Ang^3
#
#
#
# Elastic Constant Matrix: (Units=GPa)
#
#
# Indices 1 2 3 4 5 6 
#
# 1 80.7091 26.4502 54.6575 0.0000 32.2380 0.0000
# 2 26.4502 106.6235 69.1087 0.0000 34.4553 0.0000
# 3 54.6575 69.1087 159.9719 0.0000 52.7560 0.0000
# 4 0.0000 0.0000 0.0000 56.9998 0.0000 11.1128
# 5 32.2380 34.4553 52.7560 0.0000 42.4711 0.0000
# 6 0.0000 0.0000 0.0000 11.1128 0.0000 40.0055
#
#
#
# Elastic Compliance Matrix: (Units=1/GPa)
#
#
# Indices 1 2 3 4 5 6 
#
# 1 0.018595 0.000984 -0.003151 0.000000 -0.010998 0.000000
# 2 0.000984 0.014069 -0.004072 0.000000 -0.007103 0.000000
# 3 -0.003151 -0.004072 0.012211 0.000000 -0.009472 0.000000
# 4 0.000000 0.000000 0.000000 0.018548 0.000000 -0.005152
# 5 -0.010998 -0.007103 -0.009472 0.000000 0.049422 0.000000
# 6 0.000000 0.000000 0.000000 -0.005152 0.000000 0.026428
#
#
# Mechanical properties :
#
#
# Convention : Reuss Voigt Hill
#
# Bulk Modulus (GPa) = 30.86764 71.97080 51.41922
# Shear Modulus (GPa) = 30.75971 41.03449 35.89710
#
# Velocity S-wave (km/s) = 3.76781 4.35183 4.07031
# Velocity P-wave (km/s) = 5.75975 7.64641 6.76913
#
# Compressibility (1/GPa) = 0.03239639
#
# Stress axis : x y z
#
# Youngs Moduli (GPa) = 53.77795 71.07770 81.89628
#
# Poissons Ratio (x) = -0.06992 0.25807
# Poissons Ratio (y) = -0.05290 0.33345
# Poissons Ratio (z) = 0.16947 0.28940
#
# Static dielectric constant tensor:
#      x y z
#    x 1.957840 0.000000 -0.003050 
#    y 0.000000 1.838980 0.000000 
#    z -0.003050 0.000000 1.777660 
# 
# From -- ./inp_files/49323.got.cif
#   From: 2010.05.17/outbox.cif.g08.bks.cpg/sg5_25_cif.got.tgz:49323.got - 2010.06.03 18:56:24.
