data_PCOD9126941
_publ_section_title
;
Structure prediction by ZEFSAII (Michael W. Deem and Ramdas Pophale) SiO2 
 PCOD9126941
Probable space group: C 2
;
_chemical_formula_sum "Si O2"
_cell_formula_units_Z 32
_cell_length_a 23.936477
_cell_length_b 11.243459
_cell_length_c 5.715041
_cell_angle_alpha 90.000000
_cell_angle_beta 109.653500
_cell_angle_gamma 90.000000
_cell_volume 1448.479316
_symmetry_space_group_name_H-M "C 2"
_symmetry_group_IT_number 5
_symmetry_cell_setting 'monoclinic'
loop_
_space_group_symop_operation_xyz
x,y,z
-x,y,-z
1/2+x,1/2+y,z
1/2-x,1/2+y,-z
loop_
_atom_site_type_symbol
_atom_site_label
_atom_site_fract_x
_atom_site_fract_y
_atom_site_fract_z
Si Si1 0.157909 0.875000 0.080230
Si Si2 0.238107 0.292156 0.079803
Si Si3 0.601036 0.140030 0.042643
Si Si4 0.344082 0.918565 0.700335
Si Si5 0.843422 0.199413 0.416088
Si Si6 0.071157 0.983892 0.610613
Si Si7 0.435741 0.229955 0.521278
Si Si8 0.254363 0.566300 0.610328
O O1 0.148874 0.743625 0.171027
O O2 0.195776 0.966721 0.280831
O O3 0.202525 0.849500 0.929574
O O4 0.097449 0.935744 0.897598
O O5 0.214003 0.374619 0.247908
O O6 0.246849 0.159109 0.179977
O O7 0.183163 0.280643 0.825540
O O8 0.560879 0.164182 0.222797
O O9 0.615631 0.001608 0.084262
O O10 0.592695 0.168078 0.751682
O O11 0.370352 0.797637 0.632126
O O12 0.311645 0.013201 0.486552
O O13 0.783540 0.140203 0.438338
O O14 0.889951 0.098507 0.406401
O O15 0.084590 0.867185 0.470123
O O16 0.000000 0.008007 0.500000
O O17 0.500000 0.247158 0.500000
#
# Coordination Sequence:
#
# PCOD9126941 Si02
#       8
#     4   4   4   4   4   4   4   4
#     4  11  22  38  67  99 137 179 228 291 356 430
#     4  11  24  40  62  94 136 181 223 285 353 431
#     4  11  25  40  69 101 138 180 227 295 354 430
#     4  11  26  37  63  95 140 185 226 282 359 439
#     4  11  22  42  64  92 137 177 233 284 352 431
#     4  10  22  42  71  99 132 181 235 301 350 418
#     4  10  23  45  72 100 132 176 242 300 363 408
#     4  11  23  38  61  98 130 172 223 282 359 418
#
# _framework density 22.092134999999999
#
# number of rings (size 3 to 8) (size 9 to 14) (size 15 to 20)
#    0.000    1.250    2.500    2.625    8.750    0.000 
#    0.000    2.500    2.750    0.000    0.000    0.000 
#    0.000    0.000    0.000    0.000    0.000    0.000 
#
# Total GULP energy -89068.535742 kJ/mol
# GULP energy per Si atom -5566.783484 kJ/mol
# Density = 2.204185 g / cm^3
# Si number density = 22.092135 Si / 1000 Ang^3
#
#
#
# Elastic Constant Matrix: (Units=GPa)
#
#
# Indices 1 2 3 4 5 6 
#
# 1 63.5809 24.1308 23.8163 0.0000 5.0648 0.0000
# 2 24.1308 112.3671 27.2971 0.0000 -1.1331 0.0000
# 3 23.8163 27.2971 62.8772 0.0000 4.0886 0.0000
# 4 0.0000 0.0000 0.0000 31.2327 0.0000 -0.1801
# 5 5.0648 -1.1331 4.0886 0.0000 28.8746 0.0000
# 6 0.0000 0.0000 0.0000 -0.1801 0.0000 21.7225
#
#
#
# Elastic Compliance Matrix: (Units=1/GPa)
#
#
# Indices 1 2 3 4 5 6 
#
# 1 0.019183 -0.002708 -0.005919 0.000000 -0.002633 0.000000
# 2 -0.002708 0.010360 -0.003562 0.000000 0.001386 0.000000
# 3 -0.005919 -0.003562 0.019816 0.000000 -0.001907 0.000000
# 4 0.000000 0.000000 0.000000 0.032019 0.000000 0.000265
# 5 -0.002633 0.001386 -0.001907 0.000000 0.035419 0.000000
# 6 0.000000 0.000000 0.000000 0.000265 0.000000 0.046037
#
#
# Mechanical properties :
#
#
# Convention : Reuss Voigt Hill
#
# Bulk Modulus (GPa) = 40.03052 43.25705 41.64379
# Shear Modulus (GPa) = 25.57015 27.27135 26.42075
#
# Velocity S-wave (km/s) = 3.40580 3.51727 3.46198
# Velocity P-wave (km/s) = 5.79871 6.00980 5.90520
#
# Compressibility (1/GPa) = 0.02498094
#
# Stress axis : x y z
#
# Youngs Moduli (GPa) = 52.13026 96.52249 50.46315
#
# Poissons Ratio (x) = 0.26140 0.29869
# Poissons Ratio (y) = 0.14118 0.17975
# Poissons Ratio (z) = 0.30856 0.34382
#
# Static dielectric constant tensor:
#      x y z
#    x 1.844040 0.000000 0.002680 
#    y 0.000000 1.850140 0.000000 
#    z 0.002680 0.000000 1.972400 
# 
# From -- ./inp_files/10397.got.cif
#   From: 2010.05.17/outbox.cif.g08.bks.cpg/sg5_6_cif.got.tgz:10397.got - 2010.06.03 18:56:24.
