data_PCOD9126022
_publ_section_title
;
Structure prediction by ZEFSAII (Michael W. Deem and Ramdas Pophale) SiO2 
 PCOD9126022
Probable space group: C 2
;
_chemical_formula_sum "Si O2"
_cell_formula_units_Z 24
_cell_length_a 20.475487
_cell_length_b 5.072933
_cell_length_c 13.409854
_cell_angle_alpha 90.000000
_cell_angle_beta 103.950127
_cell_angle_gamma 90.000000
_cell_volume 1351.809871
_symmetry_space_group_name_H-M "C 2"
_symmetry_group_IT_number 5
_symmetry_cell_setting 'monoclinic'
loop_
_space_group_symop_operation_xyz
x,y,z
-x,y,-z
1/2+x,1/2+y,z
1/2-x,1/2+y,-z
loop_
_atom_site_type_symbol
_atom_site_label
_atom_site_fract_x
_atom_site_fract_y
_atom_site_fract_z
Si Si1 0.595460 0.622880 0.801723
Si Si2 0.425021 0.858189 0.999906
Si Si3 0.758122 0.143983 0.073715
Si Si4 0.036201 0.825514 0.280193
Si Si5 0.999212 0.308006 0.616363
Si Si6 0.370899 0.356618 0.875856
O O1 0.672801 0.552214 0.847879
O O2 0.537257 0.401538 0.793373
O O3 0.573966 0.748823 0.688357
O O4 0.582546 0.827740 0.885645
O O5 0.378191 0.647417 0.924841
O O6 0.412817 0.151924 0.958680
O O7 0.500000 0.776301 0.000000
O O8 0.704100 0.244001 0.135439
O O9 0.766488 0.399229 0.003827
O O10 0.030847 0.545008 0.330173
O O11 0.094368 0.846675 0.219389
O O12 0.042317 0.047496 0.368207
O O13 0.000000 0.359406 0.500000
#
# Coordination Sequence:
#
# PCOD9126022 Si02
#       6
#     4   4   4   4   4   4
#     4  10  23  36  57  84 117 154 196 227 295 347
#     4  12  21  32  56  82 120 154 191 232 282 346
#     4  12  24  36  54  83 128 167 190 220 281 362
#     4  10  22  37  61  85 114 149 200 241 303 338
#     4  10  22  40  63  86 110 144 201 267 296 332
#     4  12  22  36  53  86 123 159 184 236 278 357
#
# _framework density 17.753978
#
# number of rings (size 3 to 8) (size 9 to 14) (size 15 to 20)
#    1.000    0.000    5.000    3.000    4.667    0.000 
#    0.000    0.000    0.000    2.000    0.000    0.000 
#    0.000    0.000    0.000    0.000    0.000    0.000 
#
# Total GULP energy -66864.711638 kJ/mol
# GULP energy per Si atom -5572.059303 kJ/mol
# Density = 1.771357 g / cm^3
# Si number density = 17.753978 Si / 1000 Ang^3
#
#
#
# Elastic Constant Matrix: (Units=GPa)
#
#
# Indices 1 2 3 4 5 6 
#
# 1 101.6822 -3.3353 32.4222 0.0000 -17.3760 0.0000
# 2 -3.3353 45.7149 -13.4563 0.0000 0.2301 0.0000
# 3 32.4222 -13.4563 85.0225 0.0000 0.7239 0.0000
# 4 0.0000 0.0000 0.0000 19.9478 0.0000 -6.9465
# 5 -17.3760 0.2301 0.7239 0.0000 18.7234 0.0000
# 6 0.0000 0.0000 0.0000 -6.9465 0.0000 20.3969
#
#
#
# Elastic Compliance Matrix: (Units=1/GPa)
#
#
# Indices 1 2 3 4 5 6 
#
# 1 0.013780 -0.000671 -0.005472 0.000000 0.013008 0.000000
# 2 -0.000671 0.022980 0.003902 0.000000 -0.001056 0.000000
# 3 -0.005472 0.003902 0.014514 0.000000 -0.005687 0.000000
# 4 0.000000 0.000000 0.000000 0.056876 0.000000 0.019370
# 5 0.013008 -0.001056 -0.005687 0.000000 0.065714 0.000000
# 6 0.000000 0.000000 0.000000 0.019370 0.000000 0.055624
#
#
# Mechanical properties :
#
#
# Convention : Reuss Voigt Hill
#
# Bulk Modulus (GPa) = 21.37112 29.29788 25.33450
# Shear Modulus (GPa) = 20.03469 26.26623 23.15046
#
# Velocity S-wave (km/s) = 3.36290 3.85054 3.61495
# Velocity P-wave (km/s) = 5.20983 6.02552 5.63246
#
# Compressibility (1/GPa) = 0.04679212
#
# Stress axis : x y z
#
# Youngs Moduli (GPa) = 72.56781 43.51696 68.89840
#
# Poissons Ratio (x) = 0.02919 0.37700
# Poissons Ratio (y) = 0.04867 -0.26882
# Poissons Ratio (z) = 0.39708 -0.16979
#
# Static dielectric constant tensor:
#      x y z
#    x 1.669280 0.000000 -0.009610 
#    y 0.000000 1.630780 0.000000 
#    z -0.009610 0.000000 1.574420 
# 
# From -- ./inp_files/45287.got.cif
#   From: 2010.05.17/outbox.cif.g08.bks.cpg/sg5_23_cif.got.tgz:45287.got - 2010.06.03 18:56:24.
