data_PCOD9126714
_publ_section_title
;
Structure prediction by ZEFSAII (Michael W. Deem and Ramdas Pophale) SiO2 
 PCOD9126714
Probable space group: C 2
;
_chemical_formula_sum "Si O2"
_cell_formula_units_Z 28
_cell_length_a 15.907470
_cell_length_b 8.043211
_cell_length_c 21.359875
_cell_angle_alpha 90.000000
_cell_angle_beta 154.701692
_cell_angle_gamma 90.000000
_cell_volume 1167.868240
_symmetry_space_group_name_H-M "C 2"
_symmetry_group_IT_number 5
_symmetry_cell_setting 'monoclinic'
loop_
_space_group_symop_operation_xyz
x,y,z
-x,y,-z
1/2+x,1/2+y,z
1/2-x,1/2+y,-z
loop_
_atom_site_type_symbol
_atom_site_label
_atom_site_fract_x
_atom_site_fract_y
_atom_site_fract_z
Si Si1 0.461867 0.470670 0.040502
Si Si2 0.355958 0.096444 0.343599
Si Si3 0.600968 0.585816 0.474834
Si Si4 0.341363 0.716266 0.150989
Si Si5 0.701821 0.983353 0.975602
Si Si6 0.268373 0.973828 0.718861
Si Si7 0.871658 0.409847 0.563394
O O1 0.668068 0.473578 0.215692
O O2 0.500000 0.557471 0.000000
O O3 0.358790 0.294048 0.955910
O O4 0.297046 0.549770 0.974523
O O5 0.500000 0.079588 0.500000
O O6 0.264962 0.282071 0.283628
O O7 0.487613 0.049660 0.371750
O O8 0.680817 0.495717 0.590190
O O9 0.365942 0.579181 0.323851
O O10 0.688778 0.489207 0.475130
O O11 0.673234 0.775103 0.520205
O O12 0.511202 0.797141 0.306651
O O13 0.339650 0.801534 0.080719
O O14 0.339736 0.525319 0.127983
O O15 0.489511 0.034707 0.858360
#
# Coordination Sequence:
#
# PCOD9126714 Si02
#       7
#     4   4   4   4   4   4   4
#     4  10  22  42  70 102 139 185 241 300 364 430
#     4  12  25  45  80 104 141 196 246 305 372 441
#     4  11  25  43  71 101 149 187 235 309 366 432
#     4  10  23  44  68 101 141 186 245 300 357 441
#     4  10  22  41  74  96 141 195 239 297 362 437
#     4  11  24  47  68 104 146 188 246 303 366 441
#     4  12  26  47  71 109 147 194 249 308 368 442
#
# _framework density 23.975307999999998
#
# number of rings (size 3 to 8) (size 9 to 14) (size 15 to 20)
#    0.857    0.286    4.286    1.714    4.000    0.000 
#    2.571    1.429    0.000    0.857    0.000    0.000 
#    0.000    0.000    0.000    0.000    0.000    0.000 
#
# Total GULP energy -77962.083111 kJ/mol
# GULP energy per Si atom -5568.720222 kJ/mol
# Density = 2.392074 g / cm^3
# Si number density = 23.975308 Si / 1000 Ang^3
#
#
#
# Elastic Constant Matrix: (Units=GPa)
#
#
# Indices 1 2 3 4 5 6 
#
# 1 168.6710 52.1148 51.0270 0.0011 46.3275 0.0027
# 2 52.1148 53.6823 9.8207 -0.0028 -3.3917 -0.0078
# 3 51.0270 9.8207 86.5933 0.0003 9.8112 -0.0043
# 4 0.0011 -0.0028 0.0003 316.0139 0.0019 575.8006
# 5 46.3275 -3.3917 9.8112 0.0019 47.6712 0.0032
# 6 0.0027 -0.0078 -0.0043 575.8006 0.0032 1193.3030
#
#
#
# Elastic Compliance Matrix: (Units=1/GPa)
#
#
# Indices 1 2 3 4 5 6 
#
# 1 0.018229 -0.017571 -0.006758 0.000001 -0.017575 -0.000001
# 2 -0.017571 0.036118 0.004128 -0.000001 0.018796 0.000001
# 3 -0.006758 0.004128 0.014626 -0.000001 0.003851 0.000001
# 4 0.000001 -0.000001 -0.000001 0.026195 -0.000001 -0.012640
# 5 -0.017575 0.018796 0.003851 -0.000001 0.038601 0.000001
# 6 -0.000001 0.000001 0.000001 -0.012640 0.000001 0.006937
#
#
# Mechanical properties :
#
#
# Convention : Reuss Voigt Hill
#
# Bulk Modulus (GPa) = 34.99913 59.43017 47.21465
# Shear Modulus (GPa) = 26.22847 324.46322 175.34585
#
# Velocity S-wave (km/s) = 3.31112 11.64586 8.56124
# Velocity P-wave (km/s) = 5.40812 14.34143 10.83800
#
# Compressibility (1/GPa) = 0.02857214
#
# Stress axis : x y z
#
# Youngs Moduli (GPa) = 54.85705 27.68676 68.37146
#
# Poissons Ratio (x) = 0.48648 0.46205
# Poissons Ratio (y) = 0.96389 -0.28225
# Poissons Ratio (z) = 0.37072 -0.11430
#
# Static dielectric constant tensor:
#      x y z
#    x -2.358330 0.000020 -1.590920 
#    y 0.000020 1.980910 0.000010 
#    z -1.590920 0.000010 1.414640 
# 
# From -- ./inp_files/65994.got.cif
#   From: 2010.05.17/outbox.cif.g08.bks.cpg/sg5_33_cif.got.tgz:65994.got - 2010.06.03 18:56:24.
