data_PCOD9126949
_publ_section_title
;
Structure prediction by ZEFSAII (Michael W. Deem and Ramdas Pophale) SiO2 
 PCOD9126949
Probable space group: C 2
;
_chemical_formula_sum "Si O2"
_cell_formula_units_Z 18
_cell_length_a 17.082583
_cell_length_b 8.422167
_cell_length_c 5.513884
_cell_angle_alpha 90.000000
_cell_angle_beta 66.985066
_cell_angle_gamma 90.000000
_cell_volume 730.151580
_symmetry_space_group_name_H-M "C 2"
_symmetry_group_IT_number 5
_symmetry_cell_setting 'monoclinic'
loop_
_space_group_symop_operation_xyz
x,y,z
-x,y,-z
1/2+x,1/2+y,z
1/2-x,1/2+y,-z
loop_
_atom_site_type_symbol
_atom_site_label
_atom_site_fract_x
_atom_site_fract_y
_atom_site_fract_z
Si Si1 0.223484 0.409160 0.360108
Si Si2 0.046857 0.284596 0.683601
Si Si3 0.163431 0.683365 0.072797
Si Si4 0.500000 0.210518 0.000000
Si Si5 0.887993 0.935211 0.476736
O O1 0.136979 0.370700 0.602104
O O2 0.200856 0.550146 0.202726
O O3 0.299228 0.454969 0.445290
O O4 0.260700 0.252458 0.183171
O O5 0.000000 0.354171 0.500000
O O6 0.069355 0.105507 0.575791
O O7 0.000000 0.282252 0.000000
O O8 0.131979 0.841665 0.253267
O O9 0.077988 0.623792 0.040503
O O10 0.449401 0.319323 0.251140
#
# Coordination Sequence:
#
# PCOD9126949 Si02
#       5
#     4   4   4   2   4
#     4  11  27  46  74 109 150 198 253 315 378 453
#     4  12  28  50  76 114 154 199 252 313 386 452
#     4  11  24  46  75 109 149 195 257 308 383 447
#     4  10  22  42  72 110 140 194 240 314 366 456
#     4  11  23  45  78 105 147 194 257 304 382 445
#
# _framework density 24.652415999999999
#
# number of rings (size 3 to 8) (size 9 to 14) (size 15 to 20)
#    0.000    0.889    1.111    4.667    9.333    3.556 
#    4.000    0.000    0.000    0.000    0.000    0.000 
#    0.000    0.000    0.000    0.000    0.000    0.000 
#
# Total GULP energy -50438.954971 kJ/mol
# GULP energy per Si atom -5604.328330 kJ/mol
# Density = 2.459631 g / cm^3
# Si number density = 24.652416 Si / 1000 Ang^3
#
#
#
# Elastic Constant Matrix: (Units=GPa)
#
#
# Indices 1 2 3 4 5 6 
#
# 1 237.6132 48.8721 70.0435 0.0000 -9.3047 0.0000
# 2 48.8721 105.2855 49.2923 0.0000 -2.8643 0.0000
# 3 70.0435 49.2923 140.6235 0.0000 -39.2920 0.0000
# 4 0.0000 0.0000 0.0000 56.6893 0.0000 3.6238
# 5 -9.3047 -2.8643 -39.2920 0.0000 32.9068 0.0000
# 6 0.0000 0.0000 0.0000 3.6238 0.0000 41.1880
#
#
#
# Elastic Compliance Matrix: (Units=1/GPa)
#
#
# Indices 1 2 3 4 5 6 
#
# 1 0.005169 -0.001203 -0.002662 0.000000 -0.001822 0.000000
# 2 -0.001203 0.012389 -0.005308 0.000000 -0.005600 0.000000
# 3 -0.002662 -0.005308 0.014944 0.000000 0.016629 0.000000
# 4 0.000000 0.000000 0.000000 0.017740 0.000000 -0.001561
# 5 -0.001822 -0.005600 0.016629 0.000000 0.049242 0.000000
# 6 0.000000 0.000000 0.000000 -0.001561 0.000000 0.024416
#
#
# Mechanical properties :
#
#
# Convention : Reuss Voigt Hill
#
# Bulk Modulus (GPa) = 70.64067 91.10424 80.87246
# Shear Modulus (GPa) = 34.02122 47.17776 40.59949
#
# Velocity S-wave (km/s) = 3.71891 4.37935 4.06258
# Velocity P-wave (km/s) = 6.86712 7.91248 7.40826
#
# Compressibility (1/GPa) = 0.01415615
#
# Stress axis : x y z
#
# Youngs Moduli (GPa) = 193.44854 80.71550 66.91430
#
# Poissons Ratio (x) = 0.09707 0.17815
# Poissons Ratio (y) = 0.23266 0.35521
# Poissons Ratio (z) = 0.51502 0.42847
#
# Static dielectric constant tensor:
#      x y z
#    x 1.909240 0.000000 0.010700 
#    y 0.000000 1.931130 0.000000 
#    z 0.010700 0.000000 1.946610 
# 
# From -- ./inp_files/7986.got.cif
#   From: 2010.05.17/outbox.cif.g08.bks.cpg/sg5_4_cif.got.tgz:7986.got - 2010.06.03 18:56:24.
