data_PCOD9126378
_publ_section_title
;
Structure prediction by ZEFSAII (Michael W. Deem and Ramdas Pophale) SiO2 
 PCOD9126378
Probable space group: C 2
;
_chemical_formula_sum "Si O2"
_cell_formula_units_Z 28
_cell_length_a 9.294740
_cell_length_b 13.534948
_cell_length_c 12.897804
_cell_angle_alpha 90.000000
_cell_angle_beta 122.062338
_cell_angle_gamma 90.000000
_cell_volume 1375.100617
_symmetry_space_group_name_H-M "C 2"
_symmetry_group_IT_number 5
_symmetry_cell_setting 'monoclinic'
loop_
_space_group_symop_operation_xyz
x,y,z
-x,y,-z
1/2+x,1/2+y,z
1/2-x,1/2+y,-z
loop_
_atom_site_type_symbol
_atom_site_label
_atom_site_fract_x
_atom_site_fract_y
_atom_site_fract_z
Si Si1 0.345677 0.300020 0.192868
Si Si2 0.461633 0.177583 0.597515
Si Si3 0.400042 0.974040 0.350417
Si Si4 0.555760 0.815826 0.261987
Si Si5 0.632898 0.690156 0.961708
Si Si6 0.093573 0.134088 0.428226
Si Si7 0.504208 0.497440 0.207147
O O1 0.518574 0.262190 0.312134
O O2 0.208252 0.313619 0.234939
O O3 0.376410 0.406301 0.156155
O O4 0.301746 0.217573 0.089149
O O5 0.500000 0.221546 0.500000
O O6 0.289244 0.116819 0.529309
O O7 0.599609 0.092396 0.667533
O O8 0.500000 0.956207 0.500000
O O9 0.501012 0.915415 0.299460
O O10 0.196752 0.955766 0.265707
O O11 0.395473 0.767728 0.141252
O O12 0.597179 0.736595 0.367002
O O13 0.571596 0.583170 0.897105
O O14 0.500000 0.717145 0.000000
O O15 0.000000 0.143484 0.500000
O O16 0.016544 0.051053 0.324146
#
# Coordination Sequence:
#
# PCOD9126378 Si02
#       7
#     4   4   4   4   4   4   4
#     4  11  24  40  68  94 122 173 215 259 316 381
#     4  11  21  40  60  90 134 170 207 252 321 384
#     4  11  22  38  63  99 131 167 209 257 319 379
#     4  10  22  40  63  90 129 167 211 259 309 373
#     4   9  21  45  66  85 125 171 212 261 316 369
#     4  11  23  39  62  91 132 173 204 260 315 376
#     4  11  24  41  67  95 126 167 215 260 319 375
#
# _framework density 20.362147
#
# number of rings (size 3 to 8) (size 9 to 14) (size 15 to 20)
#    0.000    1.429    4.286    2.143    6.000    2.857 
#    0.000    0.000    0.000    1.714    0.000    0.000 
#    0.000    0.000    0.000    0.000    0.000    0.000 
#
# Total GULP energy -77939.368722 kJ/mol
# GULP energy per Si atom -5567.097766 kJ/mol
# Density = 2.031580 g / cm^3
# Si number density = 20.362147 Si / 1000 Ang^3
#
#
#
# Elastic Constant Matrix: (Units=GPa)
#
#
# Indices 1 2 3 4 5 6 
#
# 1 59.8288 2.6250 32.2301 0.0000 -6.1413 0.0000
# 2 2.6250 56.4649 38.4340 0.0000 -3.4587 0.0000
# 3 32.2301 38.4340 89.7057 0.0000 -3.6638 0.0000
# 4 0.0000 0.0000 0.0000 19.3748 0.0000 -6.5170
# 5 -6.1413 -3.4587 -3.6638 0.0000 19.1223 0.0000
# 6 0.0000 0.0000 0.0000 -6.5170 0.0000 30.8638
#
#
#
# Elastic Compliance Matrix: (Units=1/GPa)
#
#
# Indices 1 2 3 4 5 6 
#
# 1 0.022933 0.006719 -0.010853 0.000000 0.006501 0.000000
# 2 0.006719 0.027088 -0.013840 0.000000 0.004406 0.000000
# 3 -0.010853 -0.013840 0.020896 0.000000 -0.001985 0.000000
# 4 0.000000 0.000000 0.000000 0.055559 0.000000 0.011732
# 5 0.006501 0.004406 -0.001985 0.000000 0.054799 0.000000
# 6 0.000000 0.000000 0.000000 0.011732 0.000000 0.034878
#
#
# Mechanical properties :
#
#
# Convention : Reuss Voigt Hill
#
# Bulk Modulus (GPa) = 28.59616 39.17530 33.88573
# Shear Modulus (GPa) = 18.95681 22.71953 20.83817
#
# Velocity S-wave (km/s) = 3.05451 3.34394 3.20250
# Velocity P-wave (km/s) = 5.14921 5.84725 5.50929
#
# Compressibility (1/GPa) = 0.03496973
#
# Stress axis : x y z
#
# Youngs Moduli (GPa) = 43.60439 36.91657 47.85708
#
# Poissons Ratio (x) = -0.24806 0.51940
# Poissons Ratio (y) = -0.29300 0.66234
# Poissons Ratio (z) = 0.47324 0.51093
#
# Static dielectric constant tensor:
#      x y z
#    x 1.829570 0.000000 0.065390 
#    y 0.000000 1.696840 0.000000 
#    z 0.065390 0.000000 1.794170 
# 
# From -- ./inp_files/36310.got.cif
#   From: 2010.05.17/outbox.cif.g08.bks.cpg/sg5_19_cif.got.tgz:36310.got - 2010.06.03 18:56:24.
