data_PCOD9126733
_publ_section_title
;
Structure prediction by ZEFSAII (Michael W. Deem and Ramdas Pophale) SiO2 
 PCOD9126733
Probable space group: C 2
;
_chemical_formula_sum "Si O2"
_cell_formula_units_Z 32
_cell_length_a 30.916843
_cell_length_b 9.305925
_cell_length_c 5.387722
_cell_angle_alpha 90.000000
_cell_angle_beta 94.398097
_cell_angle_gamma 90.000000
_cell_volume 1545.535957
_symmetry_space_group_name_H-M "C 2"
_symmetry_group_IT_number 5
_symmetry_cell_setting 'monoclinic'
loop_
_space_group_symop_operation_xyz
x,y,z
-x,y,-z
1/2+x,1/2+y,z
1/2-x,1/2+y,-z
loop_
_atom_site_type_symbol
_atom_site_label
_atom_site_fract_x
_atom_site_fract_y
_atom_site_fract_z
Si Si1 0.472779 0.625000 0.238346
Si Si2 0.116673 0.622145 0.858701
Si Si3 0.815242 0.352910 0.540264
Si Si4 0.263928 0.342822 0.818399
Si Si5 0.703320 0.642506 0.076988
Si Si6 0.667539 0.154850 0.361397
Si Si7 0.526600 0.281417 0.760668
Si Si8 0.617873 0.790623 0.801830
O O1 0.500000 0.661233 0.500000
O O2 0.464910 0.453097 0.238913
O O3 0.426758 0.705356 0.213333
O O4 0.500000 0.657823 0.000000
O O5 0.145704 0.644328 0.622541
O O6 0.070738 0.693413 0.783839
O O7 0.111982 0.451122 0.904489
O O8 0.136150 0.692062 0.117329
O O9 0.781056 0.398996 0.315731
O O10 0.799133 0.203742 0.646026
O O11 0.815613 0.494925 0.705983
O O12 0.863368 0.322093 0.464512
O O13 0.290210 0.473985 0.945586
O O14 0.294138 0.269300 0.627022
O O15 0.245995 0.219230 0.987805
O O16 0.658289 0.703176 0.941365
O O17 0.500000 0.246632 0.500000
O O18 0.500000 0.249984 0.000000
#
# Coordination Sequence:
#
# PCOD9126733 Si02
#       8
#     4   4   4   4   4   4   4   4
#     4  10  24  42  67  95 134 169 216 270 327 399
#     4  11  24  42  67  94 133 166 217 274 324 394
#     4  10  22  42  62  90 134 168 227 273 325 383
#     4  11  25  38  65  92 128 183 219 275 328 391
#     4  11  23  42  64  93 133 171 228 274 328 396
#     4  11  24  42  62  96 128 171 215 270 326 382
#     4  10  22  43  66  95 128 168 213 269 329 396
#     4  10  24  41  63  99 128 174 215 279 325 391
#
# _framework density 20.704789999999999
#
# number of rings (size 3 to 8) (size 9 to 14) (size 15 to 20)
#    0.000    1.500    1.250    2.250    8.750    3.000 
#    0.000    0.000    0.000    0.000    0.000    0.000 
#    0.000    0.000    0.000    0.000    0.000    0.000 
#
# Total GULP energy -89281.986276 kJ/mol
# GULP energy per Si atom -5580.124142 kJ/mol
# Density = 2.065766 g / cm^3
# Si number density = 20.704790 Si / 1000 Ang^3
#
#
#
# Elastic Constant Matrix: (Units=GPa)
#
#
# Indices 1 2 3 4 5 6 
#
# 1 135.6141 68.8487 39.9261 0.0000 -1.4098 0.0000
# 2 68.8487 87.9369 24.8654 0.0000 -7.4707 0.0000
# 3 39.9261 24.8654 85.7211 0.0000 4.9685 0.0000
# 4 0.0000 0.0000 0.0000 12.4462 0.0000 1.7562
# 5 -1.4098 -7.4707 4.9685 0.0000 26.6858 0.0000
# 6 0.0000 0.0000 0.0000 1.7562 0.0000 43.3753
#
#
#
# Elastic Compliance Matrix: (Units=1/GPa)
#
#
# Indices 1 2 3 4 5 6 
#
# 1 0.013136 -0.009467 -0.003294 0.000000 -0.001343 0.000000
# 2 -0.009467 0.019691 -0.001610 0.000000 0.005312 0.000000
# 3 -0.003294 -0.001610 0.013853 0.000000 -0.003204 0.000000
# 4 0.000000 0.000000 0.000000 0.080807 0.000000 -0.003272
# 5 -0.001343 0.005312 -0.003204 0.000000 0.039486 0.000000
# 6 0.000000 0.000000 0.000000 -0.003272 0.000000 0.023187
#
#
# Mechanical properties :
#
#
# Convention : Reuss Voigt Hill
#
# Bulk Modulus (GPa) = 55.75299 64.06138 59.90719
# Shear Modulus (GPa) = 22.23389 28.21025 25.22207
#
# Velocity S-wave (km/s) = 3.28052 3.69521 3.49402
# Velocity P-wave (km/s) = 6.42924 7.01524 6.72862
#
# Compressibility (1/GPa) = 0.01793626
#
# Stress axis : x y z
#
# Youngs Moduli (GPa) = 76.12569 50.78565 72.18719
#
# Poissons Ratio (x) = 0.48080 0.23781
# Poissons Ratio (y) = 0.72071 0.11622
# Poissons Ratio (z) = 0.25078 0.08177
#
# Static dielectric constant tensor:
#      x y z
#    x 1.704780 0.000000 0.005290 
#    y 0.000000 1.736010 0.000000 
#    z 0.005290 0.000000 1.824320 
# 
# From -- ./inp_files/11239.got.cif
#   From: 2010.05.17/outbox.cif.g08.bks.cpg/sg5_6_cif.got.tgz:11239.got - 2010.06.03 18:56:24.
