data_PCOD9126721
_publ_section_title
;
Structure prediction by ZEFSAII (Michael W. Deem and Ramdas Pophale) SiO2 
 PCOD9126721
Probable space group: C 2
;
_chemical_formula_sum "Si O2"
_cell_formula_units_Z 30
_cell_length_a 7.230335
_cell_length_b 8.272625
_cell_length_c 18.936735
_cell_angle_alpha 90.000000
_cell_angle_beta 99.449144
_cell_angle_gamma 90.000000
_cell_volume 1117.310511
_symmetry_space_group_name_H-M "C 2"
_symmetry_group_IT_number 5
_symmetry_cell_setting 'monoclinic'
loop_
_space_group_symop_operation_xyz
x,y,z
-x,y,-z
1/2+x,1/2+y,z
1/2-x,1/2+y,-z
loop_
_atom_site_type_symbol
_atom_site_label
_atom_site_fract_x
_atom_site_fract_y
_atom_site_fract_z
Si Si1 0.323277 0.587210 0.740949
Si Si2 0.828333 0.255264 0.608504
Si Si3 0.241159 0.604777 0.214833
Si Si4 0.811406 0.883540 0.013189
Si Si5 0.500000 0.673466 0.000000
Si Si6 0.255714 0.270719 0.648922
Si Si7 0.867890 0.442330 0.148431
Si Si8 0.300230 0.465631 0.518112
O O1 0.282481 0.743600 0.688784
O O2 0.544638 0.547295 0.762131
O O3 0.240796 0.438644 0.690939
O O4 0.232702 0.581362 0.811761
O O5 0.813232 0.410164 0.557770
O O6 0.046374 0.209364 0.623166
O O7 0.723191 0.115793 0.557792
O O8 0.159773 0.649458 0.288110
O O9 0.284205 0.774264 0.175730
O O10 0.087672 0.486609 0.170830
O O11 0.662989 0.778208 0.044010
O O12 0.697171 0.935811 0.936288
O O13 0.897469 0.050028 0.047487
O O14 0.000000 0.791213 0.000000
O O15 0.333037 0.322643 0.577851
O O16 0.500000 0.510783 0.500000
#
# Coordination Sequence:
#
# PCOD9126721 Si02
#       8
#     4   4   4   4   2   4   4   4
#     4   9  22  44  65  98 132 183 228 297 363 431
#     4  10  22  42  60  88 129 168 231 288 353 428
#     4  10  24  43  67 102 139 183 237 299 353 438
#     4  10  27  46  77 112 157 201 251 309 369 445
#     4  10  26  44  74 108 154 196 248 300 370 432
#     4   9  20  43  59  85 130 169 223 285 353 429
#     4  11  25  42  74 102 143 188 241 296 362 433
#     4  11  22  35  60  89 117 169 219 288 349 422
#
# _framework density 26.850190999999999
#
# number of rings (size 3 to 8) (size 9 to 14) (size 15 to 20)
#    0.400    1.600    0.000    1.200    6.533    5.333 
#   24.000    0.000    0.000    0.000    0.000    0.000 
#    0.000    0.000    0.000    0.000    0.000    0.000 
#
# Total GULP energy -83769.347590 kJ/mol
# GULP energy per Si atom -5584.623173 kJ/mol
# Density = 2.678908 g / cm^3
# Si number density = 26.850191 Si / 1000 Ang^3
#
#
#
# Elastic Constant Matrix: (Units=GPa)
#
#
# Indices 1 2 3 4 5 6 
#
# 1 107.6755 47.9918 21.8372 0.0000 13.1754 0.0000
# 2 47.9918 77.9214 46.3405 0.0000 -0.0025 0.0000
# 3 21.8372 46.3405 129.5978 0.0000 16.3620 0.0000
# 4 0.0000 0.0000 0.0000 37.8108 0.0000 12.5008
# 5 13.1754 -0.0025 16.3620 0.0000 34.3301 0.0000
# 6 0.0000 0.0000 0.0000 12.5008 0.0000 42.1163
#
#
#
# Elastic Compliance Matrix: (Units=1/GPa)
#
#
# Indices 1 2 3 4 5 6 
#
# 1 0.014031 -0.009792 0.001933 0.000000 -0.006307 0.000000
# 2 -0.009792 0.023420 -0.007660 0.000000 0.007410 0.000000
# 3 0.001933 -0.007660 0.010878 0.000000 -0.005927 0.000000
# 4 0.000000 0.000000 0.000000 0.029325 0.000000 -0.008704
# 5 -0.006307 0.007410 -0.005927 0.000000 0.034375 0.000000
# 6 0.000000 0.000000 0.000000 -0.008704 0.000000 0.026327
#
#
# Mechanical properties :
#
#
# Convention : Reuss Voigt Hill
#
# Bulk Modulus (GPa) = 57.83062 60.83707 59.33384
# Shear Modulus (GPa) = 28.54590 36.11978 32.33284
#
# Velocity S-wave (km/s) = 3.26414 3.67172 3.47391
# Velocity P-wave (km/s) = 5.98257 6.37829 6.18360
#
# Compressibility (1/GPa) = 0.01729188
#
# Stress axis : x y z
#
# Youngs Moduli (GPa) = 71.27052 42.69893 91.93141
#
# Poissons Ratio (x) = 0.41809 -0.17773
# Poissons Ratio (y) = 0.69786 0.70419
# Poissons Ratio (z) = -0.13778 0.32707
#
# Static dielectric constant tensor:
#      x y z
#    x 2.089340 0.000000 -0.024590 
#    y 0.000000 2.250730 0.000000 
#    z -0.024590 0.000000 2.087740 
# 
# From -- ./inp_files/64328.got.cif
#   From: 2010.05.17/outbox.cif.g08.bks.cpg/sg5_33_cif.got.tgz:64328.got - 2010.06.03 18:56:24.
