data_PCOD9126662
_publ_section_title
;
Structure prediction by ZEFSAII (Michael W. Deem and Ramdas Pophale) SiO2 
 PCOD9126662
Probable space group: C 2
;
_chemical_formula_sum "Si O2"
_cell_formula_units_Z 24
_cell_length_a 22.289171
_cell_length_b 5.430142
_cell_length_c 8.877944
_cell_angle_alpha 90.000000
_cell_angle_beta 97.596471
_cell_angle_gamma 90.000000
_cell_volume 1065.097032
_symmetry_space_group_name_H-M "C 2"
_symmetry_group_IT_number 5
_symmetry_cell_setting 'monoclinic'
loop_
_space_group_symop_operation_xyz
x,y,z
-x,y,-z
1/2+x,1/2+y,z
1/2-x,1/2+y,-z
loop_
_atom_site_type_symbol
_atom_site_label
_atom_site_fract_x
_atom_site_fract_y
_atom_site_fract_z
Si Si1 0.996160 0.199340 0.180298
Si Si2 0.389788 0.420841 0.747864
Si Si3 0.303032 0.973440 0.144359
Si Si4 0.672234 0.474192 0.953426
Si Si5 0.736440 0.327328 0.425917
Si Si6 0.994699 0.697976 0.317590
O O1 0.066251 0.155023 0.255664
O O2 0.969656 0.440377 0.249899
O O3 0.966524 0.944705 0.232628
O O4 0.000000 0.209479 0.000000
O O5 0.332850 0.405211 0.621486
O O6 0.437313 0.207207 0.728522
O O7 0.363349 0.410275 0.906557
O O8 0.344239 0.748526 0.102699
O O9 0.275154 0.894301 0.292566
O O10 0.332798 0.241698 0.158074
O O11 0.244370 0.997058 0.015057
O O12 0.760033 0.532767 0.551677
O O13 0.000000 0.715975 0.500000
#
# Coordination Sequence:
#
# PCOD9126662 Si02
#       6
#     4   4   4   4   4   4
#     4  10  22  41  68  94 124 164 220 271 328 387
#     4   9  24  38  68  86 127 167 211 254 332 374
#     4   9  18  32  52  81 114 152 192 246 286 348
#     4   9  17  32  56  81 110 149 197 240 302 352
#     4  11  23  38  60  88 130 170 207 247 302 388
#     4  10  22  41  68  94 131 172 211 272 338 390
#
# _framework density 22.533159000000001
#
# number of rings (size 3 to 8) (size 9 to 14) (size 15 to 20)
#    1.000    1.333    0.000    2.000    4.667    2.667 
#    0.000    5.000    0.000    0.000    0.000    0.000 
#    0.000    0.000    0.000    0.000    0.000    0.000 
#
# Total GULP energy -66878.739189 kJ/mol
# GULP energy per Si atom -5573.228266 kJ/mol
# Density = 2.248187 g / cm^3
# Si number density = 22.533159 Si / 1000 Ang^3
#
#
#
# Elastic Constant Matrix: (Units=GPa)
#
#
# Indices 1 2 3 4 5 6 
#
# 1 65.9900 5.0427 -9.5494 0.0000 3.2686 0.0000
# 2 5.0427 112.7685 47.7104 0.0000 -26.0350 0.0000
# 3 -9.5494 47.7104 10.0179 0.0000 22.3793 0.0000
# 4 0.0000 0.0000 0.0000 7.7560 0.0000 -3.6642
# 5 3.2686 -26.0350 22.3793 0.0000 -1.3067 0.0000
# 6 0.0000 0.0000 0.0000 -3.6642 0.0000 20.9771
#
#
#
# Elastic Compliance Matrix: (Units=1/GPa)
#
#
# Indices 1 2 3 4 5 6 
#
# 1 0.014720 0.000843 -0.000885 0.000000 0.004880 0.000000
# 2 0.000843 0.004427 0.004382 0.000000 -0.011040 0.000000
# 3 -0.000885 0.004382 0.007084 0.000000 0.031793 0.000000
# 4 0.000000 0.000000 0.000000 0.140529 0.000000 0.024547
# 5 0.004880 -0.011040 0.031793 0.000000 0.011387 0.000000
# 6 0.000000 0.000000 0.000000 0.024547 0.000000 0.051959
#
#
# Mechanical properties :
#
#
# Convention : Reuss Voigt Hill
#
# Bulk Modulus (GPa) = 28.64342 30.57597 29.60970
# Shear Modulus (GPa) = 21.45353 15.19012 18.32182
#
# Velocity S-wave (km/s) = 3.08894 2.59920 2.85459
# Velocity P-wave (km/s) = 5.04592 4.75464 4.90244
#
# Compressibility (1/GPa) = 0.03491203
#
# Stress axis : x y z
#
# Youngs Moduli (GPa) = 67.93630 225.88506 141.16391
#
# Poissons Ratio (x) = -0.19036 0.12486
# Poissons Ratio (y) = -0.05725 -0.61865
# Poissons Ratio (z) = 0.06009 -0.98994
#
# Static dielectric constant tensor:
#      x y z
#    x 1.908820 0.000000 0.068000 
#    y 0.000000 1.933740 0.000000 
#    z 0.068000 0.000000 1.813460 
# 
# From -- ./inp_files/30289.got.cif
#   From: 2010.05.17/outbox.cif.g08.bks.cpg/sg5_16_cif.got.tgz:30289.got - 2010.06.03 18:56:24.
