data_PCOD9126633
_publ_section_title
;
Structure prediction by ZEFSAII (Michael W. Deem and Ramdas Pophale) SiO2 
 PCOD9126633
Probable space group: C 2
;
_chemical_formula_sum "Si O2"
_cell_formula_units_Z 30
_cell_length_a 19.992834
_cell_length_b 12.696991
_cell_length_c 10.756416
_cell_angle_alpha 90.000000
_cell_angle_beta 150.895062
_cell_angle_gamma 90.000000
_cell_volume 1328.146150
_symmetry_space_group_name_H-M "C 2"
_symmetry_group_IT_number 5
_symmetry_cell_setting 'monoclinic'
loop_
_space_group_symop_operation_xyz
x,y,z
-x,y,-z
1/2+x,1/2+y,z
1/2-x,1/2+y,-z
loop_
_atom_site_type_symbol
_atom_site_label
_atom_site_fract_x
_atom_site_fract_y
_atom_site_fract_z
Si Si1 0.201208 0.064590 0.683726
Si Si2 0.186327 0.454842 0.379980
Si Si3 0.015258 0.642317 0.889659
Si Si4 0.064078 0.171179 0.848074
Si Si5 0.495102 0.316461 0.289403
Si Si6 0.225732 0.858906 0.866099
Si Si7 0.000000 0.274683 0.000000
Si Si8 0.891527 0.979470 0.925948
O O1 0.051206 0.119365 0.431187
O O2 0.228707 0.013932 0.590672
O O3 0.245522 0.984332 0.868348
O O4 0.325033 0.147077 0.886075
O O5 0.268983 0.437664 0.640781
O O6 0.057688 0.529445 0.212144
O O7 0.131343 0.351151 0.223642
O O8 0.950159 0.706383 0.673875
O O9 0.000000 0.693195 0.000000
O O10 0.994956 0.214912 0.861752
O O11 0.152338 0.272275 0.945647
O O12 0.148495 0.071293 0.041180
O O13 0.613891 0.347041 0.575682
O O14 0.355332 0.330174 0.140529
O O15 0.468529 0.390185 0.128591
O O16 0.000000 0.020671 0.000000
#
# Coordination Sequence:
#
# PCOD9126633 Si02
#       8
#     4   4   4   4   4   4   2   4
#     4  11  21  43  68 101 134 177 226 290 352 406
#     4  11  20  40  67 101 142 174 223 299 356 410
#     4  10  22  41  66  98 134 179 226 285 356 413
#     4  12  23  40  70 103 133 181 236 287 347 424
#     4  11  25  43  64  94 135 189 226 285 346 418
#     4  11  24  46  67  92 140 181 232 280 345 416
#     4  12  22  38  68 104 140 180 228 290 366 414
#     4  12  23  39  65 104 135 175 234 294 348 412
#
# _framework density 22.587875
#
# number of rings (size 3 to 8) (size 9 to 14) (size 15 to 20)
#    0.000    0.800    6.667    1.200    1.867    2.133 
#    0.000    0.000    0.000    0.000    0.000    0.000 
#    0.000    0.000    0.000    0.000    0.000    0.000 
#
# Total GULP energy -83568.646750 kJ/mol
# GULP energy per Si atom -5571.243117 kJ/mol
# Density = 2.253646 g / cm^3
# Si number density = 22.587875 Si / 1000 Ang^3
#
#
#
# Elastic Constant Matrix: (Units=GPa)
#
#
# Indices 1 2 3 4 5 6 
#
# 1 59.4278 20.6299 4.0655 0.0000 8.3271 0.0000
# 2 20.6299 69.5216 15.8043 0.0000 1.9048 0.0000
# 3 4.0655 15.8043 72.6388 0.0000 2.3138 0.0000
# 4 0.0000 0.0000 0.0000 31.4170 0.0000 6.6897
# 5 8.3271 1.9048 2.3138 0.0000 24.6415 0.0000
# 6 0.0000 0.0000 0.0000 6.6897 0.0000 8.6335
#
#
#
# Elastic Compliance Matrix: (Units=1/GPa)
#
#
# Indices 1 2 3 4 5 6 
#
# 1 0.019672 -0.005746 0.000348 0.000000 -0.006236 0.000000
# 2 -0.005746 0.016829 -0.003370 0.000000 0.000957 0.000000
# 3 0.000348 -0.003370 0.014519 0.000000 -0.001220 0.000000
# 4 0.000000 0.000000 0.000000 0.038119 0.000000 -0.029537
# 5 -0.006236 0.000957 -0.001220 0.000000 0.042730 0.000000
# 6 0.000000 0.000000 0.000000 -0.029537 0.000000 0.138714
#
#
# Mechanical properties :
#
#
# Convention : Reuss Voigt Hill
#
# Bulk Modulus (GPa) = 29.86543 31.39862 30.63202
# Shear Modulus (GPa) = 16.70668 23.67763 20.19215
#
# Velocity S-wave (km/s) = 2.72256 3.24117 2.99312
# Velocity P-wave (km/s) = 4.80975 5.28562 5.05329
#
# Compressibility (1/GPa) = 0.03348353
#
# Stress axis : x y z
#
# Youngs Moduli (GPa) = 50.83438 59.42139 68.87297
#
# Poissons Ratio (x) = 0.34141 -0.02395
# Poissons Ratio (y) = 0.29207 0.23213
# Poissons Ratio (z) = -0.01768 0.20028
#
# Static dielectric constant tensor:
#      x y z
#    x 1.844110 0.000000 0.044900 
#    y 0.000000 1.951030 0.000000 
#    z 0.044900 0.000000 1.888120 
# 
# From -- ./inp_files/46499.got.cif
#   From: 2010.05.17/outbox.cif.g08.bks.cpg/sg5_24_cif.got.tgz:46499.got - 2010.06.03 18:56:24.
