data_PCOD9126047
_publ_section_title
;
Structure prediction by ZEFSAII (Michael W. Deem and Ramdas Pophale) SiO2 
 PCOD9126047
Probable space group: C 2
;
_chemical_formula_sum "Si O2"
_cell_formula_units_Z 18
_cell_length_a 9.603112
_cell_length_b 18.327251
_cell_length_c 5.255175
_cell_angle_alpha 90.000000
_cell_angle_beta 97.282074
_cell_angle_gamma 90.000000
_cell_volume 917.443538
_symmetry_space_group_name_H-M "C 2"
_symmetry_group_IT_number 5
_symmetry_cell_setting 'monoclinic'
loop_
_space_group_symop_operation_xyz
x,y,z
-x,y,-z
1/2+x,1/2+y,z
1/2-x,1/2+y,-z
loop_
_atom_site_type_symbol
_atom_site_label
_atom_site_fract_x
_atom_site_fract_y
_atom_site_fract_z
Si Si1 0.279844 0.824160 0.172604
Si Si2 0.346263 0.281937 0.364487
Si Si3 0.156842 0.174884 0.584835
Si Si4 0.414972 0.077519 0.740142
Si Si5 0.500000 0.934806 0.000000
O O1 0.209435 0.837320 0.430178
O O2 0.350482 0.744391 0.227128
O O3 0.393798 0.883658 0.126742
O O4 0.169123 0.814455 0.918210
O O5 0.500000 0.260540 0.500000
O O6 0.239877 0.213478 0.369113
O O7 0.262254 0.112532 0.698308
O O8 0.000000 0.149453 0.500000
O O9 0.500000 0.089261 0.500000
O O10 0.500000 0.111042 0.000000
O O11 0.416275 0.991152 0.800158
#
# Coordination Sequence:
#
# PCOD9126047 Si02
#       5
#     4   4   4   4   2
#     4  10  23  36  68  95 130 169 219 273 316 388
#     4  10  22  37  65  99 134 163 221 269 332 376
#     4  10  23  39  66 102 130 169 219 281 319 383
#     4  10  25  41  69  90 134 178 217 257 332 404
#     4  10  24  44  68  96 132 180 218 262 340 400
#
# _framework density 19.619734000000001
#
# number of rings (size 3 to 8) (size 9 to 14) (size 15 to 20)
#    2.000    0.000    0.000    2.667    9.333    0.000 
#    0.000    1.111    4.889    0.000    0.000    0.000 
#    0.000    0.000    0.000    0.000    0.000    0.000 
#
# Total GULP energy -50111.335899 kJ/mol
# GULP energy per Si atom -5567.926211 kJ/mol
# Density = 1.957508 g / cm^3
# Si number density = 19.619734 Si / 1000 Ang^3
#
#
#
# Elastic Constant Matrix: (Units=GPa)
#
#
# Indices 1 2 3 4 5 6 
#
# 1 142.7750 59.5505 30.2440 0.0000 22.6040 0.0000
# 2 59.5505 107.5701 27.5275 0.0000 7.4391 0.0000
# 3 30.2440 27.5275 95.4491 0.0000 9.3946 0.0000
# 4 0.0000 0.0000 0.0000 0.0368 0.0000 -20.3562
# 5 22.6040 7.4391 9.3946 0.0000 26.6921 0.0000
# 6 0.0000 0.0000 0.0000 -20.3562 0.0000 -60.8875
#
#
#
# Elastic Compliance Matrix: (Units=1/GPa)
#
#
# Indices 1 2 3 4 5 6 
#
# 1 0.010454 -0.004999 -0.001177 0.000000 -0.007045 0.000000
# 2 -0.004999 0.012515 -0.002174 0.000000 0.001510 0.000000
# 3 -0.001177 -0.002174 0.011725 0.000000 -0.002524 0.000000
# 4 0.000000 0.000000 0.000000 0.146149 0.000000 -0.048861
# 5 -0.007045 0.001510 -0.002524 0.000000 0.043898 0.000000
# 6 0.000000 0.000000 0.000000 -0.048861 0.000000 -0.000088
#
#
# Mechanical properties :
#
#
# Convention : Reuss Voigt Hill
#
# Bulk Modulus (GPa) = 55.57392 64.49311 60.03352
# Shear Modulus (GPa) = 20.21415 8.39976 14.30695
#
# Velocity S-wave (km/s) = 3.21331 2.07137 2.70332
# Velocity P-wave (km/s) = 6.49262 6.21801 6.35680
#
# Compressibility (1/GPa) = 0.01799405
#
# Stress axis : x y z
#
# Youngs Moduli (GPa) = 95.65999 79.90128 85.28566
#
# Poissons Ratio (x) = 0.39940 0.10041
# Poissons Ratio (y) = 0.47817 0.18543
# Poissons Ratio (z) = 0.11262 0.17372
#
# Static dielectric constant tensor:
#      x y z
#    x 1.682220 0.000000 -0.000510 
#    y 0.000000 1.683770 0.000000 
#    z -0.000510 0.000000 1.741700 
# 
# From -- ./inp_files/2694.got.cif
#   From: 2010.05.17/outbox.cif.g08.bks.cpg/sg5_2_cif.got.tgz:2694.got - 2010.06.03 18:56:24.
