data_PCOD9126129
_publ_section_title
;
Structure prediction by ZEFSAII (Michael W. Deem and Ramdas Pophale) SiO2 
 PCOD9126129
Probable space group: C 2
;
_chemical_formula_sum "Si O2"
_cell_formula_units_Z 22
_cell_length_a 13.648651
_cell_length_b 4.835779
_cell_length_c 13.128350
_cell_angle_alpha 90.000000
_cell_angle_beta 92.449206
_cell_angle_gamma 90.000000
_cell_volume 865.703972
_symmetry_space_group_name_H-M "C 2"
_symmetry_group_IT_number 5
_symmetry_cell_setting 'monoclinic'
loop_
_space_group_symop_operation_xyz
x,y,z
-x,y,-z
1/2+x,1/2+y,z
1/2-x,1/2+y,-z
loop_
_atom_site_type_symbol
_atom_site_label
_atom_site_fract_x
_atom_site_fract_y
_atom_site_fract_z
Si Si1 0.339615 0.657040 0.263422
Si Si2 0.940280 0.946537 0.726243
Si Si3 0.000000 0.869127 0.000000
Si Si4 0.379193 0.897963 0.055486
Si Si5 0.345161 0.928330 0.826483
Si Si6 0.767087 0.994128 0.568237
O O1 0.446648 0.524874 0.281770
O O2 0.259259 0.425385 0.233484
O O3 0.305479 0.842895 0.355980
O O4 0.331037 0.849769 0.161713
O O5 0.900627 0.139905 0.816090
O O6 0.906352 0.644180 0.759967
O O7 0.917931 0.094592 0.027006
O O8 0.964105 0.626711 0.077360
O O9 0.331216 0.999181 0.946274
O O10 0.373254 0.519171 0.625953
O O11 0.771771 0.785670 0.472912
#
# Coordination Sequence:
#
# PCOD9126129 Si02
#       6
#     4   4   2   4   4   4
#     4  11  27  46  75 105 139 192 240 281 354 424
#     4  11  25  49  76 104 142 185 232 290 355 423
#     4  10  22  38  64 100 140 186 234 278 328 398
#     4  11  22  41  68 103 148 191 231 279 339 415
#     4  11  25  44  68 108 151 183 230 287 335 416
#     4  11  26  51  75 103 140 177 236 310 361 412
#
# _framework density 25.412845999999998
#
# number of rings (size 3 to 8) (size 9 to 14) (size 15 to 20)
#    0.000    1.091    0.000    6.545    0.000   13.818 
#    0.000    7.273    0.000    0.000    0.000    0.000 
#    0.000    0.000    0.000    0.000    0.000    0.000 
#
# Total GULP energy -61454.113567 kJ/mol
# GULP energy per Si atom -5586.737597 kJ/mol
# Density = 2.535501 g / cm^3
# Si number density = 25.412846 Si / 1000 Ang^3
#
#
#
# Elastic Constant Matrix: (Units=GPa)
#
#
# Indices 1 2 3 4 5 6 
#
# 1 180.2750 13.7581 43.6330 0.0000 14.2952 0.0000
# 2 13.7581 118.9071 3.7294 0.0000 -9.6794 0.0000
# 3 43.6330 3.7294 116.9137 0.0000 14.7984 0.0000
# 4 0.0000 0.0000 0.0000 32.0318 0.0000 -7.4181
# 5 14.2952 -9.6794 14.7984 0.0000 51.1616 0.0000
# 6 0.0000 0.0000 0.0000 -7.4181 0.0000 23.1425
#
#
#
# Elastic Compliance Matrix: (Units=1/GPa)
#
#
# Indices 1 2 3 4 5 6 
#
# 1 0.006222 -0.000756 -0.002138 0.000000 -0.001263 0.000000
# 2 -0.000756 0.008661 -0.000237 0.000000 0.001918 0.000000
# 3 -0.002138 -0.000237 0.009642 0.000000 -0.002236 0.000000
# 4 0.000000 0.000000 0.000000 0.033722 0.000000 0.010809
# 5 -0.001263 0.001918 -0.002236 0.000000 0.020909 0.000000
# 6 0.000000 0.000000 0.000000 0.010809 0.000000 0.046675
#
#
# Mechanical properties :
#
#
# Convention : Reuss Voigt Hill
#
# Bulk Modulus (GPa) = 54.75466 59.81520 57.28493
# Shear Modulus (GPa) = 36.18427 44.93219 40.55823
#
# Velocity S-wave (km/s) = 3.77750 4.20943 3.99930
# Velocity P-wave (km/s) = 6.37329 6.87126 6.62695
#
# Compressibility (1/GPa) = 0.01826328
#
# Stress axis : x y z
#
# Youngs Moduli (GPa) = 160.70818 115.46064 103.71335
#
# Poissons Ratio (x) = 0.08726 0.22177
# Poissons Ratio (y) = 0.12145 0.02458
# Poissons Ratio (z) = 0.34364 0.02737
#
# Static dielectric constant tensor:
#      x y z
#    x 2.174420 0.000000 0.071630 
#    y 0.000000 1.936150 0.000000 
#    z 0.071630 0.000000 2.047420 
# 
# From -- ./inp_files/43722.got.cif
#   From: 2010.05.17/outbox.cif.g08.bks.cpg/sg5_22_cif.got.tgz:43722.got - 2010.06.03 18:56:24.
