data_PCOD9126071
_publ_section_title
;
Structure prediction by ZEFSAII (Michael W. Deem and Ramdas Pophale) SiO2 
 PCOD9126071
Probable space group: C 2
;
_chemical_formula_sum "Si O2"
_cell_formula_units_Z 26
_cell_length_a 10.450132
_cell_length_b 9.384127
_cell_length_c 12.802336
_cell_angle_alpha 90.000000
_cell_angle_beta 61.129241
_cell_angle_gamma 90.000000
_cell_volume 1099.425251
_symmetry_space_group_name_H-M "C 2"
_symmetry_group_IT_number 5
_symmetry_cell_setting 'monoclinic'
loop_
_space_group_symop_operation_xyz
x,y,z
-x,y,-z
1/2+x,1/2+y,z
1/2-x,1/2+y,-z
loop_
_atom_site_type_symbol
_atom_site_label
_atom_site_fract_x
_atom_site_fract_y
_atom_site_fract_z
Si Si1 0.154711 0.646620 0.425020
Si Si2 0.749101 0.280749 0.173722
Si Si3 0.000000 0.176088 0.500000
Si Si4 0.482935 0.834523 0.810117
Si Si5 0.204813 0.109316 0.243204
Si Si6 0.530469 0.140534 0.110347
Si Si7 0.790284 0.389512 0.471614
O O1 0.181923 0.684107 0.294608
O O2 0.252155 0.533488 0.451312
O O3 0.156216 0.796427 0.483765
O O4 0.000000 0.574393 0.500000
O O5 0.729668 0.451564 0.188515
O O6 0.659752 0.234072 0.107389
O O7 0.919575 0.262150 0.137532
O O8 0.917014 0.088673 0.620338
O O9 0.873345 0.284226 0.515906
O O10 0.367764 0.726380 0.804916
O O11 0.597953 0.886669 0.672973
O O12 0.421857 0.978905 0.882566
O O13 0.364729 0.161557 0.220256
O O14 0.500000 0.159630 0.000000
#
# Coordination Sequence:
#
# PCOD9126071 Si02
#       7
#     4   4   2   4   4   4   4
#     4  11  23  36  58  90 130 174 214 260 313 391
#     4  10  24  41  64  99 133 168 233 271 328 396
#     4  10  22  40  64  92 140 172 208 254 326 398
#     4   9  22  46  64  95 133 174 220 274 333 397
#     4  10  24  44  66  97 138 176 216 271 329 403
#     4  11  25  46  70  96 129 172 229 288 335 383
#     4  10  22  38  59  91 133 170 213 253 318 392
#
# _framework density 23.648720000000001
#
# number of rings (size 3 to 8) (size 9 to 14) (size 15 to 20)
#    0.000    1.846    0.769    0.923   11.846    6.154 
#    0.000    0.769    0.000    0.000    0.000    0.000 
#    0.000    0.000    0.000    0.000    0.000    0.000 
#
# Total GULP energy -72518.175779 kJ/mol
# GULP energy per Si atom -5578.321214 kJ/mol
# Density = 2.359489 g / cm^3
# Si number density = 23.648720 Si / 1000 Ang^3
#
#
#
# Elastic Constant Matrix: (Units=GPa)
#
#
# Indices 1 2 3 4 5 6 
#
# 1 112.1710 35.9036 -6.7882 0.0000 22.0658 0.0000
# 2 35.9036 72.9684 -1.3100 0.0000 17.2565 0.0000
# 3 -6.7882 -1.3100 59.2046 0.0000 9.6165 0.0000
# 4 0.0000 0.0000 0.0000 6.4540 0.0000 9.2373
# 5 22.0658 17.2565 9.6165 0.0000 35.6144 0.0000
# 6 0.0000 0.0000 0.0000 9.2373 0.0000 38.3714
#
#
#
# Elastic Compliance Matrix: (Units=1/GPa)
#
#
# Indices 1 2 3 4 5 6 
#
# 1 0.011531 -0.004302 0.002143 0.000000 -0.005638 0.000000
# 2 -0.004302 0.017235 0.000849 0.000000 -0.005915 0.000000
# 3 0.002143 0.000849 0.018237 0.000000 -0.006663 0.000000
# 4 0.000000 0.000000 0.000000 0.236392 0.000000 -0.056908
# 5 -0.005638 -0.005915 -0.006663 0.000000 0.036237 0.000000
# 6 0.000000 0.000000 0.000000 -0.056908 0.000000 0.039761
#
#
# Mechanical properties :
#
#
# Convention : Reuss Voigt Hill
#
# Bulk Modulus (GPa) = 22.53103 33.32831 27.92967
# Shear Modulus (GPa) = 13.26938 30.52387 21.89662
#
# Velocity S-wave (km/s) = 2.37133 3.59656 3.04618
# Velocity P-wave (km/s) = 4.12864 5.60095 4.92018
#
# Compressibility (1/GPa) = 0.04438323
#
# Stress axis : x y z
#
# Youngs Moduli (GPa) = 86.72534 58.02049 54.83255
#
# Poissons Ratio (x) = 0.24958 -0.11749
# Poissons Ratio (y) = 0.37306 -0.04655
# Poissons Ratio (z) = -0.18583 -0.04926
#
# Static dielectric constant tensor:
#      x y z
#    x 1.967280 0.000000 0.025040 
#    y 0.000000 1.862270 0.000000 
#    z 0.025040 0.000000 2.044580 
# 
# From -- ./inp_files/52206.got.cif
#   From: 2010.05.17/outbox.cif.g08.bks.cpg/sg5_27_cif.got.tgz:52206.got - 2010.06.03 18:56:24.
