data_PCOD9126021
_publ_section_title
;
Structure prediction by ZEFSAII (Michael W. Deem and Ramdas Pophale) SiO2 
 PCOD9126021
Probable space group: C 2
;
_chemical_formula_sum "Si O2"
_cell_formula_units_Z 26
_cell_length_a 5.493709
_cell_length_b 12.800163
_cell_length_c 15.724018
_cell_angle_alpha 90.000000
_cell_angle_beta 90.185727
_cell_angle_gamma 90.000000
_cell_volume 1105.712965
_symmetry_space_group_name_H-M "C 2"
_symmetry_group_IT_number 5
_symmetry_cell_setting 'monoclinic'
loop_
_space_group_symop_operation_xyz
x,y,z
-x,y,-z
1/2+x,1/2+y,z
1/2-x,1/2+y,-z
loop_
_atom_site_type_symbol
_atom_site_label
_atom_site_fract_x
_atom_site_fract_y
_atom_site_fract_z
Si Si1 0.839974 0.940250 0.252604
Si Si2 0.017633 0.284698 0.822542
Si Si3 0.000000 0.782893 0.500000
Si Si4 0.737640 0.152954 0.950608
Si Si5 0.723953 0.284089 0.335979
Si Si6 0.886635 0.443737 0.582653
Si Si7 0.856697 0.936421 0.911395
O O1 0.598833 0.890020 0.213851
O O2 0.754461 0.998815 0.338894
O O3 0.006395 0.845408 0.288808
O O4 0.982546 0.976978 0.168925
O O5 0.133058 0.227851 0.740587
O O6 0.220696 0.330077 0.886044
O O7 0.807117 0.222563 0.869724
O O8 0.121825 0.726068 0.419295
O O9 0.199403 0.859309 0.542735
O O10 0.679297 0.033844 0.925676
O O11 0.500000 0.189343 0.000000
O O12 0.000000 0.150470 0.000000
O O13 0.899290 0.374201 0.374956
O O14 0.000000 0.500625 0.500000
O O15 0.000000 0.922866 0.000000
#
# Coordination Sequence:
#
# PCOD9126021 Si02
#       7
#     4   4   2   4   4   4   4
#     4   9  18  31  54  82 113 155 203 241 310 369
#     4  10  22  37  61  84 120 160 209 258 315 373
#     4   8  12  22  46  74 120 148 186 242 298 360
#     4  11  28  44  61  91 122 162 218 265 321 384
#     4   8  15  28  46  82 114 151 193 246 301 367
#     4   8  13  24  44  77 118 147 188 244 295 360
#     4  10  24  41  60  86 122 164 210 263 321 376
#
# _framework density 23.514237999999999
#
# number of rings (size 3 to 8) (size 9 to 14) (size 15 to 20)
#    0.000    2.769    0.000    0.000   10.769    0.000 
#    0.000    0.000    0.000    0.000    2.000    0.000 
#  276.923    0.000    0.000    0.000    0.000    0.000 
#
# Total GULP energy -72388.764874 kJ/mol
# GULP energy per Si atom -5568.366529 kJ/mol
# Density = 2.346072 g / cm^3
# Si number density = 23.514238 Si / 1000 Ang^3
#
#
#
# Elastic Constant Matrix: (Units=GPa)
#
#
# Indices 1 2 3 4 5 6 
#
# 1 95.8343 16.3217 74.5431 0.0000 -23.1620 0.0000
# 2 16.3217 50.0883 46.7626 0.0000 -19.2507 0.0000
# 3 74.5431 46.7626 216.6844 0.0000 -59.9313 0.0000
# 4 0.0000 0.0000 0.0000 20.2896 0.0000 -20.2849
# 5 -23.1620 -19.2507 -59.9313 0.0000 80.2872 0.0000
# 6 0.0000 0.0000 0.0000 -20.2849 0.0000 14.3485
#
#
#
# Elastic Compliance Matrix: (Units=1/GPa)
#
#
# Indices 1 2 3 4 5 6 
#
# 1 0.014268 0.000006 -0.004752 0.000000 0.000570 0.000000
# 2 0.000006 0.025400 -0.004787 0.000000 0.002519 0.000000
# 3 -0.004752 -0.004787 0.008300 0.000000 0.003677 0.000000
# 4 0.000000 0.000000 0.000000 -0.119224 0.000000 -0.168550
# 5 0.000570 0.002519 0.003677 0.000000 0.015968 0.000000
# 6 0.000000 0.000000 0.000000 -0.168550 0.000000 -0.168589
#
#
# Mechanical properties :
#
#
# Convention : Reuss Voigt Hill
#
# Bulk Modulus (GPa) = 34.59955 70.87356 52.73655
# Shear Modulus (GPa) = -25.61768 37.98371 6.18301
#
# Velocity S-wave (km/s) = -3.30427 4.02350 1.62333
# Velocity P-wave (km/s) = 0.43434 7.19659 5.09802
#
# Compressibility (1/GPa) = 0.02890211
#
# Stress axis : x y z
#
# Youngs Moduli (GPa) = 70.08860 39.37014 120.48493
#
# Poissons Ratio (x) = -0.00025 0.57253
# Poissons Ratio (y) = -0.00045 0.57678
# Poissons Ratio (z) = 0.33305 0.18847
#
# Static dielectric constant tensor:
#      x y z
#    x 1.979430 0.000000 -0.017320 
#    y 0.000000 1.852040 0.000000 
#    z -0.017320 0.000000 2.084720 
# 
# From -- ./inp_files/48954.got.cif
#   From: 2010.05.17/outbox.cif.g08.bks.cpg/sg5_25_cif.got.tgz:48954.got - 2010.06.03 18:56:24.
