data_PCOD9126441
_publ_section_title
;
Structure prediction by ZEFSAII (Michael W. Deem and Ramdas Pophale) SiO2 
 PCOD9126441
Probable space group: C 2
;
_chemical_formula_sum "Si O2"
_cell_formula_units_Z 20
_cell_length_a 7.197542
_cell_length_b 12.898714
_cell_length_c 12.304131
_cell_angle_alpha 90.000000
_cell_angle_beta 35.220773
_cell_angle_gamma 90.000000
_cell_volume 658.799121
_symmetry_space_group_name_H-M "C 2"
_symmetry_group_IT_number 5
_symmetry_cell_setting 'monoclinic'
loop_
_space_group_symop_operation_xyz
x,y,z
-x,y,-z
1/2+x,1/2+y,z
1/2-x,1/2+y,-z
loop_
_atom_site_type_symbol
_atom_site_label
_atom_site_fract_x
_atom_site_fract_y
_atom_site_fract_z
Si Si1 0.225881 0.728440 0.706008
Si Si2 0.545824 0.724501 0.104956
Si Si3 0.857197 0.982881 0.950616
Si Si4 0.638323 0.413161 0.291436
Si Si5 0.287946 0.093607 0.493543
O O1 0.500000 0.788950 0.500000
O O2 0.470340 0.664276 0.666254
O O3 0.095118 0.650542 0.672726
O O4 0.949398 0.919637 0.796609
O O5 0.535965 0.601018 0.118864
O O6 0.500000 0.749842 0.000000
O O7 0.263694 0.803595 0.281767
O O8 0.926140 0.753751 0.926378
O O9 0.472491 0.975660 0.138539
O O10 0.000000 0.954115 0.000000
O O11 0.336852 0.478955 0.479647
O O12 0.500000 0.090722 0.500000
#
# Coordination Sequence:
#
# PCOD9126441 Si02
#       5
#     4   4   4   4   4
#     4   8  20  40  67 102 142 197 231 306 386 418
#     4  11  21  40  73 102 148 189 245 312 363 447
#     4  10  22  40  66  97 153 186 233 321 372 419
#     4  11  22  43  67 109 141 197 257 295 379 463
#     4   9  20  38  70  96 143 195 246 297 379 443
#
# _framework density 30.358264999999999
#
# number of rings (size 3 to 8) (size 9 to 14) (size 15 to 20)
#    1.200    0.800    4.000    0.000    5.600    0.000 
#    3.600    3.000    0.000    7.200    0.000    0.000 
#    0.000    0.000    0.000    0.000    0.000    0.000 
#
# Total GULP energy -55755.744359 kJ/mol
# GULP energy per Si atom -5575.574436 kJ/mol
# Density = 3.028917 g / cm^3
# Si number density = 30.358265 Si / 1000 Ang^3
#
#
#
# Elastic Constant Matrix: (Units=GPa)
#
#
# Indices 1 2 3 4 5 6 
#
# 1 229.7094 40.3871 69.8721 -0.0120 -31.1378 0.0042
# 2 40.3871 171.6272 49.2519 -0.0144 -11.3318 0.0030
# 3 69.8721 49.2519 171.4624 -0.0571 -6.5307 0.0070
# 4 -0.0120 -0.0144 -0.0571 51.8907 0.0053 -25.8654
# 5 -31.1378 -11.3318 -6.5307 0.0053 58.3759 -0.0032
# 6 0.0042 0.0030 0.0070 -25.8654 -0.0032 48.3979
#
#
#
# Elastic Compliance Matrix: (Units=1/GPa)
#
#
# Indices 1 2 3 4 5 6 
#
# 1 0.005385 -0.000542 -0.001942 -0.000002 0.002550 -0.000001
# 2 -0.000542 0.006467 -0.001607 0.000000 0.000787 0.000000
# 3 -0.001942 -0.001607 0.007064 0.000009 -0.000557 0.000004
# 4 -0.000002 0.000000 0.000009 0.026269 -0.000002 0.014039
# 5 0.002550 0.000787 -0.000557 -0.000002 0.018581 0.000000
# 6 -0.000001 0.000000 0.000004 0.014039 0.000000 0.028165
#
#
# Mechanical properties :
#
#
# Convention : Reuss Voigt Hill
#
# Bulk Modulus (GPa) = 93.15100 99.09125 96.12112
# Shear Modulus (GPa) = 48.22080 59.28542 53.75311
#
# Velocity S-wave (km/s) = 3.98979 4.42391 4.21244
# Velocity P-wave (km/s) = 7.20937 7.66852 7.44248
#
# Compressibility (1/GPa) = 0.01073526
#
# Stress axis : x y z
#
# Youngs Moduli (GPa) = 185.70789 154.62805 141.56698
#
# Poissons Ratio (x) = 0.08374 0.27487
# Poissons Ratio (y) = 0.10058 0.22750
# Poissons Ratio (z) = 0.36058 0.24849
#
# Static dielectric constant tensor:
#      x y z
#    x 2.635180 -0.000010 0.100090 
#    y -0.000010 2.548390 0.000010 
#    z 0.100090 0.000010 2.557410 
# 
# From -- ./inp_files/67907.got.cif
#   From: 2010.05.17/outbox.cif.g08.bks.cpg/sg5_34_cif.got.tgz:67907.got - 2010.06.03 18:56:24.
