data_PCOD9126280
_publ_section_title
;
Structure prediction by ZEFSAII (Michael W. Deem and Ramdas Pophale) SiO2 
 PCOD9126280
Probable space group: C 2
;
_chemical_formula_sum "Si O2"
_cell_formula_units_Z 16
_cell_length_a 19.174750
_cell_length_b 7.412406
_cell_length_c 5.511504
_cell_angle_alpha 90.000000
_cell_angle_beta 127.142780
_cell_angle_gamma 90.000000
_cell_volume 624.438971
_symmetry_space_group_name_H-M "C 2"
_symmetry_group_IT_number 5
_symmetry_cell_setting 'monoclinic'
loop_
_space_group_symop_operation_xyz
x,y,z
-x,y,-z
1/2+x,1/2+y,z
1/2-x,1/2+y,-z
loop_
_atom_site_type_symbol
_atom_site_label
_atom_site_fract_x
_atom_site_fract_y
_atom_site_fract_z
Si Si1 0.262530 0.856520 0.175094
Si Si2 0.659130 0.133445 0.316590
Si Si3 0.428597 0.413564 0.157658
Si Si4 0.578489 0.821077 0.836583
O O1 0.244061 0.702778 0.340702
O O2 0.333063 0.799533 0.130851
O O3 0.302435 0.042483 0.365228
O O4 0.163462 0.894980 0.888734
O O5 0.595160 0.302879 0.136788
O O6 0.603889 0.969139 0.085657
O O7 0.500000 0.346261 0.500000
O O8 0.446715 0.620933 0.133086
O O9 0.500000 0.886849 0.500000
#
# Coordination Sequence:
#
# PCOD9126280 Si02
#       4
#     4   4   4   4
#     4  10  22  40  68  93 132 169 216 269 329 384
#     4  10  22  39  65  96 131 167 215 278 321 391
#     4   9  21  40  64  96 129 170 218 265 329 392
#     4  11  22  41  67  94 132 174 219 266 327 392
#
# _framework density 25.623002
#
# number of rings (size 3 to 8) (size 9 to 14) (size 15 to 20)
#    1.500    0.500    0.000    3.750    0.000    1.000 
#    0.000    0.000    5.500    4.500    0.000    0.000 
#    0.000    0.000    0.000    0.000    0.000    0.000 
#
# Total GULP energy -44678.662131 kJ/mol
# GULP energy per Si atom -5584.832766 kJ/mol
# Density = 2.556468 g / cm^3
# Si number density = 25.623002 Si / 1000 Ang^3
#
#
#
# Elastic Constant Matrix: (Units=GPa)
#
#
# Indices 1 2 3 4 5 6 
#
# 1 71.1368 -13.2885 31.0714 0.0000 23.2508 0.0000
# 2 -13.2885 125.7216 48.6807 0.0000 2.3134 0.0000
# 3 31.0714 48.6807 156.8175 0.0000 44.7846 0.0000
# 4 0.0000 0.0000 0.0000 57.4638 0.0000 9.0481
# 5 23.2508 2.3134 44.7846 0.0000 34.7730 0.0000
# 6 0.0000 0.0000 0.0000 9.0481 0.0000 1.0730
#
#
#
# Elastic Compliance Matrix: (Units=1/GPa)
#
#
# Indices 1 2 3 4 5 6 
#
# 1 0.018754 0.002756 -0.001483 0.000000 -0.010813 0.000000
# 2 0.002756 0.009974 -0.004629 0.000000 0.003456 0.000000
# 3 -0.001483 -0.004629 0.012238 0.000000 -0.014461 0.000000
# 4 0.000000 0.000000 0.000000 -0.053099 0.000000 0.447745
# 5 -0.010813 0.003456 -0.014461 0.000000 0.054383 0.000000
# 6 0.000000 0.000000 0.000000 0.447745 0.000000 -2.843593
#
#
# Mechanical properties :
#
#
# Convention : Reuss Voigt Hill
#
# Bulk Modulus (GPa) = 29.19529 54.06702 41.63116
# Shear Modulus (GPa) = -1.79649 37.80946 18.00649
#
# Velocity S-wave (km/s) = -0.83824 3.84553 2.65381
# Velocity P-wave (km/s) = 3.23760 6.39251 5.06687
#
# Compressibility (1/GPa) = 0.03425210
#
# Stress axis : x y z
#
# Youngs Moduli (GPa) = 53.32141 100.25817 81.71456
#
# Poissons Ratio (x) = -0.27627 0.12121
# Poissons Ratio (y) = -0.14693 0.37828
# Poissons Ratio (z) = 0.07910 0.46412
#
# Static dielectric constant tensor:
#      x y z
#    x 2.016950 0.000000 -0.051210 
#    y 0.000000 2.031040 0.000000 
#    z -0.051210 0.000000 2.024310 
# 
# From -- ./inp_files/4168.got.cif
#   From: 2010.05.17/outbox.cif.g08.bks.cpg/sg5_3_cif.got.tgz:4168.got - 2010.06.03 18:56:24.
