data_PCOD9126427
_publ_section_title
;
Structure prediction by ZEFSAII (Michael W. Deem and Ramdas Pophale) SiO2 
 PCOD9126427
Probable space group: C 2
;
_chemical_formula_sum "Si O2"
_cell_formula_units_Z 28
_cell_length_a 12.702216
_cell_length_b 7.648429
_cell_length_c 12.310327
_cell_angle_alpha 90.000000
_cell_angle_beta 68.062512
_cell_angle_gamma 90.000000
_cell_volume 1109.374868
_symmetry_space_group_name_H-M "C 2"
_symmetry_group_IT_number 5
_symmetry_cell_setting 'monoclinic'
loop_
_space_group_symop_operation_xyz
x,y,z
-x,y,-z
1/2+x,1/2+y,z
1/2-x,1/2+y,-z
loop_
_atom_site_type_symbol
_atom_site_label
_atom_site_fract_x
_atom_site_fract_y
_atom_site_fract_z
Si Si1 0.500000 0.141920 0.000000
Si Si2 0.937394 0.407237 0.218677
Si Si3 0.193741 0.821460 0.073757
Si Si4 0.015622 0.042910 0.252011
Si Si5 0.731619 0.275149 0.427370
Si Si6 0.000000 0.987746 0.500000
Si Si7 0.178005 0.467500 0.168839
Si Si8 0.783077 0.881701 0.336309
O O1 0.407379 0.254158 0.968343
O O2 0.565898 0.017090 0.889620
O O3 0.977626 0.205526 0.193493
O O4 0.044863 0.488475 0.241182
O O5 0.823492 0.394736 0.330825
O O6 0.228963 0.661519 0.137506
O O7 0.135656 0.970169 0.168328
O O8 0.294640 0.885395 0.958739
O O9 0.919184 0.893673 0.275942
O O10 0.007506 0.090596 0.383026
O O11 0.609887 0.363246 0.460418
O O12 0.742015 0.079510 0.379221
O O13 0.755100 0.268833 0.547352
O O14 0.231656 0.346891 0.239479
#
# Coordination Sequence:
#
# PCOD9126427 Si02
#       8
#     2   4   4   4   4   2   4   4
#     4  10  24  42  62  92 126 170 216 260 310 366
#     4  10  24  41  61  91 127 165 209 259 313 372
#     4  11  23  41  64  93 126 167 213 260 313 374
#     4  10  22  41  64  91 124 163 207 259 315 371
#     4  10  23  41  62  89 123 162 208 257 312 373
#     4  10  22  40  66  92 120 162 210 260 316 372
#     4  11  24  40  63  94 125 165 209 257 315 374
#     4  10  23  40  62  91 122 161 205 254 313 371
#
# _framework density 25.239439999999998
#
# number of rings (size 3 to 8) (size 9 to 14) (size 15 to 20)
#    0.000    1.714    0.000    2.571    0.000   21.714 
#    0.000    0.000    0.000    0.000    0.000    0.000 
#    0.000    0.000    0.000    0.000    0.000    0.000 
#
# Total GULP energy -78434.716851 kJ/mol
# GULP energy per Si atom -5602.479775 kJ/mol
# Density = 2.518199 g / cm^3
# Si number density = 25.239440 Si / 1000 Ang^3
#
#
#
# Elastic Constant Matrix: (Units=GPa)
#
#
# Indices 1 2 3 4 5 6 
#
# 1 81.1072 5.1699 49.9649 0.0000 -5.4839 0.0000
# 2 5.1699 74.3531 38.6873 0.0000 -15.0432 0.0000
# 3 49.9649 38.6873 129.7469 0.0000 -12.8511 0.0000
# 4 0.0000 0.0000 0.0000 46.1334 0.0000 -3.9875
# 5 -5.4839 -15.0432 -12.8511 0.0000 52.6994 0.0000
# 6 0.0000 0.0000 0.0000 -3.9875 0.0000 29.3371
#
#
#
# Elastic Compliance Matrix: (Units=1/GPa)
#
#
# Indices 1 2 3 4 5 6 
#
# 1 0.016596 0.002706 -0.007123 0.000000 0.000763 0.000000
# 2 0.002706 0.017005 -0.005743 0.000000 0.003735 0.000000
# 3 -0.007123 -0.005743 0.012222 0.000000 0.000600 0.000000
# 4 0.000000 0.000000 0.000000 0.021934 0.000000 0.002981
# 5 0.000763 0.003735 0.000600 0.000000 0.020267 0.000000
# 6 0.000000 0.000000 0.000000 0.002981 0.000000 0.034492
#
#
# Mechanical properties :
#
#
# Convention : Reuss Voigt Hill
#
# Bulk Modulus (GPa) = 39.20758 52.53905 45.87332
# Shear Modulus (GPa) = 33.03913 38.39298 35.71606
#
# Velocity S-wave (km/s) = 3.62197 3.90442 3.76585
# Velocity P-wave (km/s) = 5.74975 6.41775 6.09291
#
# Compressibility (1/GPa) = 0.02550527
#
# Stress axis : x y z
#
# Youngs Moduli (GPa) = 60.25496 58.80648 81.82029
#
# Poissons Ratio (x) = -0.15915 0.58277
# Poissons Ratio (y) = -0.16307 0.46987
# Poissons Ratio (z) = 0.42917 0.33771
#
# Static dielectric constant tensor:
#      x y z
#    x 2.006910 0.000000 0.036720 
#    y 0.000000 1.999470 0.000000 
#    z 0.036720 0.000000 1.943040 
# 
# From -- ./inp_files/41903.got.cif
#   From: 2010.05.17/outbox.cif.g08.bks.cpg/sg5_21_cif.got.tgz:41903.got - 2010.06.03 18:56:24.
