data_PCOD9126586
_publ_section_title
;
Structure prediction by ZEFSAII (Michael W. Deem and Ramdas Pophale) SiO2 
 PCOD9126586
Probable space group: C 2
;
_chemical_formula_sum "Si O2"
_cell_formula_units_Z 28
_cell_length_a 17.672103
_cell_length_b 8.828116
_cell_length_c 9.369327
_cell_angle_alpha 90.000000
_cell_angle_beta 108.222501
_cell_angle_gamma 90.000000
_cell_volume 1388.415257
_symmetry_space_group_name_H-M "C 2"
_symmetry_group_IT_number 5
_symmetry_cell_setting 'monoclinic'
loop_
_space_group_symop_operation_xyz
x,y,z
-x,y,-z
1/2+x,1/2+y,z
1/2-x,1/2+y,-z
loop_
_atom_site_type_symbol
_atom_site_label
_atom_site_fract_x
_atom_site_fract_y
_atom_site_fract_z
Si Si1 0.302209 0.838880 0.797420
Si Si2 0.801210 0.097920 0.357676
Si Si3 0.037779 0.166176 0.680679
Si Si4 0.278038 0.355637 0.823483
Si Si5 0.184725 0.647699 0.887212
Si Si6 0.563463 0.939921 0.909461
Si Si7 0.116278 0.052823 0.297161
O O1 0.352050 0.716013 0.739177
O O2 0.217077 0.766342 0.790579
O O3 0.358537 0.873122 0.964841
O O4 0.207473 0.727199 0.049739
O O5 0.874204 0.097287 0.287081
O O6 0.773607 0.273185 0.330126
O O7 0.723442 0.995859 0.287415
O O8 0.839157 0.039866 0.526040
O O9 0.039747 0.319681 0.774490
O O10 0.000000 0.191978 0.500000
O O11 0.977219 0.058120 0.728925
O O12 0.355898 0.426164 0.796903
O O13 0.234028 0.497644 0.870667
O O14 0.094200 0.592707 0.851137
O O15 0.500000 0.960116 0.000000
#
# Coordination Sequence:
#
# PCOD9126586 Si02
#       7
#     4   4   4   4   4   4   4
#     4  11  22  39  63  91 125 161 216 257 309 374
#     4  11  20  40  64  89 126 166 209 259 312 378
#     4  10  22  41  64  90 125 166 206 251 321 385
#     4  11  20  36  63  90 122 157 211 260 307 372
#     4  11  21  38  61  89 119 164 205 260 313 359
#     4  12  22  39  63  91 124 161 211 260 308 372
#     4  10  23  38  62  93 123 167 211 255 315 375
#
# _framework density 20.166878000000001
#
# number of rings (size 3 to 8) (size 9 to 14) (size 15 to 20)
#    0.000    1.143    5.714    0.857    0.000    0.000 
#    2.571    0.000    0.000    0.000    0.000    0.000 
#    0.000    0.000    0.000    0.000    0.000    0.000 
#
# Total GULP energy -78025.348749 kJ/mol
# GULP energy per Si atom -5573.239196 kJ/mol
# Density = 2.012098 g / cm^3
# Si number density = 20.166878 Si / 1000 Ang^3
#
#
#
# Elastic Constant Matrix: (Units=GPa)
#
#
# Indices 1 2 3 4 5 6 
#
# 1 99.0350 10.2688 1.4464 0.0000 -11.8529 0.0000
# 2 10.2688 52.2252 -0.7787 0.0000 4.0957 0.0000
# 3 1.4464 -0.7787 20.6858 0.0000 -0.3297 0.0000
# 4 0.0000 0.0000 0.0000 17.4567 0.0000 -0.8969
# 5 -11.8529 4.0957 -0.3297 0.0000 25.0076 0.0000
# 6 0.0000 0.0000 0.0000 -0.8969 0.0000 34.5067
#
#
#
# Elastic Compliance Matrix: (Units=1/GPa)
#
#
# Indices 1 2 3 4 5 6 
#
# 1 0.011059 -0.002630 -0.000782 0.000000 0.005662 0.000000
# 2 -0.002630 0.020032 0.000866 0.000000 -0.004516 0.000000
# 3 -0.000782 0.000866 0.048432 0.000000 0.000126 0.000000
# 4 0.000000 0.000000 0.000000 0.057361 0.000000 0.001491
# 5 0.005662 -0.004516 0.000126 0.000000 0.043413 0.000000
# 6 0.000000 0.000000 0.000000 0.001491 0.000000 0.029019
#
#
# Mechanical properties :
#
#
# Convention : Reuss Voigt Hill
#
# Bulk Modulus (GPa) = 13.43538 21.53548 17.48543
# Shear Modulus (GPa) = 20.90139 26.12817 23.51478
#
# Velocity S-wave (km/s) = 3.22284 3.60335 3.41839
# Velocity P-wave (km/s) = 4.53051 5.29282 4.92643
#
# Compressibility (1/GPa) = 0.07443036
#
# Stress axis : x y z
#
# Youngs Moduli (GPa) = 90.42192 49.91992 20.64763
#
# Poissons Ratio (x) = 0.13130 0.01615
# Poissons Ratio (y) = 0.23783 -0.01788
# Poissons Ratio (z) = 0.07072 -0.04323
#
# Static dielectric constant tensor:
#      x y z
#    x 1.738220 0.000000 -0.025280 
#    y 0.000000 1.745980 0.000000 
#    z -0.025280 0.000000 1.742660 
# 
# From -- ./inp_files/23657.got.cif
#   From: 2010.05.17/outbox.cif.g08.bks.cpg/sg5_12_cif.got.tgz:23657.got - 2010.06.03 18:56:24.
