data_PCOD9126347
_publ_section_title
;
Structure prediction by ZEFSAII (Michael W. Deem and Ramdas Pophale) SiO2 
 PCOD9126347
Probable space group: C 2
;
_chemical_formula_sum "Si O2"
_cell_formula_units_Z 30
_cell_length_a 12.149838
_cell_length_b 9.154707
_cell_length_c 11.667524
_cell_angle_alpha 90.000000
_cell_angle_beta 69.354507
_cell_angle_gamma 90.000000
_cell_volume 1214.415611
_symmetry_space_group_name_H-M "C 2"
_symmetry_group_IT_number 5
_symmetry_cell_setting 'monoclinic'
loop_
_space_group_symop_operation_xyz
x,y,z
-x,y,-z
1/2+x,1/2+y,z
1/2-x,1/2+y,-z
loop_
_atom_site_type_symbol
_atom_site_label
_atom_site_fract_x
_atom_site_fract_y
_atom_site_fract_z
Si Si1 0.345273 0.049560 0.210913
Si Si2 0.639520 0.595377 0.464860
Si Si3 0.931387 0.427600 0.764197
Si Si4 0.775735 0.218375 0.200074
Si Si5 0.011881 0.138475 0.127107
Si Si6 0.320860 0.253112 0.539354
Si Si7 0.500000 0.023564 0.500000
Si Si8 0.259467 0.068058 0.997467
O O1 0.233965 0.110518 0.324591
O O2 0.474850 0.045657 0.217820
O O3 0.325172 0.876068 0.210966
O O4 0.334907 0.094984 0.082609
O O5 0.500000 0.617331 0.500000
O O6 0.652464 0.422063 0.493757
O O7 0.693937 0.706524 0.537960
O O8 0.958645 0.264039 0.794556
O O9 0.814220 0.466541 0.878468
O O10 0.936409 0.433355 0.624522
O O11 0.670679 0.217031 0.327709
O O12 0.748999 0.213741 0.076682
O O13 0.875600 0.097898 0.195754
O O14 0.124365 0.033262 0.083491
O O15 0.000000 0.197713 0.000000
O O16 0.410271 0.129842 0.465277
#
# Coordination Sequence:
#
# PCOD9126347 Si02
#       8
#     4   4   4   4   4   4   2   4
#     4  10  22  40  61  92 128 173 223 287 351 416
#     4  11  25  46  73 103 146 189 241 301 362 434
#     4  11  21  40  63  90 127 175 233 273 353 431
#     4   9  20  39  62  85 126 172 214 276 353 416
#     4   9  20  38  60  91 124 169 220 280 346 420
#     4  11  23  47  69 100 140 190 236 297 367 425
#     4  12  22  42  68  96 134 190 232 292 360 426
#     4  11  19  34  63  89 118 166 223 278 343 412
#
# _framework density 24.703240000000001
#
# number of rings (size 3 to 8) (size 9 to 14) (size 15 to 20)
#    0.000    1.600    3.333    2.800    1.867    0.000 
#    3.600    0.000    0.000   12.800    0.000    0.000 
#    0.000    0.000    0.000    0.000    0.000    0.000 
#
# Total GULP energy -83567.826455 kJ/mol
# GULP energy per Si atom -5571.188430 kJ/mol
# Density = 2.464701 g / cm^3
# Si number density = 24.703240 Si / 1000 Ang^3
#
#
#
# Elastic Constant Matrix: (Units=GPa)
#
#
# Indices 1 2 3 4 5 6 
#
# 1 139.2806 34.6846 28.7041 0.0000 -1.5837 0.0000
# 2 34.6846 38.7963 20.2946 0.0000 -6.4471 0.0000
# 3 28.7041 20.2946 110.9779 0.0000 8.4502 0.0000
# 4 0.0000 0.0000 0.0000 -33.2634 0.0000 -54.7773
# 5 -1.5837 -6.4471 8.4502 0.0000 27.2510 0.0000
# 6 0.0000 0.0000 0.0000 -54.7773 0.0000 -14.2372
#
#
#
# Elastic Compliance Matrix: (Units=1/GPa)
#
#
# Indices 1 2 3 4 5 6 
#
# 1 0.009362 -0.008107 -0.000854 0.000000 -0.001109 0.000000
# 2 -0.008107 0.037616 -0.005555 0.000000 0.010151 0.000000
# 3 -0.000854 -0.005555 0.010602 0.000000 -0.004651 0.000000
# 4 0.000000 0.000000 0.000000 0.005634 0.000000 -0.021677
# 5 -0.001109 0.010151 -0.004651 0.000000 0.040475 0.000000
# 6 0.000000 0.000000 0.000000 -0.021677 0.000000 0.013163
#
#
# Mechanical properties :
#
#
# Convention : Reuss Voigt Hill
#
# Bulk Modulus (GPa) = 35.02993 50.71349 42.87171
# Shear Modulus (GPa) = 32.17466 9.64153 20.90809
#
# Velocity S-wave (km/s) = 3.61286 1.97773 2.91240
# Velocity P-wave (km/s) = 5.62270 5.07827 5.35741
#
# Compressibility (1/GPa) = 0.02854702
#
# Stress axis : x y z
#
# Youngs Moduli (GPa) = 106.81287 26.58421 94.32356
#
# Poissons Ratio (x) = 0.21553 0.08060
# Poissons Ratio (y) = 0.86596 0.52396
# Poissons Ratio (z) = 0.09127 0.14767
#
# Static dielectric constant tensor:
#      x y z
#    x 2.139730 0.000000 0.009930 
#    y 0.000000 2.017600 0.000000 
#    z 0.009930 0.000000 2.293830 
# 
# From -- ./inp_files/39145.got.cif
#   From: 2010.05.17/outbox.cif.g08.bks.cpg/sg5_20_cif.got.tgz:39145.got - 2010.06.03 18:56:24.
