data_PCOD9126894
_publ_section_title
;
Structure prediction by ZEFSAII (Michael W. Deem and Ramdas Pophale) SiO2 
 PCOD9126894
Probable space group: C 2
;
_chemical_formula_sum "Si O2"
_cell_formula_units_Z 22
_cell_length_a 9.901454
_cell_length_b 12.155783
_cell_length_c 7.988548
_cell_angle_alpha 90.000000
_cell_angle_beta 91.553393
_cell_angle_gamma 90.000000
_cell_volume 961.147693
_symmetry_space_group_name_H-M "C 2"
_symmetry_group_IT_number 5
_symmetry_cell_setting 'monoclinic'
loop_
_space_group_symop_operation_xyz
x,y,z
-x,y,-z
1/2+x,1/2+y,z
1/2-x,1/2+y,-z
loop_
_atom_site_type_symbol
_atom_site_label
_atom_site_fract_x
_atom_site_fract_y
_atom_site_fract_z
Si Si1 0.839586 0.501190 0.800611
Si Si2 0.500000 0.941950 0.500000
Si Si3 0.133693 0.244712 0.702021
Si Si4 0.000000 0.322054 0.000000
Si Si5 0.525765 0.526780 0.800740
Si Si6 0.935921 0.800822 0.679950
Si Si7 0.000000 0.673407 0.000000
O O1 0.912031 0.515046 0.623481
O O2 0.680646 0.486885 0.785599
O O3 0.879560 0.591920 0.940835
O O4 0.913833 0.393016 0.868822
O O5 0.592446 0.854790 0.603161
O O6 0.033713 0.138795 0.688839
O O7 0.292013 0.238259 0.671929
O O8 0.114125 0.262224 0.898913
O O9 0.428218 0.430774 0.728903
O O10 0.500000 0.542754 0.000000
O O11 0.000000 0.792646 0.500000
O O12 0.020784 0.747006 0.835918
#
# Coordination Sequence:
#
# PCOD9126894 Si02
#       7
#     4   2   4   2   4   4   2
#     4  10  22  42  69 103 137 194 246 293 373 439
#     4  10  24  46  72 104 146 190 248 316 368 442
#     4  11  23  46  69 107 144 192 247 301 374 441
#     4   9  20  39  66  92 140 187 234 299 350 432
#     4  12  24  43  71 105 146 193 245 300 372 444
#     4  12  27  47  73 111 150 193 249 312 369 450
#     4  11  24  45  72 102 150 195 244 305 378 430
#
# _framework density 22.889302000000001
#
# number of rings (size 3 to 8) (size 9 to 14) (size 15 to 20)
#    0.000    1.091    3.636    2.182    2.545    0.000 
#    3.273    0.000    0.000    0.000    0.000    0.000 
#    0.000    0.000    0.000    0.000    0.000    0.000 
#
# Total GULP energy -61314.449013 kJ/mol
# GULP energy per Si atom -5574.040819 kJ/mol
# Density = 2.283720 g / cm^3
# Si number density = 22.889302 Si / 1000 Ang^3
#
#
#
# Elastic Constant Matrix: (Units=GPa)
#
#
# Indices 1 2 3 4 5 6 
#
# 1 49.4427 7.1330 31.2066 0.0000 -21.4668 0.0000
# 2 7.1330 92.7412 33.6400 0.0000 -6.5955 0.0000
# 3 31.2066 33.6400 166.1948 0.0000 -27.2559 0.0000
# 4 0.0000 0.0000 0.0000 2.9501 0.0000 24.3580
# 5 -21.4668 -6.5955 -27.2559 0.0000 33.2399 0.0000
# 6 0.0000 0.0000 0.0000 24.3580 0.0000 -7.0338
#
#
#
# Elastic Compliance Matrix: (Units=1/GPa)
#
#
# Indices 1 2 3 4 5 6 
#
# 1 0.029161 -0.000069 -0.002744 0.000000 0.016569 0.000000
# 2 -0.000069 0.011643 -0.002279 0.000000 0.000397 0.000000
# 3 -0.002744 -0.002279 0.007659 0.000000 0.004055 0.000000
# 4 0.000000 0.000000 0.000000 0.011455 0.000000 0.039667
# 5 0.016569 0.000397 0.004055 0.000000 0.044189 0.000000
# 6 0.000000 0.000000 0.000000 0.039667 0.000000 -0.004804
#
#
# Mechanical properties :
#
#
# Convention : Reuss Voigt Hill
#
# Bulk Modulus (GPa) = 26.12424 50.25978 38.19201
# Shear Modulus (GPa) = 40.90137 21.59118 31.24627
#
# Velocity S-wave (km/s) = 4.23178 3.07463 3.69874
# Velocity P-wave (km/s) = 5.94268 5.88302 5.91292
#
# Compressibility (1/GPa) = 0.03827863
#
# Stress axis : x y z
#
# Youngs Moduli (GPa) = 34.29207 85.89034 130.57134
#
# Poissons Ratio (x) = 0.00593 0.35834
# Poissons Ratio (y) = 0.00237 0.29751
# Poissons Ratio (z) = 0.09411 0.19570
#
# Static dielectric constant tensor:
#      x y z
#    x 2.305830 0.000000 0.207920 
#    y 0.000000 1.989420 0.000000 
#    z 0.207920 0.000000 1.925110 
# 
# From -- ./inp_files/14969.got.cif
#   From: 2010.05.17/outbox.cif.g08.bks.cpg/sg5_8_cif.got.tgz:14969.got - 2010.06.03 18:56:24.
