data_PCOD9126480
_publ_section_title
;
Structure prediction by ZEFSAII (Michael W. Deem and Ramdas Pophale) SiO2 
 PCOD9126480
Probable space group: C 2
;
_chemical_formula_sum "Si O2"
_cell_formula_units_Z 20
_cell_length_a 17.042841
_cell_length_b 6.464243
_cell_length_c 10.923195
_cell_angle_alpha 90.000000
_cell_angle_beta 136.332580
_cell_angle_gamma 90.000000
_cell_volume 830.911790
_symmetry_space_group_name_H-M "C 2"
_symmetry_group_IT_number 5
_symmetry_cell_setting 'monoclinic'
loop_
_space_group_symop_operation_xyz
x,y,z
-x,y,-z
1/2+x,1/2+y,z
1/2-x,1/2+y,-z
loop_
_atom_site_type_symbol
_atom_site_label
_atom_site_fract_x
_atom_site_fract_y
_atom_site_fract_z
Si Si1 0.065316 0.322850 0.201321
Si Si2 0.383777 0.770057 0.330520
Si Si3 0.002772 0.647891 0.318134
Si Si4 0.871056 0.044828 0.091757
Si Si5 0.774089 0.607466 0.316523
O O1 0.067652 0.534573 0.279414
O O2 0.182105 0.207055 0.302083
O O3 0.985365 0.169667 0.188126
O O4 0.000000 0.361750 0.000000
O O5 0.500000 0.659716 0.500000
O O6 0.319853 0.630198 0.161012
O O7 0.431958 0.971514 0.310690
O O8 0.211574 0.098090 0.113770
O O9 0.106550 0.723066 0.522316
O O10 0.917000 0.816318 0.168832
O O11 0.687082 0.864033 0.637124
#
# Coordination Sequence:
#
# PCOD9126480 Si02
#       5
#     4   4   4   4   4
#     4   9  21  42  59  94 132 164 222 279 322 408
#     4   9  21  42  59  94 132 164 222 279 322 408
#     4  10  22  41  64  92 133 173 218 274 338 397
#     4  10  22  41  64  92 133 173 218 274 338 397
#     4  10  22  40  68  96 130 170 232 272 334 406
#
# _framework density 24.069944
#
# number of rings (size 3 to 8) (size 9 to 14) (size 15 to 20)
#    0.000    2.400    0.000    0.000    5.600    4.800 
#    0.000    8.000    0.000    0.000    0.000    0.000 
#    0.000    0.000    0.000    0.000    0.000    0.000 
#
# Total GULP energy -55778.614734 kJ/mol
# GULP energy per Si atom -5577.861473 kJ/mol
# Density = 2.401516 g / cm^3
# Si number density = 24.069944 Si / 1000 Ang^3
#
#
#
# Elastic Constant Matrix: (Units=GPa)
#
#
# Indices 1 2 3 4 5 6 
#
# 1 100.3655 45.0439 42.9777 0.0000 15.3938 0.0000
# 2 45.0439 82.1349 54.1067 0.0000 -0.4352 0.0000
# 3 42.9777 54.1067 117.4297 0.0000 14.3231 0.0000
# 4 0.0000 0.0000 0.0000 13.6753 0.0000 -8.5947
# 5 15.3938 -0.4352 14.3231 0.0000 44.7612 0.0000
# 6 0.0000 0.0000 0.0000 -8.5947 0.0000 42.9219
#
#
#
# Elastic Compliance Matrix: (Units=1/GPa)
#
#
# Indices 1 2 3 4 5 6 
#
# 1 0.014424 -0.006922 -0.001536 0.000000 -0.004536 0.000000
# 2 -0.006922 0.021162 -0.007839 0.000000 0.005095 0.000000
# 3 -0.001536 -0.007839 0.013148 0.000000 -0.003755 0.000000
# 4 0.000000 0.000000 0.000000 0.083652 0.000000 0.016750
# 5 -0.004536 0.005095 -0.003755 0.000000 0.025152 0.000000
# 6 0.000000 0.000000 0.000000 0.016750 0.000000 0.026652
#
#
# Mechanical properties :
#
#
# Convention : Reuss Voigt Hill
#
# Bulk Modulus (GPa) = 61.95956 64.90963 63.43460
# Shear Modulus (GPa) = 22.50597 30.79180 26.64889
#
# Velocity S-wave (km/s) = 3.06113 3.58056 3.33099
# Velocity P-wave (km/s) = 6.18800 6.64225 6.41915
#
# Compressibility (1/GPa) = 0.01613956
#
# Stress axis : x y z
#
# Youngs Moduli (GPa) = 69.32950 47.25439 76.05950
#
# Poissons Ratio (x) = 0.32711 0.11684
# Poissons Ratio (y) = 0.47992 0.59619
# Poissons Ratio (z) = 0.10650 0.37040
#
# Static dielectric constant tensor:
#      x y z
#    x 1.946640 0.000000 -0.008000 
#    y 0.000000 1.947880 0.000000 
#    z -0.008000 0.000000 2.026700 
# 
# From -- ./inp_files/45563.got.cif
#   From: 2010.05.17/outbox.cif.g08.bks.cpg/sg5_23_cif.got.tgz:45563.got - 2010.06.03 18:56:24.
