data_PCOD9126367
_publ_section_title
;
Structure prediction by ZEFSAII (Michael W. Deem and Ramdas Pophale) SiO2 
 PCOD9126367
Probable space group: C 2
;
_chemical_formula_sum "Si O2"
_cell_formula_units_Z 14
_cell_length_a 5.015321
_cell_length_b 14.078749
_cell_length_c 7.963335
_cell_angle_alpha 90.000000
_cell_angle_beta 109.805999
_cell_angle_gamma 90.000000
_cell_volume 529.024768
_symmetry_space_group_name_H-M "C 2"
_symmetry_group_IT_number 5
_symmetry_cell_setting 'monoclinic'
loop_
_space_group_symop_operation_xyz
x,y,z
-x,y,-z
1/2+x,1/2+y,z
1/2-x,1/2+y,-z
loop_
_atom_site_type_symbol
_atom_site_label
_atom_site_fract_x
_atom_site_fract_y
_atom_site_fract_z
Si Si1 0.000000 0.202960 0.000000
Si Si2 0.381414 0.636010 0.649141
Si Si3 0.216533 0.831742 0.714041
Si Si4 0.278797 0.453085 0.793583
O O1 0.095276 0.149771 0.851839
O O2 0.741559 0.268335 0.887686
O O3 0.500000 0.601899 0.500000
O O4 0.267648 0.743307 0.597862
O O5 0.193398 0.555781 0.698909
O O6 0.943006 0.896358 0.679741
O O7 0.492510 0.897798 0.771793
O O8 0.500000 0.459400 0.000000
#
# Coordination Sequence:
#
# PCOD9126367 Si02
#       4
#     2   4   4   4
#     4   8  18  44  60  90 122 166 198 262 304 360
#     4  10  22  40  62  93 126 162 206 255 308 369
#     4  10  23  39  65  89 124 162 207 255 307 363
#     4  12  19  41  64  91 121 165 205 253 310 366
#
# _framework density 26.463789999999999
#
# number of rings (size 3 to 8) (size 9 to 14) (size 15 to 20)
#    1.714    0.000    4.286    0.000    0.000    4.571 
#    0.000    2.857    0.000    0.000    0.000    0.000 
#    0.000    0.000    0.000    0.000    0.000    0.000 
#
# Total GULP energy -38996.149503 kJ/mol
# GULP energy per Si atom -5570.878500 kJ/mol
# Density = 2.640356 g / cm^3
# Si number density = 26.463790 Si / 1000 Ang^3
#
#
#
# Elastic Constant Matrix: (Units=GPa)
#
#
# Indices 1 2 3 4 5 6 
#
# 1 106.5593 35.7800 37.6949 0.0000 -9.0037 0.0000
# 2 35.7800 154.3497 31.2400 0.0000 -15.3940 0.0000
# 3 37.6949 31.2400 121.2078 0.0000 -17.2529 0.0000
# 4 0.0000 0.0000 0.0000 28.4829 0.0000 -27.8531
# 5 -9.0037 -15.3940 -17.2529 0.0000 35.6473 0.0000
# 6 0.0000 0.0000 0.0000 -27.8531 0.0000 -2.6615
#
#
#
# Elastic Compliance Matrix: (Units=1/GPa)
#
#
# Indices 1 2 3 4 5 6 
#
# 1 0.011098 -0.001934 -0.002871 0.000000 0.000579 0.000000
# 2 -0.001934 0.007345 -0.000977 0.000000 0.002211 0.000000
# 3 -0.002871 -0.000977 0.009915 0.000000 0.003652 0.000000
# 4 0.000000 0.000000 0.000000 0.003125 0.000000 -0.032707
# 5 0.000579 0.002211 0.003652 0.000000 0.030921 0.000000
# 6 0.000000 0.000000 0.000000 -0.032707 0.000000 -0.033446
#
#
# Mechanical properties :
#
#
# Convention : Reuss Voigt Hill
#
# Bulk Modulus (GPa) = 59.54213 65.72742 62.63477
# Shear Modulus (GPa) = 108.41381 30.78719 69.60050
#
# Velocity S-wave (km/s) = 6.40748 3.41452 5.13394
# Velocity P-wave (km/s) = 8.79144 6.35893 7.67220
#
# Compressibility (1/GPa) = 0.01679483
#
# Stress axis : x y z
#
# Youngs Moduli (GPa) = 90.10471 136.14061 100.86087
#
# Poissons Ratio (x) = 0.26329 0.28954
# Poissons Ratio (y) = 0.17426 0.09855
# Poissons Ratio (z) = 0.25866 0.13302
#
# Static dielectric constant tensor:
#      x y z
#    x 2.022670 0.000000 0.107520 
#    y 0.000000 2.116840 0.000000 
#    z 0.107520 0.000000 2.243210 
# 
# From -- ./inp_files/11630.got.cif
#   From: 2010.05.17/outbox.cif.g08.bks.cpg/sg5_6_cif.got.tgz:11630.got - 2010.06.03 18:56:24.
