data_PCOD9126850
_publ_section_title
;
Structure prediction by ZEFSAII (Michael W. Deem and Ramdas Pophale) SiO2 
 PCOD9126850
Probable space group: C 2
;
_chemical_formula_sum "Si O2"
_cell_formula_units_Z 14
_cell_length_a 12.117810
_cell_length_b 4.930645
_cell_length_c 9.767990
_cell_angle_alpha 90.000000
_cell_angle_beta 74.030428
_cell_angle_gamma 90.000000
_cell_volume 561.100668
_symmetry_space_group_name_H-M "C 2"
_symmetry_group_IT_number 5
_symmetry_cell_setting 'monoclinic'
loop_
_space_group_symop_operation_xyz
x,y,z
-x,y,-z
1/2+x,1/2+y,z
1/2-x,1/2+y,-z
loop_
_atom_site_type_symbol
_atom_site_label
_atom_site_fract_x
_atom_site_fract_y
_atom_site_fract_z
Si Si1 0.000000 0.283751 0.000000
Si Si2 0.551250 0.517463 0.275087
Si Si3 0.752860 0.250526 0.082401
Si Si4 0.676549 0.610555 0.495147
O O1 0.873283 0.392703 0.084491
O O2 0.031216 0.143066 0.133158
O O3 0.641185 0.276318 0.214667
O O4 0.621110 0.680999 0.367282
O O5 0.426525 0.474916 0.382141
O O6 0.727079 0.436798 0.957624
O O7 0.774392 0.382041 0.454323
#
# Coordination Sequence:
#
# PCOD9126850 Si02
#       4
#     2   4   4   4
#     4  10  22  42  68 100 132 166 212 270 326 382
#     4  10  24  43  68  98 130 170 217 266 322 383
#     4  10  23  40  63  97 133 168 209 261 323 385
#     4  11  26  46  67  93 131 175 218 264 318 383
#
# _framework density 24.950956999999999
#
# number of rings (size 3 to 8) (size 9 to 14) (size 15 to 20)
#    0.000    1.714    0.000    1.714    0.000   29.714 
#    0.000    0.000    0.000    0.000    0.000    0.000 
#    0.000    0.000    0.000    0.000    0.000    0.000 
#
# Total GULP energy -38966.994924 kJ/mol
# GULP energy per Si atom -5566.713561 kJ/mol
# Density = 2.489417 g / cm^3
# Si number density = 24.950957 Si / 1000 Ang^3
#
#
#
# Elastic Constant Matrix: (Units=GPa)
#
#
# Indices 1 2 3 4 5 6 
#
# 1 160.0300 43.7321 50.2640 0.0000 -12.2021 0.0000
# 2 43.7321 95.0032 27.2368 0.0000 -1.5176 0.0000
# 3 50.2640 27.2368 142.2698 0.0000 2.5612 0.0000
# 4 0.0000 0.0000 0.0000 14.8970 0.0000 -7.0448
# 5 -12.2021 -1.5176 2.5612 0.0000 47.0555 0.0000
# 6 0.0000 0.0000 0.0000 -7.0448 0.0000 21.8068
#
#
#
# Elastic Compliance Matrix: (Units=1/GPa)
#
#
# Indices 1 2 3 4 5 6 
#
# 1 0.007932 -0.002967 -0.002272 0.000000 0.002085 0.000000
# 2 -0.002967 0.012257 -0.001293 0.000000 -0.000304 0.000000
# 3 -0.002272 -0.001293 0.008098 0.000000 -0.001072 0.000000
# 4 0.000000 0.000000 0.000000 0.079232 0.000000 0.025596
# 5 0.002085 -0.000304 -0.001072 0.000000 0.021841 0.000000
# 6 0.000000 0.000000 0.000000 0.025596 0.000000 0.054126
#
#
# Mechanical properties :
#
#
# Convention : Reuss Voigt Hill
#
# Bulk Modulus (GPa) = 65.68319 71.08542 68.38431
# Shear Modulus (GPa) = 24.79849 35.15653 29.97751
#
# Velocity S-wave (km/s) = 3.15602 3.75777 3.46996
# Velocity P-wave (km/s) = 6.29783 6.88329 6.59706
#
# Compressibility (1/GPa) = 0.01522460
#
# Stress axis : x y z
#
# Youngs Moduli (GPa) = 126.06958 81.58317 123.48060
#
# Poissons Ratio (x) = 0.24203 0.28055
# Poissons Ratio (y) = 0.37401 0.15966
# Poissons Ratio (z) = 0.28643 0.10549
#
# Static dielectric constant tensor:
#      x y z
#    x 2.080970 0.000000 -0.052200 
#    y 0.000000 1.975070 0.000000 
#    z -0.052200 0.000000 2.033790 
# 
# From -- ./inp_files/17703.got.cif
#   From: 2010.05.17/outbox.cif.g08.bks.cpg/sg5_9_cif.got.tgz:17703.got - 2010.06.03 18:56:24.
