data_PCOD9126321
_publ_section_title
;
Structure prediction by ZEFSAII (Michael W. Deem and Ramdas Pophale) SiO2 
 PCOD9126321
Probable space group: C 2
;
_chemical_formula_sum "Si O2"
_cell_formula_units_Z 32
_cell_length_a 8.443624
_cell_length_b 15.685336
_cell_length_c 11.492563
_cell_angle_alpha 90.000000
_cell_angle_beta 90.181023
_cell_angle_gamma 90.000000
_cell_volume 1522.079853
_symmetry_space_group_name_H-M "C 2"
_symmetry_group_IT_number 5
_symmetry_cell_setting 'monoclinic'
loop_
_space_group_symop_operation_xyz
x,y,z
-x,y,-z
1/2+x,1/2+y,z
1/2-x,1/2+y,-z
loop_
_atom_site_type_symbol
_atom_site_label
_atom_site_fract_x
_atom_site_fract_y
_atom_site_fract_z
Si Si1 0.324122 0.281990 0.942668
Si Si2 0.188765 0.463586 0.980017
Si Si3 0.335531 0.920950 0.768595
Si Si4 0.033072 0.551859 0.629539
Si Si5 0.972970 0.731665 0.713992
Si Si6 0.526850 0.415455 0.631057
Si Si7 0.173569 0.233606 0.170810
Si Si8 0.654571 0.555643 0.230996
O O1 0.355927 0.234224 0.823290
O O2 0.500000 0.295685 0.000000
O O3 0.241637 0.373202 0.926167
O O4 0.215742 0.232732 0.034595
O O5 0.247050 0.457216 0.114108
O O6 0.260194 0.532062 0.891475
O O7 0.000000 0.472311 0.000000
O O8 0.396938 0.826384 0.800984
O O9 0.210234 0.910324 0.665223
O O10 0.464195 0.986469 0.723637
O O11 0.954242 0.645027 0.643081
O O12 0.000000 0.520356 0.500000
O O13 0.214733 0.561644 0.666373
O O14 0.955328 0.820609 0.646300
O O15 0.152348 0.731796 0.766940
O O16 0.500000 0.445274 0.500000
O O17 0.455501 0.480222 0.725072
O O18 0.083296 0.149780 0.212319
#
# Coordination Sequence:
#
# PCOD9126321 Si02
#       8
#     4   4   4   4   4   4   4   4
#     4   9  17  34  59  85 116 153 190 239 293 354
#     4  11  21  35  59  89 120 150 187 248 298 351
#     4  10  22  40  59  85 119 154 192 246 295 343
#     4  11  22  38  58  86 119 155 202 245 286 345
#     4   9  18  34  59  87 110 150 201 239 285 343
#     4  11  22  40  61  86 119 157 199 241 286 347
#     4   8  19  34  57  82 119 150 188 239 297 349
#     4  11  22  37  61  88 114 159 197 239 299 347
#
# _framework density 21.023865000000001
#
# number of rings (size 3 to 8) (size 9 to 14) (size 15 to 20)
#    0.000    2.000    2.500    1.875    1.750    0.500 
#    0.000    4.375    0.000    0.000    0.000    0.000 
#    0.000    0.000    0.000    0.000    0.000    0.000 
#
# Total GULP energy -89288.035466 kJ/mol
# GULP energy per Si atom -5580.502217 kJ/mol
# Density = 2.097601 g / cm^3
# Si number density = 21.023865 Si / 1000 Ang^3
#
#
#
# Elastic Constant Matrix: (Units=GPa)
#
#
# Indices 1 2 3 4 5 6 
#
# 1 24.8680 17.5749 5.4010 0.0000 -3.1472 0.0000
# 2 17.5749 109.9768 19.4978 0.0000 -20.2704 0.0000
# 3 5.4010 19.4978 84.2318 0.0000 -1.2628 0.0000
# 4 0.0000 0.0000 0.0000 25.4330 0.0000 -1.1826
# 5 -3.1472 -20.2704 -1.2628 0.0000 25.4229 0.0000
# 6 0.0000 0.0000 0.0000 -1.1826 0.0000 17.8842
#
#
#
# Elastic Compliance Matrix: (Units=1/GPa)
#
#
# Indices 1 2 3 4 5 6 
#
# 1 0.045465 -0.007048 -0.001285 0.000000 -0.000055 0.000000
# 2 -0.007048 0.012234 -0.002249 0.000000 0.008771 0.000000
# 3 -0.001285 -0.002249 0.012455 0.000000 -0.001333 0.000000
# 4 0.000000 0.000000 0.000000 0.039440 0.000000 0.002608
# 5 -0.000055 0.008771 -0.001333 0.000000 0.046255 0.000000
# 6 0.000000 0.000000 0.000000 0.002608 0.000000 0.056088
#
#
# Mechanical properties :
#
#
# Convention : Reuss Voigt Hill
#
# Bulk Modulus (GPa) = 20.41141 33.78043 27.09592
# Shear Modulus (GPa) = 20.04566 25.52155 22.78361
#
# Velocity S-wave (km/s) = 3.09118 3.48793 3.29553
# Velocity P-wave (km/s) = 4.74029 5.68537 5.23420
#
# Compressibility (1/GPa) = 0.04899221
#
# Stress axis : x y z
#
# Youngs Moduli (GPa) = 21.99472 81.73703 80.28982
#
# Poissons Ratio (x) = 0.57609 0.10314
# Poissons Ratio (y) = 0.15502 0.18054
# Poissons Ratio (z) = 0.02825 0.18379
#
# Static dielectric constant tensor:
#      x y z
#    x 1.759020 0.000000 0.022520 
#    y 0.000000 1.772920 0.000000 
#    z 0.022520 0.000000 1.742810 
# 
# From -- ./inp_files/36403.got.cif
#   From: 2010.05.17/outbox.cif.g08.bks.cpg/sg5_19_cif.got.tgz:36403.got - 2010.06.03 18:56:24.
