data_PCOD9126072
_publ_section_title
;
Structure prediction by ZEFSAII (Michael W. Deem and Ramdas Pophale) SiO2 
 PCOD9126072
Probable space group: C 2
;
_chemical_formula_sum "Si O2"
_cell_formula_units_Z 24
_cell_length_a 11.197838
_cell_length_b 19.184180
_cell_length_c 9.488742
_cell_angle_alpha 90.000000
_cell_angle_beta 34.613840
_cell_angle_gamma 90.000000
_cell_volume 1157.889019
_symmetry_space_group_name_H-M "C 2"
_symmetry_group_IT_number 5
_symmetry_cell_setting 'monoclinic'
loop_
_space_group_symop_operation_xyz
x,y,z
-x,y,-z
1/2+x,1/2+y,z
1/2-x,1/2+y,-z
loop_
_atom_site_type_symbol
_atom_site_label
_atom_site_fract_x
_atom_site_fract_y
_atom_site_fract_z
Si Si1 0.000000 0.815670 0.500000
Si Si2 0.604768 0.874237 0.745863
Si Si3 0.356867 0.772618 0.775771
Si Si4 0.919063 0.691992 0.769379
Si Si5 0.820748 0.476902 0.553828
Si Si6 0.500000 0.372257 0.000000
Si Si7 0.783066 0.130037 0.280827
O O1 0.153573 0.858073 0.450523
O O2 0.124366 0.762092 0.278501
O O3 0.503051 0.813947 0.746234
O O4 0.583281 0.946972 0.683440
O O5 0.500000 0.876298 0.000000
O O6 0.500000 0.759040 0.500000
O O7 0.229175 0.704356 0.954339
O O8 0.166502 0.824412 0.919486
O O9 0.846296 0.628693 0.741533
O O10 0.171249 0.679902 0.506982
O O11 0.717185 0.553116 0.655106
O O12 0.000000 0.473657 0.500000
O O13 0.639905 0.421729 0.767019
O O14 0.000000 0.155157 0.000000
#
# Coordination Sequence:
#
# PCOD9126072 Si02
#       7
#     2   4   4   4   4   2   4
#     4  10  22  38  60 100 136 170 214 280 332 400
#     4  12  24  39  65 100 139 171 218 275 346 397
#     4  12  25  40  66 105 142 177 216 279 346 404
#     4  10  23  38  64  98 130 171 232 269 326 399
#     4  12  22  42  67  99 129 172 232 276 334 404
#     4  12  22  40  68 102 136 170 220 286 342 402
#     4  10  22  40  69  92 123 180 230 277 319 396
#
# _framework density 20.727376
#
# number of rings (size 3 to 8) (size 9 to 14) (size 15 to 20)
#    0.000    1.000    7.500    1.000    4.667    0.000 
#    0.000    0.000    5.500    0.000    0.000    0.000 
#    0.000    0.000    0.000    0.000    0.000    0.000 
#
# Total GULP energy -66842.932531 kJ/mol
# GULP energy per Si atom -5570.244378 kJ/mol
# Density = 2.068020 g / cm^3
# Si number density = 20.727376 Si / 1000 Ang^3
#
#
#
# Elastic Constant Matrix: (Units=GPa)
#
#
# Indices 1 2 3 4 5 6 
#
# 1 93.8519 27.1158 37.5554 -0.0003 -3.7432 0.0002
# 2 27.1158 78.5028 40.4866 0.0000 7.8697 -0.0001
# 3 37.5554 40.4866 168.4785 -0.0005 11.9549 0.0003
# 4 -0.0003 0.0000 -0.0005 36.7879 0.0003 0.5641
# 5 -3.7432 7.8697 11.9549 0.0003 35.7884 -0.0001
# 6 0.0002 -0.0001 0.0003 0.5641 -0.0001 11.8538
#
#
#
# Elastic Compliance Matrix: (Units=1/GPa)
#
#
# Indices 1 2 3 4 5 6 
#
# 1 0.012659 -0.003535 -0.002173 0.000000 0.002827 0.000000
# 2 -0.003535 0.015680 -0.002775 0.000000 -0.002891 0.000000
# 3 -0.002173 -0.002775 0.007231 0.000000 -0.002032 0.000000
# 4 0.000000 0.000000 0.000000 0.027203 0.000000 -0.001295
# 5 0.002827 -0.002891 -0.002032 0.000000 0.029552 0.000000
# 6 0.000000 0.000000 0.000000 -0.001295 0.000000 0.084423
#
#
# Mechanical properties :
#
#
# Convention : Reuss Voigt Hill
#
# Bulk Modulus (GPa) = 53.75199 61.23877 57.49538
# Shear Modulus (GPa) = 25.01061 32.59770 28.80415
#
# Velocity S-wave (km/s) = 3.47745 3.97002 3.73187
# Velocity P-wave (km/s) = 6.48943 7.11503 6.80942
#
# Compressibility (1/GPa) = 0.01860396
#
# Stress axis : x y z
#
# Youngs Moduli (GPa) = 78.99685 63.77354 138.29581
#
# Poissons Ratio (x) = 0.22546 0.30049
# Poissons Ratio (y) = 0.27928 0.38376
# Poissons Ratio (z) = 0.17164 0.17697
#
# Static dielectric constant tensor:
#      x y z
#    x 1.880860 0.000000 -0.105320 
#    y 0.000000 1.735810 0.000000 
#    z -0.105320 0.000000 1.956800 
# 
# From -- ./inp_files/21737.got.cif
#   From: 2010.05.17/outbox.cif.g08.bks.cpg/sg5_11_cif.got.tgz:21737.got - 2010.06.03 18:56:24.
