data_PCOD9126099
_publ_section_title
;
Structure prediction by ZEFSAII (Michael W. Deem and Ramdas Pophale) SiO2 
 PCOD9126099
Probable space group: C 2
;
_chemical_formula_sum "Si O2"
_cell_formula_units_Z 32
_cell_length_a 8.514939
_cell_length_b 14.037683
_cell_length_c 14.328719
_cell_angle_alpha 90.000000
_cell_angle_beta 112.332456
_cell_angle_gamma 90.000000
_cell_volume 1584.249378
_symmetry_space_group_name_H-M "C 2"
_symmetry_group_IT_number 5
_symmetry_cell_setting 'monoclinic'
loop_
_space_group_symop_operation_xyz
x,y,z
-x,y,-z
1/2+x,1/2+y,z
1/2-x,1/2+y,-z
loop_
_atom_site_type_symbol
_atom_site_label
_atom_site_fract_x
_atom_site_fract_y
_atom_site_fract_z
Si Si1 0.352872 0.807780 0.167105
Si Si2 0.663589 0.509261 0.885843
Si Si3 0.098290 0.659865 0.749826
Si Si4 0.902678 0.482335 0.780350
Si Si5 0.809125 0.174863 0.984308
Si Si6 0.529927 0.478251 0.613458
Si Si7 0.574156 0.640192 0.290013
Si Si8 0.443813 0.352634 0.759873
O O1 0.274258 0.744600 0.064470
O O2 0.471070 0.736779 0.253440
O O3 0.207090 0.847718 0.200745
O O4 0.477651 0.893782 0.167397
O O5 0.828378 0.525748 0.859241
O O6 0.697799 0.562403 0.989517
O O7 0.508444 0.571083 0.807834
O O8 0.601008 0.401606 0.853905
O O9 0.231016 0.654781 0.694640
O O10 0.974216 0.749563 0.721489
O O11 0.003355 0.560715 0.744312
O O12 0.199446 0.683431 0.867805
O O13 0.726739 0.459010 0.686002
O O14 0.000000 0.199436 0.000000
O O15 0.500000 0.455219 0.500000
O O16 0.474996 0.586584 0.626017
O O17 0.421154 0.418765 0.664005
#
# Coordination Sequence:
#
# PCOD9126099 Si02
#       8
#     4   4   4   4   4   4   4   4
#     4  11  21  40  59  90 126 168 204 246 301 355
#     4   9  19  37  53  83 117 160 203 251 296 342
#     4  12  21  39  60  89 126 168 202 248 299 358
#     4  10  22  38  63  86 124 162 200 253 320 354
#     4  11  23  36  59  86 127 168 221 247 277 358
#     4  10  22  44  68  92 116 151 205 262 317 387
#     4   9  18  37  60  83 121 153 190 250 314 350
#     4  10  22  38  62  86 123 163 198 252 321 354
#
# _framework density 20.198840000000001
#
# number of rings (size 3 to 8) (size 9 to 14) (size 15 to 20)
#    0.000    2.000    2.500    5.250    0.000    3.000 
#    0.000    7.500    0.000    0.000    0.000    0.000 
#    0.000    0.000    0.000    0.000    0.000    0.000 
#
# Total GULP energy -89201.847734 kJ/mol
# GULP energy per Si atom -5575.115483 kJ/mol
# Density = 2.015287 g / cm^3
# Si number density = 20.198840 Si / 1000 Ang^3
#
#
#
# Elastic Constant Matrix: (Units=GPa)
#
#
# Indices 1 2 3 4 5 6 
#
# 1 80.7454 -0.4402 18.9722 0.0000 -13.8050 0.0000
# 2 -0.4402 67.6323 6.5223 0.0000 -2.3239 0.0000
# 3 18.9722 6.5223 61.0508 0.0000 -16.3280 0.0000
# 4 0.0000 0.0000 0.0000 -22.6621 0.0000 31.7059
# 5 -13.8050 -2.3239 -16.3280 0.0000 17.5777 0.0000
# 6 0.0000 0.0000 0.0000 31.7059 0.0000 0.2636
#
#
#
# Elastic Compliance Matrix: (Units=1/GPa)
#
#
# Indices 1 2 3 4 5 6 
#
# 1 0.014502 0.000618 -0.002002 0.000000 0.009611 0.000000
# 2 0.000618 0.014972 -0.001507 0.000000 0.001065 0.000000
# 3 -0.002002 -0.001507 0.022206 0.000000 0.018856 0.000000
# 4 0.000000 0.000000 0.000000 -0.000261 0.000000 0.031354
# 5 0.009611 0.001065 0.018856 0.000000 0.082095 0.000000
# 6 0.000000 0.000000 0.000000 0.031354 0.000000 0.022410
#
#
# Mechanical properties :
#
#
# Convention : Reuss Voigt Hill
#
# Bulk Modulus (GPa) = 21.78778 28.83748 25.31263
# Shear Modulus (GPa) = 28.24788 11.32745 19.78767
#
# Velocity S-wave (km/s) = 3.74370 2.37069 3.13332
# Velocity P-wave (km/s) = 5.43112 4.66919 5.06450
#
# Compressibility (1/GPa) = 0.04589730
#
# Stress axis : x y z
#
# Youngs Moduli (GPa) = 68.95798 66.79253 45.03316
#
# Poissons Ratio (x) = -0.04126 0.09016
# Poissons Ratio (y) = -0.04260 0.06785
# Poissons Ratio (z) = 0.13806 0.10063
#
# Static dielectric constant tensor:
#      x y z
#    x 1.717890 0.000000 0.019860 
#    y 0.000000 1.784860 0.000000 
#    z 0.019860 0.000000 1.758840 
# 
# From -- ./inp_files/50761.got.cif
#   From: 2010.05.17/outbox.cif.g08.bks.cpg/sg5_26_cif.got.tgz:50761.got - 2010.06.03 18:56:24.
