data_PCOD9126257
_publ_section_title
;
Structure prediction by ZEFSAII (Michael W. Deem and Ramdas Pophale) SiO2 
 PCOD9126257
Probable space group: C 2
;
_chemical_formula_sum "Si O2"
_cell_formula_units_Z 24
_cell_length_a 10.892986
_cell_length_b 9.325412
_cell_length_c 28.266042
_cell_angle_alpha 90.000000
_cell_angle_beta 154.770965
_cell_angle_gamma 90.000000
_cell_volume 1223.860444
_symmetry_space_group_name_H-M "C 2"
_symmetry_group_IT_number 5
_symmetry_cell_setting 'monoclinic'
loop_
_space_group_symop_operation_xyz
x,y,z
-x,y,-z
1/2+x,1/2+y,z
1/2-x,1/2+y,-z
loop_
_atom_site_type_symbol
_atom_site_label
_atom_site_fract_x
_atom_site_fract_y
_atom_site_fract_z
Si Si1 0.249050 0.521490 0.206892
Si Si2 0.776701 0.217643 0.459871
Si Si3 0.608436 0.781379 0.809449
Si Si4 0.436853 0.518357 0.030900
Si Si5 0.772663 0.205124 0.787140
Si Si6 0.916914 0.977661 0.371906
O O1 0.383916 0.641058 0.220302
O O2 0.329553 0.355916 0.225525
O O3 0.336254 0.541868 0.292166
O O4 0.904009 0.523374 0.081208
O O5 0.507008 0.147600 0.337875
O O6 0.640113 0.347131 0.441950
O O7 0.000000 0.280016 0.500000
O O8 0.945796 0.099377 0.548449
O O9 0.501870 0.741445 0.825257
O O10 0.372868 0.899547 0.710909
O O11 0.915129 0.861308 0.915842
O O12 0.588959 0.608604 0.124821
O O13 0.500000 0.574875 0.000000
#
# Coordination Sequence:
#
# PCOD9126257 Si02
#       6
#     4   4   4   4   4   4
#     4  10  22  40  64  90 125 164 200 252 305 361
#     4  10  22  39  63  87 124 159 206 256 302 364
#     4  10  22  44  62  90 132 158 205 254 303 370
#     4  12  21  40  66  88 128 161 202 254 304 364
#     4  10  24  42  60  93 123 164 205 254 309 356
#     4  10  23  41  61  93 123 163 204 255 308 355
#
# _framework density 19.610078999999999
#
# number of rings (size 3 to 8) (size 9 to 14) (size 15 to 20)
#    0.000    2.000    3.333    2.000    0.000    8.000 
#    6.000    0.000    0.000    0.000    0.000    0.000 
#    0.000    0.000    0.000    0.000    0.000    0.000 
#
# Total GULP energy -66969.986013 kJ/mol
# GULP energy per Si atom -5580.832168 kJ/mol
# Density = 1.956545 g / cm^3
# Si number density = 19.610079 Si / 1000 Ang^3
#
#
#
# Elastic Constant Matrix: (Units=GPa)
#
#
# Indices 1 2 3 4 5 6 
#
# 1 57.6608 53.4664 25.9813 0.0001 -1.0891 0.0002
# 2 53.4664 93.3243 48.9209 0.0004 -15.5759 0.0007
# 3 25.9813 48.9209 93.1475 -0.0013 -5.1909 -0.0022
# 4 0.0001 0.0004 -0.0013 37.9648 -0.0008 -6.2757
# 5 -1.0891 -15.5759 -5.1909 -0.0008 26.1995 -0.0010
# 6 0.0002 0.0007 -0.0022 -6.2757 -0.0010 36.8489
#
#
#
# Elastic Compliance Matrix: (Units=1/GPa)
#
#
# Indices 1 2 3 4 5 6 
#
# 1 0.041167 -0.026880 0.001860 0.000000 -0.013901 0.000000
# 2 -0.026880 0.033876 -0.009337 0.000000 0.017172 -0.000001
# 3 0.001860 -0.009337 0.014981 0.000001 -0.002505 0.000001
# 4 0.000000 0.000000 0.000001 0.027103 0.000001 0.004616
# 5 -0.013901 0.017172 -0.002505 0.000001 0.047304 0.000001
# 6 0.000000 -0.000001 0.000001 0.004616 0.000001 0.027924
#
#
# Mechanical properties :
#
#
# Convention : Reuss Voigt Hill
#
# Bulk Modulus (GPa) = 46.92669 55.65219 51.28944
# Shear Modulus (GPa) = 18.64489 27.92026 23.28257
#
# Velocity S-wave (km/s) = 3.08682 3.77738 3.44943
# Velocity P-wave (km/s) = 6.05693 6.88954 6.48661
#
# Compressibility (1/GPa) = 0.02130984
#
# Stress axis : x y z
#
# Youngs Moduli (GPa) = 24.29158 29.51986 66.75161
#
# Poissons Ratio (x) = 0.79349 -0.12417
# Poissons Ratio (y) = 0.65295 0.62325
# Poissons Ratio (z) = -0.04519 0.27562
#
# Static dielectric constant tensor:
#      x y z
#    x 1.694400 0.000000 0.013160 
#    y 0.000000 1.679930 0.000000 
#    z 0.013160 0.000000 1.718260 
# 
# From -- ./inp_files/67985.got.cif
#   From: 2010.05.17/outbox.cif.g08.bks.cpg/sg5_34_cif.got.tgz:67985.got - 2010.06.03 18:56:24.
