data_PCOD9126092
_publ_section_title
;
Structure prediction by ZEFSAII (Michael W. Deem and Ramdas Pophale) SiO2 
 PCOD9126092
Probable space group: C 2
;
_chemical_formula_sum "Si O2"
_cell_formula_units_Z 28
_cell_length_a 8.384166
_cell_length_b 11.112288
_cell_length_c 15.039188
_cell_angle_alpha 90.000000
_cell_angle_beta 126.302276
_cell_angle_gamma 90.000000
_cell_volume 1129.201558
_symmetry_space_group_name_H-M "C 2"
_symmetry_group_IT_number 5
_symmetry_cell_setting 'monoclinic'
loop_
_space_group_symop_operation_xyz
x,y,z
-x,y,-z
1/2+x,1/2+y,z
1/2-x,1/2+y,-z
loop_
_atom_site_type_symbol
_atom_site_label
_atom_site_fract_x
_atom_site_fract_y
_atom_site_fract_z
Si Si1 0.377514 0.772310 0.676558
Si Si2 0.174244 0.764827 0.231195
Si Si3 0.277229 0.775415 0.455959
Si Si4 0.455692 0.473359 0.391756
Si Si5 0.381860 0.435039 0.046588
Si Si6 0.281826 0.040408 0.849279
Si Si7 0.994853 0.284141 0.096569
O O1 0.603196 0.805355 0.723218
O O2 0.287550 0.712403 0.556817
O O3 0.227221 0.883493 0.644645
O O4 0.408949 0.718933 0.786310
O O5 0.178388 0.719959 0.334880
O O6 0.102651 0.657405 0.143846
O O7 0.025588 0.873420 0.166218
O O8 0.500000 0.807344 0.500000
O O9 0.143992 0.892980 0.429201
O O10 0.500000 0.540370 0.500000
O O11 0.390942 0.544047 0.282713
O O12 0.279703 0.540871 0.068621
O O13 0.500000 0.472789 0.000000
O O14 0.224738 0.335627 0.961819
O O15 0.384298 0.911068 0.872868
O O16 0.000000 0.229138 0.000000
#
# Coordination Sequence:
#
# PCOD9126092 Si02
#       7
#     4   4   4   4   4   4   4
#     4   9  18  34  57  87 122 162 205 252 315 382
#     4  11  21  37  62  91 117 164 210 261 318 379
#     4   9  18  33  60  90 116 161 211 250 316 386
#     4   9  17  34  60  86 123 165 199 253 322 372
#     4  11  21  38  63  84 124 165 207 258 318 367
#     4  10  22  38  61  92 123 158 216 257 313 383
#     4   9  19  37  58  85 122 165 206 255 310 370
#
# _framework density 24.796281
#
# number of rings (size 3 to 8) (size 9 to 14) (size 15 to 20)
#    0.000    2.286    2.857    0.000    0.000    3.429 
#    0.000    2.143    0.000    4.286    0.000    0.000 
#    0.000    0.000    0.000    0.000    0.000    0.000 
#
# Total GULP energy -78116.549444 kJ/mol
# GULP energy per Si atom -5579.753532 kJ/mol
# Density = 2.473984 g / cm^3
# Si number density = 24.796281 Si / 1000 Ang^3
#
#
#
# Elastic Constant Matrix: (Units=GPa)
#
#
# Indices 1 2 3 4 5 6 
#
# 1 90.1087 30.4749 48.0117 0.0000 -19.0779 0.0000
# 2 30.4749 62.1733 32.7965 0.0000 -4.4785 0.0000
# 3 48.0117 32.7965 215.1471 0.0000 -50.9047 0.0000
# 4 0.0000 0.0000 0.0000 38.3128 0.0000 -4.7761
# 5 -19.0779 -4.4785 -50.9047 0.0000 61.8136 0.0000
# 6 0.0000 0.0000 0.0000 -4.7761 0.0000 26.6585
#
#
#
# Elastic Compliance Matrix: (Units=1/GPa)
#
#
# Indices 1 2 3 4 5 6 
#
# 1 0.014627 -0.006077 -0.001706 0.000000 0.002669 0.000000
# 2 -0.006077 0.020082 -0.002241 0.000000 -0.002266 0.000000
# 3 -0.001706 -0.002241 0.006468 0.000000 0.004637 0.000000
# 4 0.000000 0.000000 0.000000 0.026697 0.000000 0.004783
# 5 0.002669 -0.002266 0.004637 0.000000 0.020656 0.000000
# 6 0.000000 0.000000 0.000000 0.004783 0.000000 0.038368
#
#
# Mechanical properties :
#
#
# Convention : Reuss Voigt Hill
#
# Bulk Modulus (GPa) = 47.33286 65.55504 56.44395
# Shear Modulus (GPa) = 32.46946 42.43339 37.45142
#
# Velocity S-wave (km/s) = 3.62256 4.14125 3.89056
# Velocity P-wave (km/s) = 6.05205 7.02577 6.55701
#
# Compressibility (1/GPa) = 0.02112697
#
# Stress axis : x y z
#
# Youngs Moduli (GPa) = 68.36509 49.79576 154.61746
#
# Poissons Ratio (x) = 0.30263 0.26382
# Poissons Ratio (y) = 0.41549 0.34654
# Poissons Ratio (z) = 0.11665 0.11161
#
# Static dielectric constant tensor:
#      x y z
#    x 1.995720 0.000000 -0.022930 
#    y 0.000000 1.967380 0.000000 
#    z -0.022930 0.000000 2.022250 
# 
# From -- ./inp_files/50560.got.cif
#   From: 2010.05.17/outbox.cif.g08.bks.cpg/sg5_26_cif.got.tgz:50560.got - 2010.06.03 18:56:24.
