data_PCOD9126651
_publ_section_title
;
Structure prediction by ZEFSAII (Michael W. Deem and Ramdas Pophale) SiO2 
 PCOD9126651
Probable space group: C 2
;
_chemical_formula_sum "Si O2"
_cell_formula_units_Z 30
_cell_length_a 12.744091
_cell_length_b 20.658415
_cell_length_c 11.273764
_cell_angle_alpha 90.000000
_cell_angle_beta 24.648266
_cell_angle_gamma 90.000000
_cell_volume 1237.825344
_symmetry_space_group_name_H-M "C 2"
_symmetry_group_IT_number 5
_symmetry_cell_setting 'monoclinic'
loop_
_space_group_symop_operation_xyz
x,y,z
-x,y,-z
1/2+x,1/2+y,z
1/2-x,1/2+y,-z
loop_
_atom_site_type_symbol
_atom_site_label
_atom_site_fract_x
_atom_site_fract_y
_atom_site_fract_z
Si Si1 0.742615 0.536200 0.043475
Si Si2 0.089761 0.285472 0.288407
Si Si3 0.157016 0.659565 0.948626
Si Si4 0.000000 0.485069 0.500000
Si Si5 0.233075 0.845979 0.342767
Si Si6 0.767345 0.712229 0.532519
Si Si7 0.218236 0.069387 0.635480
Si Si8 0.563405 0.907990 0.189134
O O1 0.670532 0.598698 0.196702
O O2 0.796620 0.463256 0.031097
O O3 0.017379 0.558242 0.709056
O O4 0.505397 0.533349 0.201161
O O5 0.198375 0.340471 0.088077
O O6 0.000000 0.321649 0.500000
O O7 0.907928 0.244273 0.388690
O O8 0.240109 0.228368 0.197871
O O9 0.011784 0.686121 0.213456
O O10 0.000000 0.633674 0.000000
O O11 0.223564 0.535073 0.300436
O O12 0.027616 0.443384 0.352663
O O13 0.183311 0.771220 0.430227
O O14 0.307331 0.886855 0.384943
O O15 0.000000 0.866864 0.500000
O O16 0.500000 0.847287 0.000000
O O17 0.661259 0.646132 0.698831
#
# Coordination Sequence:
#
# PCOD9126651 Si02
#       8
#     4   4   4   2   4   4   4   4
#     4  10  23  44  64  98 143 190 233 290 353 446
#     4  11  20  40  69 105 150 185 242 304 374 436
#     4  11  22  39  70 108 140 192 244 307 372 437
#     4  10  22  44  68 108 138 190 232 312 378 438
#     4  11  28  48  72 103 142 198 252 297 364 447
#     4  10  23  42  67 102 145 187 240 306 368 441
#     4  10  22  41  67  97 141 180 234 287 365 435
#     4  10  24  46  71 105 149 190 248 304 378 439
#
# _framework density 24.236052000000001
#
# number of rings (size 3 to 8) (size 9 to 14) (size 15 to 20)
#    0.000    1.600    3.333    0.000    4.667    4.800 
#    9.600    0.000    0.000    0.000    0.000    0.000 
#    0.000    0.000    0.000    0.000    0.000    0.000 
#
# Total GULP energy -83526.098148 kJ/mol
# GULP energy per Si atom -5568.406543 kJ/mol
# Density = 2.418089 g / cm^3
# Si number density = 24.236052 Si / 1000 Ang^3
#
#
#
# Elastic Constant Matrix: (Units=GPa)
#
#
# Indices 1 2 3 4 5 6 
#
# 1 129.7861 52.5245 23.3389 0.1225 -32.1797 0.2832
# 2 52.5245 196.2302 19.0077 -0.4878 -11.6508 -0.6305
# 3 23.3389 19.0077 72.1724 -0.4786 -12.4498 -0.0246
# 4 0.1225 -0.4878 -0.4786 39.6608 -0.0652 40.0011
# 5 -32.1797 -11.6508 -12.4498 -0.0652 40.6563 -0.2084
# 6 0.2832 -0.6305 -0.0246 40.0011 -0.2084 108.7511
#
#
#
# Elastic Compliance Matrix: (Units=1/GPa)
#
#
# Indices 1 2 3 4 5 6 
#
# 1 0.010741 -0.002283 -0.001604 -0.000065 0.007356 -0.000004
# 2 -0.002283 0.005765 -0.000851 0.000045 -0.000416 0.000022
# 3 -0.001604 -0.000851 0.015139 0.000276 0.003123 -0.000093
# 4 -0.000065 0.000045 0.000276 0.040090 0.000035 -0.014745
# 5 0.007356 -0.000416 0.003123 0.000035 0.031256 0.000026
# 6 -0.000004 0.000022 -0.000093 -0.014745 0.000026 0.014619
#
#
# Mechanical properties :
#
#
# Convention : Reuss Voigt Hill
#
# Bulk Modulus (GPa) = 45.10790 65.32565 55.21677
# Shear Modulus (GPa) = 37.18103 58.03480 47.60792
#
# Velocity S-wave (km/s) = 3.92103 4.89874 4.43690
# Velocity P-wave (km/s) = 6.25713 7.68175 7.00575
#
# Compressibility (1/GPa) = 0.02216907
#
# Stress axis : x y z
#
# Youngs Moduli (GPa) = 93.09746 173.45542 66.05472
#
# Poissons Ratio (x) = 0.39603 0.10593
# Poissons Ratio (y) = 0.21256 0.05624
# Poissons Ratio (z) = 0.14930 0.14768
#
# Static dielectric constant tensor:
#      x y z
#    x 1.851300 0.000110 -0.245010 
#    y 0.000110 1.978900 0.000710 
#    z -0.245010 0.000710 0.826890 
# 
# From -- ./inp_files/40698.got.cif
#   From: 2010.05.17/outbox.cif.g08.bks.cpg/sg5_21_cif.got.tgz:40698.got - 2010.06.03 18:56:24.
