data_PCOD9126352
_publ_section_title
;
Structure prediction by ZEFSAII (Michael W. Deem and Ramdas Pophale) SiO2 
 PCOD9126352
Probable space group: C 2
;
_chemical_formula_sum "Si O2"
_cell_formula_units_Z 32
_cell_length_a 14.840588
_cell_length_b 8.309644
_cell_length_c 22.531527
_cell_angle_alpha 90.000000
_cell_angle_beta 146.605312
_cell_angle_gamma 90.000000
_cell_volume 1529.344096
_symmetry_space_group_name_H-M "C 2"
_symmetry_group_IT_number 5
_symmetry_cell_setting 'monoclinic'
loop_
_space_group_symop_operation_xyz
x,y,z
-x,y,-z
1/2+x,1/2+y,z
1/2-x,1/2+y,-z
loop_
_atom_site_type_symbol
_atom_site_label
_atom_site_fract_x
_atom_site_fract_y
_atom_site_fract_z
Si Si1 0.327271 0.929950 0.063017
Si Si2 0.441847 0.237088 0.287249
Si Si3 0.455132 0.289598 0.160908
Si Si4 0.564694 0.668858 0.468040
Si Si5 0.753818 0.360630 0.524281
Si Si6 0.912519 0.363959 0.890372
Si Si7 0.427649 0.867910 0.244348
Si Si8 0.228894 0.689793 0.226654
O O1 0.457759 0.848835 0.090672
O O2 0.353080 0.841110 0.139208
O O3 0.369864 0.115452 0.101335
O O4 0.152677 0.913586 0.935957
O O5 0.460492 0.328840 0.233764
O O6 0.581985 0.278190 0.411871
O O7 0.258932 0.271834 0.209437
O O8 0.459102 0.053830 0.276274
O O9 0.630951 0.263803 0.227727
O O10 0.500000 0.685321 0.500000
O O11 0.693461 0.527809 0.521527
O O12 0.641858 0.831457 0.480358
O O13 0.398994 0.618019 0.343365
O O14 0.892794 0.288969 0.645396
O O15 0.869247 0.553203 0.861879
O O16 0.000000 0.322487 0.000000
O O17 0.288170 0.819891 0.213252
#
# Coordination Sequence:
#
# PCOD9126352 Si02
#       8
#     4   4   4   4   4   4   4   4
#     4  10  23  39  60  88 124 163 209 252 323 380
#     4  11  21  41  63  88 125 163 209 265 320 381
#     4  10  22  40  62  87 122 167 206 260 318 387
#     4  11  23  42  71  96 132 176 219 277 338 392
#     4  11  22  41  69  94 130 173 224 273 334 398
#     4  11  22  38  60  90 121 163 211 256 315 388
#     4  10  24  40  61  91 126 163 205 268 320 383
#     4  10  23  39  63  92 120 166 210 260 325 384
#
# _framework density 20.924002000000002
#
# number of rings (size 3 to 8) (size 9 to 14) (size 15 to 20)
#    0.000    1.500    3.750    0.750    7.000    1.000 
#    0.000    0.625   11.000    0.000    0.000    0.000 
#    0.000    0.000    0.000    0.000    0.000    0.000 
#
# Total GULP energy -89107.227717 kJ/mol
# GULP energy per Si atom -5569.201732 kJ/mol
# Density = 2.087638 g / cm^3
# Si number density = 20.924002 Si / 1000 Ang^3
#
#
#
# Elastic Constant Matrix: (Units=GPa)
#
#
# Indices 1 2 3 4 5 6 
#
# 1 34.9416 28.6635 -28.7976 0.0000 13.3764 0.0000
# 2 28.6635 14.7568 9.2327 0.0000 0.9682 0.0000
# 3 -28.7976 9.2327 29.4713 0.0000 21.8099 0.0000
# 4 0.0000 0.0000 0.0000 25.6732 0.0000 1.6430
# 5 13.3764 0.9682 21.8099 0.0000 38.2830 0.0000
# 6 0.0000 0.0000 0.0000 1.6430 0.0000 11.5964
#
#
#
# Elastic Compliance Matrix: (Units=1/GPa)
#
#
# Indices 1 2 3 4 5 6 
#
# 1 -0.003837 0.017443 -0.017081 0.000000 0.010631 0.000000
# 2 0.017443 0.017691 0.028257 0.000000 -0.022640 0.000000
# 3 -0.017081 0.028257 0.007781 0.000000 0.000821 0.000000
# 4 0.000000 0.000000 0.000000 0.039308 0.000000 -0.005569
# 5 0.010631 -0.022640 0.000821 0.000000 0.022512 0.000000
# 6 0.000000 0.000000 0.000000 -0.005569 0.000000 0.087023
#
#
# Mechanical properties :
#
#
# Convention : Reuss Voigt Hill
#
# Bulk Modulus (GPa) = 12.67895 10.81853 11.74874
# Shear Modulus (GPa) = 35.83465 19.78192 27.80829
#
# Velocity S-wave (km/s) = 4.14286 3.07810 3.64952
# Velocity P-wave (km/s) = 5.38118 4.22073 4.83589
#
# Compressibility (1/GPa) = 0.07887086
#
# Stress axis : x y z
#
# Youngs Moduli (GPa) = -260.60501 56.52661 128.52232
#
# Poissons Ratio (x) = -0.98599 2.19533
# Poissons Ratio (y) = 4.54572 -3.63160
# Poissons Ratio (z) = -4.45147 -1.59725
#
# Static dielectric constant tensor:
#      x y z
#    x 1.745210 0.000000 -0.023220 
#    y 0.000000 1.811680 0.000000 
#    z -0.023220 0.000000 1.789580 
# 
# From -- ./inp_files/48396.got.cif
#   From: 2010.05.17/outbox.cif.g08.bks.cpg/sg5_25_cif.got.tgz:48396.got - 2010.06.03 18:56:24.
