data_PCOD9126045
_publ_section_title
;
Structure prediction by ZEFSAII (Michael W. Deem and Ramdas Pophale) SiO2 
 PCOD9126045
Probable space group: C 2
;
_chemical_formula_sum "Si O2"
_cell_formula_units_Z 22
_cell_length_a 13.515231
_cell_length_b 11.646394
_cell_length_c 11.254644
_cell_angle_alpha 90.000000
_cell_angle_beta 147.835462
_cell_angle_gamma 90.000000
_cell_volume 943.074416
_symmetry_space_group_name_H-M "C 2"
_symmetry_group_IT_number 5
_symmetry_cell_setting 'monoclinic'
loop_
_space_group_symop_operation_xyz
x,y,z
-x,y,-z
1/2+x,1/2+y,z
1/2-x,1/2+y,-z
loop_
_atom_site_type_symbol
_atom_site_label
_atom_site_fract_x
_atom_site_fract_y
_atom_site_fract_z
Si Si1 0.138566 0.008510 0.025495
Si Si2 0.000000 0.501518 0.500000
Si Si3 0.043730 0.933529 0.408215
Si Si4 0.969096 0.504714 0.831389
Si Si5 0.125503 0.681698 0.441100
Si Si6 0.963708 0.256840 0.103320
O O1 0.168845 0.145944 0.032289
O O2 0.330837 0.945238 0.256754
O O3 0.058895 0.970339 0.817314
O O4 0.000000 0.997020 0.000000
O O5 0.113885 0.581261 0.525371
O O6 0.255404 0.968975 0.599496
O O7 0.034524 0.796107 0.398428
O O8 0.000000 0.973582 0.500000
O O9 0.984273 0.624609 0.779052
O O10 0.079685 0.388537 0.905475
O O11 0.000000 0.526047 0.000000
O O12 0.342302 0.714524 0.639465
O O13 0.000000 0.272734 0.000000
#
# Coordination Sequence:
#
# PCOD9126045 Si02
#       6
#     4   2   4   4   4   4
#     4  11  22  43  70  96 133 180 226 279 334 404
#     4  12  22  38  70  92 124 174 234 268 326 396
#     4  11  24  41  66  98 139 173 220 286 335 392
#     4  10  22  37  65  95 131 178 219 268 343 405
#     4  11  21  39  63  96 127 177 224 266 333 404
#     4   9  17  38  62  86 125 171 217 268 328 394
#
# _framework density 23.327957000000001
#
# number of rings (size 3 to 8) (size 9 to 14) (size 15 to 20)
#    0.000    1.455    6.364    0.000    2.545    0.727 
#    0.000    0.000    2.000    0.000    0.000    0.000 
#    0.000    0.000    0.000    0.000    0.000    0.000 
#
# Total GULP energy -61318.522646 kJ/mol
# GULP energy per Si atom -5574.411150 kJ/mol
# Density = 2.327486 g / cm^3
# Si number density = 23.327957 Si / 1000 Ang^3
#
#
#
# Elastic Constant Matrix: (Units=GPa)
#
#
# Indices 1 2 3 4 5 6 
#
# 1 106.6967 26.6432 53.1138 0.0001 -17.2968 0.0000
# 2 26.6432 33.7264 21.8021 0.0000 -12.1836 0.0000
# 3 53.1138 21.8021 168.6566 0.0000 -27.2488 0.0001
# 4 0.0001 0.0000 0.0000 18.1980 0.0000 -19.4257
# 5 -17.2968 -12.1836 -27.2488 0.0000 43.6366 0.0001
# 6 0.0000 0.0000 0.0001 -19.4257 0.0001 16.5094
#
#
#
# Elastic Compliance Matrix: (Units=1/GPa)
#
#
# Indices 1 2 3 4 5 6 
#
# 1 0.012980 -0.007992 -0.002874 0.000000 0.001119 0.000000
# 2 -0.007992 0.039408 -0.001459 0.000000 0.006924 0.000000
# 3 -0.002874 -0.001459 0.007533 0.000000 0.003158 0.000000
# 4 0.000000 0.000000 0.000000 -0.214624 0.000001 -0.252537
# 5 0.001119 0.006924 0.003158 0.000001 0.027265 0.000001
# 6 0.000000 0.000000 0.000000 -0.252537 0.000001 -0.236577
#
#
# Mechanical properties :
#
#
# Convention : Reuss Voigt Hill
#
# Bulk Modulus (GPa) = 28.35092 56.91088 42.63090
# Shear Modulus (GPa) = -15.26214 29.50350 7.12068
#
# Velocity S-wave (km/s) = -2.56059 3.56016 1.74901
# Velocity P-wave (km/s) = 1.85402 6.43029 4.73212
#
# Compressibility (1/GPa) = 0.03527223
#
# Stress axis : x y z
#
# Youngs Moduli (GPa) = 77.04143 25.37546 132.75040
#
# Poissons Ratio (x) = 0.20280 0.38149
# Poissons Ratio (y) = 0.61571 0.19364
# Poissons Ratio (z) = 0.22140 0.03702
#
# Static dielectric constant tensor:
#      x y z
#    x 1.944580 0.000000 -0.028490 
#    y 0.000000 1.896320 0.000000 
#    z -0.028490 0.000000 2.061910 
# 
# From -- ./inp_files/27348.got.cif
#   From: 2010.05.17/outbox.cif.g08.bks.cpg/sg5_14_cif.got.tgz:27348.got - 2010.06.03 18:56:24.
