data_PCOD9126489
_publ_section_title
;
Structure prediction by ZEFSAII (Michael W. Deem and Ramdas Pophale) SiO2 
 PCOD9126489
Probable space group: C 2
;
_chemical_formula_sum "Si O2"
_cell_formula_units_Z 32
_cell_length_a 17.670370
_cell_length_b 13.532804
_cell_length_c 12.051194
_cell_angle_alpha 90.000000
_cell_angle_beta 31.056372
_cell_angle_gamma 90.000000
_cell_volume 1486.665254
_symmetry_space_group_name_H-M "C 2"
_symmetry_group_IT_number 5
_symmetry_cell_setting 'monoclinic'
loop_
_space_group_symop_operation_xyz
x,y,z
-x,y,-z
1/2+x,1/2+y,z
1/2-x,1/2+y,-z
loop_
_atom_site_type_symbol
_atom_site_label
_atom_site_fract_x
_atom_site_fract_y
_atom_site_fract_z
Si Si1 0.662075 0.007010 0.774696
Si Si2 0.860377 0.221994 0.240399
Si Si3 0.901778 0.031774 0.322742
Si Si4 0.826419 0.714398 0.113819
Si Si5 0.171023 0.682183 0.267533
Si Si6 0.829077 0.900947 0.738014
Si Si7 0.635667 0.309955 0.700949
Si Si8 0.168134 0.091755 0.132575
O O1 0.671861 0.110777 0.824802
O O2 0.729759 0.028979 0.571034
O O3 0.758841 0.921437 0.707313
O O4 0.500000 0.975638 0.000000
O O5 0.744501 0.187565 0.294555
O O6 0.770306 0.280336 0.449870
O O7 0.925794 0.122259 0.211543
O O8 0.000000 0.267802 0.000000
O O9 0.923766 0.921292 0.248603
O O10 0.000680 0.064763 0.305791
O O11 0.810747 0.791603 0.237954
O O12 0.708371 0.684489 0.164571
O O13 0.989897 0.741582 0.863722
O O14 0.198770 0.792228 0.183208
O O15 0.000000 0.665598 0.500000
O O16 0.245433 0.608130 0.089588
O O17 0.000000 0.908652 0.500000
O O18 0.778291 0.990600 0.877852
#
# Coordination Sequence:
#
# PCOD9126489 Si02
#       8
#     4   4   4   4   4   4   4   4
#     4  11  20  41  67  99 133 181 237 292 335 416
#     4  12  25  45  67 105 149 180 231 302 359 417
#     4  12  25  43  72 107 142 185 239 291 365 430
#     4  10  22  42  70  98 140 182 243 286 348 424
#     4  11  25  44  68  99 141 186 227 286 361 429
#     4  10  22  40  68  99 130 181 234 277 342 427
#     4  11  24  44  74 105 138 194 238 289 361 438
#     4  11  24  42  70 104 138 181 235 297 344 423
#
# _framework density 21.524683
#
# number of rings (size 3 to 8) (size 9 to 14) (size 15 to 20)
#    0.000    1.000    5.000    1.500    5.250    3.000 
#    0.000    0.000    0.000    0.750    0.000    0.000 
#    0.000    0.000    0.000    0.000    0.000    0.000 
#
# Total GULP energy -89149.573021 kJ/mol
# GULP energy per Si atom -5571.848314 kJ/mol
# Density = 2.147569 g / cm^3
# Si number density = 21.524683 Si / 1000 Ang^3
#
#
#
# Elastic Constant Matrix: (Units=GPa)
#
#
# Indices 1 2 3 4 5 6 
#
# 1 103.6982 9.8943 15.4162 0.0000 -2.1000 0.0000
# 2 9.8943 89.4690 16.8994 0.0000 15.6910 0.0000
# 3 15.4162 16.8994 88.0260 0.0000 10.4154 0.0000
# 4 0.0000 0.0000 0.0000 28.0448 0.0000 6.3902
# 5 -2.1000 15.6910 10.4154 0.0000 29.1073 0.0000
# 6 0.0000 0.0000 0.0000 6.3902 0.0000 27.5742
#
#
#
# Elastic Compliance Matrix: (Units=1/GPa)
#
#
# Indices 1 2 3 4 5 6 
#
# 1 0.010054 -0.001121 -0.001778 0.000000 0.001966 0.000000
# 2 -0.001121 0.012704 -0.001486 0.000000 -0.006397 0.000000
# 3 -0.001778 -0.001486 0.012402 0.000000 -0.003765 0.000000
# 4 0.000000 0.000000 0.000000 0.037645 0.000000 -0.008724
# 5 0.001966 -0.006397 -0.003765 0.000000 0.039293 0.000000
# 6 0.000000 0.000000 0.000000 -0.008724 0.000000 0.038288
#
#
# Mechanical properties :
#
#
# Convention : Reuss Voigt Hill
#
# Bulk Modulus (GPa) = 37.89155 40.62365 39.25760
# Shear Modulus (GPa) = 29.77021 32.87749 31.32385
#
# Velocity S-wave (km/s) = 3.72300 3.91248 3.81892
# Velocity P-wave (km/s) = 6.01024 6.27089 6.14195
#
# Compressibility (1/GPa) = 0.02639111
#
# Stress axis : x y z
#
# Youngs Moduli (GPa) = 99.45805 78.71791 80.62917
#
# Poissons Ratio (x) = 0.08823 0.14338
# Poissons Ratio (y) = 0.11147 0.11978
# Poissons Ratio (z) = 0.17687 0.11694
#
# Static dielectric constant tensor:
#      x y z
#    x 1.886990 0.000000 -0.001990 
#    y 0.000000 1.812490 0.000000 
#    z -0.001990 0.000000 1.767930 
# 
# From -- ./inp_files/44957.got.cif
#   From: 2010.05.17/outbox.cif.g08.bks.cpg/sg5_23_cif.got.tgz:44957.got - 2010.06.03 18:56:24.
