data_PCOD9126383
_publ_section_title
;
Structure prediction by ZEFSAII (Michael W. Deem and Ramdas Pophale) SiO2 
 PCOD9126383
Probable space group: C 2
;
_chemical_formula_sum "Si O2"
_cell_formula_units_Z 24
_cell_length_a 11.100322
_cell_length_b 11.676228
_cell_length_c 11.747453
_cell_angle_alpha 90.000000
_cell_angle_beta 123.635206
_cell_angle_gamma 90.000000
_cell_volume 1267.676326
_symmetry_space_group_name_H-M "C 2"
_symmetry_group_IT_number 5
_symmetry_cell_setting 'monoclinic'
loop_
_space_group_symop_operation_xyz
x,y,z
-x,y,-z
1/2+x,1/2+y,z
1/2-x,1/2+y,-z
loop_
_atom_site_type_symbol
_atom_site_label
_atom_site_fract_x
_atom_site_fract_y
_atom_site_fract_z
Si Si1 0.776823 0.563450 0.692445
Si Si2 0.599214 0.122792 0.775065
Si Si3 0.657651 0.316319 0.620246
Si Si4 0.339566 0.755957 0.504500
Si Si5 0.849680 0.371234 0.282998
Si Si6 0.168422 0.700685 0.057708
O O1 0.753749 0.428821 0.688367
O O2 0.661297 0.631144 0.554169
O O3 0.773614 0.611814 0.818270
O O4 0.931280 0.600218 0.719850
O O5 0.631577 0.229778 0.710343
O O6 0.643854 0.005713 0.735533
O O7 0.676117 0.150531 0.935424
O O8 0.500000 0.357236 0.500000
O O9 0.733771 0.252067 0.555569
O O10 0.282818 0.837706 0.371384
O O11 0.491931 0.810906 0.623765
O O12 0.760869 0.313303 0.134307
O O13 0.000000 0.722477 0.000000
#
# Coordination Sequence:
#
# PCOD9126383 Si02
#       6
#     4   4   4   4   4   4
#     4  10  22  43  62  94 133 169 214 273 317 395
#     4  11  23  41  66  93 129 172 217 269 324 386
#     4  12  25  37  67 101 132 167 223 267 328 397
#     4  10  22  40  63  94 131 171 213 266 341 374
#     4  10  22  41  66  88 129 174 211 276 326 387
#     4   9  22  43  64  86 125 175 219 263 334 378
#
# _framework density 18.932276999999999
#
# number of rings (size 3 to 8) (size 9 to 14) (size 15 to 20)
#    0.000    1.667    3.333    0.000   11.667    0.000 
#    0.000    2.500    0.000    0.000    0.000    0.000 
#    0.000    0.000    0.000    0.000    0.000    0.000 
#
# Total GULP energy -66910.058229 kJ/mol
# GULP energy per Si atom -5575.838186 kJ/mol
# Density = 1.888919 g / cm^3
# Si number density = 18.932277 Si / 1000 Ang^3
#
#
#
# Elastic Constant Matrix: (Units=GPa)
#
#
# Indices 1 2 3 4 5 6 
#
# 1 77.1305 32.9763 31.4419 0.0000 -25.1806 0.0000
# 2 32.9763 140.4967 50.5712 0.0000 -16.2315 0.0000
# 3 31.4419 50.5712 81.9405 0.0000 -9.1079 0.0000
# 4 0.0000 0.0000 0.0000 17.9843 0.0000 1.4061
# 5 -25.1806 -16.2315 -9.1079 0.0000 29.2286 0.0000
# 6 0.0000 0.0000 0.0000 1.4061 0.0000 26.9721
#
#
#
# Elastic Compliance Matrix: (Units=1/GPa)
#
#
# Indices 1 2 3 4 5 6 
#
# 1 0.020781 -0.001069 -0.005584 0.000000 0.015570 0.000000
# 2 -0.001069 0.009552 -0.005177 0.000000 0.002770 0.000000
# 3 -0.005584 -0.005177 0.017286 0.000000 -0.002299 0.000000
# 4 0.000000 0.000000 0.000000 0.055832 0.000000 -0.002911
# 5 0.015570 0.002770 -0.002299 0.000000 0.048448 0.000000
# 6 0.000000 0.000000 0.000000 -0.002911 0.000000 0.037227
#
#
# Mechanical properties :
#
#
# Convention : Reuss Voigt Hill
#
# Bulk Modulus (GPa) = 41.73670 58.83847 50.28758
# Shear Modulus (GPa) = 22.64774 27.14224 24.89499
#
# Velocity S-wave (km/s) = 3.46244 3.79046 3.63016
# Velocity P-wave (km/s) = 6.17072 7.09244 6.64757
#
# Compressibility (1/GPa) = 0.02395973
#
# Stress axis : x y z
#
# Youngs Moduli (GPa) = 48.12038 104.68967 57.84979
#
# Poissons Ratio (x) = 0.11192 0.32302
# Poissons Ratio (y) = 0.05144 0.29949
# Poissons Ratio (z) = 0.26869 0.54199
#
# Static dielectric constant tensor:
#      x y z
#    x 1.689770 0.000000 0.018630 
#    y 0.000000 1.669890 0.000000 
#    z 0.018630 0.000000 1.656770 
# 
# From -- ./inp_files/38689.got.cif
#   From: 2010.05.17/outbox.cif.g08.bks.cpg/sg5_20_cif.got.tgz:38689.got - 2010.06.03 18:56:24.
