data_PCOD9126326
_publ_section_title
;
Structure prediction by ZEFSAII (Michael W. Deem and Ramdas Pophale) SiO2 
 PCOD9126326
Probable space group: C 2
;
_chemical_formula_sum "Si O2"
_cell_formula_units_Z 18
_cell_length_a 12.594907
_cell_length_b 4.879718
_cell_length_c 12.494259
_cell_angle_alpha 90.000000
_cell_angle_beta 83.297390
_cell_angle_gamma 90.000000
_cell_volume 762.643804
_symmetry_space_group_name_H-M "C 2"
_symmetry_group_IT_number 5
_symmetry_cell_setting 'monoclinic'
loop_
_space_group_symop_operation_xyz
x,y,z
-x,y,-z
1/2+x,1/2+y,z
1/2-x,1/2+y,-z
loop_
_atom_site_type_symbol
_atom_site_label
_atom_site_fract_x
_atom_site_fract_y
_atom_site_fract_z
Si Si1 0.217621 0.033390 0.439669
Si Si2 0.823822 0.993712 0.991672
Si Si3 0.020635 0.137528 0.830369
Si Si4 0.500000 0.830110 0.500000
Si Si5 0.918317 0.640698 0.301240
O O1 0.270040 0.218312 0.528949
O O2 0.098252 0.140747 0.451393
O O3 0.290942 0.097920 0.328964
O O4 0.895477 0.055765 0.087319
O O5 0.780161 0.686656 0.995887
O O6 0.902479 0.064733 0.884405
O O7 0.052877 0.952641 0.724987
O O8 0.035410 0.453775 0.799019
O O9 0.466920 0.019279 0.404165
#
# Coordination Sequence:
#
# PCOD9126326 Si02
#       5
#     4   4   4   2   4
#     4  10  22  40  60  87 124 168 217 262 302 358
#     4  11  24  45  70  95 126 165 206 262 329 384
#     4  11  25  43  65  98 130 159 213 268 311 378
#     4  10  24  42  64  90 132 178 212 254 312 368
#     4  11  23  41  65  94 130 171 212 260 310 370
#
# _framework density 23.602105000000002
#
# number of rings (size 3 to 8) (size 9 to 14) (size 15 to 20)
#    0.000    1.333    0.000    5.333    0.000   16.889 
#    0.000    6.667    0.000    0.000    0.000    0.000 
#    0.000    0.000    0.000    0.000    0.000    0.000 
#
# Total GULP energy -50428.835098 kJ/mol
# GULP energy per Si atom -5603.203900 kJ/mol
# Density = 2.354839 g / cm^3
# Si number density = 23.602105 Si / 1000 Ang^3
#
#
#
# Elastic Constant Matrix: (Units=GPa)
#
#
# Indices 1 2 3 4 5 6 
#
# 1 115.4379 -4.7267 29.8201 0.0000 -18.8442 0.0000
# 2 -4.7267 68.4788 -1.8526 0.0000 0.7232 0.0000
# 3 29.8201 -1.8526 59.3990 0.0000 -14.7600 0.0000
# 4 0.0000 0.0000 0.0000 40.4259 0.0000 -9.2987
# 5 -18.8442 0.7232 -14.7600 0.0000 43.5773 0.0000
# 6 0.0000 0.0000 0.0000 -9.2987 0.0000 37.2819
#
#
#
# Elastic Compliance Matrix: (Units=1/GPa)
#
#
# Indices 1 2 3 4 5 6 
#
# 1 0.010310 0.000561 -0.004426 0.000000 0.002950 0.000000
# 2 0.000561 0.014646 0.000191 0.000000 0.000064 0.000000
# 3 -0.004426 0.000191 0.020295 0.000000 0.004957 0.000000
# 4 0.000000 0.000000 0.000000 0.026242 0.000000 0.006545
# 5 0.002950 0.000064 0.004957 0.000000 0.025902 0.000000
# 6 0.000000 0.000000 0.000000 0.006545 0.000000 0.028455
#
#
# Mechanical properties :
#
#
# Convention : Reuss Voigt Hill
#
# Bulk Modulus (GPa) = 26.38214 32.19972 29.29093
# Shear Modulus (GPa) = 34.28597 38.92866 36.60731
#
# Velocity S-wave (km/s) = 3.81552 4.06565 3.94257
# Velocity P-wave (km/s) = 5.53291 5.97593 5.75868
#
# Compressibility (1/GPa) = 0.03790444
#
# Stress axis : x y z
#
# Youngs Moduli (GPa) = 96.98887 68.27682 49.27363
#
# Poissons Ratio (x) = -0.03829 0.21806
# Poissons Ratio (y) = -0.05439 -0.00942
# Poissons Ratio (z) = 0.42923 -0.01306
#
# Static dielectric constant tensor:
#      x y z
#    x 1.892550 0.000000 0.002180 
#    y 0.000000 1.801140 0.000000 
#    z 0.002180 0.000000 1.905530 
# 
# From -- ./inp_files/37762.got.cif
#   From: 2010.05.17/outbox.cif.g08.bks.cpg/sg5_19_cif.got.tgz:37762.got - 2010.06.03 18:56:24.
