data_PCOD9126081
_publ_section_title
;
Structure prediction by ZEFSAII (Michael W. Deem and Ramdas Pophale) SiO2 
 PCOD9126081
Probable space group: C 2
;
_chemical_formula_sum "Si O2"
_cell_formula_units_Z 30
_cell_length_a 25.719078
_cell_length_b 5.080685
_cell_length_c 15.230640
_cell_angle_alpha 90.000000
_cell_angle_beta 47.002487
_cell_angle_gamma 90.000000
_cell_volume 1455.596023
_symmetry_space_group_name_H-M "C 2"
_symmetry_group_IT_number 5
_symmetry_cell_setting 'monoclinic'
loop_
_space_group_symop_operation_xyz
x,y,z
-x,y,-z
1/2+x,1/2+y,z
1/2-x,1/2+y,-z
loop_
_atom_site_type_symbol
_atom_site_label
_atom_site_fract_x
_atom_site_fract_y
_atom_site_fract_z
Si Si1 0.263394 0.625000 0.218864
Si Si2 0.668673 0.606827 0.340234
Si Si3 0.000000 0.514681 0.500000
Si Si4 0.790577 0.270575 0.988208
Si Si5 0.345307 0.001328 0.404585
Si Si6 0.314555 0.496367 0.335819
Si Si7 0.419112 0.632712 0.725364
Si Si8 0.561413 0.346881 0.575271
O O1 0.205865 0.387452 0.283860
O O2 0.289160 0.686899 0.091339
O O3 0.321282 0.551352 0.225208
O O4 0.226955 0.890333 0.295673
O O5 0.634544 0.517574 0.286357
O O6 0.612414 0.587846 0.485334
O O7 0.959146 0.344184 0.618519
O O8 0.947215 0.693016 0.506114
O O9 0.759078 0.559172 0.005829
O O10 0.869382 0.248550 0.857530
O O11 0.337424 0.204014 0.333255
O O12 0.269872 0.011440 0.543029
O O13 0.404236 0.143776 0.396662
O O14 0.352778 0.710642 0.354811
O O15 0.482104 0.447183 0.687932
#
# Coordination Sequence:
#
# PCOD9126081 Si02
#       8
#     4   4   2   4   4   4   4   4
#     4  12  23  41  67  90 131 172 209 269 319 380
#     4  12  22  38  64  94 131 169 206 252 329 384
#     4  12  24  40  62  94 136 168 212 260 326 410
#     4  12  26  42  63  95 132 172 215 266 314 387
#     4  10  23  37  60  91 126 159 209 268 322 376
#     4  10  22  38  60  91 122 162 215 263 321 375
#     4  12  25  38  61  96 132 172 216 249 323 397
#     4  12  25  38  63  97 139 172 204 271 329 404
#
# _framework density 20.610112999999998
#
# number of rings (size 3 to 8) (size 9 to 14) (size 15 to 20)
#    0.000    0.533    6.667    1.600    7.467    0.000 
#    0.000    0.000    0.000    0.800    0.000    0.000 
#    0.000    0.000    0.000    0.000    0.000    0.000 
#
# Total GULP energy -83848.120703 kJ/mol
# GULP energy per Si atom -5589.874714 kJ/mol
# Density = 2.056320 g / cm^3
# Si number density = 20.610113 Si / 1000 Ang^3
#
#
#
# Elastic Constant Matrix: (Units=GPa)
#
#
# Indices 1 2 3 4 5 6 
#
# 1 64.8586 -13.0696 12.6705 0.0004 7.9249 0.0074
# 2 -13.0696 56.0408 3.1352 -0.0222 -14.6846 0.0139
# 3 12.6705 3.1352 83.5550 -0.0331 -0.1082 0.0100
# 4 0.0004 -0.0222 -0.0331 6.7803 0.0162 2.3681
# 5 7.9249 -14.6846 -0.1082 0.0162 31.1741 -0.0004
# 6 0.0074 0.0139 0.0100 2.3681 -0.0004 28.5561
#
#
#
# Elastic Compliance Matrix: (Units=1/GPa)
#
#
# Indices 1 2 3 4 5 6 
#
# 1 0.016963 0.003394 -0.002703 0.000005 -0.002723 -0.000006
# 2 0.003394 0.021083 -0.001294 0.000046 0.009064 -0.000014
# 3 -0.002703 -0.001294 0.012427 0.000059 0.000121 -0.000008
# 4 0.000005 0.000046 0.000059 0.151886 -0.000059 -0.012596
# 5 -0.002723 0.009064 0.000121 -0.000059 0.037040 0.000002
# 6 -0.000006 -0.000014 -0.000008 -0.012596 0.000002 0.036063
#
#
# Mechanical properties :
#
#
# Convention : Reuss Voigt Hill
#
# Bulk Modulus (GPa) = 20.29802 23.32518 21.81160
# Shear Modulus (GPa) = 17.05954 26.74998 21.90476
#
# Velocity S-wave (km/s) = 2.88014 3.60655 3.26362
# Velocity P-wave (km/s) = 4.57496 5.35583 4.98072
#
# Compressibility (1/GPa) = 0.04926588
#
# Stress axis : x y z
#
# Youngs Moduli (GPa) = 58.95254 47.43135 80.47111
#
# Poissons Ratio (x) = -0.16097 0.21753
# Poissons Ratio (y) = -0.20007 0.10413
# Poissons Ratio (z) = 0.15936 0.06137
#
# Static dielectric constant tensor:
#      x y z
#    x 1.828720 0.000000 -0.036360 
#    y 0.000000 1.797130 0.000000 
#    z -0.036360 0.000000 1.750640 
# 
# From -- ./inp_files/57466.got.cif
#   From: 2010.05.17/outbox.cif.g08.bks.cpg/sg5_29_cif.got.tgz:57466.got - 2010.06.03 18:56:24.
