data_PCOD9126286
_publ_section_title
;
Structure prediction by ZEFSAII (Michael W. Deem and Ramdas Pophale) SiO2 
 PCOD9126286
Probable space group: C 2
;
_chemical_formula_sum "Si O2"
_cell_formula_units_Z 28
_cell_length_a 21.621566
_cell_length_b 5.276846
_cell_length_c 18.557867
_cell_angle_alpha 90.000000
_cell_angle_beta 145.530852
_cell_angle_gamma 90.000000
_cell_volume 1198.332103
_symmetry_space_group_name_H-M "C 2"
_symmetry_group_IT_number 5
_symmetry_cell_setting 'monoclinic'
loop_
_space_group_symop_operation_xyz
x,y,z
-x,y,-z
1/2+x,1/2+y,z
1/2-x,1/2+y,-z
loop_
_atom_site_type_symbol
_atom_site_label
_atom_site_fract_x
_atom_site_fract_y
_atom_site_fract_z
Si Si1 0.073241 0.520010 0.998489
Si Si2 0.683885 0.720106 0.755432
Si Si3 0.910636 0.446305 0.617532
Si Si4 0.115305 0.051852 0.533495
Si Si5 0.987002 0.008973 0.901947
Si Si6 0.924910 0.735790 0.298615
Si Si7 0.202148 0.236131 0.357581
O O1 0.189231 0.644291 0.128551
O O2 0.067834 0.240433 0.959371
O O3 0.000000 0.480196 0.000000
O O4 0.015074 0.737369 0.895889
O O5 0.628227 0.666736 0.624606
O O6 0.639610 0.499295 0.766328
O O7 0.651014 0.006142 0.745605
O O8 0.013495 0.632878 0.712825
O O9 0.797352 0.589448 0.490965
O O10 0.925116 0.250730 0.565167
O O11 0.887687 0.311662 0.670184
O O12 0.031627 0.814128 0.449766
O O13 0.234023 0.960765 0.620601
O O14 0.863256 0.079280 0.764435
O O15 0.000000 0.973328 0.000000
#
# Coordination Sequence:
#
# PCOD9126286 Si02
#       7
#     4   4   4   4   4   4   4
#     4  10  22  41  62  98 128 167 220 274 348 384
#     4  12  25  41  69  95 142 176 218 293 336 401
#     4  11  24  42  64 104 137 186 221 267 340 420
#     4  11  24  39  65 100 139 174 228 267 345 407
#     4  10  22  39  65  98 133 167 219 279 339 388
#     4  11  26  42  63  99 137 187 224 266 341 415
#     4  11  24  41  70 101 144 177 223 281 343 403
#
# _framework density 23.365808999999999
#
# number of rings (size 3 to 8) (size 9 to 14) (size 15 to 20)
#    0.000    1.143    2.857    3.000   12.000    0.000 
#    0.000    0.000    0.000    3.429    0.000    0.000 
#    0.000    0.000    0.000    0.000    0.000    0.000 
#
# Total GULP energy -78196.173024 kJ/mol
# GULP energy per Si atom -5585.440930 kJ/mol
# Density = 2.331263 g / cm^3
# Si number density = 23.365809 Si / 1000 Ang^3
#
#
#
# Elastic Constant Matrix: (Units=GPa)
#
#
# Indices 1 2 3 4 5 6 
#
# 1 61.0823 14.9344 11.1233 0.0002 13.7555 0.0001
# 2 14.9344 128.8361 -7.7175 0.0011 9.2269 0.0008
# 3 11.1233 -7.7175 52.3309 0.0006 20.3552 0.0004
# 4 0.0002 0.0011 0.0006 33.6131 0.0002 20.7862
# 5 13.7555 9.2269 20.3552 0.0002 31.3331 0.0001
# 6 0.0001 0.0008 0.0004 20.7862 0.0001 26.6501
#
#
#
# Elastic Compliance Matrix: (Units=1/GPa)
#
#
# Indices 1 2 3 4 5 6 
#
# 1 0.018587 -0.001785 -0.001665 0.000000 -0.006552 0.000000
# 2 -0.001785 0.008415 0.003050 0.000000 -0.003676 0.000000
# 3 -0.001665 0.003050 0.026733 0.000000 -0.017534 0.000000
# 4 0.000000 0.000000 0.000000 0.057469 0.000000 -0.044824
# 5 -0.006552 -0.003676 -0.017534 0.000000 0.047265 0.000000
# 6 0.000000 0.000000 0.000000 -0.044824 0.000000 0.072485
#
#
# Mechanical properties :
#
#
# Convention : Reuss Voigt Hill
#
# Bulk Modulus (GPa) = 18.89146 30.99220 24.94183
# Shear Modulus (GPa) = 20.04824 33.24654 26.64739
#
# Velocity S-wave (km/s) = 2.93237 3.77619 3.38071
# Velocity P-wave (km/s) = 4.42354 5.68379 5.09280
#
# Compressibility (1/GPa) = 0.05293398
#
# Stress axis : x y z
#
# Youngs Moduli (GPa) = 53.80230 118.83996 37.40661
#
# Poissons Ratio (x) = 0.21213 0.06230
# Poissons Ratio (y) = 0.09604 -0.11410
# Poissons Ratio (z) = 0.08960 -0.36248
#
# Static dielectric constant tensor:
#      x y z
#    x 2.032450 0.000000 0.098100 
#    y 0.000000 1.977150 0.000000 
#    z 0.098100 0.000000 1.921780 
# 
# From -- ./inp_files/69527.got.cif
#   From: 2010.05.17/outbox.cif.g08.bks.cpg/sg5_35_cif.got.tgz:69527.got - 2010.06.03 18:56:24.
