data_PCOD9126447
_publ_section_title
;
Structure prediction by ZEFSAII (Michael W. Deem and Ramdas Pophale) SiO2 
 PCOD9126447
Probable space group: C 2
;
_chemical_formula_sum "Si O2"
_cell_formula_units_Z 28
_cell_length_a 10.509960
_cell_length_b 8.150640
_cell_length_c 15.055852
_cell_angle_alpha 90.000000
_cell_angle_beta 91.663070
_cell_angle_gamma 90.000000
_cell_volume 1289.184683
_symmetry_space_group_name_H-M "C 2"
_symmetry_group_IT_number 5
_symmetry_cell_setting 'monoclinic'
loop_
_space_group_symop_operation_xyz
x,y,z
-x,y,-z
1/2+x,1/2+y,z
1/2-x,1/2+y,-z
loop_
_atom_site_type_symbol
_atom_site_label
_atom_site_fract_x
_atom_site_fract_y
_atom_site_fract_z
Si Si1 0.585351 0.381960 0.833419
Si Si2 0.000000 0.012981 0.500000
Si Si3 0.217476 0.730810 0.302226
Si Si4 0.364447 0.999196 0.854235
Si Si5 0.000000 0.673601 0.000000
Si Si6 0.496712 0.725812 0.241230
Si Si7 0.199627 0.095695 0.372513
Si Si8 0.032676 0.730897 0.639829
O O1 0.559554 0.285096 0.741550
O O2 0.736529 0.395120 0.847431
O O3 0.538770 0.285873 0.918346
O O4 0.522639 0.563025 0.819847
O O5 0.040133 0.892953 0.580243
O O6 0.121903 0.104322 0.463040
O O7 0.173678 0.655608 0.207364
O O8 0.370384 0.718108 0.301273
O O9 0.109541 0.652718 0.365838
O O10 0.480531 0.891628 0.815174
O O11 0.394284 0.056982 0.953950
O O12 0.621745 0.713122 0.304973
O O13 0.348198 0.124903 0.387501
O O14 0.190744 0.919791 0.323674
#
# Coordination Sequence:
#
# PCOD9126447 Si02
#       8
#     4   2   4   4   2   4   4   4
#     4  11  24  45  69  96 138 186 227 288 343 416
#     4  10  24  40  64 110 136 172 236 296 336 422
#     4  10  22  40  67 101 128 180 224 282 339 408
#     4  11  24  41  67 101 135 177 240 284 337 418
#     4  12  26  44  62 102 144 178 230 288 338 412
#     4  11  22  40  72  97 130 182 232 276 353 410
#     4  11  22  43  70  94 138 183 225 287 347 410
#     4  11  21  46  70  97 138 185 227 286 354 404
#
# _framework density 21.719152999999999
#
# number of rings (size 3 to 8) (size 9 to 14) (size 15 to 20)
#    0.000    1.143    5.714    0.857    0.000    6.286 
#    0.000    0.000    0.000    0.857    0.000    0.000 
#    0.000    0.000    0.000    0.000    0.000    0.000 
#
# Total GULP energy -78036.940278 kJ/mol
# GULP energy per Si atom -5574.067163 kJ/mol
# Density = 2.166972 g / cm^3
# Si number density = 21.719153 Si / 1000 Ang^3
#
#
#
# Elastic Constant Matrix: (Units=GPa)
#
#
# Indices 1 2 3 4 5 6 
#
# 1 123.1147 7.5109 15.7744 0.0000 -12.6598 0.0000
# 2 7.5109 38.4121 11.7600 0.0000 -11.5727 0.0000
# 3 15.7744 11.7600 88.5016 0.0000 -22.7428 0.0000
# 4 0.0000 0.0000 0.0000 19.8580 0.0000 -13.8127
# 5 -12.6598 -11.5727 -22.7428 0.0000 17.4655 0.0000
# 6 0.0000 0.0000 0.0000 -13.8127 0.0000 28.1698
#
#
#
# Elastic Compliance Matrix: (Units=1/GPa)
#
#
# Indices 1 2 3 4 5 6 
#
# 1 0.008779 0.000264 0.000121 0.000000 0.006696 0.000000
# 2 0.000264 0.032733 0.001843 0.000000 0.024279 0.000000
# 3 0.000121 0.001843 0.017087 0.000000 0.023558 0.000000
# 4 0.000000 0.000000 0.000000 0.076423 0.000000 0.037473
# 5 0.006696 0.024279 0.023558 0.000000 0.108873 0.000000
# 6 0.000000 0.000000 0.000000 0.037473 0.000000 0.053873
#
#
# Mechanical properties :
#
#
# Convention : Reuss Voigt Hill
#
# Bulk Modulus (GPa) = 15.85967 35.56879 25.71423
# Shear Modulus (GPa) = 15.90677 27.43085 21.66881
#
# Velocity S-wave (km/s) = 2.70920 3.55770 3.16204
# Velocity P-wave (km/s) = 4.13574 5.76962 5.01961
#
# Compressibility (1/GPa) = 0.06305300
#
# Stress axis : x y z
#
# Youngs Moduli (GPa) = 113.90209 30.55064 58.52499
#
# Poissons Ratio (x) = -0.00805 -0.00707
# Poissons Ratio (y) = -0.03003 -0.10785
# Poissons Ratio (z) = -0.01376 -0.05630
#
# Static dielectric constant tensor:
#      x y z
#    x 1.889870 0.000000 -0.025620 
#    y 0.000000 1.828370 0.000000 
#    z -0.025620 0.000000 1.768570 
# 
# From -- ./inp_files/59348.got.cif
#   From: 2010.05.17/outbox.cif.g08.bks.cpg/sg5_30_cif.got.tgz:59348.got - 2010.06.03 18:56:24.
