data_PCOD9126646
_publ_section_title
;
Structure prediction by ZEFSAII (Michael W. Deem and Ramdas Pophale) SiO2 
 PCOD9126646
Probable space group: C 2
;
_chemical_formula_sum "Si O2"
_cell_formula_units_Z 26
_cell_length_a 9.290054
_cell_length_b 15.862061
_cell_length_c 15.301242
_cell_angle_alpha 90.000000
_cell_angle_beta 145.985492
_cell_angle_gamma 90.000000
_cell_volume 1261.331321
_symmetry_space_group_name_H-M "C 2"
_symmetry_group_IT_number 5
_symmetry_cell_setting 'monoclinic'
loop_
_space_group_symop_operation_xyz
x,y,z
-x,y,-z
1/2+x,1/2+y,z
1/2-x,1/2+y,-z
loop_
_atom_site_type_symbol
_atom_site_label
_atom_site_fract_x
_atom_site_fract_y
_atom_site_fract_z
Si Si1 0.581515 0.185250 0.173098
Si Si2 0.049845 0.253443 0.876179
Si Si3 0.472474 0.171158 0.324479
Si Si4 0.742208 0.501727 0.739568
Si Si5 0.500000 0.879859 0.000000
Si Si6 0.927525 0.295435 0.620934
Si Si7 0.857815 0.486072 0.600710
O O1 0.512377 0.176474 0.240691
O O2 0.811059 0.252250 0.280938
O O3 0.687768 0.095480 0.196752
O O4 0.316409 0.206832 0.991594
O O5 0.815407 0.198153 0.795409
O O6 0.941857 0.292489 0.733178
O O7 0.120206 0.321129 0.986021
O O8 0.683012 0.237356 0.469731
O O9 0.516345 0.072724 0.371048
O O10 0.892520 0.483638 0.724033
O O11 0.444114 0.497775 0.567189
O O12 0.805422 0.437174 0.847953
O O13 0.923054 0.394371 0.594395
#
# Coordination Sequence:
#
# PCOD9126646 Si02
#       7
#     4   4   4   4   2   4   4
#     4  11  24  45  67  99 136 174 221 275 339 393
#     4  12  25  44  65 101 138 177 217 274 338 400
#     4  11  23  46  69  96 137 180 221 275 334 400
#     4  10  22  41  67  96 131 179 220 270 330 405
#     4  12  22  42  64  98 130 182 220 264 330 406
#     4  12  24  43  70 100 133 176 226 280 329 393
#     4  10  22  42  67  99 130 172 228 276 330 388
#
# _framework density 20.613142
#
# number of rings (size 3 to 8) (size 9 to 14) (size 15 to 20)
#    0.000    0.923    4.615    2.308    4.308    0.000 
#    2.769    4.615    0.000    0.000    0.000    0.000 
#    0.000    0.000    0.000    0.000    0.000    0.000 
#
# Total GULP energy -72613.019849 kJ/mol
# GULP energy per Si atom -5585.616911 kJ/mol
# Density = 2.056623 g / cm^3
# Si number density = 20.613142 Si / 1000 Ang^3
#
#
#
# Elastic Constant Matrix: (Units=GPa)
#
#
# Indices 1 2 3 4 5 6 
#
# 1 58.8874 37.6152 15.8782 0.0012 20.9351 0.0001
# 2 37.6152 186.2162 52.5744 0.0008 25.2371 0.0004
# 3 15.8782 52.5744 94.6719 0.0047 6.3305 0.0019
# 4 0.0012 0.0008 0.0047 37.7242 0.0018 -4.0063
# 5 20.9351 25.2371 6.3305 0.0018 42.4528 0.0006
# 6 0.0001 0.0004 0.0019 -4.0063 0.0006 26.8603
#
#
#
# Elastic Compliance Matrix: (Units=1/GPa)
#
#
# Indices 1 2 3 4 5 6 
#
# 1 0.022485 -0.002857 -0.001572 0.000000 -0.009155 0.000000
# 2 -0.002857 0.007222 -0.003372 0.000001 -0.002381 0.000000
# 3 -0.001572 -0.003372 0.012639 -0.000002 0.000895 -0.000001
# 4 0.000000 0.000001 -0.000002 0.026935 -0.000001 0.004017
# 5 -0.009155 -0.002381 0.000895 -0.000001 0.029353 -0.000001
# 6 0.000000 0.000000 -0.000001 0.004017 -0.000001 0.037829
#
#
# Mechanical properties :
#
#
# Convention : Reuss Voigt Hill
#
# Bulk Modulus (GPa) = 37.39245 61.32343 49.35794
# Shear Modulus (GPa) = 31.05953 36.98799 34.02376
#
# Velocity S-wave (km/s) = 3.88594 4.24062 4.06715
# Velocity P-wave (km/s) = 6.18979 7.33426 6.78620
#
# Compressibility (1/GPa) = 0.02674337
#
# Stress axis : x y z
#
# Youngs Moduli (GPa) = 44.47311 138.46409 79.11822
#
# Poissons Ratio (x) = 0.39564 0.12439
# Poissons Ratio (y) = 0.12707 0.26680
# Poissons Ratio (z) = 0.06992 0.46693
#
# Static dielectric constant tensor:
#      x y z
#    x 1.743240 0.000000 -0.029590 
#    y 0.000000 1.770410 0.000000 
#    z -0.029590 0.000000 1.724230 
# 
# From -- ./inp_files/51027.got.cif
#   From: 2010.05.17/outbox.cif.g08.bks.cpg/sg5_26_cif.got.tgz:51027.got - 2010.06.03 18:56:24.
