data_PCOD9126927
_publ_section_title
;
Structure prediction by ZEFSAII (Michael W. Deem and Ramdas Pophale) SiO2 
 PCOD9126927
Probable space group: C 2
;
_chemical_formula_sum "Si O2"
_cell_formula_units_Z 28
_cell_length_a 11.545444
_cell_length_b 21.146249
_cell_length_c 8.168012
_cell_angle_alpha 90.000000
_cell_angle_beta 137.991708
_cell_angle_gamma 90.000000
_cell_volume 1334.569015
_symmetry_space_group_name_H-M "C 2"
_symmetry_group_IT_number 5
_symmetry_cell_setting 'monoclinic'
loop_
_space_group_symop_operation_xyz
x,y,z
-x,y,-z
1/2+x,1/2+y,z
1/2-x,1/2+y,-z
loop_
_atom_site_type_symbol
_atom_site_label
_atom_site_fract_x
_atom_site_fract_y
_atom_site_fract_z
Si Si1 0.339622 0.320540 0.017807
Si Si2 0.500000 0.429069 0.000000
Si Si3 0.478202 0.883932 0.162154
Si Si4 0.846277 0.495494 0.240361
Si Si5 0.000000 0.162510 0.500000
Si Si6 0.169220 0.265708 0.497910
Si Si7 0.019310 0.698498 0.334223
Si Si8 0.843837 0.587698 0.947553
O O1 0.201495 0.349162 0.995162
O O2 0.257280 0.292633 0.760180
O O3 0.472704 0.377803 0.117383
O O4 0.417115 0.262043 0.190699
O O5 0.677855 0.470208 0.165615
O O6 0.614602 0.829444 0.349658
O O7 0.459477 0.938889 0.276867
O O8 0.500000 0.906063 0.000000
O O9 0.000000 0.530506 0.500000
O O10 0.784466 0.538063 0.023482
O O11 0.984106 0.215121 0.627259
O O12 0.827998 0.119194 0.312932
O O13 0.293388 0.221062 0.524698
O O14 0.000000 0.679757 0.500000
O O15 0.943494 0.644976 0.139230
O O16 0.000000 0.559591 0.000000
#
# Coordination Sequence:
#
# PCOD9126927 Si02
#       8
#     4   2   4   4   2   4   4   4
#     4  11  19  38  65  96 140 178 229 281 363 418
#     4  10  22  42  70  98 134 186 232 290 344 420
#     4  11  22  38  63 105 139 178 232 292 352 423
#     4  11  26  46  71  99 139 192 242 286 352 424
#     4  12  24  42  74 102 130 190 238 286 356 416
#     4  12  20  39  70 100 139 184 226 287 364 424
#     4  12  23  38  65 106 143 180 224 297 359 419
#     4  12  25  48  70  98 140 191 242 289 348 427
#
# _framework density 20.980556
#
# number of rings (size 3 to 8) (size 9 to 14) (size 15 to 20)
#    0.000    0.571    5.714    3.429    0.000    1.143 
#    2.571    1.429    3.143    0.000    0.000    0.000 
#    0.000    0.000    0.000    0.000    0.000    0.000 
#
# Total GULP energy -77991.378715 kJ/mol
# GULP energy per Si atom -5570.812765 kJ/mol
# Density = 2.093280 g / cm^3
# Si number density = 20.980556 Si / 1000 Ang^3
#
#
#
# Elastic Constant Matrix: (Units=GPa)
#
#
# Indices 1 2 3 4 5 6 
#
# 1 131.4698 21.7260 40.3287 0.0000 15.9590 0.0000
# 2 21.7260 77.4807 21.9587 0.0000 13.1414 0.0000
# 3 40.3287 21.9587 63.1337 0.0000 8.4009 0.0000
# 4 0.0000 0.0000 0.0000 22.9051 0.0000 13.5725
# 5 15.9590 13.1414 8.4009 0.0000 25.7065 0.0000
# 6 0.0000 0.0000 0.0000 13.5725 0.0000 -25.5605
#
#
#
# Elastic Compliance Matrix: (Units=1/GPa)
#
#
# Indices 1 2 3 4 5 6 
#
# 1 0.009903 -0.000498 -0.005613 0.000000 -0.004059 0.000000
# 2 -0.000498 0.015270 -0.004177 0.000000 -0.006132 0.000000
# 3 -0.005613 -0.004177 0.021045 0.000000 -0.001258 0.000000
# 4 0.000000 0.000000 0.000000 0.033209 0.000000 0.017634
# 5 -0.004059 -0.006132 -0.001258 0.000000 0.044966 0.000000
# 6 0.000000 0.000000 0.000000 0.017634 0.000000 -0.029759
#
#
# Mechanical properties :
#
#
# Convention : Reuss Voigt Hill
#
# Bulk Modulus (GPa) = 38.99730 48.90122 43.94926
# Shear Modulus (GPa) = 40.40181 17.14827 28.77504
#
# Velocity S-wave (km/s) = 4.39302 2.86202 3.70741
# Velocity P-wave (km/s) = 6.66027 5.85491 6.27053
#
# Compressibility (1/GPa) = 0.02564280
#
# Stress axis : x y z
#
# Youngs Moduli (GPa) = 100.97949 65.48839 47.51747
#
# Poissons Ratio (x) = 0.03259 0.26670
# Poissons Ratio (y) = 0.05026 0.19849
# Poissons Ratio (z) = 0.56676 0.27356
#
# Static dielectric constant tensor:
#      x y z
#    x 1.891380 0.000000 -0.049990 
#    y 0.000000 1.758390 0.000000 
#    z -0.049990 0.000000 1.880980 
# 
# From -- ./inp_files/22048.got.cif
#   From: 2010.05.17/outbox.cif.g08.bks.cpg/sg5_12_cif.got.tgz:22048.got - 2010.06.03 18:56:24.
