data_PCOD9126337
_publ_section_title
;
Structure prediction by ZEFSAII (Michael W. Deem and Ramdas Pophale) SiO2 
 PCOD9126337
Probable space group: C 2
;
_chemical_formula_sum "Si O2"
_cell_formula_units_Z 28
_cell_length_a 7.716280
_cell_length_b 12.066940
_cell_length_c 17.872186
_cell_angle_alpha 90.000000
_cell_angle_beta 138.562499
_cell_angle_gamma 90.000000
_cell_volume 1101.314434
_symmetry_space_group_name_H-M "C 2"
_symmetry_group_IT_number 5
_symmetry_cell_setting 'monoclinic'
loop_
_space_group_symop_operation_xyz
x,y,z
-x,y,-z
1/2+x,1/2+y,z
1/2-x,1/2+y,-z
loop_
_atom_site_type_symbol
_atom_site_label
_atom_site_fract_x
_atom_site_fract_y
_atom_site_fract_z
Si Si1 0.775380 0.684400 0.227861
Si Si2 0.500000 0.690159 0.000000
Si Si3 0.649776 0.989334 0.942384
Si Si4 0.000000 0.017993 0.500000
Si Si5 0.534931 0.966489 0.269297
Si Si6 0.831341 0.698277 0.521550
Si Si7 0.610980 0.883611 0.614906
Si Si8 0.415484 0.488694 0.174662
O O1 0.573181 0.603177 0.207202
O O2 0.970181 0.598055 0.247815
O O3 0.958432 0.737780 0.348940
O O4 0.630862 0.748672 0.113805
O O5 0.296928 0.604148 0.971786
O O6 0.602090 0.923132 0.849553
O O7 0.360744 0.016522 0.877337
O O8 0.829066 0.937532 0.065884
O O9 0.160546 0.951768 0.614227
O O10 0.208003 0.087123 0.518100
O O11 0.417695 0.925427 0.308754
O O12 0.571906 0.774561 0.436918
O O13 0.000000 0.688228 0.500000
O O14 0.500000 0.931031 0.500000
O O15 0.920211 0.910380 0.716447
#
# Coordination Sequence:
#
# PCOD9126337 Si02
#       8
#     4   2   4   2   4   4   4   4
#     4   8  17  34  56  88 119 157 209 254 312 373
#     4   8  14  32  58  90 130 152 198 268 318 374
#     4   9  17  33  60  99 121 152 202 269 326 367
#     4  10  22  40  60  96 122 168 212 260 314 380
#     4   9  20  33  62  91 116 159 207 262 314 369
#     4  11  24  40  60  87 132 180 207 258 322 379
#     4  11  24  40  57  89 131 170 213 262 321 378
#     4   9  19  34  61  95 123 158 207 268 312 375
#
# _framework density 25.424164999999999
#
# number of rings (size 3 to 8) (size 9 to 14) (size 15 to 20)
#    0.000    2.571    0.714    0.857    5.000    4.000 
#    0.000    0.000    0.000    5.143    0.000    0.000 
#    0.000    0.000    0.000    0.000    0.000    0.000 
#
# Total GULP energy -77957.223992 kJ/mol
# GULP energy per Si atom -5568.373142 kJ/mol
# Density = 2.536630 g / cm^3
# Si number density = 25.424165 Si / 1000 Ang^3
#
#
#
# Elastic Constant Matrix: (Units=GPa)
#
#
# Indices 1 2 3 4 5 6 
#
# 1 123.4173 24.2898 38.9095 0.0000 4.0361 0.0000
# 2 24.2898 39.8243 10.6389 0.0000 0.7151 0.0000
# 3 38.9095 10.6389 154.0576 0.0001 -0.0596 0.0000
# 4 0.0000 0.0000 0.0001 27.4357 0.0000 -16.2208
# 5 4.0361 0.7151 -0.0596 0.0000 55.1803 0.0000
# 6 0.0000 0.0000 0.0000 -16.2208 0.0000 18.4157
#
#
#
# Elastic Compliance Matrix: (Units=1/GPa)
#
#
# Indices 1 2 3 4 5 6 
#
# 1 0.009861 -0.005438 -0.002115 0.000000 -0.000653 0.000000
# 2 -0.005438 0.028587 -0.000601 0.000000 0.000027 0.000000
# 3 -0.002115 -0.000601 0.007067 0.000000 0.000170 0.000000
# 4 0.000000 0.000000 0.000000 0.076056 0.000000 0.066990
# 5 -0.000653 0.000027 0.000170 0.000000 0.018170 0.000000
# 6 0.000000 0.000000 0.000000 0.066990 0.000000 0.113307
#
#
# Mechanical properties :
#
#
# Convention : Reuss Voigt Hill
#
# Bulk Modulus (GPa) = 34.23802 51.66398 42.95100
# Shear Modulus (GPa) = 17.91532 36.43707 27.17620
#
# Velocity S-wave (km/s) = 2.65742 3.78983 3.27297
# Velocity P-wave (km/s) = 4.78663 6.28612 5.58691
#
# Compressibility (1/GPa) = 0.02920729
#
# Stress axis : x y z
#
# Youngs Moduli (GPa) = 101.40948 34.98114 141.50514
#
# Poissons Ratio (x) = 0.19021 0.29932
# Poissons Ratio (y) = 0.55143 0.08501
# Poissons Ratio (z) = 0.21451 0.02102
#
# Static dielectric constant tensor:
#      x y z
#    x 2.292570 0.000000 0.171840 
#    y 0.000000 2.106070 0.000000 
#    z 0.171840 0.000000 2.194380 
# 
# From -- ./inp_files/59757.got.cif
#   From: 2010.05.17/outbox.cif.g08.bks.cpg/sg5_30_cif.got.tgz:59757.got - 2010.06.03 18:56:24.
