data_PCOD9126237
_publ_section_title
;
Structure prediction by ZEFSAII (Michael W. Deem and Ramdas Pophale) SiO2 
 PCOD9126237
Probable space group: C 2
;
_chemical_formula_sum "Si O2"
_cell_formula_units_Z 20
_cell_length_a 21.785082
_cell_length_b 6.676819
_cell_length_c 6.219495
_cell_angle_alpha 90.000000
_cell_angle_beta 84.484658
_cell_angle_gamma 90.000000
_cell_volume 900.468842
_symmetry_space_group_name_H-M "C 2"
_symmetry_group_IT_number 5
_symmetry_cell_setting 'monoclinic'
loop_
_space_group_symop_operation_xyz
x,y,z
-x,y,-z
1/2+x,1/2+y,z
1/2-x,1/2+y,-z
loop_
_atom_site_type_symbol
_atom_site_label
_atom_site_fract_x
_atom_site_fract_y
_atom_site_fract_z
Si Si1 0.472839 0.015870 0.257901
Si Si2 0.714916 0.048183 0.769393
Si Si3 0.378546 0.681092 0.217655
Si Si4 0.841408 0.881058 0.894353
Si Si5 0.366676 0.282998 0.461113
O O1 0.500000 0.020464 0.500000
O O2 0.418777 0.181067 0.299462
O O3 0.440123 0.799232 0.251779
O O4 0.500000 0.044841 0.000000
O O5 0.784338 0.993718 0.799355
O O6 0.696786 0.159849 0.554113
O O7 0.674624 0.846873 0.790263
O O8 0.689864 0.214641 0.944733
O O9 0.362062 0.514035 0.398747
O O10 0.380081 0.548201 0.003389
O O11 0.882381 0.770154 0.704950
#
# Coordination Sequence:
#
# PCOD9126237 Si02
#       5
#     4   4   4   4   4
#     4  11  28  50  77 101 140 185 245 311 365 409
#     4  10  22  39  61 103 144 187 225 278 349 427
#     4  10  24  44  67 102 133 183 237 285 352 427
#     4  11  22  40  68  99 150 184 229 285 349 432
#     4  10  26  41  69 100 139 184 240 294 345 434
#
# _framework density 22.210654000000002
#
# number of rings (size 3 to 8) (size 9 to 14) (size 15 to 20)
#    0.000    1.600    2.000    0.000   14.000    3.200 
#    0.000    0.000    0.000    0.000    0.000    0.000 
#    0.000    0.000    0.000    0.000    0.000    0.000 
#
# Total GULP energy -55697.811113 kJ/mol
# GULP energy per Si atom -5569.781111 kJ/mol
# Density = 2.216010 g / cm^3
# Si number density = 22.210654 Si / 1000 Ang^3
#
#
#
# Elastic Constant Matrix: (Units=GPa)
#
#
# Indices 1 2 3 4 5 6 
#
# 1 70.8318 27.1577 44.2020 0.0000 12.7324 0.0000
# 2 27.1577 120.3102 38.7705 0.0000 0.9342 0.0000
# 3 44.2020 38.7705 130.8723 0.0000 8.7933 0.0000
# 4 0.0000 0.0000 0.0000 10.5156 0.0000 18.7708
# 5 12.7324 0.9342 8.7933 0.0000 24.4667 0.0000
# 6 0.0000 0.0000 0.0000 18.7708 0.0000 31.0637
#
#
#
# Elastic Compliance Matrix: (Units=1/GPa)
#
#
# Indices 1 2 3 4 5 6 
#
# 1 0.020036 -0.002718 -0.005399 0.000000 -0.008383 0.000000
# 2 -0.002718 0.009568 -0.002036 0.000000 0.001781 0.000000
# 3 -0.005399 -0.002036 0.010118 0.000000 -0.000749 0.000000
# 4 0.000000 0.000000 0.000000 -1.209118 0.000000 0.730633
# 5 -0.008383 0.001781 -0.000749 0.000000 0.045435 0.000000
# 6 0.000000 0.000000 0.000000 0.730633 0.000000 -0.409307
#
#
# Mechanical properties :
#
#
# Convention : Reuss Voigt Hill
#
# Bulk Modulus (GPa) = 51.50346 60.25274 55.87810
# Shear Modulus (GPa) = -3.31897 27.33479 12.00791
#
# Velocity S-wave (km/s) = -1.22375 3.51195 2.32768
# Velocity P-wave (km/s) = 4.60893 6.60544 5.69535
#
# Compressibility (1/GPa) = 0.01941617
#
# Stress axis : x y z
#
# Youngs Moduli (GPa) = 49.91056 104.51880 98.83405
#
# Poissons Ratio (x) = 0.28407 0.53358
# Poissons Ratio (y) = 0.13565 0.20123
# Poissons Ratio (z) = 0.26945 0.21281
#
# Static dielectric constant tensor:
#      x y z
#    x 1.834050 0.000000 0.031030 
#    y 0.000000 1.761130 0.000000 
#    z 0.031030 0.000000 1.934920 
# 
# From -- ./inp_files/10576.got.cif
#   From: 2010.05.17/outbox.cif.g08.bks.cpg/sg5_6_cif.got.tgz:10576.got - 2010.06.03 18:56:24.
