data_PCOD9126948
_publ_section_title
;
Structure prediction by ZEFSAII (Michael W. Deem and Ramdas Pophale) SiO2 
 PCOD9126948
Probable space group: C 2
;
_chemical_formula_sum "Si O2"
_cell_formula_units_Z 20
_cell_length_a 17.606771
_cell_length_b 6.542320
_cell_length_c 7.578532
_cell_angle_alpha 90.000000
_cell_angle_beta 100.693378
_cell_angle_gamma 90.000000
_cell_volume 857.804823
_symmetry_space_group_name_H-M "C 2"
_symmetry_group_IT_number 5
_symmetry_cell_setting 'monoclinic'
loop_
_space_group_symop_operation_xyz
x,y,z
-x,y,-z
1/2+x,1/2+y,z
1/2-x,1/2+y,-z
loop_
_atom_site_type_symbol
_atom_site_label
_atom_site_fract_x
_atom_site_fract_y
_atom_site_fract_z
Si Si1 0.161563 0.302270 0.692471
Si Si2 0.789272 0.048495 0.594562
Si Si3 0.415338 0.213867 0.747430
Si Si4 0.356035 0.832350 0.923105
Si Si5 0.500000 0.932893 0.500000
Si Si6 0.500000 0.532647 0.000000
O O1 0.194295 0.109788 0.599390
O O2 0.202691 0.488418 0.607244
O O3 0.069182 0.308907 0.623735
O O4 0.186135 0.323850 0.906400
O O5 0.813832 0.232118 0.736679
O O6 0.843466 0.854378 0.659846
O O7 0.386175 0.057929 0.887089
O O8 0.456074 0.071063 0.622638
O O9 0.479538 0.377975 0.834582
O O10 0.427551 0.679993 0.987311
#
# Coordination Sequence:
#
# PCOD9126948 Si02
#       6
#     4   4   4   4   2   2
#     4  12  27  47  77 103 152 194 245 307 367 439
#     4  11  28  48  70 110 148 193 253 302 371 440
#     4  11  24  46  71 111 148 189 248 303 368 442
#     4  11  25  47  74 105 149 198 247 302 368 442
#     4  12  24  44  78 106 148 192 246 304 372 430
#     4  10  22  42  72 106 146 186 248 302 362 438
#
# _framework density 23.315329999999999
#
# number of rings (size 3 to 8) (size 9 to 14) (size 15 to 20)
#    0.000    0.800    2.000    4.200    8.400    0.000 
#    3.600    0.000    0.000    0.000    0.000    0.000 
#    0.000    0.000    0.000    0.000    0.000    0.000 
#
# Total GULP energy -55937.611053 kJ/mol
# GULP energy per Si atom -5593.761105 kJ/mol
# Density = 2.326226 g / cm^3
# Si number density = 23.315330 Si / 1000 Ang^3
#
#
#
# Elastic Constant Matrix: (Units=GPa)
#
#
# Indices 1 2 3 4 5 6 
#
# 1 83.6385 14.7047 19.5325 0.0000 -2.0684 0.0000
# 2 14.7047 108.9667 37.0016 0.0000 -9.2887 0.0000
# 3 19.5325 37.0016 107.3620 0.0000 -41.9782 0.0000
# 4 0.0000 0.0000 0.0000 29.2119 0.0000 13.3476
# 5 -2.0684 -9.2887 -41.9782 0.0000 37.8253 0.0000
# 6 0.0000 0.0000 0.0000 13.3476 0.0000 40.1794
#
#
#
# Elastic Compliance Matrix: (Units=1/GPa)
#
#
# Indices 1 2 3 4 5 6 
#
# 1 0.012792 -0.000893 -0.003236 0.000000 -0.003111 0.000000
# 2 -0.000893 0.010593 -0.004399 0.000000 -0.002330 0.000000
# 3 -0.003236 -0.004399 0.019304 0.000000 0.020166 0.000000
# 4 0.000000 0.000000 0.000000 0.040359 0.000000 -0.013407
# 5 -0.003111 -0.002330 0.020166 0.000000 0.048075 0.000000
# 6 0.000000 0.000000 0.000000 -0.013407 0.000000 0.029342
#
#
# Mechanical properties :
#
#
# Convention : Reuss Voigt Hill
#
# Bulk Modulus (GPa) = 39.01211 49.16054 44.08633
# Shear Modulus (GPa) = 26.87226 36.69189 31.78207
#
# Velocity S-wave (km/s) = 3.39862 3.97132 3.69608
# Velocity P-wave (km/s) = 5.67182 6.49303 6.09626
#
# Compressibility (1/GPa) = 0.02563307
#
# Stress axis : x y z
#
# Youngs Moduli (GPa) = 78.17429 94.40346 51.80229
#
# Poissons Ratio (x) = 0.08426 0.16763
# Poissons Ratio (y) = 0.06978 0.22790
# Poissons Ratio (z) = 0.25297 0.41531
#
# Static dielectric constant tensor:
#      x y z
#    x 1.885930 0.000000 0.033610 
#    y 0.000000 1.856950 0.000000 
#    z 0.033610 0.000000 1.948940 
# 
# From -- ./inp_files/25861.got.cif
#   From: 2010.05.17/outbox.cif.g08.bks.cpg/sg5_13_cif.got.tgz:25861.got - 2010.06.03 18:56:24.
