data_PCOD9126327
_publ_section_title
;
Structure prediction by ZEFSAII (Michael W. Deem and Ramdas Pophale) SiO2 
 PCOD9126327
Probable space group: C 2
;
_chemical_formula_sum "Si O2"
_cell_formula_units_Z 22
_cell_length_a 11.972541
_cell_length_b 20.196919
_cell_length_c 6.361214
_cell_angle_alpha 90.000000
_cell_angle_beta 52.602560
_cell_angle_gamma 90.000000
_cell_volume 1222.006529
_symmetry_space_group_name_H-M "C 2"
_symmetry_group_IT_number 5
_symmetry_cell_setting 'monoclinic'
loop_
_space_group_symop_operation_xyz
x,y,z
-x,y,-z
1/2+x,1/2+y,z
1/2-x,1/2+y,-z
loop_
_atom_site_type_symbol
_atom_site_label
_atom_site_fract_x
_atom_site_fract_y
_atom_site_fract_z
Si Si1 0.358555 0.865540 0.026126
Si Si2 0.387425 0.684932 0.320607
Si Si3 0.500000 0.797201 0.500000
Si Si4 0.000000 0.855303 0.000000
Si Si5 0.636901 0.265127 0.486083
Si Si6 0.500000 0.577045 0.500000
Si Si7 0.620379 0.449190 0.203725
O O1 0.396326 0.842962 0.748984
O O2 0.500000 0.867807 0.000000
O O3 0.249504 0.811429 0.237904
O O4 0.272661 0.933448 0.120553
O O5 0.428213 0.749331 0.412241
O O6 0.228287 0.699511 0.431019
O O7 0.407837 0.623301 0.453994
O O8 0.500000 0.680290 0.000000
O O9 0.914281 0.806873 0.252897
O O10 0.096656 0.906113 0.022854
O O11 0.500000 0.252536 0.500000
O O12 0.587075 0.527058 0.249007
O O13 0.500000 0.421943 0.500000
#
# Coordination Sequence:
#
# PCOD9126327 Si02
#       7
#     4   4   2   2   4   2   4
#     4  12  21  37  59  94 128 150 194 253 314 363
#     4  11  22  39  63  87 122 164 203 246 290 364
#     4  11  20  34  62  92 128 153 190 248 320 355
#     4  12  20  36  70  90 126 156 186 260 320 352
#     4  12  22  36  58  99 129 149 196 247 315 368
#     4   9  24  42  64  82 116 169 218 238 286 353
#     4  10  22  40  60  88 118 157 207 245 292 361
#
# _framework density 18.003176
#
# number of rings (size 3 to 8) (size 9 to 14) (size 15 to 20)
#    0.545    0.364    7.273    1.091    1.273    0.000 
#    0.000    0.000    6.000    0.000    0.000    0.000 
#    0.000    0.000    0.000    0.000    0.000    0.000 
#
# Total GULP energy -61307.954538 kJ/mol
# GULP energy per Si atom -5573.450413 kJ/mol
# Density = 1.796220 g / cm^3
# Si number density = 18.003176 Si / 1000 Ang^3
#
#
#
# Elastic Constant Matrix: (Units=GPa)
#
#
# Indices 1 2 3 4 5 6 
#
# 1 153.3458 58.6612 41.2218 0.0000 -16.2385 0.0000
# 2 58.6612 104.6113 35.4744 0.0000 -7.3821 0.0000
# 3 41.2218 35.4744 114.3158 0.0000 -0.4353 0.0000
# 4 0.0000 0.0000 0.0000 2.8424 0.0000 1.1228
# 5 -16.2385 -7.3821 -0.4353 0.0000 26.9602 0.0000
# 6 0.0000 0.0000 0.0000 1.1228 0.0000 29.0267
#
#
#
# Elastic Compliance Matrix: (Units=1/GPa)
#
#
# Indices 1 2 3 4 5 6 
#
# 1 0.009086 -0.004119 -0.001982 0.000000 0.004313 0.000000
# 2 -0.004119 0.012777 -0.002476 0.000000 0.000978 0.000000
# 3 -0.001982 -0.002476 0.010224 0.000000 -0.001707 0.000000
# 4 0.000000 0.000000 0.000000 0.357276 0.000000 -0.013819
# 5 0.004313 0.000978 -0.001707 0.000000 0.039930 0.000000
# 6 0.000000 0.000000 0.000000 -0.013819 0.000000 0.034986
#
#
# Mechanical properties :
#
#
# Convention : Reuss Voigt Hill
#
# Bulk Modulus (GPa) = 66.95959 71.44307 69.20133
# Shear Modulus (GPa) = 10.27938 27.56022 18.91980
#
# Velocity S-wave (km/s) = 2.39210 3.91686 3.24530
# Velocity P-wave (km/s) = 6.70101 7.76050 7.25014
#
# Compressibility (1/GPa) = 0.01493438
#
# Stress axis : x y z
#
# Youngs Moduli (GPa) = 110.05583 78.26264 97.80637
#
# Poissons Ratio (x) = 0.32234 0.19385
# Poissons Ratio (y) = 0.45329 0.24219
# Poissons Ratio (z) = 0.21812 0.19379
#
# Static dielectric constant tensor:
#      x y z
#    x 1.678380 0.000000 0.018530 
#    y 0.000000 1.618290 0.000000 
#    z 0.018530 0.000000 1.628850 
# 
# From -- ./inp_files/5757.got.cif
#   From: 2010.05.17/outbox.cif.g08.bks.cpg/sg5_3_cif.got.tgz:5757.got - 2010.06.03 18:56:24.
