data_PCOD9126456
_publ_section_title
;
Structure prediction by ZEFSAII (Michael W. Deem and Ramdas Pophale) SiO2 
 PCOD9126456
Probable space group: C 2
;
_chemical_formula_sum "Si O2"
_cell_formula_units_Z 26
_cell_length_a 12.038195
_cell_length_b 7.737732
_cell_length_c 26.789669
_cell_angle_alpha 90.000000
_cell_angle_beta 27.406901
_cell_angle_gamma 90.000000
_cell_volume 1148.655286
_symmetry_space_group_name_H-M "C 2"
_symmetry_group_IT_number 5
_symmetry_cell_setting 'monoclinic'
loop_
_space_group_symop_operation_xyz
x,y,z
-x,y,-z
1/2+x,1/2+y,z
1/2-x,1/2+y,-z
loop_
_atom_site_type_symbol
_atom_site_label
_atom_site_fract_x
_atom_site_fract_y
_atom_site_fract_z
Si Si1 0.000000 0.691581 0.000000
Si Si2 0.404680 0.221801 0.229808
Si Si3 0.413747 0.258466 0.617396
Si Si4 0.761883 0.566327 0.383752
Si Si5 0.368586 0.860151 0.006137
Si Si6 0.922747 0.418719 0.423489
Si Si7 0.966398 0.343336 0.855474
O O1 0.988711 0.550710 0.959909
O O2 0.760406 0.801574 0.089583
O O3 0.590716 0.362551 0.134475
O O4 0.127077 0.275348 0.334636
O O5 0.420023 0.179558 0.282807
O O6 0.472218 0.045608 0.174668
O O7 0.310004 0.388588 0.616951
O O8 0.659480 0.344384 0.539794
O O9 0.201984 0.247101 0.742023
O O10 0.486400 0.064116 0.574266
O O11 0.500000 0.650193 0.500000
O O12 0.888857 0.514482 0.383908
O O13 0.500000 0.762816 0.000000
O O14 0.401756 0.792432 0.937665
#
# Coordination Sequence:
#
# PCOD9126456 Si02
#       7
#     2   4   4   4   4   4   4
#     4  10  24  42  62  90 128 170 214 272 318 376
#     4  11  24  42  67 100 124 172 222 260 328 390
#     4  10  22  40  67  97 129 170 216 258 325 388
#     4   9  21  41  63  98 134 169 212 257 320 388
#     4  10  25  43  62  95 132 165 228 264 320 385
#     4  11  22  43  67  94 137 167 207 274 322 384
#     4  11  23  43  67  94 131 174 219 270 324 384
#
# _framework density 22.635162999999999
#
# number of rings (size 3 to 8) (size 9 to 14) (size 15 to 20)
#    0.462    1.231    0.000    4.615    3.231    4.923 
#    0.000    8.462    0.000    0.000    0.000    0.000 
#    0.000    0.000    0.000    0.000    0.000    0.000 
#
# Total GULP energy -72560.891500 kJ/mol
# GULP energy per Si atom -5581.607038 kJ/mol
# Density = 2.258364 g / cm^3
# Si number density = 22.635163 Si / 1000 Ang^3
#
#
#
# Elastic Constant Matrix: (Units=GPa)
#
#
# Indices 1 2 3 4 5 6 
#
# 1 72.3746 24.9496 55.2362 0.0001 -8.5763 0.0005
# 2 24.9496 72.9786 28.0379 -0.0005 -13.0594 0.0001
# 3 55.2362 28.0379 154.3357 -0.0015 -5.8994 0.0012
# 4 0.0001 -0.0005 -0.0015 35.8286 0.0000 -9.6842
# 5 -8.5763 -13.0594 -5.8994 0.0000 44.3531 0.0001
# 6 0.0005 0.0001 0.0012 -9.6842 0.0001 18.8115
#
#
#
# Elastic Compliance Matrix: (Units=1/GPa)
#
#
# Indices 1 2 3 4 5 6 
#
# 1 0.020417 -0.004157 -0.006481 0.000000 0.001862 0.000000
# 2 -0.004157 0.016319 -0.001331 0.000000 0.003824 0.000000
# 3 -0.006481 -0.001331 0.009024 0.000000 -0.000445 0.000000
# 4 0.000000 0.000000 0.000000 0.032422 0.000000 0.016691
# 5 0.001862 0.003824 -0.000445 0.000000 0.023973 0.000000
# 6 0.000000 0.000000 0.000000 0.016691 0.000000 0.061752
#
#
# Mechanical properties :
#
#
# Convention : Reuss Voigt Hill
#
# Bulk Modulus (GPa) = 45.82359 57.34848 51.58603
# Shear Modulus (GPa) = 25.62554 32.56300 29.09427
#
# Velocity S-wave (km/s) = 3.36834 3.79701 3.58908
# Velocity P-wave (km/s) = 5.95113 6.67937 6.32574
#
# Compressibility (1/GPa) = 0.02182282
#
# Stress axis : x y z
#
# Youngs Moduli (GPa) = 48.97948 61.27660 110.82100
#
# Poissons Ratio (x) = 0.25472 0.71820
# Poissons Ratio (y) = 0.20361 0.14748
# Poissons Ratio (z) = 0.31742 0.08155
#
# Static dielectric constant tensor:
#      x y z
#    x 1.837730 0.000000 -0.002340 
#    y 0.000000 1.924350 0.000000 
#    z -0.002340 0.000000 1.826550 
# 
# From -- ./inp_files/70356.got.cif
#   From: 2010.05.17/outbox.cif.g08.bks.cpg/sg5_36_cif.got.tgz:70356.got - 2010.06.03 18:56:24.
