data_PCOD9126169
_publ_section_title
;
Structure prediction by ZEFSAII (Michael W. Deem and Ramdas Pophale) SiO2 
 PCOD9126169
Probable space group: C 2
;
_chemical_formula_sum "Si O2"
_cell_formula_units_Z 30
_cell_length_a 10.028772
_cell_length_b 25.522228
_cell_length_c 5.400955
_cell_angle_alpha 90.000000
_cell_angle_beta 106.330187
_cell_angle_gamma 90.000000
_cell_volume 1326.639933
_symmetry_space_group_name_H-M "C 2"
_symmetry_group_IT_number 5
_symmetry_cell_setting 'monoclinic'
loop_
_space_group_symop_operation_xyz
x,y,z
-x,y,-z
1/2+x,1/2+y,z
1/2-x,1/2+y,-z
loop_
_atom_site_type_symbol
_atom_site_label
_atom_site_fract_x
_atom_site_fract_y
_atom_site_fract_z
Si Si1 0.352090 0.514410 0.482818
Si Si2 0.864307 0.779692 0.264151
Si Si3 0.546256 0.105266 0.776148
Si Si4 0.000000 0.703625 0.000000
Si Si5 0.348411 0.383740 0.954048
Si Si6 0.646019 0.829156 0.453878
Si Si7 0.352829 0.582426 0.979098
Si Si8 0.858525 0.437585 0.826726
O O1 0.500000 0.487230 0.500000
O O2 0.352066 0.540301 0.753333
O O3 0.225865 0.474455 0.399344
O O4 0.344672 0.556532 0.249880
O O5 0.879031 0.740710 0.039574
O O6 0.720978 0.782977 0.339366
O O7 0.000000 0.768354 0.500000
O O8 0.878511 0.838801 0.172627
O O9 0.500000 0.079308 0.500000
O O10 0.710577 0.114045 0.870093
O O11 0.500000 0.076009 0.000000
O O12 0.467842 0.161274 0.767702
O O13 0.265968 0.351908 0.698997
O O14 0.500000 0.407709 0.000000
O O15 0.244651 0.426805 0.000873
O O16 0.500000 0.813266 0.500000
O O17 0.610384 0.880432 0.271625
O O18 0.500000 0.610452 0.000000
O O19 0.000000 0.460309 0.000000
#
# Coordination Sequence:
#
# PCOD9126169 Si02
#       8
#     4   4   4   2   4   4   4   4
#     4  10  24  40  65  95 130 172 222 270 321 398
#     4  11  20  38  64  92 124 169 219 269 327 387
#     4  10  22  39  69 101 130 165 210 271 321 402
#     4  10  22  38  68 100 136 158 226 272 330 398
#     4  11  22  37  61  87 121 171 221 261 321 392
#     4  11  23  39  60  89 128 174 219 276 330 387
#     4  10  22  44  67  95 131 173 212 265 333 397
#     4  11  25  38  57  89 127 170 219 280 327 372
#
# _framework density 22.613517999999999
#
# number of rings (size 3 to 8) (size 9 to 14) (size 15 to 20)
#    0.400    1.067    3.333    1.200    3.733    2.133 
#    0.000    0.000    5.867    0.000    0.000    0.000 
#    0.000    0.000    0.000    0.000    0.000    0.000 
#
# Total GULP energy -83691.029487 kJ/mol
# GULP energy per Si atom -5579.401966 kJ/mol
# Density = 2.256205 g / cm^3
# Si number density = 22.613518 Si / 1000 Ang^3
#
#
#
# Elastic Constant Matrix: (Units=GPa)
#
#
# Indices 1 2 3 4 5 6 
#
# 1 186.8632 32.5913 36.0485 0.0000 4.9506 0.0000
# 2 32.5913 45.6467 5.5627 0.0000 -5.6314 0.0000
# 3 36.0485 5.5627 97.2097 0.0000 -5.1715 0.0000
# 4 0.0000 0.0000 0.0000 4.8201 0.0000 5.3141
# 5 4.9506 -5.6314 -5.1715 0.0000 42.1594 0.0000
# 6 0.0000 0.0000 0.0000 5.3141 0.0000 -1.1308
#
#
#
# Elastic Compliance Matrix: (Units=1/GPa)
#
#
# Indices 1 2 3 4 5 6 
#
# 1 0.006654 -0.004680 -0.002290 0.000000 -0.001687 0.000000
# 2 -0.004680 0.025689 0.000480 0.000000 0.004040 0.000000
# 3 -0.002290 0.000480 0.011199 0.000000 0.001707 0.000000
# 4 0.000000 0.000000 0.000000 0.033565 0.000000 0.157733
# 5 -0.001687 0.004040 0.001707 0.000000 0.024667 0.000000
# 6 0.000000 0.000000 0.000000 0.157733 0.000000 -0.143068
#
#
# Mechanical properties :
#
#
# Convention : Reuss Voigt Hill
#
# Bulk Modulus (GPa) = 32.71834 53.12496 42.92165
# Shear Modulus (GPa) = -275.82456 26.20421 -124.81017
#
# Velocity S-wave (km/s) = -11.05613 3.40779 -7.43724
# Velocity P-wave (km/s) = 12.18541 6.24721 7.39786
#
# Compressibility (1/GPa) = 0.03056390
#
# Stress axis : x y z
#
# Youngs Moduli (GPa) = 150.28161 38.92746 89.29069
#
# Poissons Ratio (x) = 0.18219 0.20443
# Poissons Ratio (y) = 0.70334 -0.04290
# Poissons Ratio (z) = 0.34407 -0.01870
#
# Static dielectric constant tensor:
#      x y z
#    x 1.934040 0.000000 -0.017780 
#    y 0.000000 1.812450 0.000000 
#    z -0.017780 0.000000 1.946530 
# 
# From -- ./inp_files/3962.got.cif
#   From: 2010.05.17/outbox.cif.g08.bks.cpg/sg5_2_cif.got.tgz:3962.got - 2010.06.03 18:56:24.
