data_PCOD9126770
_publ_section_title
;
Structure prediction by ZEFSAII (Michael W. Deem and Ramdas Pophale) SiO2 
 PCOD9126770
Probable space group: C 2
;
_chemical_formula_sum "Si O2"
_cell_formula_units_Z 28
_cell_length_a 17.692576
_cell_length_b 5.883989
_cell_length_c 12.589700
_cell_angle_alpha 90.000000
_cell_angle_beta 66.240669
_cell_angle_gamma 90.000000
_cell_volume 1199.543729
_symmetry_space_group_name_H-M "C 2"
_symmetry_group_IT_number 5
_symmetry_cell_setting 'monoclinic'
loop_
_space_group_symop_operation_xyz
x,y,z
-x,y,-z
1/2+x,1/2+y,z
1/2-x,1/2+y,-z
loop_
_atom_site_type_symbol
_atom_site_label
_atom_site_fract_x
_atom_site_fract_y
_atom_site_fract_z
Si Si1 0.322960 0.113340 0.873108
Si Si2 0.885886 0.010307 0.247332
Si Si3 0.269041 0.965813 0.538450
Si Si4 0.135831 0.945835 0.981639
Si Si5 0.542758 0.722161 0.216791
Si Si6 0.406415 0.371783 0.649369
Si Si7 0.077225 0.702500 0.575362
O O1 0.227385 0.052408 0.929607
O O2 0.336254 0.296702 0.771071
O O3 0.390195 0.919481 0.816034
O O4 0.348616 0.203089 0.974512
O O5 0.787887 0.022950 0.327401
O O6 0.897299 0.950242 0.118456
O O7 0.944429 0.225257 0.245933
O O8 0.912983 0.811013 0.313599
O O9 0.250821 0.203257 0.481891
O O10 0.367859 0.985907 0.484256
O O11 0.076883 0.070471 0.099061
O O12 0.553434 0.593128 0.322395
O O13 0.479745 0.185366 0.616387
O O14 0.389116 0.379344 0.534506
#
# Coordination Sequence:
#
# PCOD9126770 Si02
#       7
#     4   4   4   4   4   4   4
#     4  11  22  40  67  94 127 177 225 275 340 412
#     4  10  22  42  67  94 138 171 224 286 348 406
#     4  10  22  42  64  94 138 176 222 274 338 412
#     4  11  22  43  65  96 131 174 225 281 343 415
#     4  10  22  42  64  96 127 174 225 280 337 412
#     4   9  20  39  67  88 133 167 223 268 342 408
#     4   9  19  42  61  98 127 175 216 277 338 418
#
# _framework density 23.342210999999999
#
# number of rings (size 3 to 8) (size 9 to 14) (size 15 to 20)
#    0.000    2.000    1.429    1.286    2.000    0.000 
#   20.571    5.714    0.000    0.000    0.000    0.000 
#    0.000    0.000    0.000    0.000    0.000    0.000 
#
# Total GULP energy -77955.389374 kJ/mol
# GULP energy per Si atom -5568.242098 kJ/mol
# Density = 2.328908 g / cm^3
# Si number density = 23.342211 Si / 1000 Ang^3
#
#
#
# Elastic Constant Matrix: (Units=GPa)
#
#
# Indices 1 2 3 4 5 6 
#
# 1 67.6537 21.1242 19.6446 0.0000 -3.6019 0.0000
# 2 21.1242 38.8161 12.4650 -0.0001 3.9791 -0.0002
# 3 19.6446 12.4650 125.7257 0.0000 15.7238 0.0000
# 4 0.0000 -0.0001 0.0000 31.0604 0.0000 -11.4304
# 5 -3.6019 3.9791 15.7238 0.0000 47.9113 0.0000
# 6 0.0000 -0.0002 0.0000 -11.4304 0.0000 15.6028
#
#
#
# Elastic Compliance Matrix: (Units=1/GPa)
#
#
# Indices 1 2 3 4 5 6 
#
# 1 0.018644 -0.009705 -0.002322 0.000000 0.002970 0.000000
# 2 -0.009705 0.031752 -0.001262 0.000000 -0.002952 0.000001
# 3 -0.002322 -0.001262 0.008812 0.000000 -0.002962 0.000000
# 4 0.000000 0.000000 0.000000 0.044079 0.000000 0.032291
# 5 0.002970 -0.002952 -0.002962 0.000000 0.022312 0.000000
# 6 0.000000 0.000001 0.000000 0.032291 0.000000 0.087747
#
#
# Mechanical properties :
#
#
# Convention : Reuss Voigt Hill
#
# Bulk Modulus (GPa) = 30.64766 37.62923 34.13844
# Shear Modulus (GPa) = 19.93605 30.84569 25.39087
#
# Velocity S-wave (km/s) = 2.92563 3.63913 3.30171
# Velocity P-wave (km/s) = 4.95688 5.81492 5.40296
#
# Compressibility (1/GPa) = 0.03262892
#
# Stress axis : x y z
#
# Youngs Moduli (GPa) = 53.63694 31.49400 113.47824
#
# Poissons Ratio (x) = 0.30565 0.26353
# Poissons Ratio (y) = 0.52054 0.14326
# Poissons Ratio (z) = 0.12456 0.03976
#
# Static dielectric constant tensor:
#      x y z
#    x 1.983300 0.000000 0.009870 
#    y 0.000000 1.936880 0.000000 
#    z 0.009870 0.000000 1.857990 
# 
# From -- ./inp_files/45648.got.cif
#   From: 2010.05.17/outbox.cif.g08.bks.cpg/sg5_23_cif.got.tgz:45648.got - 2010.06.03 18:56:24.
