data_PCOD9126968
_publ_section_title
;
Structure prediction by ZEFSAII (Michael W. Deem and Ramdas Pophale) SiO2 
 PCOD9126968
Probable space group: C 2
;
_chemical_formula_sum "Si O2"
_cell_formula_units_Z 18
_cell_length_a 16.729811
_cell_length_b 4.864940
_cell_length_c 10.465977
_cell_angle_alpha 90.000000
_cell_angle_beta 127.112953
_cell_angle_gamma 90.000000
_cell_volume 679.282493
_symmetry_space_group_name_H-M "C 2"
_symmetry_group_IT_number 5
_symmetry_cell_setting 'monoclinic'
loop_
_space_group_symop_operation_xyz
x,y,z
-x,y,-z
1/2+x,1/2+y,z
1/2-x,1/2+y,-z
loop_
_atom_site_type_symbol
_atom_site_label
_atom_site_fract_x
_atom_site_fract_y
_atom_site_fract_z
Si Si1 0.711655 0.535090 0.035609
Si Si2 0.492413 0.764742 0.782524
Si Si3 0.000000 0.143320 0.500000
Si Si4 0.703620 0.343861 0.649075
Si Si5 0.364281 0.244835 0.698705
O O1 0.597052 0.632581 0.922503
O O2 0.729672 0.223448 0.011816
O O3 0.757799 0.621261 0.214450
O O4 0.493249 0.795558 0.628915
O O5 0.463856 0.059383 0.808919
O O6 0.403993 0.556379 0.740823
O O7 0.099569 0.961186 0.601908
O O8 0.781954 0.592961 0.705108
O O9 0.679560 0.217369 0.487363
#
# Coordination Sequence:
#
# PCOD9126968 Si02
#       5
#     4   4   2   4   4
#     4  12  27  46  73 113 148 191 241 311 366 432
#     4  11  25  46  72 108 144 190 245 294 373 426
#     4  10  22  42  74 104 136 196 236 298 342 440
#     4  11  25  48  75 107 148 192 246 300 362 433
#     4  11  26  46  73 106 144 195 241 301 359 437
#
# _framework density 26.498546999999999
#
# number of rings (size 3 to 8) (size 9 to 14) (size 15 to 20)
#    0.000    0.889    2.222    4.000    6.222    5.333 
#    0.000    4.444    0.000    0.000    0.000    0.000 
#    0.000    0.000    0.000    0.000    0.000    0.000 
#
# Total GULP energy -50534.009590 kJ/mol
# GULP energy per Si atom -5614.889954 kJ/mol
# Density = 2.643823 g / cm^3
# Si number density = 26.498547 Si / 1000 Ang^3
#
#
#
# Elastic Constant Matrix: (Units=GPa)
#
#
# Indices 1 2 3 4 5 6 
#
# 1 134.6618 36.1186 11.4267 0.0000 13.1871 0.0000
# 2 36.1186 99.5171 -2.9734 0.0001 -11.0652 0.0000
# 3 11.4267 -2.9734 73.7120 -0.0001 2.3268 0.0000
# 4 0.0000 0.0001 -0.0001 21.5183 0.0000 4.6745
# 5 13.1871 -11.0652 2.3268 0.0000 56.6071 0.0000
# 6 0.0000 0.0000 0.0000 4.6745 0.0000 44.9922
#
#
#
# Elastic Compliance Matrix: (Units=1/GPa)
#
#
# Indices 1 2 3 4 5 6 
#
# 1 0.008750 -0.003514 -0.001414 0.000000 -0.002667 0.000000
# 2 -0.003514 0.011693 0.000920 0.000000 0.003067 0.000000
# 3 -0.001414 0.000920 0.013824 0.000000 -0.000059 0.000000
# 4 0.000000 0.000000 0.000000 0.047545 0.000000 -0.004940
# 5 -0.002667 0.003067 -0.000059 0.000000 0.018889 0.000000
# 6 0.000000 0.000000 0.000000 -0.004940 0.000000 0.022739
#
#
# Mechanical properties :
#
#
# Convention : Reuss Voigt Hill
#
# Bulk Modulus (GPa) = 38.09627 44.11495 41.10561
# Shear Modulus (GPa) = 35.66146 42.17812 38.91979
#
# Velocity S-wave (km/s) = 3.67248 3.99396 3.83659
# Velocity P-wave (km/s) = 5.69129 6.16061 5.93059
#
# Compressibility (1/GPa) = 0.02624929
#
# Stress axis : x y z
#
# Youngs Moduli (GPa) = 114.28804 85.52489 72.33558
#
# Poissons Ratio (x) = 0.30057 0.10228
# Poissons Ratio (y) = 0.40166 -0.06652
# Poissons Ratio (z) = 0.16160 -0.07865
#
# Static dielectric constant tensor:
#      x y z
#    x 2.097810 0.000000 -0.032570 
#    y 0.000000 2.004850 0.000000 
#    z -0.032570 0.000000 2.043940 
# 
# From -- ./inp_files/43537.got.cif
#   From: 2010.05.17/outbox.cif.g08.bks.cpg/sg5_22_cif.got.tgz:43537.got - 2010.06.03 18:56:24.
