data_PCOD9126553
_publ_section_title
;
Structure prediction by ZEFSAII (Michael W. Deem and Ramdas Pophale) SiO2 
 PCOD9126553
Probable space group: C 2
;
_chemical_formula_sum "Si O2"
_cell_formula_units_Z 24
_cell_length_a 11.298155
_cell_length_b 10.231541
_cell_length_c 13.278530
_cell_angle_alpha 90.000000
_cell_angle_beta 43.851105
_cell_angle_gamma 90.000000
_cell_volume 1063.403539
_symmetry_space_group_name_H-M "C 2"
_symmetry_group_IT_number 5
_symmetry_cell_setting 'monoclinic'
loop_
_space_group_symop_operation_xyz
x,y,z
-x,y,-z
1/2+x,1/2+y,z
1/2-x,1/2+y,-z
loop_
_atom_site_type_symbol
_atom_site_label
_atom_site_fract_x
_atom_site_fract_y
_atom_site_fract_z
Si Si1 0.822083 0.093420 0.045668
Si Si2 0.687944 0.233137 0.472770
Si Si3 0.360860 0.582553 0.783126
Si Si4 0.189532 0.846634 0.837657
Si Si5 0.723535 0.455254 0.591772
Si Si6 0.699045 0.314656 0.255067
O O1 0.734072 0.223868 0.138721
O O2 0.735249 0.960078 0.136994
O O3 0.834185 0.092086 0.919108
O O4 0.000000 0.092580 0.000000
O O5 0.780422 0.324150 0.498887
O O6 0.650639 0.078194 0.496739
O O7 0.778404 0.262214 0.310210
O O8 0.501020 0.296641 0.599928
O O9 0.302699 0.717118 0.769877
O O10 0.556677 0.535078 0.652484
O O11 0.257023 0.462725 0.797406
O O12 0.181512 0.908560 0.730805
O O13 0.000000 0.815212 0.000000
#
# Coordination Sequence:
#
# PCOD9126553 Si02
#       6
#     4   4   4   4   4   4
#     4  11  20  40  66  92 135 169 217 280 335 387
#     4  10  23  41  65  86 133 173 217 273 323 393
#     4  11  23  39  68  97 130 173 219 275 332 394
#     4  11  23  42  67  98 134 167 221 280 331 393
#     4  11  23  45  64  95 129 175 222 272 327 395
#     4  10  22  41  61  91 129 172 218 268 332 389
#
# _framework density 22.569043000000001
#
# number of rings (size 3 to 8) (size 9 to 14) (size 15 to 20)
#    0.000    1.333    5.000    1.000    4.667    2.000 
#    0.000    3.333    0.000    0.000    0.000    0.000 
#    0.000    0.000    0.000    0.000    0.000    0.000 
#
# Total GULP energy -66901.839752 kJ/mol
# GULP energy per Si atom -5575.153313 kJ/mol
# Density = 2.251768 g / cm^3
# Si number density = 22.569043 Si / 1000 Ang^3
#
#
#
# Elastic Constant Matrix: (Units=GPa)
#
#
# Indices 1 2 3 4 5 6 
#
# 1 30.7152 29.2903 8.4539 0.0000 8.3779 0.0000
# 2 29.2903 171.2853 29.5765 0.0000 2.9232 0.0000
# 3 8.4539 29.5765 56.0039 0.0000 10.4108 0.0000
# 4 0.0000 0.0000 0.0000 24.0069 0.0000 -0.6658
# 5 8.3779 2.9232 10.4108 0.0000 18.4709 0.0000
# 6 0.0000 0.0000 0.0000 -0.6658 0.0000 25.1012
#
#
#
# Elastic Compliance Matrix: (Units=1/GPa)
#
#
# Indices 1 2 3 4 5 6 
#
# 1 0.044799 -0.007469 0.000826 0.000000 -0.019603 0.000000
# 2 -0.007469 0.007686 -0.003726 0.000000 0.004271 0.000000
# 3 0.000826 -0.003726 0.021960 0.000000 -0.012162 0.000000
# 4 0.000000 0.000000 0.000000 0.041685 0.000000 0.001106
# 5 -0.019603 0.004271 -0.012162 0.000000 0.069210 0.000000
# 6 0.000000 0.000000 0.000000 0.001106 0.000000 0.039868
#
#
# Mechanical properties :
#
#
# Convention : Reuss Voigt Hill
#
# Bulk Modulus (GPa) = 18.61928 43.62733 31.12331
# Shear Modulus (GPa) = 18.95039 26.22806 22.58922
#
# Velocity S-wave (km/s) = 2.90084 3.41269 3.16712
# Velocity P-wave (km/s) = 4.41448 5.90772 5.21483
#
# Compressibility (1/GPa) = 0.05370776
#
# Stress axis : x y z
#
# Youngs Moduli (GPa) = 22.32187 130.10967 45.53817
#
# Poissons Ratio (x) = 0.97177 -0.03762
# Poissons Ratio (y) = 0.16672 0.16965
# Poissons Ratio (z) = -0.01844 0.48473
#
# Static dielectric constant tensor:
#      x y z
#    x 2.251900 0.000000 -0.001450 
#    y 0.000000 1.952980 0.000000 
#    z -0.001450 0.000000 1.856780 
# 
# From -- ./inp_files/54060.got.cif
#   From: 2010.05.17/outbox.cif.g08.bks.cpg/sg5_28_cif.got.tgz:54060.got - 2010.06.03 18:56:24.
