data_PCOD9126946
_publ_section_title
;
Structure prediction by ZEFSAII (Michael W. Deem and Ramdas Pophale) SiO2 
 PCOD9126946
Probable space group: C 2
;
_chemical_formula_sum "Si O2"
_cell_formula_units_Z 26
_cell_length_a 22.080833
_cell_length_b 8.501887
_cell_length_c 12.023440
_cell_angle_alpha 90.000000
_cell_angle_beta 149.919324
_cell_angle_gamma 90.000000
_cell_volume 1131.323946
_symmetry_space_group_name_H-M "C 2"
_symmetry_group_IT_number 5
_symmetry_cell_setting 'monoclinic'
loop_
_space_group_symop_operation_xyz
x,y,z
-x,y,-z
1/2+x,1/2+y,z
1/2-x,1/2+y,-z
loop_
_atom_site_type_symbol
_atom_site_label
_atom_site_fract_x
_atom_site_fract_y
_atom_site_fract_z
Si Si1 0.144302 0.030590 0.417055
Si Si2 0.355327 0.090804 0.888786
Si Si3 0.730234 0.255757 0.052940
Si Si4 0.036292 0.820136 0.439459
Si Si5 0.518344 0.779508 0.897593
Si Si6 0.500000 0.358697 0.000000
Si Si7 0.234844 0.118998 0.122478
O O1 0.285322 0.024927 0.669160
O O2 0.078867 0.936353 0.411491
O O3 0.095351 0.957296 0.224531
O O4 0.101615 0.211190 0.348378
O O5 0.255601 0.138198 0.821555
O O6 0.439669 0.952995 0.067987
O O7 0.428414 0.243814 0.969357
O O8 0.752008 0.435130 0.123847
O O9 0.587374 0.240820 0.797389
O O10 0.794940 0.203466 0.042934
O O11 0.144361 0.698744 0.636690
O O12 0.000000 0.897544 0.500000
O O13 0.625066 0.659771 0.030407
O O14 0.500000 0.779390 0.000000
#
# Coordination Sequence:
#
# PCOD9126946 Si02
#       7
#     4   4   4   4   4   2   4
#     4  12  26  45  71 101 141 194 234 291 361 422
#     4  12  27  44  71 106 138 192 241 296 355 429
#     4  11  24  47  73 106 142 188 241 296 363 419
#     4  10  22  42  72 103 140 182 234 293 354 418
#     4  12  25  44  68 105 144 183 240 291 351 430
#     4  12  26  46  66 100 150 182 238 298 354 428
#     4  11  23  44  77 102 146 190 234 301 357 425
#
# _framework density 22.981922999999998
#
# number of rings (size 3 to 8) (size 9 to 14) (size 15 to 20)
#    0.000    0.615    6.154    0.923    4.308    1.231 
#    0.000    1.538    0.000    0.000    0.000    0.000 
#    0.000    0.000    0.000    0.000    0.000    0.000 
#
# Total GULP energy -72729.685492 kJ/mol
# GULP energy per Si atom -5594.591192 kJ/mol
# Density = 2.292961 g / cm^3
# Si number density = 22.981923 Si / 1000 Ang^3
#
#
#
# Elastic Constant Matrix: (Units=GPa)
#
#
# Indices 1 2 3 4 5 6 
#
# 1 103.6634 32.3399 -1.2547 0.0000 -18.5400 0.0000
# 2 32.3399 121.8122 18.2541 0.0000 -20.2207 0.0000
# 3 -1.2547 18.2541 72.1844 0.0000 -12.6920 0.0000
# 4 0.0000 0.0000 0.0000 38.5314 0.0000 -3.3347
# 5 -18.5400 -20.2207 -12.6920 0.0000 30.6730 0.0000
# 6 0.0000 0.0000 0.0000 -3.3347 0.0000 30.6021
#
#
#
# Elastic Compliance Matrix: (Units=1/GPa)
#
#
# Indices 1 2 3 4 5 6 
#
# 1 0.011498 -0.002303 0.001874 0.000000 0.006207 0.000000
# 2 -0.002303 0.009805 -0.001756 0.000000 0.004345 0.000000
# 3 0.001874 -0.001756 0.015450 0.000000 0.006368 0.000000
# 4 0.000000 0.000000 0.000000 0.026200 0.000000 0.002855
# 5 0.006207 0.004345 0.006368 0.000000 0.041853 0.000000
# 6 0.000000 0.000000 0.000000 0.002855 0.000000 0.032989
#
#
# Mechanical properties :
#
#
# Convention : Reuss Voigt Hill
#
# Bulk Modulus (GPa) = 30.88073 44.03762 37.45918
# Shear Modulus (GPa) = 32.68860 36.51602 34.60231
#
# Velocity S-wave (km/s) = 3.77551 3.99043 3.88446
# Velocity P-wave (km/s) = 5.69843 6.35884 6.03767
#
# Compressibility (1/GPa) = 0.03238266
#
# Stress axis : x y z
#
# Youngs Moduli (GPa) = 86.97299 101.98670 64.72675
#
# Poissons Ratio (x) = 0.23487 -0.12127
# Poissons Ratio (y) = 0.20030 0.11363
# Poissons Ratio (z) = -0.16295 0.17904
#
# Static dielectric constant tensor:
#      x y z
#    x 1.905330 0.000000 -0.037310 
#    y 0.000000 1.845420 0.000000 
#    z -0.037310 0.000000 1.859310 
# 
# From -- ./inp_files/47378.got.cif
#   From: 2010.05.17/outbox.cif.g08.bks.cpg/sg5_24_cif.got.tgz:47378.got - 2010.06.03 18:56:24.
