data_PCOD9126521
_publ_section_title
;
Structure prediction by ZEFSAII (Michael W. Deem and Ramdas Pophale) SiO2 
 PCOD9126521
Probable space group: C 2
;
_chemical_formula_sum "Si O2"
_cell_formula_units_Z 20
_cell_length_a 6.923062
_cell_length_b 7.564023
_cell_length_c 18.363558
_cell_angle_alpha 90.000000
_cell_angle_beta 46.590206
_cell_angle_gamma 90.000000
_cell_volume 698.582870
_symmetry_space_group_name_H-M "C 2"
_symmetry_group_IT_number 5
_symmetry_cell_setting 'monoclinic'
loop_
_space_group_symop_operation_xyz
x,y,z
-x,y,-z
1/2+x,1/2+y,z
1/2-x,1/2+y,-z
loop_
_atom_site_type_symbol
_atom_site_label
_atom_site_fract_x
_atom_site_fract_y
_atom_site_fract_z
Si Si1 0.715630 0.818640 0.042205
Si Si2 0.020094 0.672386 0.409900
Si Si3 0.588421 0.946191 0.758319
Si Si4 0.988869 0.949125 0.845046
Si Si5 0.280101 0.795117 0.645399
O O1 0.496258 0.945000 0.134985
O O2 0.641070 0.633219 0.097840
O O3 0.788462 0.815767 0.938731
O O4 0.000000 0.878043 0.000000
O O5 0.275654 0.768630 0.308239
O O6 0.022747 0.460229 0.402006
O O7 0.000000 0.715260 0.500000
O O8 0.787916 0.745140 0.419304
O O9 0.297616 0.956472 0.793941
O O10 0.786852 0.106129 0.684637
O O11 0.029076 0.882906 0.752743
#
# Coordination Sequence:
#
# PCOD9126521 Si02
#       5
#     4   4   4   4   4
#     4  10  22  40  71 116 159 204 257 314 396 486
#     4  12  31  51  80 114 155 208 272 338 410 474
#     4  11  24  48  75 113 158 207 260 334 398 478
#     4  11  23  44  73 116 155 212 260 324 397 487
#     4  12  26  49  77 111 155 202 266 329 401 478
#
# _framework density 28.629387000000001
#
# number of rings (size 3 to 8) (size 9 to 14) (size 15 to 20)
#    0.000    0.800    4.000    1.200    5.600    4.000 
#    0.000    0.000    0.000    0.000    0.000    0.000 
#    0.000    0.000    0.000    0.000    0.000    0.000 
#
# Total GULP energy -55998.597975 kJ/mol
# GULP energy per Si atom -5599.859797 kJ/mol
# Density = 2.856423 g / cm^3
# Si number density = 28.629387 Si / 1000 Ang^3
#
#
#
# Elastic Constant Matrix: (Units=GPa)
#
#
# Indices 1 2 3 4 5 6 
#
# 1 80.8015 23.6582 34.4996 -0.0003 -8.8501 0.0000
# 2 23.6582 197.8979 66.9313 -0.0003 16.8862 0.0002
# 3 34.4996 66.9313 180.5825 -0.0016 38.2093 0.0006
# 4 -0.0003 -0.0003 -0.0016 59.5299 0.0005 0.3106
# 5 -8.8501 16.8862 38.2093 0.0005 60.2971 -0.0001
# 6 0.0000 0.0002 0.0006 0.3106 -0.0001 41.0530
#
#
#
# Elastic Compliance Matrix: (Units=1/GPa)
#
#
# Indices 1 2 3 4 5 6 
#
# 1 0.014615 -0.000990 -0.003393 0.000000 0.004572 0.000000
# 2 -0.000990 0.005849 -0.001849 0.000000 -0.000611 0.000000
# 3 -0.003393 -0.001849 0.007930 0.000000 -0.005005 0.000000
# 4 0.000000 0.000000 0.000000 0.016799 0.000000 -0.000127
# 5 0.004572 -0.000611 -0.005005 0.000000 0.020599 0.000000
# 6 0.000000 0.000000 0.000000 -0.000127 0.000000 0.024360
#
#
# Mechanical properties :
#
#
# Convention : Reuss Voigt Hill
#
# Bulk Modulus (GPa) = 62.77240 78.82888 70.80064
# Shear Modulus (GPa) = 46.32785 54.45551 50.39168
#
# Velocity S-wave (km/s) = 4.02704 4.36602 4.19995
# Velocity P-wave (km/s) = 6.60274 7.28081 6.95005
#
# Compressibility (1/GPa) = 0.01593057
#
# Stress axis : x y z
#
# Youngs Moduli (GPa) = 68.42179 170.96579 126.09753
#
# Poissons Ratio (x) = 0.16924 0.42782
# Poissons Ratio (y) = 0.06773 0.23321
# Poissons Ratio (z) = 0.23214 0.31619
#
# Static dielectric constant tensor:
#      x y z
#    x 2.337480 0.000000 0.095220 
#    y 0.000000 2.225310 0.000000 
#    z 0.095220 0.000000 2.260720 
# 
# From -- ./inp_files/59378.got.cif
#   From: 2010.05.17/outbox.cif.g08.bks.cpg/sg5_30_cif.got.tgz:59378.got - 2010.06.03 18:56:24.
