data_PCOD9126293
_publ_section_title
;
Structure prediction by ZEFSAII (Michael W. Deem and Ramdas Pophale) SiO2 
 PCOD9126293
Probable space group: C 2
;
_chemical_formula_sum "Si O2"
_cell_formula_units_Z 26
_cell_length_a 8.221348
_cell_length_b 11.850531
_cell_length_c 17.329995
_cell_angle_alpha 90.000000
_cell_angle_beta 139.426927
_cell_angle_gamma 90.000000
_cell_volume 1098.174548
_symmetry_space_group_name_H-M "C 2"
_symmetry_group_IT_number 5
_symmetry_cell_setting 'monoclinic'
loop_
_space_group_symop_operation_xyz
x,y,z
-x,y,-z
1/2+x,1/2+y,z
1/2-x,1/2+y,-z
loop_
_atom_site_type_symbol
_atom_site_label
_atom_site_fract_x
_atom_site_fract_y
_atom_site_fract_z
Si Si1 0.469332 0.044600 0.153864
Si Si2 0.729771 0.078780 0.759365
Si Si3 0.253553 0.443793 0.630836
Si Si4 0.484717 0.786186 0.788293
Si Si5 0.188447 0.015855 0.504276
Si Si6 0.500000 0.150549 0.000000
Si Si7 0.919000 0.220849 0.348642
O O1 0.257123 0.064550 0.143994
O O2 0.430568 0.075831 0.050279
O O3 0.691835 0.132570 0.255170
O O4 0.525790 0.912866 0.185024
O O5 0.884464 0.011757 0.747546
O O6 0.463293 0.023025 0.640196
O O7 0.780709 0.207135 0.755982
O O8 0.391720 0.444751 0.599942
O O9 0.178209 0.323378 0.635359
O O10 0.000000 0.500217 0.500000
O O11 0.472368 0.771118 0.691414
O O12 0.758938 0.731241 0.902920
O O13 0.870860 0.145986 0.536182
O O14 0.000000 0.974295 0.500000
#
# Coordination Sequence:
#
# PCOD9126293 Si02
#       7
#     4   4   4   4   4   2   4
#     4  11  25  47  70 105 132 180 234 289 363 422
#     4  11  23  43  69 107 136 185 237 278 341 414
#     4  10  22  39  66  98 144 193 230 274 332 397
#     4  11  25  48  74 101 137 177 231 302 355 418
#     4  11  22  42  66 103 153 191 235 275 332 410
#     4  10  28  50  72  98 132 176 228 306 374 416
#     4  11  22  44  68 100 146 186 228 278 346 406
#
# _framework density 23.675654000000002
#
# number of rings (size 3 to 8) (size 9 to 14) (size 15 to 20)
#    0.000    1.231    4.615    0.462    0.000    4.308 
#    2.769    1.538    0.000    0.000    0.000    0.000 
#    0.000    0.000    0.000    0.000    0.000    0.000 
#
# Total GULP energy -72541.741103 kJ/mol
# GULP energy per Si atom -5580.133931 kJ/mol
# Density = 2.362177 g / cm^3
# Si number density = 23.675654 Si / 1000 Ang^3
#
#
#
# Elastic Constant Matrix: (Units=GPa)
#
#
# Indices 1 2 3 4 5 6 
#
# 1 126.0185 54.8576 51.4369 0.0000 -50.6937 0.0000
# 2 54.8576 163.1847 24.2739 -0.0001 -26.9555 -0.0001
# 3 51.4369 24.2739 69.1966 0.0003 -29.5279 0.0003
# 4 0.0000 -0.0001 0.0003 21.1392 0.0002 -8.5476
# 5 -50.6937 -26.9555 -29.5279 0.0002 53.5066 0.0001
# 6 0.0000 -0.0001 0.0003 -8.5476 0.0001 37.9428
#
#
#
# Elastic Compliance Matrix: (Units=1/GPa)
#
#
# Indices 1 2 3 4 5 6 
#
# 1 0.015796 -0.002685 -0.006528 0.000000 0.010010 0.000000
# 2 -0.002685 0.007216 -0.000091 0.000000 0.001041 0.000000
# 3 -0.006528 -0.000091 0.021814 0.000000 0.005808 0.000000
# 4 0.000000 0.000000 0.000000 0.052047 -0.000001 0.011725
# 5 0.010010 0.001041 0.005808 -0.000001 0.031902 0.000000
# 6 0.000000 0.000000 0.000000 0.011725 0.000000 0.028997
#
#
# Mechanical properties :
#
#
# Convention : Reuss Voigt Hill
#
# Bulk Modulus (GPa) = 38.14316 68.83742 53.49029
# Shear Modulus (GPa) = 27.00951 37.70647 32.35799
#
# Velocity S-wave (km/s) = 3.38126 3.99510 3.70093
# Velocity P-wave (km/s) = 5.60264 7.10066 6.39566
#
# Compressibility (1/GPa) = 0.02621702
#
# Stress axis : x y z
#
# Youngs Moduli (GPa) = 63.30886 138.57570 45.84132
#
# Poissons Ratio (x) = 0.37214 0.29926
# Poissons Ratio (y) = 0.17001 0.00417
# Poissons Ratio (z) = 0.41329 0.01262
#
# Static dielectric constant tensor:
#      x y z
#    x 2.507040 0.000000 -0.039480 
#    y 0.000000 1.860160 0.000000 
#    z -0.039480 0.000000 1.959230 
# 
# From -- ./inp_files/59516.got.cif
#   From: 2010.05.17/outbox.cif.g08.bks.cpg/sg5_30_cif.got.tgz:59516.got - 2010.06.03 18:56:24.
