data_PCOD9126517
_publ_section_title
;
Structure prediction by ZEFSAII (Michael W. Deem and Ramdas Pophale) SiO2 
 PCOD9126517
Probable space group: C 2
;
_chemical_formula_sum "Si O2"
_cell_formula_units_Z 18
_cell_length_a 14.200375
_cell_length_b 9.669402
_cell_length_c 15.650963
_cell_angle_alpha 90.000000
_cell_angle_beta 161.546190
_cell_angle_gamma 90.000000
_cell_volume 680.250947
_symmetry_space_group_name_H-M "C 2"
_symmetry_group_IT_number 5
_symmetry_cell_setting 'monoclinic'
loop_
_space_group_symop_operation_xyz
x,y,z
-x,y,-z
1/2+x,1/2+y,z
1/2-x,1/2+y,-z
loop_
_atom_site_type_symbol
_atom_site_label
_atom_site_fract_x
_atom_site_fract_y
_atom_site_fract_z
Si Si1 0.282905 0.043640 0.545832
Si Si2 0.000000 0.497739 0.000000
Si Si3 0.760993 0.722137 0.899768
Si Si4 0.319257 0.019623 0.257275
Si Si5 0.244638 0.364411 0.050890
O O1 0.053330 0.149002 0.391659
O O2 0.481921 0.102225 0.639731
O O3 0.472306 0.945599 0.770590
O O4 0.054814 0.940637 0.300678
O O5 0.193196 0.391197 0.108017
O O6 0.021497 0.621014 0.090815
O O7 0.755718 0.872370 0.852686
O O8 0.763970 0.732346 0.005250
O O9 0.500000 0.001117 0.500000
O O10 0.000000 0.085946 0.000000
#
# Coordination Sequence:
#
# PCOD9126517 Si02
#       5
#     4   2   4   4   4
#     4  10  23  39  65  97 141 167 221 290 335 395
#     4  10  22  40  74  98 134 186 226 276 350 410
#     4  10  22  40  70  99 133 179 225 284 342 398
#     4  11  22  38  65  98 129 172 229 273 330 420
#     4  10  23  41  64 106 134 172 231 286 327 419
#
# _framework density 26.460823999999999
#
# number of rings (size 3 to 8) (size 9 to 14) (size 15 to 20)
#    0.000    1.778    1.111    2.667    3.111    8.000 
#    0.000    0.000   41.556    0.000    0.000    0.000 
#    0.000    0.000    0.000    0.000    0.000    0.000 
#
# Total GULP energy -50129.531015 kJ/mol
# GULP energy per Si atom -5569.947891 kJ/mol
# Density = 2.640060 g / cm^3
# Si number density = 26.460824 Si / 1000 Ang^3
#
#
#
# Elastic Constant Matrix: (Units=GPa)
#
#
# Indices 1 2 3 4 5 6 
#
# 1 175.5374 30.3432 37.1783 0.0204 7.8255 -0.0015
# 2 30.3432 74.3125 -9.5067 0.0729 -8.0189 -0.0062
# 3 37.1783 -9.5067 118.9311 0.0698 -9.7136 -0.0022
# 4 0.0204 0.0729 0.0698 29.9178 0.0145 14.7212
# 5 7.8255 -8.0189 -9.7136 0.0145 45.2639 -0.0036
# 6 -0.0015 -0.0062 -0.0022 14.7212 -0.0036 56.7038
#
#
#
# Elastic Compliance Matrix: (Units=1/GPa)
#
#
# Indices 1 2 3 4 5 6 
#
# 1 0.006957 -0.003435 -0.002644 0.000013 -0.002379 -0.000004
# 2 -0.003435 0.015622 0.002644 -0.000051 0.003929 0.000015
# 3 -0.002644 0.002644 0.009691 -0.000033 0.003005 0.000009
# 4 0.000013 -0.000051 -0.000033 0.038320 -0.000032 -0.009949
# 5 -0.002379 0.003929 0.003005 -0.000032 0.023845 0.000010
# 6 -0.000004 0.000015 0.000009 -0.009949 0.000010 0.020218
#
#
# Mechanical properties :
#
#
# Convention : Reuss Voigt Hill
#
# Bulk Modulus (GPa) = 39.37197 53.86784 46.61990
# Shear Modulus (GPa) = 38.46450 47.09484 42.77967
#
# Velocity S-wave (km/s) = 3.81680 4.22334 4.02520
# Velocity P-wave (km/s) = 5.85966 6.64710 6.26576
#
# Compressibility (1/GPa) = 0.02539878
#
# Stress axis : x y z
#
# Youngs Moduli (GPa) = 143.74939 64.01401 103.18454
#
# Poissons Ratio (x) = 0.21991 0.27277
# Poissons Ratio (y) = 0.49383 -0.27277
# Poissons Ratio (z) = 0.38001 -0.16922
#
# Static dielectric constant tensor:
#      x y z
#    x 2.177310 -0.000010 0.049860 
#    y -0.000010 2.149940 -0.000010 
#    z 0.049860 -0.000010 2.051590 
# 
# From -- ./inp_files/4615.got.cif
#   From: 2010.05.17/outbox.cif.g08.bks.cpg/sg5_3_cif.got.tgz:4615.got - 2010.06.03 18:56:24.
