data_PCOD9126632
_publ_section_title
;
Structure prediction by ZEFSAII (Michael W. Deem and Ramdas Pophale) SiO2 
 PCOD9126632
Probable space group: C 2
;
_chemical_formula_sum "Si O2"
_cell_formula_units_Z 28
_cell_length_a 17.857903
_cell_length_b 12.749367
_cell_length_c 10.486060
_cell_angle_alpha 90.000000
_cell_angle_beta 152.783314
_cell_angle_gamma 90.000000
_cell_volume 1091.909598
_symmetry_space_group_name_H-M "C 2"
_symmetry_group_IT_number 5
_symmetry_cell_setting 'monoclinic'
loop_
_space_group_symop_operation_xyz
x,y,z
-x,y,-z
1/2+x,1/2+y,z
1/2-x,1/2+y,-z
loop_
_atom_site_type_symbol
_atom_site_label
_atom_site_fract_x
_atom_site_fract_y
_atom_site_fract_z
Si Si1 0.730613 0.875000 0.579856
Si Si2 0.687983 0.937315 0.243917
Si Si3 0.533023 0.163716 0.365047
Si Si4 0.783918 0.115650 0.977658
Si Si5 0.170688 0.658557 0.303951
Si Si6 0.619586 0.848489 0.878615
Si Si7 0.114812 0.894286 0.919748
O O1 0.783818 0.913937 0.520658
O O2 0.704490 0.751405 0.514277
O O3 0.551925 0.906552 0.360014
O O4 0.851343 0.894436 0.878717
O O5 0.699583 0.061909 0.255826
O O6 0.500000 0.910563 0.000000
O O7 0.719745 0.881037 0.158914
O O8 0.660488 0.135364 0.670267
O O9 0.354258 0.112808 0.119748
O O10 0.629963 0.127050 0.386042
O O11 0.487306 0.289732 0.278912
O O12 0.907079 0.016727 0.153679
O O13 0.884198 0.223046 0.137690
O O14 0.000000 0.707559 0.000000
O O15 0.711679 0.879381 0.890196
#
# Coordination Sequence:
#
# PCOD9126632 Si02
#       7
#     4   4   4   4   4   4   4
#     4  11  22  39  61  95 124 163 213 283 322 400
#     4   9  21  36  62  85 121 172 208 254 326 402
#     4  10  22  41  66  98 127 173 223 271 326 416
#     4  10  23  41  69  91 133 175 211 276 345 390
#     4  11  21  38  61  89 126 162 216 264 331 391
#     4  10  23  42  60  96 130 162 224 270 329 410
#     4  11  23  39  69  96 127 171 223 271 327 402
#
# _framework density 25.643151
#
# number of rings (size 3 to 8) (size 9 to 14) (size 15 to 20)
#    0.000    1.714    1.429    2.143   10.000    0.000 
#    5.143    0.000    9.429    0.000    0.000    0.000 
#    0.000    0.000    0.000    0.000    0.000    0.000 
#
# Total GULP energy -78158.816872 kJ/mol
# GULP energy per Si atom -5582.772634 kJ/mol
# Density = 2.558479 g / cm^3
# Si number density = 25.643151 Si / 1000 Ang^3
#
#
#
# Elastic Constant Matrix: (Units=GPa)
#
#
# Indices 1 2 3 4 5 6 
#
# 1 84.5163 17.0261 14.0523 0.0000 -21.2042 0.0000
# 2 17.0261 144.5206 -10.1238 0.0000 -2.9317 0.0000
# 3 14.0523 -10.1238 69.1581 0.0000 -3.2273 0.0000
# 4 0.0000 0.0000 0.0000 23.1352 0.0000 0.0365
# 5 -21.2042 -2.9317 -3.2273 0.0000 36.7715 0.0000
# 6 0.0000 0.0000 0.0000 0.0365 0.0000 40.9187
#
#
#
# Elastic Compliance Matrix: (Units=1/GPa)
#
#
# Indices 1 2 3 4 5 6 
#
# 1 0.014692 -0.001768 -0.002867 0.000000 0.008079 0.000000
# 2 -0.001768 0.007219 0.001401 0.000000 -0.000321 0.000000
# 3 -0.002867 0.001401 0.015238 0.000000 -0.000204 0.000000
# 4 0.000000 0.000000 0.000000 0.043224 0.000000 -0.000039
# 5 0.008079 -0.000321 -0.000204 0.000000 0.031810 0.000000
# 6 0.000000 0.000000 0.000000 -0.000039 0.000000 0.024439
#
#
# Mechanical properties :
#
#
# Convention : Reuss Voigt Hill
#
# Bulk Modulus (GPa) = 32.59300 37.78934 35.19117
# Shear Modulus (GPa) = 32.61216 38.64778 35.62997
#
# Velocity S-wave (km/s) = 3.57006 3.88640 3.73158
# Velocity P-wave (km/s) = 5.45266 5.90825 5.68502
#
# Compressibility (1/GPa) = 0.03068144
#
# Stress axis : x y z
#
# Youngs Moduli (GPa) = 68.06468 138.51700 65.62650
#
# Poissons Ratio (x) = 0.24487 0.18815
# Poissons Ratio (y) = 0.12033 -0.09195
# Poissons Ratio (z) = 0.19514 -0.19407
#
# Static dielectric constant tensor:
#      x y z
#    x 2.053720 0.000000 -0.018110 
#    y 0.000000 2.097500 0.000000 
#    z -0.018110 0.000000 2.106270 
# 
# From -- ./inp_files/46436.got.cif
#   From: 2010.05.17/outbox.cif.g08.bks.cpg/sg5_24_cif.got.tgz:46436.got - 2010.06.03 18:56:24.
