data_PCOD9126228
_publ_section_title
;
Structure prediction by ZEFSAII (Michael W. Deem and Ramdas Pophale) SiO2 
 PCOD9126228
Probable space group: C 2
;
_chemical_formula_sum "Si O2"
_cell_formula_units_Z 22
_cell_length_a 8.289345
_cell_length_b 13.472732
_cell_length_c 17.482995
_cell_angle_alpha 90.000000
_cell_angle_beta 30.653217
_cell_angle_gamma 90.000000
_cell_volume 995.465447
_symmetry_space_group_name_H-M "C 2"
_symmetry_group_IT_number 5
_symmetry_cell_setting 'monoclinic'
loop_
_space_group_symop_operation_xyz
x,y,z
-x,y,-z
1/2+x,1/2+y,z
1/2-x,1/2+y,-z
loop_
_atom_site_type_symbol
_atom_site_label
_atom_site_fract_x
_atom_site_fract_y
_atom_site_fract_z
Si Si1 0.500000 0.542230 0.500000
Si Si2 0.819933 0.718039 0.144240
Si Si3 0.796563 0.878313 0.934058
Si Si4 0.408876 0.890074 0.231267
Si Si5 0.334561 0.383819 0.362252
Si Si6 0.227982 0.104357 0.555524
O O1 0.742625 0.470690 0.353787
O O2 0.711642 0.608896 0.470946
O O3 0.597183 0.807174 0.202527
O O4 0.602012 0.645540 0.279546
O O5 0.083501 0.771442 0.087305
O O6 0.000000 0.668136 0.000000
O O7 0.069242 0.911860 0.764095
O O8 0.500000 0.873081 0.000000
O O9 0.668070 0.931036 0.063643
O O10 0.128392 0.842603 0.292448
O O11 0.268943 0.487126 0.431146
O O12 0.000000 0.327602 0.500000
O O13 0.500000 0.148125 0.500000
#
# Coordination Sequence:
#
# PCOD9126228 Si02
#       6
#     2   4   4   4   4   4
#     4  10  22  42  60  90 120 156 206 240 294 354
#     4  10  22  39  60  85 120 155 195 245 303 349
#     4   9  19  38  60  91 114 155 202 243 296 349
#     4   9  20  36  62  85 117 151 203 245 285 350
#     4   9  19  36  62  90 119 154 198 244 293 356
#     4  10  23  40  58  88 124 156 193 245 300 355
#
# _framework density 22.100214000000001
#
# number of rings (size 3 to 8) (size 9 to 14) (size 15 to 20)
#    0.000    2.545    0.000    0.000    8.909    3.636 
#   11.455    0.000    0.000    0.000    0.000    0.000 
#    0.000    0.000    0.000    0.000    0.000    0.000 
#
# Total GULP energy -61247.302852 kJ/mol
# GULP energy per Si atom -5567.936623 kJ/mol
# Density = 2.204991 g / cm^3
# Si number density = 22.100214 Si / 1000 Ang^3
#
#
#
# Elastic Constant Matrix: (Units=GPa)
#
#
# Indices 1 2 3 4 5 6 
#
# 1 44.3959 17.0233 48.1323 0.0156 52.3761 -0.0001
# 2 17.0233 16.8561 5.1320 -0.0167 -1.0687 0.0465
# 3 48.1323 5.1320 126.8978 -0.0062 0.1842 -0.1080
# 4 0.0156 -0.0167 -0.0062 35.6128 -0.0279 3.5107
# 5 52.3761 -1.0687 0.1842 -0.0279 3.2123 0.0473
# 6 -0.0001 0.0465 -0.1080 3.5107 0.0473 32.2231
#
#
#
# Elastic Compliance Matrix: (Units=1/GPa)
#
#
# Indices 1 2 3 4 5 6 
#
# 1 -0.001122 0.002247 0.000307 0.000020 0.019031 -0.000032
# 2 0.002247 0.056898 -0.003128 0.000018 -0.017523 -0.000069
# 3 0.000307 -0.003128 0.007900 -0.000009 -0.006503 0.000042
# 4 0.000020 0.000018 -0.000009 0.028385 -0.000022 -0.003093
# 5 0.019031 -0.017523 -0.006503 -0.000022 -0.004460 0.000013
# 6 -0.000032 -0.000069 0.000042 -0.003093 0.000013 0.031371
#
#
# Mechanical properties :
#
#
# Convention : Reuss Voigt Hill
#
# Bulk Modulus (GPa) = 15.99289 36.52500 26.25894
# Shear Modulus (GPa) = 35.47069 22.06711 28.76890
#
# Velocity S-wave (km/s) = 4.01058 3.16334 3.61189
# Velocity P-wave (km/s) = 5.35711 5.46856 5.41312
#
# Compressibility (1/GPa) = 0.06252779
#
# Stress axis : x y z
#
# Youngs Moduli (GPa) = -890.91896 17.57526 126.58539
#
# Poissons Ratio (x) = -0.03949 -0.03889
# Poissons Ratio (y) = 2.00174 0.39595
# Poissons Ratio (z) = 0.27371 0.05497
#
# Static dielectric constant tensor:
#      x y z
#    x 1.934940 -0.000020 -0.002600 
#    y -0.000020 1.783290 0.000070 
#    z -0.002600 0.000070 1.908690 
# 
# From -- ./inp_files/14764.got.cif
#   From: 2010.05.17/outbox.cif.g08.bks.cpg/sg5_8_cif.got.tgz:14764.got - 2010.06.03 18:56:24.
