data_PCOD9126087
_publ_section_title
;
Structure prediction by ZEFSAII (Michael W. Deem and Ramdas Pophale) SiO2 
 PCOD9126087
Probable space group: C 2
;
_chemical_formula_sum "Si O2"
_cell_formula_units_Z 18
_cell_length_a 28.764590
_cell_length_b 6.195797
_cell_length_c 7.153810
_cell_angle_alpha 90.000000
_cell_angle_beta 134.228189
_cell_angle_gamma 90.000000
_cell_volume 913.586955
_symmetry_space_group_name_H-M "C 2"
_symmetry_group_IT_number 5
_symmetry_cell_setting 'monoclinic'
loop_
_space_group_symop_operation_xyz
x,y,z
-x,y,-z
1/2+x,1/2+y,z
1/2-x,1/2+y,-z
loop_
_atom_site_type_symbol
_atom_site_label
_atom_site_fract_x
_atom_site_fract_y
_atom_site_fract_z
Si Si1 0.103175 0.426220 0.413339
Si Si2 0.610979 0.546153 0.153213
Si Si3 0.656889 0.630363 0.872683
Si Si4 0.000000 0.743513 0.000000
Si Si5 0.702772 0.304966 0.686746
O O1 0.098662 0.276177 0.217408
O O2 0.110069 0.269802 0.608963
O O3 0.167139 0.574445 0.581216
O O4 0.043133 0.589080 0.251269
O O5 0.673613 0.443907 0.434159
O O6 0.623614 0.561983 0.970364
O O7 0.550519 0.392767 0.031808
O O8 0.681243 0.430706 0.814002
O O9 0.720668 0.770436 0.101046
#
# Coordination Sequence:
#
# PCOD9126087 Si02
#       5
#     4   4   4   2   4
#     4  10  22  43  65  90 131 169 207 268 306 373
#     4  10  24  40  67  94 125 174 212 258 317 374
#     4  11  22  40  64 101 129 166 207 259 327 376
#     4  10  22  48  62  90 132 168 222 260 302 376
#     4  10  22  38  60  97 138 157 208 262 314 387
#
# _framework density 19.702558
#
# number of rings (size 3 to 8) (size 9 to 14) (size 15 to 20)
#    0.000    1.778    2.222    0.667    3.111    3.556 
#    0.000   26.667    0.000    0.000    0.000    0.000 
#    0.000    0.000    0.000    0.000    0.000    0.000 
#
# Total GULP energy -50299.219615 kJ/mol
# GULP energy per Si atom -5588.802179 kJ/mol
# Density = 1.965771 g / cm^3
# Si number density = 19.702558 Si / 1000 Ang^3
#
#
#
# Elastic Constant Matrix: (Units=GPa)
#
#
# Indices 1 2 3 4 5 6 
#
# 1 109.3662 49.0137 62.6519 0.0000 -8.9510 0.0000
# 2 49.0137 91.7596 19.0218 0.0000 -4.5258 0.0000
# 3 62.6519 19.0218 58.0933 0.0000 -8.1779 0.0000
# 4 0.0000 0.0000 0.0000 24.5067 0.0000 14.8494
# 5 -8.9510 -4.5258 -8.1779 0.0000 38.2357 0.0000
# 6 0.0000 0.0000 0.0000 14.8494 0.0000 15.3448
#
#
#
# Elastic Compliance Matrix: (Units=1/GPa)
#
#
# Indices 1 2 3 4 5 6 
#
# 1 0.030964 -0.010326 -0.030070 0.000000 -0.000405 0.000000
# 2 -0.010326 0.015148 0.006278 0.000000 0.000718 0.000000
# 3 -0.030070 0.006278 0.048151 0.000000 0.004002 0.000000
# 4 0.000000 0.000000 0.000000 0.098651 0.000000 -0.095466
# 5 -0.000405 0.000718 0.004002 0.000000 0.027000 0.000000
# 6 0.000000 0.000000 0.000000 -0.095466 0.000000 0.157552
#
#
# Mechanical properties :
#
#
# Convention : Reuss Voigt Hill
#
# Bulk Modulus (GPa) = 38.42259 57.84375 48.13317
# Shear Modulus (GPa) = 11.00406 24.18622 17.59514
#
# Velocity S-wave (km/s) = 2.36584 3.50747 2.99162
# Velocity P-wave (km/s) = 5.19679 6.76944 6.03456
#
# Compressibility (1/GPa) = 0.02602635
#
# Stress axis : x y z
#
# Youngs Moduli (GPa) = 32.29561 66.01607 20.76808
#
# Poissons Ratio (x) = 0.68168 0.62449
# Poissons Ratio (y) = 0.33349 -0.13037
# Poissons Ratio (z) = 0.97112 -0.41442
#
# Static dielectric constant tensor:
#      x y z
#    x 1.646960 0.000000 0.031030 
#    y 0.000000 1.704830 0.000000 
#    z 0.031030 0.000000 1.692600 
# 
# From -- ./inp_files/9049.got.cif
#   From: 2010.05.17/outbox.cif.g08.bks.cpg/sg5_5_cif.got.tgz:9049.got - 2010.06.03 18:56:24.
