data_PCOD9126649
_publ_section_title
;
Structure prediction by ZEFSAII (Michael W. Deem and Ramdas Pophale) SiO2 
 PCOD9126649
Probable space group: C 2
;
_chemical_formula_sum "Si O2"
_cell_formula_units_Z 28
_cell_length_a 13.342188
_cell_length_b 15.633825
_cell_length_c 8.676640
_cell_angle_alpha 90.000000
_cell_angle_beta 135.639569
_cell_angle_gamma 90.000000
_cell_volume 1265.396160
_symmetry_space_group_name_H-M "C 2"
_symmetry_group_IT_number 5
_symmetry_cell_setting 'monoclinic'
loop_
_space_group_symop_operation_xyz
x,y,z
-x,y,-z
1/2+x,1/2+y,z
1/2-x,1/2+y,-z
loop_
_atom_site_type_symbol
_atom_site_label
_atom_site_fract_x
_atom_site_fract_y
_atom_site_fract_z
Si Si1 0.349951 0.623200 0.273506
Si Si2 0.782716 0.659844 0.168016
Si Si3 0.688674 0.991711 0.280948
Si Si4 0.898686 0.398898 0.515547
Si Si5 0.106618 0.326008 0.992590
Si Si6 0.898072 0.643087 0.612987
Si Si7 0.664729 0.269130 0.208592
O O1 0.500000 0.658396 0.500000
O O2 0.319471 0.539584 0.342757
O O3 0.226198 0.691456 0.175473
O O4 0.328724 0.611564 0.067715
O O5 0.735023 0.759524 0.116780
O O6 0.795242 0.623300 0.355053
O O7 0.942914 0.652974 0.277118
O O8 0.595170 0.072103 0.244007
O O9 0.691313 0.943853 0.447137
O O10 0.643133 0.919377 0.106417
O O11 0.776518 0.343594 0.301969
O O12 0.000000 0.446006 0.500000
O O13 0.014309 0.342310 0.737958
O O14 0.000000 0.284338 0.000000
O O15 0.836232 0.729729 0.620239
O O16 0.500000 0.291109 0.000000
#
# Coordination Sequence:
#
# PCOD9126649 Si02
#       7
#     4   4   4   4   4   4   4
#     4  11  24  44  70 101 138 181 230 284 348 415
#     4  11  22  39  68 101 130 175 237 284 328 410
#     4  10  25  44  65  97 137 186 221 282 356 404
#     4  11  24  39  68  96 133 179 236 282 345 413
#     4  10  22  41  67  96 137 180 224 288 345 412
#     4  10  23  38  67 100 131 175 232 281 334 416
#     4  11  21  41  67  96 137 176 227 283 348 411
#
# _framework density 22.127459000000002
#
# number of rings (size 3 to 8) (size 9 to 14) (size 15 to 20)
#    0.000    1.429    1.429    3.857    8.000    1.143 
#    5.143    1.429    0.000    0.000    0.000    0.000 
#    0.000    0.000    0.000    0.000    0.000    0.000 
#
# Total GULP energy -77980.715716 kJ/mol
# GULP energy per Si atom -5570.051123 kJ/mol
# Density = 2.207710 g / cm^3
# Si number density = 22.127459 Si / 1000 Ang^3
#
#
#
# Elastic Constant Matrix: (Units=GPa)
#
#
# Indices 1 2 3 4 5 6 
#
# 1 81.6298 30.2680 44.8806 0.0000 -8.8871 0.0000
# 2 30.2680 71.0573 22.0414 0.0000 16.2180 0.0000
# 3 44.8806 22.0414 132.0073 0.0000 -16.5054 0.0000
# 4 0.0000 0.0000 0.0000 10.7391 0.0000 -5.4250
# 5 -8.8871 16.2180 -16.5054 0.0000 13.5969 0.0000
# 6 0.0000 0.0000 0.0000 -5.4250 0.0000 27.7986
#
#
#
# Elastic Compliance Matrix: (Units=1/GPa)
#
#
# Indices 1 2 3 4 5 6 
#
# 1 0.022985 -0.017900 -0.000327 0.000000 0.035977 0.000000
# 2 -0.017900 0.041594 -0.010051 0.000000 -0.073513 0.000000
# 3 -0.000327 -0.010051 0.012776 0.000000 0.027284 0.000000
# 4 0.000000 0.000000 0.000000 0.103302 0.000000 0.020160
# 5 0.035977 -0.073513 0.027284 0.000000 0.217866 0.000000
# 6 0.000000 0.000000 0.000000 0.020160 0.000000 0.039907
#
#
# Mechanical properties :
#
#
# Convention : Reuss Voigt Hill
#
# Bulk Modulus (GPa) = 48.08128 53.23047 50.65588
# Shear Modulus (GPa) = 9.96175 22.92722 16.44449
#
# Velocity S-wave (km/s) = 2.12409 3.22241 2.72907
# Velocity P-wave (km/s) = 5.27182 6.16066 5.73349
#
# Compressibility (1/GPa) = 0.02079811
#
# Stress axis : x y z
#
# Youngs Moduli (GPa) = 43.50742 24.04169 78.27083
#
# Poissons Ratio (x) = 0.43036 0.02561
# Poissons Ratio (y) = 0.77880 0.78668
# Poissons Ratio (z) = 0.01424 0.24164
#
# Static dielectric constant tensor:
#      x y z
#    x 1.846330 0.000000 -0.058340 
#    y 0.000000 1.871610 0.000000 
#    z -0.058340 0.000000 1.848290 
# 
# From -- ./inp_files/25221.got.cif
#   From: 2010.05.17/outbox.cif.g08.bks.cpg/sg5_13_cif.got.tgz:25221.got - 2010.06.03 18:56:24.
