data_PCOD9126172
_publ_section_title
;
Structure prediction by ZEFSAII (Michael W. Deem and Ramdas Pophale) SiO2 
 PCOD9126172
Probable space group: C 2
;
_chemical_formula_sum "Si O2"
_cell_formula_units_Z 26
_cell_length_a 12.132849
_cell_length_b 8.955403
_cell_length_c 14.533214
_cell_angle_alpha 90.000000
_cell_angle_beta 132.787956
_cell_angle_gamma 90.000000
_cell_volume 1158.858234
_symmetry_space_group_name_H-M "C 2"
_symmetry_group_IT_number 5
_symmetry_cell_setting 'monoclinic'
loop_
_space_group_symop_operation_xyz
x,y,z
-x,y,-z
1/2+x,1/2+y,z
1/2-x,1/2+y,-z
loop_
_atom_site_type_symbol
_atom_site_label
_atom_site_fract_x
_atom_site_fract_y
_atom_site_fract_z
Si Si1 0.000000 0.636830 0.500000
Si Si2 0.522142 0.687228 0.122450
Si Si3 0.443822 0.957652 0.182873
Si Si4 0.325161 0.283448 0.864264
Si Si5 0.025576 0.772418 0.707438
Si Si6 0.287708 0.453349 0.669982
Si Si7 0.769829 0.008859 0.091423
O O1 0.043509 0.739471 0.610576
O O2 0.134788 0.524486 0.549004
O O3 0.549343 0.821558 0.211208
O O4 0.652839 0.572390 0.220643
O O5 0.379975 0.596067 0.083614
O O6 0.500000 0.714077 0.000000
O O7 0.296145 0.887308 0.149856
O O8 0.498133 0.106551 0.263565
O O9 0.384315 0.999676 0.049073
O O10 0.295600 0.311471 0.740715
O O11 0.265936 0.117153 0.846240
O O12 0.500000 0.304940 0.000000
O O13 0.164843 0.850709 0.839578
O O14 0.898266 0.899014 0.652388
#
# Coordination Sequence:
#
# PCOD9126172 Si02
#       7
#     2   4   4   4   4   4   4
#     4  12  28  50  74  94 148 196 238 300 338 420
#     4  10  22  38  68 102 139 180 221 287 366 424
#     4  11  21  38  70 103 143 175 226 289 360 426
#     4  11  21  40  67 104 142 177 221 289 370 420
#     4  11  25  49  70 102 138 188 244 288 355 425
#     4  11  24  47  71  95 137 189 239 292 353 413
#     4  10  22  39  65 104 140 177 221 293 355 424
#
# _framework density 22.435877000000001
#
# number of rings (size 3 to 8) (size 9 to 14) (size 15 to 20)
#    0.000    1.231    1.538    6.000    2.154    3.077 
#    5.538    1.538    0.000    0.000    0.000    0.000 
#    0.000    0.000    0.000    0.000    0.000    0.000 
#
# Total GULP energy -72456.122778 kJ/mol
# GULP energy per Si atom -5573.547906 kJ/mol
# Density = 2.238481 g / cm^3
# Si number density = 22.435877 Si / 1000 Ang^3
#
#
#
# Elastic Constant Matrix: (Units=GPa)
#
#
# Indices 1 2 3 4 5 6 
#
# 1 76.3557 32.9183 27.7377 0.0000 -9.0247 0.0000
# 2 32.9183 80.2027 14.6891 0.0000 -17.7424 0.0000
# 3 27.7377 14.6891 38.9313 0.0000 -13.1015 0.0000
# 4 0.0000 0.0000 0.0000 90.3382 0.0000 5.7470
# 5 -9.0247 -17.7424 -13.1015 0.0000 32.7225 0.0000
# 6 0.0000 0.0000 0.0000 5.7470 0.0000 41.1890
#
#
#
# Elastic Compliance Matrix: (Units=1/GPa)
#
#
# Indices 1 2 3 4 5 6 
#
# 1 0.020334 -0.006670 -0.013060 0.000000 -0.003238 0.000000
# 2 -0.006670 0.016707 0.001015 0.000000 0.007625 0.000000
# 3 -0.013060 0.001015 0.038811 0.000000 0.012487 0.000000
# 4 0.000000 0.000000 0.000000 0.011169 0.000000 -0.001558
# 5 -0.003238 0.007625 0.012487 0.000000 0.038801 0.000000
# 6 0.000000 0.000000 0.000000 -0.001558 0.000000 0.024496
#
#
# Mechanical properties :
#
#
# Convention : Reuss Voigt Hill
#
# Bulk Modulus (GPa) = 26.02772 38.46444 32.24608
# Shear Modulus (GPa) = 24.93064 40.85959 32.89511
#
# Velocity S-wave (km/s) = 3.33708 4.27215 3.83323
# Velocity P-wave (km/s) = 5.14531 6.44332 5.83055
#
# Compressibility (1/GPa) = 0.03842058
#
# Stress axis : x y z
#
# Youngs Moduli (GPa) = 49.17873 59.85474 25.76584
#
# Poissons Ratio (x) = 0.39924 0.33651
# Poissons Ratio (y) = 0.32803 -0.02615
# Poissons Ratio (z) = 0.64230 -0.06074
#
# Static dielectric constant tensor:
#      x y z
#    x 1.977710 0.000000 0.007660 
#    y 0.000000 2.017940 0.000000 
#    z 0.007660 0.000000 1.872080 
# 
# From -- ./inp_files/54320.got.cif
#   From: 2010.05.17/outbox.cif.g08.bks.cpg/sg5_28_cif.got.tgz:54320.got - 2010.06.03 18:56:24.
