data_PCOD9126466
_publ_section_title
;
Structure prediction by ZEFSAII (Michael W. Deem and Ramdas Pophale) SiO2 
 PCOD9126466
Probable space group: C 2
;
_chemical_formula_sum "Si O2"
_cell_formula_units_Z 22
_cell_length_a 19.275537
_cell_length_b 5.942000
_cell_length_c 12.528190
_cell_angle_alpha 90.000000
_cell_angle_beta 35.757959
_cell_angle_gamma 90.000000
_cell_volume 838.512857
_symmetry_space_group_name_H-M "C 2"
_symmetry_group_IT_number 5
_symmetry_cell_setting 'monoclinic'
loop_
_space_group_symop_operation_xyz
x,y,z
-x,y,-z
1/2+x,1/2+y,z
1/2-x,1/2+y,-z
loop_
_atom_site_type_symbol
_atom_site_label
_atom_site_fract_x
_atom_site_fract_y
_atom_site_fract_z
Si Si1 0.456211 0.998650 0.386791
Si Si2 0.500000 0.564443 0.000000
Si Si3 0.933296 0.818847 0.886896
Si Si4 0.288976 0.929404 0.422131
Si Si5 0.695914 0.915115 0.833741
Si Si6 0.814566 0.532022 0.774089
O O1 0.414399 0.890689 0.328116
O O2 0.357316 0.961255 0.601234
O O3 0.582948 0.933812 0.278974
O O4 0.490338 0.256656 0.311278
O O5 0.519565 0.410482 0.872060
O O6 0.392907 0.719289 0.096336
O O7 0.873618 0.595549 0.011013
O O8 0.814473 0.964037 0.021119
O O9 0.243176 0.669484 0.480242
O O10 0.271961 0.010334 0.321719
O O11 0.799810 0.800109 0.772324
#
# Coordination Sequence:
#
# PCOD9126466 Si02
#       6
#     4   2   4   4   4   4
#     4  11  24  47  73 107 149 203 255 317 406 455
#     4  10  22  40  68 102 146 186 250 324 386 458
#     4  11  24  43  73 104 143 199 251 317 388 471
#     4  12  26  46  78 115 153 203 264 328 394 471
#     4  11  23  43  69 106 147 192 254 320 383 470
#     4  10  25  48  66 105 156 190 260 321 387 480
#
# _framework density 26.236923999999998
#
# number of rings (size 3 to 8) (size 9 to 14) (size 15 to 20)
#    0.000    1.091    1.818    3.818    7.636    0.000 
#    3.273    1.818    0.000    0.000    0.000    0.000 
#    0.000    0.000    0.000    0.000    0.000    0.000 
#
# Total GULP energy -61305.716249 kJ/mol
# GULP energy per Si atom -5573.246932 kJ/mol
# Density = 2.617721 g / cm^3
# Si number density = 26.236924 Si / 1000 Ang^3
#
#
#
# Elastic Constant Matrix: (Units=GPa)
#
#
# Indices 1 2 3 4 5 6 
#
# 1 118.9697 26.0292 19.9185 0.0006 -13.7096 -0.0022
# 2 26.0292 69.2560 15.5492 -0.0109 -0.2287 0.0089
# 3 19.9185 15.5492 69.6118 -0.0056 10.5784 0.0016
# 4 0.0006 -0.0109 -0.0056 39.8847 0.0018 1.8672
# 5 -13.7096 -0.2287 10.5784 0.0018 37.8202 0.0013
# 6 -0.0022 0.0089 0.0016 1.8672 0.0013 21.0917
#
#
#
# Elastic Compliance Matrix: (Units=1/GPa)
#
#
# Indices 1 2 3 4 5 6 
#
# 1 0.010080 -0.003132 -0.002859 -0.000002 0.004435 0.000002
# 2 -0.003132 0.016218 -0.002683 0.000004 -0.000287 -0.000007
# 3 -0.002859 -0.002683 0.016650 0.000002 -0.005710 0.000000
# 4 -0.000002 0.000004 0.000002 0.025177 -0.000002 -0.002229
# 5 0.004435 -0.000287 -0.005710 -0.000002 0.029644 -0.000001
# 6 0.000002 -0.000007 0.000000 -0.002229 -0.000001 0.047609
#
#
# Mechanical properties :
#
#
# Convention : Reuss Voigt Hill
#
# Bulk Modulus (GPa) = 39.06050 42.31457 40.68753
# Shear Modulus (GPa) = 29.19554 32.84869 31.02212
#
# Velocity S-wave (km/s) = 3.33943 3.54220 3.44231
# Velocity P-wave (km/s) = 5.45793 5.73520 5.59828
#
# Compressibility (1/GPa) = 0.02560131
#
# Stress axis : x y z
#
# Youngs Moduli (GPa) = 99.20202 61.66082 60.05922
#
# Poissons Ratio (x) = 0.19313 0.17169
# Poissons Ratio (y) = 0.31072 0.16112
# Poissons Ratio (z) = 0.28359 0.16542
#
# Static dielectric constant tensor:
#      x y z
#    x 2.121400 0.000000 -0.012920 
#    y 0.000000 2.148140 0.000000 
#    z -0.012920 0.000000 2.181770 
# 
# From -- ./inp_files/56473.got.cif
#   From: 2010.05.17/outbox.cif.g08.bks.cpg/sg5_29_cif.got.tgz:56473.got - 2010.06.03 18:56:24.
