data_PCOD9126222
_publ_section_title
;
Structure prediction by ZEFSAII (Michael W. Deem and Ramdas Pophale) SiO2 
 PCOD9126222
Probable space group: C 2
;
_chemical_formula_sum "Si O2"
_cell_formula_units_Z 28
_cell_length_a 18.277347
_cell_length_b 5.219414
_cell_length_c 15.312139
_cell_angle_alpha 90.000000
_cell_angle_beta 49.213242
_cell_angle_gamma 90.000000
_cell_volume 1105.988034
_symmetry_space_group_name_H-M "C 2"
_symmetry_group_IT_number 5
_symmetry_cell_setting 'monoclinic'
loop_
_space_group_symop_operation_xyz
x,y,z
-x,y,-z
1/2+x,1/2+y,z
1/2-x,1/2+y,-z
loop_
_atom_site_type_symbol
_atom_site_label
_atom_site_fract_x
_atom_site_fract_y
_atom_site_fract_z
Si Si1 0.100682 0.791020 0.105689
Si Si2 0.182233 0.741651 0.216957
Si Si3 0.396601 0.748020 0.627885
Si Si4 0.706589 0.543972 0.449547
Si Si5 0.395500 0.302119 0.325982
Si Si6 0.967027 0.313374 0.928354
Si Si7 0.828325 0.189080 0.246313
O O1 0.185542 0.758268 0.109464
O O2 0.093970 0.572769 0.036817
O O3 0.006051 0.730164 0.239057
O O4 0.081563 0.074342 0.083320
O O5 0.122378 0.498252 0.299701
O O6 0.287515 0.703762 0.180166
O O7 0.132139 0.000713 0.291872
O O8 0.500000 0.733601 0.500000
O O9 0.324265 0.738767 0.601747
O O10 0.621945 0.514223 0.585051
O O11 0.806589 0.618238 0.417595
O O12 0.737462 0.292425 0.371801
O O13 0.368607 0.424625 0.252919
O O14 0.077557 0.364778 0.807627
O O15 0.000000 0.238916 0.000000
#
# Coordination Sequence:
#
# PCOD9126222 Si02
#       7
#     4   4   4   4   4   4   4
#     4  11  24  42  65  95 124 161 205 259 313 372
#     4  11  23  40  61  87 126 166 204 255 312 364
#     4  11  23  37  55  86 128 174 212 249 297 357
#     4  11  20  33  56  87 120 170 213 249 291 359
#     4  11  20  34  58  87 124 167 212 253 290 362
#     4  11  24  45  70  93 120 157 207 262 323 380
#     4  10  22  39  59  88 124 164 206 258 308 363
#
# _framework density 25.316727
#
# number of rings (size 3 to 8) (size 9 to 14) (size 15 to 20)
#    0.000    1.143    4.286    2.571    0.000    3.429 
#    0.000    1.429    0.000    0.000    0.000    0.000 
#    0.000    0.000    0.000    0.000    0.000    0.000 
#
# Total GULP energy -78213.034375 kJ/mol
# GULP energy per Si atom -5586.645313 kJ/mol
# Density = 2.525910 g / cm^3
# Si number density = 25.316727 Si / 1000 Ang^3
#
#
#
# Elastic Constant Matrix: (Units=GPa)
#
#
# Indices 1 2 3 4 5 6 
#
# 1 136.7626 37.2680 18.6218 -0.0356 25.9275 0.0466
# 2 37.2680 132.2047 5.5342 -0.0144 12.4321 0.0229
# 3 18.6218 5.5342 52.9632 -0.0185 10.5330 0.0244
# 4 -0.0356 -0.0144 -0.0185 29.5202 0.0182 8.1151
# 5 25.9275 12.4321 10.5330 0.0182 44.8862 -0.0250
# 6 0.0466 0.0229 0.0244 8.1151 -0.0250 28.7523
#
#
#
# Elastic Compliance Matrix: (Units=1/GPa)
#
#
# Indices 1 2 3 4 5 6 
#
# 1 0.008934 -0.002045 -0.002112 0.000016 -0.004098 -0.000019
# 2 -0.002045 0.008242 0.000081 0.000004 -0.001121 -0.000005
# 3 -0.002112 0.000081 0.020326 0.000019 -0.003572 -0.000022
# 4 0.000016 0.000004 0.000019 0.036725 -0.000035 -0.010365
# 5 -0.004098 -0.001121 -0.003572 -0.000035 0.025795 0.000043
# 6 -0.000019 -0.000005 -0.000022 -0.010365 0.000043 0.037705
#
#
# Mechanical properties :
#
#
# Convention : Reuss Voigt Hill
#
# Bulk Modulus (GPa) = 34.07277 49.41983 41.74630
# Shear Modulus (GPa) = 32.12090 37.99887 35.05988
#
# Velocity S-wave (km/s) = 3.56583 3.87840 3.72540
# Velocity P-wave (km/s) = 5.51737 6.29436 5.91863
#
# Compressibility (1/GPa) = 0.02934895
#
# Stress axis : x y z
#
# Youngs Moduli (GPa) = 111.93582 121.32380 49.19891
#
# Poissons Ratio (x) = 0.24805 0.10393
# Poissons Ratio (y) = 0.22886 -0.00396
# Poissons Ratio (z) = 0.23645 -0.00977
#
# Static dielectric constant tensor:
#      x y z
#    x 2.027680 -0.000020 0.041760 
#    y -0.000020 2.035240 -0.000030 
#    z 0.041760 -0.000030 2.165650 
# 
# From -- ./inp_files/55279.got.cif
#   From: 2010.05.17/outbox.cif.g08.bks.cpg/sg5_28_cif.got.tgz:55279.got - 2010.06.03 18:56:24.
