data_PCOD9126664
_publ_section_title
;
Structure prediction by ZEFSAII (Michael W. Deem and Ramdas Pophale) SiO2 
 PCOD9126664
Probable space group: C 2
;
_chemical_formula_sum "Si O2"
_cell_formula_units_Z 30
_cell_length_a 19.267459
_cell_length_b 12.515189
_cell_length_c 10.632344
_cell_angle_alpha 90.000000
_cell_angle_beta 150.300096
_cell_angle_gamma 90.000000
_cell_volume 1270.272894
_symmetry_space_group_name_H-M "C 2"
_symmetry_group_IT_number 5
_symmetry_cell_setting 'monoclinic'
loop_
_space_group_symop_operation_xyz
x,y,z
-x,y,-z
1/2+x,1/2+y,z
1/2-x,1/2+y,-z
loop_
_atom_site_type_symbol
_atom_site_label
_atom_site_fract_x
_atom_site_fract_y
_atom_site_fract_z
Si Si1 0.232339 0.039250 0.379893
Si Si2 0.000000 0.156748 0.500000
Si Si3 0.666794 0.311852 0.261812
Si Si4 0.247811 0.778683 0.668676
Si Si5 0.801069 0.093478 0.397013
Si Si6 0.838478 0.332930 0.084260
Si Si7 0.948151 0.755252 0.284665
Si Si8 0.557101 0.033274 0.858809
O O1 0.224250 0.151156 0.294940
O O2 0.159022 0.057613 0.399867
O O3 0.399590 0.026010 0.659168
O O4 0.177327 0.932226 0.227458
O O5 0.089031 0.086877 0.542618
O O6 0.088551 0.236912 0.727348
O O7 0.748562 0.316678 0.525277
O O8 0.750144 0.217202 0.325095
O O9 0.500000 0.282926 0.000000
O O10 0.086167 0.807501 0.445259
O O11 0.334251 0.810351 0.927655
O O12 0.667841 0.024185 0.145519
O O13 0.914197 0.446737 0.204786
O O14 0.681705 0.332062 0.893487
O O15 0.915056 0.651487 0.151209
O O16 0.000000 0.711933 0.500000
#
# Coordination Sequence:
#
# PCOD9126664 Si02
#       8
#     4   2   4   4   4   4   4   4
#     4  10  22  41  68  95 125 173 228 271 336 391
#     4  12  26  42  62 100 142 178 220 282 328 384
#     4  11  22  40  70 101 126 169 229 287 329 389
#     4   9  21  42  64  90 130 175 217 270 332 396
#     4  11  23  44  64  96 138 175 220 275 336 402
#     4  11  23  41  63  95 135 171 219 274 329 396
#     4   9  19  39  59  87 124 169 211 257 324 398
#     4  11  21  41  66  92 123 177 221 269 331 394
#
# _framework density 23.616973000000002
#
# number of rings (size 3 to 8) (size 9 to 14) (size 15 to 20)
#    0.000    1.600    1.333    4.400    0.933    1.067 
#    8.400    4.667    0.000    0.000    0.000    0.000 
#    0.000    0.000    0.000    0.000    0.000    0.000 
#
# Total GULP energy -83767.924341 kJ/mol
# GULP energy per Si atom -5584.528289 kJ/mol
# Density = 2.356322 g / cm^3
# Si number density = 23.616973 Si / 1000 Ang^3
#
#
#
# Elastic Constant Matrix: (Units=GPa)
#
#
# Indices 1 2 3 4 5 6 
#
# 1 110.8789 22.2156 20.2522 0.0000 2.6802 0.0000
# 2 22.2156 73.3349 -0.6006 0.0000 5.2571 0.0000
# 3 20.2522 -0.6006 37.7238 0.0000 -10.8610 0.0000
# 4 0.0000 0.0000 0.0000 2.2168 0.0000 -16.9892
# 5 2.6802 5.2571 -10.8610 0.0000 26.2889 0.0000
# 6 0.0000 0.0000 0.0000 -16.9892 0.0000 4.5501
#
#
#
# Elastic Compliance Matrix: (Units=1/GPa)
#
#
# Indices 1 2 3 4 5 6 
#
# 1 0.010994 -0.003147 -0.006916 0.000000 -0.003349 0.000000
# 2 -0.003147 0.014749 0.001325 0.000000 -0.002081 0.000000
# 3 -0.006916 0.001325 0.034469 0.000000 0.014681 0.000000
# 4 0.000000 0.000000 0.000000 -0.016335 0.000000 -0.060993
# 5 -0.003349 -0.002081 0.014681 0.000000 0.044862 0.000000
# 6 0.000000 0.000000 0.000000 -0.060993 0.000000 -0.007959
#
#
# Mechanical properties :
#
#
# Convention : Reuss Voigt Hill
#
# Bulk Modulus (GPa) = 23.39940 33.96354 28.68147
# Shear Modulus (GPa) = 44.44389 18.61586 31.52988
#
# Velocity S-wave (km/s) = 4.34275 2.81061 3.65780
# Velocity P-wave (km/s) = 5.92244 4.99449 5.47815
#
# Compressibility (1/GPa) = 0.04273615
#
# Stress axis : x y z
#
# Youngs Moduli (GPa) = 90.96230 67.79927 29.01134
#
# Poissons Ratio (x) = 0.21336 0.20065
# Poissons Ratio (y) = 0.28625 -0.03844
# Poissons Ratio (z) = 0.62911 -0.08984
#
# Static dielectric constant tensor:
#      x y z
#    x 1.957120 0.000000 -0.020350 
#    y 0.000000 1.901960 0.000000 
#    z -0.020350 0.000000 1.926650 
# 
# From -- ./inp_files/46494.got.cif
#   From: 2010.05.17/outbox.cif.g08.bks.cpg/sg5_24_cif.got.tgz:46494.got - 2010.06.03 18:56:24.
