data_PCOD9126147
_publ_section_title
;
Structure prediction by ZEFSAII (Michael W. Deem and Ramdas Pophale) SiO2 
 PCOD9126147
Probable space group: C 2
;
_chemical_formula_sum "Si O2"
_cell_formula_units_Z 28
_cell_length_a 28.717622
_cell_length_b 8.957436
_cell_length_c 5.652769
_cell_angle_alpha 90.000000
_cell_angle_beta 58.709752
_cell_angle_gamma 90.000000
_cell_volume 1242.594720
_symmetry_space_group_name_H-M "C 2"
_symmetry_group_IT_number 5
_symmetry_cell_setting 'monoclinic'
loop_
_space_group_symop_operation_xyz
x,y,z
-x,y,-z
1/2+x,1/2+y,z
1/2-x,1/2+y,-z
loop_
_atom_site_type_symbol
_atom_site_label
_atom_site_fract_x
_atom_site_fract_y
_atom_site_fract_z
Si Si1 0.249973 0.883350 0.178303
Si Si2 0.382952 0.175248 0.050322
Si Si3 0.892059 0.563207 0.525332
Si Si4 0.143861 0.251011 0.371848
Si Si5 0.222525 0.150537 0.536577
Si Si6 0.338299 0.461260 0.939554
Si Si7 0.497944 0.275496 0.253922
O O1 0.247115 0.786738 0.424552
O O2 0.194246 0.872098 0.177289
O O3 0.251724 0.055292 0.257663
O O4 0.301903 0.824484 0.895115
O O5 0.362700 0.109153 0.354408
O O6 0.366858 0.091369 0.851978
O O7 0.369476 0.348190 0.028398
O O8 0.448781 0.170552 0.890397
O O9 0.899201 0.384391 0.497590
O O10 0.944531 0.671732 0.393283
O O11 0.165937 0.205237 0.571174
O O12 0.129673 0.098612 0.269447
O O13 0.208284 0.042521 0.788626
O O14 0.500000 0.358582 0.500000
O O15 0.500000 0.362630 0.000000
#
# Coordination Sequence:
#
# PCOD9126147 Si02
#       7
#     4   4   4   4   4   4   4
#     4  10  22  40  56  82 122 164 218 254 320 364
#     4  10  22  38  65  97 120 162 213 266 320 382
#     4  10  22  38  65  97 120 162 213 266 320 382
#     4  10  23  40  57  88 126 170 214 265 323 381
#     4  10  22  40  58  78 121 171 208 270 306 380
#     4  10  23  40  57  88 126 170 214 265 323 381
#     4   8  16  36  60  90 120 148 194 268 314 370
#
# _framework density 22.533494000000001
#
# number of rings (size 3 to 8) (size 9 to 14) (size 15 to 20)
#    0.000    2.286    0.000    0.857    8.000    5.714 
#    2.571    0.000    0.000    7.714    0.000    0.000 
#    0.000    0.000    0.000    0.000    0.000    0.000 
#
# Total GULP energy -78042.001944 kJ/mol
# GULP energy per Si atom -5574.428710 kJ/mol
# Density = 2.248221 g / cm^3
# Si number density = 22.533494 Si / 1000 Ang^3
#
#
#
# Elastic Constant Matrix: (Units=GPa)
#
#
# Indices 1 2 3 4 5 6 
#
# 1 52.5758 20.4259 31.5765 0.0000 24.8367 0.0000
# 2 20.4259 82.3818 0.8379 0.0000 23.6927 0.0000
# 3 31.5765 0.8379 76.4449 0.0000 47.8630 0.0000
# 4 0.0000 0.0000 0.0000 30.0154 0.0000 16.4477
# 5 24.8367 23.6927 47.8630 0.0000 48.5617 0.0000
# 6 0.0000 0.0000 0.0000 16.4477 0.0000 13.4713
#
#
#
# Elastic Compliance Matrix: (Units=1/GPa)
#
#
# Indices 1 2 3 4 5 6 
#
# 1 0.028893 -0.007434 -0.012724 0.000000 0.001391 0.000000
# 2 -0.007434 0.020603 0.017650 0.000000 -0.023645 0.000000
# 3 -0.012724 0.017650 0.050825 0.000000 -0.052197 0.000000
# 4 0.000000 0.000000 0.000000 0.100666 0.000000 -0.122907
# 5 0.001391 -0.023645 -0.052197 0.000000 0.082863 0.000000
# 6 0.000000 0.000000 0.000000 -0.122907 0.000000 0.224293
#
#
# Mechanical properties :
#
#
# Convention : Reuss Voigt Hill
#
# Bulk Modulus (GPa) = 10.49284 35.23143 22.86214
# Shear Modulus (GPa) = 9.17551 28.98050 19.07800
#
# Velocity S-wave (km/s) = 2.02009 3.59012 2.91288
# Velocity P-wave (km/s) = 3.17926 5.73188 4.63477
#
# Compressibility (1/GPa) = 0.09530311
#
# Stress axis : x y z
#
# Youngs Moduli (GPa) = 34.60988 48.53735 19.67539
#
# Poissons Ratio (x) = 0.36085 0.25035
# Poissons Ratio (y) = 0.25731 -0.34726
# Poissons Ratio (z) = 0.44038 -0.85667
#
# Static dielectric constant tensor:
#      x y z
#    x 1.845160 0.000000 0.022450 
#    y 0.000000 1.839740 0.000000 
#    z 0.022450 0.000000 1.908360 
# 
# From -- ./inp_files/11126.got.cif
#   From: 2010.05.17/outbox.cif.g08.bks.cpg/sg5_6_cif.got.tgz:11126.got - 2010.06.03 18:56:24.
