data_PCOD9126348
_publ_section_title
;
Structure prediction by ZEFSAII (Michael W. Deem and Ramdas Pophale) SiO2 
 PCOD9126348
Probable space group: C 2
;
_chemical_formula_sum "Si O2"
_cell_formula_units_Z 28
_cell_length_a 26.488003
_cell_length_b 10.290543
_cell_length_c 8.224420
_cell_angle_alpha 90.000000
_cell_angle_beta 141.733850
_cell_angle_gamma 90.000000
_cell_volume 1388.367971
_symmetry_space_group_name_H-M "C 2"
_symmetry_group_IT_number 5
_symmetry_cell_setting 'monoclinic'
loop_
_space_group_symop_operation_xyz
x,y,z
-x,y,-z
1/2+x,1/2+y,z
1/2-x,1/2+y,-z
loop_
_atom_site_type_symbol
_atom_site_label
_atom_site_fract_x
_atom_site_fract_y
_atom_site_fract_z
Si Si1 0.813101 0.369210 0.792348
Si Si2 0.372752 0.584412 0.980517
Si Si3 0.500000 0.719871 0.500000
Si Si4 0.500000 0.170921 0.500000
Si Si5 0.898579 0.432600 0.356643
Si Si6 0.364940 0.287194 0.584359
Si Si7 0.028634 0.848287 0.849698
Si Si8 0.696575 0.997260 0.576491
O O1 0.840294 0.219903 0.824063
O O2 0.715886 0.370756 0.583067
O O3 0.830373 0.450256 0.671841
O O4 0.856659 0.410913 0.072395
O O5 0.294342 0.498709 0.821745
O O6 0.423947 0.631767 0.264372
O O7 0.437109 0.493977 0.051273
O O8 0.467471 0.821283 0.551880
O O9 0.548569 0.268919 0.738180
O O10 0.443427 0.071695 0.458428
O O11 0.838805 0.421866 0.358008
O O12 0.430886 0.343029 0.624290
O O13 0.331534 0.144799 0.462357
O O14 0.421460 0.274849 0.885443
#
# Coordination Sequence:
#
# PCOD9126348 Si02
#       8
#     4   4   2   2   4   4   4   4
#     4  10  22  43  64  93 129 167 214 262 316 385
#     4  10  22  41  63  91 131 167 208 264 321 376
#     4   9  21  44  58  92 131 161 212 264 308 393
#     4  11  21  38  64 100 117 167 220 258 322 381
#     4  10  22  41  66  92 126 164 217 265 313 375
#     4  10  22  40  61  92 129 165 214 262 316 382
#     4  11  21  39  64  90 131 164 206 268 319 372
#     4  11  21  44  66  93 125 169 212 266 316 376
#
# _framework density 20.167563999999999
#
# number of rings (size 3 to 8) (size 9 to 14) (size 15 to 20)
#    0.000    1.714    2.857    1.286    0.000    2.286 
#    7.714    0.000    0.000    0.000    0.000    0.000 
#    0.000    0.000    0.000    0.000    0.000    0.000 
#
# Total GULP energy -77952.869029 kJ/mol
# GULP energy per Si atom -5568.062073 kJ/mol
# Density = 2.012166 g / cm^3
# Si number density = 20.167564 Si / 1000 Ang^3
#
#
#
# Elastic Constant Matrix: (Units=GPa)
#
#
# Indices 1 2 3 4 5 6 
#
# 1 92.3595 23.2167 11.0066 0.0000 8.5066 0.0000
# 2 23.2167 42.7255 -1.3230 0.0000 10.1177 0.0000
# 3 11.0066 -1.3230 48.8947 0.0000 7.7821 0.0000
# 4 0.0000 0.0000 0.0000 14.8840 0.0000 2.3686
# 5 8.5066 10.1177 7.7821 0.0000 32.8149 0.0000
# 6 0.0000 0.0000 0.0000 2.3686 0.0000 15.6162
#
#
#
# Elastic Compliance Matrix: (Units=1/GPa)
#
#
# Indices 1 2 3 4 5 6 
#
# 1 0.013006 -0.007048 -0.003043 0.000000 -0.000477 0.000000
# 2 -0.007048 0.029258 0.003662 0.000000 -0.008062 0.000000
# 3 -0.003043 0.003662 0.022125 0.000000 -0.005587 0.000000
# 4 0.000000 0.000000 0.000000 0.068848 0.000000 -0.010443
# 5 -0.000477 -0.008062 -0.005587 0.000000 0.034408 0.000000
# 6 0.000000 0.000000 0.000000 -0.010443 0.000000 0.065620
#
#
# Mechanical properties :
#
#
# Convention : Reuss Voigt Hill
#
# Bulk Modulus (GPa) = 19.40622 27.75336 23.57979
# Shear Modulus (GPa) = 18.98973 22.73500 20.86236
#
# Velocity S-wave (km/s) = 3.07188 3.36118 3.21978
# Velocity P-wave (km/s) = 4.71437 5.37165 5.05371
#
# Compressibility (1/GPa) = 0.05152987
#
# Stress axis : x y z
#
# Youngs Moduli (GPa) = 76.89047 34.17891 45.19702
#
# Poissons Ratio (x) = 0.24091 0.13751
# Poissons Ratio (y) = 0.54196 -0.16549
# Poissons Ratio (z) = 0.23394 -0.12515
#
# Static dielectric constant tensor:
#      x y z
#    x 1.780780 0.000000 -0.001330 
#    y 0.000000 1.770430 0.000000 
#    z -0.001330 0.000000 1.730680 
# 
# From -- ./inp_files/32534.got.cif
#   From: 2010.05.17/outbox.cif.g08.bks.cpg/sg5_17_cif.got.tgz:32534.got - 2010.06.03 18:56:24.
