data_PCOD9126767
_publ_section_title
;
Structure prediction by ZEFSAII (Michael W. Deem and Ramdas Pophale) SiO2 
 PCOD9126767
Probable space group: C 2
;
_chemical_formula_sum "Si O2"
_cell_formula_units_Z 32
_cell_length_a 5.544848
_cell_length_b 13.726046
_cell_length_c 17.367655
_cell_angle_alpha 90.000000
_cell_angle_beta 91.128656
_cell_angle_gamma 90.000000
_cell_volume 1321.575599
_symmetry_space_group_name_H-M "C 2"
_symmetry_group_IT_number 5
_symmetry_cell_setting 'monoclinic'
loop_
_space_group_symop_operation_xyz
x,y,z
-x,y,-z
1/2+x,1/2+y,z
1/2-x,1/2+y,-z
loop_
_atom_site_type_symbol
_atom_site_label
_atom_site_fract_x
_atom_site_fract_y
_atom_site_fract_z
Si Si1 0.389853 0.294590 0.716412
Si Si2 0.752420 0.038729 0.543194
Si Si3 0.756994 0.641399 0.296230
Si Si4 0.048887 0.992897 0.915033
Si Si5 0.635394 0.664003 0.831221
Si Si6 0.391065 0.833066 0.912896
Si Si7 0.147543 0.468580 0.792877
Si Si8 0.749828 0.804904 0.545895
O O1 0.658157 0.253688 0.704632
O O2 0.321749 0.237891 0.794438
O O3 0.318188 0.404513 0.736497
O O4 0.263956 0.266101 0.634141
O O5 0.500000 0.062654 0.500000
O O6 0.767550 0.101946 0.619409
O O7 0.000000 0.056987 0.500000
O O8 0.745506 0.922280 0.556126
O O9 0.519346 0.633509 0.243988
O O10 0.937141 0.561859 0.256551
O O11 0.230933 0.070168 0.877322
O O12 0.126737 0.880016 0.917007
O O13 0.813150 0.004442 0.863379
O O14 0.000000 0.024416 0.000000
O O15 0.462498 0.724622 0.888717
O O16 0.477229 0.893892 0.837214
O O17 0.500000 0.852856 0.000000
O O18 0.500000 0.779238 0.500000
O O19 0.000000 0.783636 0.500000
#
# Coordination Sequence:
#
# PCOD9126767 Si02
#       8
#     4   4   4   4   4   4   4   4
#     4  11  23  42  65  95 132 177 225 283 346 417
#     4  10  23  45  71 101 138 185 236 292 359 429
#     4  11  23  42  65  95 132 177 225 283 346 417
#     4  11  21  40  66  93 129 175 219 277 344 417
#     4  10  25  40  61  98 132 166 230 286 343 406
#     4  11  21  40  66  93 129 175 219 277 344 417
#     4  10  22  42  64  94 130 168 228 270 346 410
#     4  10  23  45  71 101 138 185 236 292 359 429
#
# _framework density 24.213521
#
# number of rings (size 3 to 8) (size 9 to 14) (size 15 to 20)
#    0.000    1.500    2.500    1.875    3.500    0.500 
#    0.000    0.000    0.000    0.000    0.000    0.000 
#    0.000    0.000    0.000    0.000    0.000    0.000 
#
# Total GULP energy -89248.267845 kJ/mol
# GULP energy per Si atom -5578.016740 kJ/mol
# Density = 2.415841 g / cm^3
# Si number density = 24.213521 Si / 1000 Ang^3
#
#
#
# Elastic Constant Matrix: (Units=GPa)
#
#
# Indices 1 2 3 4 5 6 
#
# 1 75.1249 6.6112 43.8957 0.0000 1.6412 0.0000
# 2 6.6112 104.3042 17.4951 0.0000 -6.8261 0.0000
# 3 43.8957 17.4951 155.5233 0.0000 0.3103 0.0000
# 4 0.0000 0.0000 0.0000 26.3088 0.0000 8.9913
# 5 1.6412 -6.8261 0.3103 0.0000 30.5283 0.0000
# 6 0.0000 0.0000 0.0000 8.9913 0.0000 33.1535
#
#
#
# Elastic Compliance Matrix: (Units=1/GPa)
#
#
# Indices 1 2 3 4 5 6 
#
# 1 0.015970 -0.000320 -0.004470 0.000000 -0.000885 0.000000
# 2 -0.000320 0.009928 -0.001031 0.000000 0.002248 0.000000
# 3 -0.004470 -0.001031 0.007808 0.000000 -0.000070 0.000000
# 4 0.000000 0.000000 0.000000 0.041893 0.000000 -0.011361
# 5 -0.000885 0.002248 -0.000070 0.000000 0.033307 0.000000
# 6 0.000000 0.000000 0.000000 -0.011361 0.000000 0.033244
#
#
# Mechanical properties :
#
#
# Convention : Reuss Voigt Hill
#
# Bulk Modulus (GPa) = 45.32360 52.32848 48.82604
# Shear Modulus (GPa) = 31.02772 35.79483 33.41127
#
# Velocity S-wave (km/s) = 3.58358 3.84904 3.71868
# Velocity P-wave (km/s) = 5.99013 6.43519 6.21664
#
# Compressibility (1/GPa) = 0.02206356
#
# Stress axis : x y z
#
# Youngs Moduli (GPa) = 62.61587 100.72891 128.08086
#
# Poissons Ratio (x) = 0.03228 0.57249
# Poissons Ratio (y) = 0.02007 0.13203
# Poissons Ratio (z) = 0.27988 0.10383
#
# Static dielectric constant tensor:
#      x y z
#    x 2.056600 0.000000 -0.107030 
#    y 0.000000 2.059990 0.000000 
#    z -0.107030 0.000000 1.905300 
# 
# From -- ./inp_files/58888.got.cif
#   From: 2010.05.17/outbox.cif.g08.bks.cpg/sg5_30_cif.got.tgz:58888.got - 2010.06.03 18:56:24.
